@<TRIPOS>MOLECULE
NONAME
37 38 1 0 0 
SMALL
USER_CHARGES


@<TRIPOS>ATOM
  1 F        0.1050    -0.1230     1.1310 F     1 <1>  -0.3400 
  2 C        0.3940    -1.2530     0.4990 C.3   1 <1>   1.1640 
  3 F        1.1260    -1.9750     1.3390 F     1 <1>  -0.3400 
  4 F        1.1960    -0.9260    -0.5070 F     1 <1>  -0.3400 
  5 C       -0.8770    -1.9840     0.0330 C.ar  1 <1>  -0.1440 
  6 C       -1.4480    -1.6990    -1.2030 C.ar  1 <1>  -0.1500 
  7 C       -1.4870    -2.9410     0.8380 C.ar  1 <1>  -0.1500 
  8 C       -2.5950    -2.3490    -1.6220 C.ar  1 <1>  -0.1500 
  9 C       -2.6340    -3.5930     0.4210 C.ar  1 <1>  -0.1500 
 10 C       -3.2000    -3.2960    -0.8090 C.ar  1 <1>  -0.1430 
 11 C       -4.4690    -3.9950    -1.2590 C.3   1 <1>   0.4870 
 12 N       -5.6120    -3.4600    -0.4700 N.4   1 <1>  -0.9590 
 13 C       -6.8100    -4.3310    -0.6190 C.3   1 <1>   0.3430 
 14 C       -5.8510    -2.0230    -0.7920 C.3   1 <1>   0.3430 
 15 C       -7.6570    -4.2640     0.6510 C.3   1 <1>  -0.1600 
 16 C       -6.8430    -1.3690     0.1710 C.3   1 <1>  -0.1600 
 17 C       -8.6730    -3.1100     0.7000 C.3   1 <1>  -0.1600 
 18 C       -8.2920    -1.8260    -0.0490 C.3   1 <1>  -0.1600 
 19 H       -0.9970    -0.9640    -1.8500 H     1 <1>   0.1500 
 20 H       -1.0670    -3.1860     1.8010 H     1 <1>   0.1500 
 21 H       -3.0040    -2.1060    -2.5890 H     1 <1>   0.1500 
 22 H       -3.0700    -4.3340     1.0700 H     1 <1>   0.1500 
 23 H       -4.3640    -5.0550    -1.0880 H     1 <1>   0.0800 
 24 H       -4.6310    -3.8340    -2.3120 H     1 <1>   0.0800 
 25 H       -5.3190    -3.4910     0.5130 H     1 <1>   0.4500 
 26 H       -6.4910    -5.3520    -0.7530 H     1 <1>   0.0800 
 27 H       -7.3920    -4.0450    -1.4800 H     1 <1>   0.0800 
 28 H       -6.2130    -1.9260    -1.8020 H     1 <1>   0.0800 
 29 H       -4.9180    -1.4840    -0.7230 H     1 <1>   0.0800 
 30 H       -7.0160    -4.2230     1.5140 H     1 <1>   0.0800 
 31 H       -8.2120    -5.1820     0.7290 H     1 <1>   0.0800 
 32 H       -6.8080    -0.3100    -0.0200 H     1 <1>   0.0800 
 33 H       -6.5400    -1.5080     1.1940 H     1 <1>   0.0800 
 34 H       -8.8570    -2.8690     1.7350 H     1 <1>   0.0800 
 35 H       -9.6110    -3.4560     0.2980 H     1 <1>   0.0800 
 36 H       -8.4820    -1.9450    -1.1020 H     1 <1>   0.0800 
 37 H       -8.9520    -1.0450     0.2930 H     1 <1>   0.0800 
@<TRIPOS>BOND
  1   1   2  1   
  2   2   3  1   
  3   2   4  1   
  4   2   5  1   
  5   5   6  ar  
  6   5   7  ar  
  7   6   8  ar  
  8   6  19  1   
  9   7   9  ar  
 10   7  20  1   
 11   8  10  ar  
 12   8  21  1   
 13   9  10  ar  
 14   9  22  1   
 15  10  11  1   
 16  11  12  1   
 17  11  23  1   
 18  11  24  1   
 19  12  13  1   
 20  12  14  1   
 21  12  25  1   
 22  13  15  1   
 23  13  26  1   
 24  13  27  1   
 25  14  16  1   
 26  14  28  1   
 27  14  29  1   
 28  15  17  1   
 29  15  30  1   
 30  15  31  1   
 31  16  18  1   
 32  16  32  1   
 33  16  33  1   
 34  17  18  1   
 35  17  34  1   
 36  17  35  1   
 37  18  36  1   
 38  18  37  1   
@<TRIPOS>SUBSTRUCTURE
  1 ****  10 GROUP 4 **** **** 0

# MOE 2024.06 (io_trps.svl 2023.06)
