@<TRIPOS>MOLECULE
NONAME
33 33 1 0 0 
SMALL
USER_CHARGES


@<TRIPOS>ATOM
  1 CL       0.1400     0.3820    -1.5240 Cl    1 <1>  -0.1770 
  2 C        1.7570     0.3020    -0.8790 C.ar  1 <1>   0.1770 
  3 C        1.9930     0.7060     0.4200 C.ar  1 <1>  -0.1500 
  4 C        2.7850    -0.1640    -1.6750 C.ar  1 <1>  -0.1500 
  5 C        3.2790     0.6390     0.9250 C.ar  1 <1>  -0.1500 
  6 C        4.0680    -0.2260    -1.1590 C.ar  1 <1>  -0.1500 
  7 C        4.3440     0.1730     0.1510 C.ar  1 <1>   0.0280 
  8 C        5.6670     0.1210     0.7220 C.2   1 <1>  -0.1780 
  9 C        6.8080    -0.3820     0.1920 C.2   1 <1>  -0.1360 
 10 C        8.1040    -0.4050     0.8090 C.2   1 <1>   0.6160 
 11 O        8.2800     0.0620     1.9160 O.2   1 <1>  -0.5700 
 12 N        9.1580    -0.9620     0.1480 N.am  1 <1>  -0.7300 
 13 C       10.5420    -1.0170     0.6590 C.3   1 <1>   0.1400 
 14 C       11.5140    -0.8530    -0.5070 C.3   1 <1>  -0.1600 
 15 C       12.9580    -0.8650    -0.0130 C.3   1 <1>   0.1200 
 16 O       13.7810    -0.7590    -1.1250 O.3   1 <1>  -0.5600 
 17 C       15.1390    -0.7340    -0.8240 C.3   1 <1>   0.0400 
 18 H        1.1790     1.0660     1.0230 H     1 <1>   0.1500 
 19 H        2.5780    -0.4720    -2.6840 H     1 <1>   0.1500 
 20 H        3.4610     0.9540     1.9380 H     1 <1>   0.1500 
 21 H        4.8580    -0.5860    -1.7900 H     1 <1>   0.1500 
 22 H        5.7300     0.5470     1.7090 H     1 <1>   0.1500 
 23 H        6.7990    -0.8210    -0.7830 H     1 <1>   0.1500 
 24 H        9.0120    -1.3840    -0.7690 H     1 <1>   0.3700 
 25 H       10.6950    -0.2310     1.3810 H     1 <1>   0.0800 
 26 H       10.7000    -1.9640     1.1480 H     1 <1>   0.0800 
 27 H       11.3250     0.0850    -0.9990 H     1 <1>   0.0800 
 28 H       11.3790    -1.6600    -1.2040 H     1 <1>   0.0800 
 29 H       13.1830    -1.7870     0.4950 H     1 <1>   0.0800 
 30 H       13.1450    -0.0270     0.6390 H     1 <1>   0.0800 
 31 H       15.6840    -0.6530    -1.7480 H     1 <1>   0.0800 
 32 H       15.4090    -1.6480    -0.3230 H     1 <1>   0.0800 
 33 H       15.3500     0.1180    -0.2020 H     1 <1>   0.0800 
@<TRIPOS>BOND
  1   1   2  1   
  2   2   3  ar  
  3   2   4  ar  
  4   3   5  ar  
  5   3  18  1   
  6   4   6  ar  
  7   4  19  1   
  8   5   7  ar  
  9   5  20  1   
 10   6   7  ar  
 11   6  21  1   
 12   7   8  1   
 13   8   9  2   
 14   8  22  1   
 15   9  10  1   
 16   9  23  1   
 17  10  11  2   
 18  10  12  am  
 19  12  13  1   
 20  12  24  1   
 21  13  14  1   
 22  13  25  1   
 23  13  26  1   
 24  14  15  1   
 25  14  27  1   
 26  14  28  1   
 27  15  16  1   
 28  15  29  1   
 29  15  30  1   
 30  16  17  1   
 31  17  31  1   
 32  17  32  1   
 33  17  33  1   
@<TRIPOS>SUBSTRUCTURE
  1 ****   9 GROUP 4 **** **** 0

# MOE 2024.06 (io_trps.svl 2023.06)
