@<TRIPOS>MOLECULE
NONAME
43 44 1 0 0 
SMALL
USER_CHARGES


@<TRIPOS>ATOM
  1 CL      -0.1530    -0.7340     0.9760 Cl    1 <1>  -0.1770 
  2 C        1.3250     0.1270     0.6020 C.ar  1 <1>   0.1770 
  3 C        1.2730     1.4050     0.0490 C.ar  1 <1>   0.0830 
  4 C        2.5300    -0.4880     0.8650 C.ar  1 <1>  -0.1500 
  5 O        0.1070     2.0200    -0.2210 O.3   1 <1>  -0.3630 
  6 C        2.4540     2.0530    -0.2490 C.ar  1 <1>  -0.1500 
  7 C        3.7420     0.1530     0.5770 C.ar  1 <1>   0.0280 
  8 C       -0.5570     2.6410     0.8710 C.3   1 <1>   0.1810 
  9 C        3.6690     1.4400     0.0170 C.ar  1 <1>   0.0830 
 10 C        5.0450    -0.4140     0.8150 C.2   1 <1>  -0.1670 
 11 C       -1.7360     3.4910     0.4020 C.2   1 <1>   0.5690 
 12 O        4.7920     2.1230    -0.2750 O.3   1 <1>  -0.2330 
 13 C        6.1470     0.3310     0.5230 C.2   1 <1>  -0.1240 
 14 C        5.1000    -1.8400     1.3690 C.3   1 <1>  -0.1020 
 15 O       -1.7030     4.6690     0.6800 O.2   1 <1>  -0.5700 
 16 N       -2.7980     2.9400    -0.2840 N.am  1 <1>  -0.6600 
 17 C        6.0140     1.6500    -0.0360 C.2   1 <1>   0.7060 
 18 C        7.5840    -0.1590     0.7420 C.3   1 <1>   0.0390 
 19 C       -3.9160     3.7810    -0.7960 C.3   1 <1>   0.0600 
 20 C       -2.8960     1.5010    -0.6590 C.3   1 <1>   0.0600 
 21 O        6.9500     2.3800    -0.2950 O.2   1 <1>  -0.5700 
 22 C        8.0480    -1.0350    -0.4030 C.2   1 <1>   0.6590 
 23 O        8.2910    -2.2030    -0.2390 O.2   1 <1>  -0.5700 
 24 O        8.1660    -0.4470    -1.5870 O.3   1 <1>  -0.4300 
 25 C        8.5870    -1.1560    -2.7330 C.3   1 <1>   0.0400 
 26 H        2.5110    -1.4710     1.2940 H     1 <1>   0.1500 
 27 H        2.4310     3.0360    -0.6870 H     1 <1>   0.1500 
 28 H        0.1500     3.2710     1.3790 H     1 <1>   0.0800 
 29 H       -0.9030     1.8810     1.5450 H     1 <1>   0.0800 
 30 H        4.6670    -1.8700     2.3540 H     1 <1>   0.0800 
 31 H        6.0950    -2.2340     1.4360 H     1 <1>   0.0800 
 32 H        4.5470    -2.5030     0.7270 H     1 <1>   0.0800 
 33 H        7.6560    -0.7140     1.6580 H     1 <1>   0.0800 
 34 H        8.2710     0.6620     0.8370 H     1 <1>   0.0800 
 35 H       -3.7630     4.8180    -0.5480 H     1 <1>   0.0800 
 36 H       -4.8440     3.4580    -0.3580 H     1 <1>   0.0800 
 37 H       -3.9770     3.6920    -1.8660 H     1 <1>   0.0800 
 38 H       -2.3250     0.8860     0.0120 H     1 <1>   0.0800 
 39 H       -2.5220     1.3650    -1.6600 H     1 <1>   0.0800 
 40 H       -3.9220     1.1800    -0.6200 H     1 <1>   0.0800 
 41 H        8.6110    -0.4740    -3.5640 H     1 <1>   0.0800 
 42 H        7.8890    -1.9520    -2.9260 H     1 <1>   0.0800 
 43 H        9.5690    -1.5570    -2.5530 H     1 <1>   0.0800 
@<TRIPOS>BOND
  1   1   2  1   
  2   2   3  ar  
  3   2   4  ar  
  4   3   5  1   
  5   3   6  ar  
  6   4   7  ar  
  7   4  26  1   
  8   5   8  1   
  9   6   9  ar  
 10   6  27  1   
 11   7   9  ar  
 12   7  10  1   
 13   8  11  1   
 14   8  28  1   
 15   8  29  1   
 16   9  12  1   
 17  10  13  2   
 18  10  14  1   
 19  11  15  2   
 20  11  16  am  
 21  12  17  1   
 22  13  17  1   
 23  13  18  1   
 24  14  30  1   
 25  14  31  1   
 26  14  32  1   
 27  16  19  1   
 28  16  20  1   
 29  17  21  2   
 30  18  22  1   
 31  18  33  1   
 32  18  34  1   
 33  19  35  1   
 34  19  36  1   
 35  19  37  1   
 36  20  38  1   
 37  20  39  1   
 38  20  40  1   
 39  22  23  2   
 40  22  24  1   
 41  24  25  1   
 42  25  41  1   
 43  25  42  1   
 44  25  43  1   
@<TRIPOS>SUBSTRUCTURE
  1 ****   9 GROUP 4 **** **** 0

# MOE 2024.06 (io_trps.svl 2023.06)
