@<TRIPOS>MOLECULE
ka-07329
24 23 1 0 0 
SMALL
USER_CHARGES


@<TRIPOS>ATOM
  1 O        0.6610     0.0600    -1.4100 O.co2 1 <1>  -0.9000 
  2 C        1.6140    -0.0890    -0.6280 C.2   1 <1>   0.9060 
  3 O        1.9320     0.8270     0.1500 O.co2 1 <1>  -0.9000 
  4 C        2.4120    -1.4040    -0.6830 C.3   1 <1>   0.0940 
  5 O        3.4120    -1.4890     0.3360 O.3   1 <1>  -0.4300 
  6 C        1.4920    -2.6330    -0.5990 C.3   1 <1>   0.0940 
  7 C        4.6190    -0.9730     0.2050 C.2   1 <1>   0.6590 
  8 O        0.9650    -2.7860     0.7330 O.3   1 <1>  -0.4300 
  9 C        2.1970    -3.8890    -1.1330 C.2   1 <1>   0.9060 
 10 O        5.0520    -0.5000    -0.8150 O.2   1 <1>  -0.5700 
 11 C        5.4570    -1.0230     1.4540 C.3   1 <1>  -0.1790 
 12 C        0.0870    -3.7090     1.1100 C.2   1 <1>   0.6590 
 13 O        1.9700    -4.2300    -2.3030 O.co2 1 <1>  -0.9000 
 14 O        2.8950    -4.6050    -0.4000 O.co2 1 <1>  -0.9000 
 15 O       -0.2890    -3.7660     2.2520 O.2   1 <1>  -0.5700 
 16 C       -0.4930    -4.6770     0.0980 C.3   1 <1>  -0.1790 
 17 H        2.9050    -1.4250    -1.6360 H     1 <1>   0.0800 
 18 H        0.6570    -2.4530    -1.2490 H     1 <1>   0.0800 
 19 H        5.5530    -2.0440     1.7710 H     1 <1>   0.0800 
 20 H        4.9670    -0.4540     2.2220 H     1 <1>   0.0800 
 21 H        6.4270    -0.6090     1.2600 H     1 <1>   0.0800 
 22 H       -0.8050    -4.1570    -0.7870 H     1 <1>   0.0800 
 23 H       -1.3420    -5.1740     0.5250 H     1 <1>   0.0800 
 24 H        0.2440    -5.4160    -0.1570 H     1 <1>   0.0800 
@<TRIPOS>BOND
  1   1   2  ar  
  2   2   3  ar  
  3   2   4  1   
  4   4   5  1   
  5   4   6  1   
  6   4  17  1   
  7   5   7  1   
  8   6   8  1   
  9   6   9  1   
 10   6  18  1   
 11   7  10  2   
 12   7  11  1   
 13   8  12  1   
 14   9  13  ar  
 15   9  14  ar  
 16  11  19  1   
 17  11  20  1   
 18  11  21  1   
 19  12  15  2   
 20  12  16  1   
 21  16  22  1   
 22  16  23  1   
 23  16  24  1   
@<TRIPOS>SUBSTRUCTURE
  1 ****   6 GROUP 4 **** **** 0

# MOE 2024.06 (io_trps.svl 2023.06)
