@<TRIPOS>MOLECULE
NONAME
58 60 1 0 0 
SMALL
USER_CHARGES


@<TRIPOS>ATOM
  1 O       -0.7430    -0.7620    -0.7720 O.3   1 <1>  -0.3630 
  2 C       -1.9140    -0.9600    -0.1230 C.ar  1 <1>   0.0830 
  3 C        0.4270    -0.8920     0.0060 C.3   1 <1>   0.0400 
  4 C       -2.4200    -0.0590     0.8210 C.ar  1 <1>   0.0830 
  5 C       -2.6160    -2.1140    -0.4220 C.ar  1 <1>  -0.1500 
  6 O       -1.8260     1.1200     1.1390 O.3   1 <1>  -0.3630 
  7 C       -3.5940    -0.3600     1.4880 C.ar  1 <1>  -0.1500 
  8 C       -3.8070    -2.4030     0.2380 C.ar  1 <1>   0.0830 
  9 C       -1.5510     2.0230     0.0870 C.3   1 <1>   0.0400 
 10 C       -4.2910    -1.5250     1.2030 C.ar  1 <1>  -0.1440 
 11 O       -4.5440    -3.5210    -0.0210 O.3   1 <1>  -0.3630 
 12 C       -5.5780    -1.8310     1.9430 C.3   1 <1>   0.4860 
 13 C       -4.0150    -4.5630    -0.8200 C.3   1 <1>   0.0400 
 14 N       -6.6800    -1.9050     0.9540 N.4   1 <1>  -0.9590 
 15 C       -6.9120    -0.5910     0.2520 C.3   1 <1>   0.3430 
 16 C       -7.9490    -2.4580     1.5410 C.3   1 <1>   0.3430 
 17 C       -8.0350    -0.6670    -0.8040 C.3   1 <1>   0.2090 
 18 C       -9.0710    -2.5950     0.4910 C.3   1 <1>   0.2090 
 19 N       -9.2640    -1.3270    -0.2680 N.pl3 1 <1>  -0.8380 
 20 C      -10.3640    -0.5390     0.0740 C.ar  1 <1>   0.1000 
 21 C      -11.6040    -0.7030    -0.5550 C.ar  1 <1>  -0.1430 
 22 C      -10.2340     0.4160     1.0770 C.ar  1 <1>  -0.1500 
 23 C      -12.6900     0.0720    -0.1560 C.ar  1 <1>  -0.1430 
 24 C      -11.7630    -1.7340    -1.6750 C.3   1 <1>  -0.0970 
 25 C      -11.3070     1.1910     1.4610 C.ar  1 <1>  -0.1500 
 26 C      -12.5320     1.0170     0.8470 C.ar  1 <1>  -0.1500 
 27 C      -14.0690    -0.0770    -0.7840 C.3   1 <1>  -0.0970 
 28 H        1.2760    -0.7300    -0.6320 H     1 <1>   0.0800 
 29 H        0.4610    -1.8850     0.4200 H     1 <1>   0.0800 
 30 H        0.4150    -0.1610     0.7940 H     1 <1>   0.0800 
 31 H       -2.2030    -2.7650    -1.1690 H     1 <1>   0.1500 
 32 H       -3.9450     0.3370     2.2300 H     1 <1>   0.1500 
 33 H       -1.3560     2.9890     0.5180 H     1 <1>   0.0800 
 34 H       -2.4040     2.0770    -0.5650 H     1 <1>   0.0800 
 35 H       -0.6850     1.6900    -0.4540 H     1 <1>   0.0800 
 36 H       -5.7800    -1.0680     2.6760 H     1 <1>   0.0800 
 37 H       -5.4710    -2.7780     2.4470 H     1 <1>   0.0800 
 38 H       -3.8770    -4.2020    -1.8250 H     1 <1>   0.0800 
 39 H       -4.7140    -5.3800    -0.8210 H     1 <1>   0.0800 
 40 H       -3.0790    -4.8890    -0.4000 H     1 <1>   0.0800 
 41 H       -6.3300    -2.5700     0.2430 H     1 <1>   0.4500 
 42 H       -6.0040    -0.2670    -0.2310 H     1 <1>   0.0800 
 43 H       -7.1820     0.1590     0.9760 H     1 <1>   0.0800 
 44 H       -8.3020    -1.8020     2.3200 H     1 <1>   0.0800 
 45 H       -7.7630    -3.4240     1.9800 H     1 <1>   0.0800 
 46 H       -7.6890    -1.2180    -1.6600 H     1 <1>   0.0800 
 47 H       -8.2810     0.3280    -1.1380 H     1 <1>   0.0800 
 48 H       -9.9910    -2.8590     0.9840 H     1 <1>   0.0800 
 49 H       -8.8310    -3.3850    -0.1980 H     1 <1>   0.0800 
 50 H       -9.2920     0.5540     1.5660 H     1 <1>   0.1500 
 51 H      -10.8280    -1.9260    -2.1670 H     1 <1>   0.0800 
 52 H      -12.4440    -1.3850    -2.4290 H     1 <1>   0.0800 
 53 H      -12.1330    -2.6560    -1.2680 H     1 <1>   0.0800 
 54 H      -11.1980     1.9290     2.2360 H     1 <1>   0.1500 
 55 H      -13.3640     1.6250     1.1570 H     1 <1>   0.1500 
 56 H      -14.3600    -1.1120    -0.8030 H     1 <1>   0.0800 
 57 H      -14.0570     0.3050    -1.7890 H     1 <1>   0.0800 
 58 H      -14.8100     0.4650    -0.2250 H     1 <1>   0.0800 
@<TRIPOS>BOND
  1   1   2  1   
  2   1   3  1   
  3   2   4  ar  
  4   2   5  ar  
  5   3  28  1   
  6   3  29  1   
  7   3  30  1   
  8   4   6  1   
  9   4   7  ar  
 10   5   8  ar  
 11   5  31  1   
 12   6   9  1   
 13   7  10  ar  
 14   7  32  1   
 15   8  10  ar  
 16   8  11  1   
 17   9  33  1   
 18   9  34  1   
 19   9  35  1   
 20  10  12  1   
 21  11  13  1   
 22  12  14  1   
 23  12  36  1   
 24  12  37  1   
 25  13  38  1   
 26  13  39  1   
 27  13  40  1   
 28  14  15  1   
 29  14  16  1   
 30  14  41  1   
 31  15  17  1   
 32  15  42  1   
 33  15  43  1   
 34  16  18  1   
 35  16  44  1   
 36  16  45  1   
 37  17  19  1   
 38  17  46  1   
 39  17  47  1   
 40  18  19  1   
 41  18  48  1   
 42  18  49  1   
 43  19  20  1   
 44  20  21  ar  
 45  20  22  ar  
 46  21  23  ar  
 47  21  24  1   
 48  22  25  ar  
 49  22  50  1   
 50  23  26  ar  
 51  23  27  1   
 52  24  51  1   
 53  24  52  1   
 54  24  53  1   
 55  25  26  ar  
 56  25  54  1   
 57  26  55  1   
 58  27  56  1   
 59  27  57  1   
 60  27  58  1   
@<TRIPOS>SUBSTRUCTURE
  1 ****  15 GROUP 4 **** **** 0

# MOE 2024.06 (io_trps.svl 2023.06)
