@<TRIPOS>MOLECULE
NONAME
33 33 1 0 0 
SMALL
USER_CHARGES


@<TRIPOS>ATOM
  1 F       -1.8650     1.2220     1.5210 F     1 <1>  -0.1900 
  2 C       -1.0990     2.0790     0.9000 C.ar  1 <1>   0.1900 
  3 C       -1.4990     2.5480    -0.3380 C.ar  1 <1>  -0.1440 
  4 C        0.0730     2.4880     1.5140 C.ar  1 <1>  -0.1500 
  5 C       -0.6660     3.4680    -0.9490 C.ar  1 <1>   0.1900 
  6 C       -2.7760     2.0740    -0.9950 C.3   1 <1>   0.4860 
  7 C        0.8860     3.4100     0.8680 C.ar  1 <1>  -0.1500 
  8 F       -1.0120     3.9500    -2.1110 F     1 <1>  -0.1900 
  9 C        0.5150     3.9060    -0.3730 C.ar  1 <1>  -0.1500 
 10 N       -3.9500     2.6100    -0.2480 N.4   1 <1>  -0.9590 
 11 C       -5.2030     1.9380    -0.6910 C.3   1 <1>   0.3430 
 12 C       -4.0280     4.1040    -0.3610 C.3   1 <1>   0.2630 
 13 C       -6.3240     2.1790     0.3210 C.3   1 <1>  -0.1600 
 14 C       -7.5840     1.3950    -0.0690 C.3   1 <1>  -0.1600 
 15 C       -8.7100     1.6310     0.9410 C.3   1 <1>  -0.2400 
 16 H        0.3460     2.0940     2.4780 H     1 <1>   0.1500 
 17 H       -2.7940     0.9960    -0.9790 H     1 <1>   0.0800 
 18 H       -2.8090     2.3980    -2.0230 H     1 <1>   0.0800 
 19 H        1.8030     3.7390     1.3300 H     1 <1>   0.1500 
 20 H        1.1340     4.6220    -0.8870 H     1 <1>   0.1500 
 21 H       -3.7920     2.3620     0.7410 H     1 <1>   0.4500 
 22 H       -5.0350     0.8750    -0.7670 H     1 <1>   0.0800 
 23 H       -5.4990     2.3020    -1.6620 H     1 <1>   0.0800 
 24 H       -4.1840     4.3960    -1.3870 H     1 <1>   0.0800 
 25 H       -3.1140     4.5560    -0.0110 H     1 <1>   0.0800 
 26 H       -4.8420     4.4850     0.2340 H     1 <1>   0.0800 
 27 H       -6.5720     3.2250     0.3610 H     1 <1>   0.0800 
 28 H       -6.0060     1.8580     1.2980 H     1 <1>   0.0800 
 29 H       -7.3660     0.3410    -0.1070 H     1 <1>   0.0800 
 30 H       -7.9230     1.7020    -1.0460 H     1 <1>   0.0800 
 31 H       -8.4150     1.3080     1.9240 H     1 <1>   0.0800 
 32 H       -9.5850     1.0740     0.6530 H     1 <1>   0.0800 
 33 H       -8.9740     2.6730     0.9830 H     1 <1>   0.0800 
@<TRIPOS>BOND
  1   1   2  1   
  2   2   3  ar  
  3   2   4  ar  
  4   3   5  ar  
  5   3   6  1   
  6   4   7  ar  
  7   4  16  1   
  8   5   8  1   
  9   5   9  ar  
 10   6  10  1   
 11   6  17  1   
 12   6  18  1   
 13   7   9  ar  
 14   7  19  1   
 15   9  20  1   
 16  10  11  1   
 17  10  12  1   
 18  10  21  1   
 19  11  13  1   
 20  11  22  1   
 21  11  23  1   
 22  12  24  1   
 23  12  25  1   
 24  12  26  1   
 25  13  14  1   
 26  13  27  1   
 27  13  28  1   
 28  14  15  1   
 29  14  29  1   
 30  14  30  1   
 31  15  31  1   
 32  15  32  1   
 33  15  33  1   
@<TRIPOS>SUBSTRUCTURE
  1 ****  10 GROUP 4 **** **** 0

# MOE 2024.06 (io_trps.svl 2023.06)
