@<TRIPOS>MOLECULE
NONAME
43 45 1 0 0 
SMALL
USER_CHARGES


@<TRIPOS>ATOM
  1 CL      -0.7800    -0.1660     1.5360 Cl    1 <1>  -0.1770 
  2 C        0.4680     0.5170     0.5120 C.ar  1 <1>   0.1770 
  3 C        0.2720     1.7760    -0.0530 C.ar  1 <1>   0.1170 
  4 C        1.6160    -0.2210     0.2950 C.ar  1 <1>  -0.1500 
  5 N       -0.9240     2.4720     0.2150 N.am  1 <1>  -0.5470 
  6 C        1.2940     2.2810    -0.8550 C.ar  1 <1>  -0.1500 
  7 C        2.6150     0.3010    -0.5080 C.ar  1 <1>  -0.1500 
  8 C       -1.4910     3.5750    -0.3580 C.2   1 <1>   0.5690 
  9 C        2.4500     1.5520    -1.0800 C.ar  1 <1>  -0.1500 
 10 O       -1.0040     4.1890    -1.2730 O.2   1 <1>  -0.5700 
 11 C       -2.8240     4.0430     0.1940 C.3   1 <1>  -0.0990 
 12 C       -3.9570     3.0430    -0.0970 C.3   1 <1>  -0.1600 
 13 C       -5.2980     3.5500     0.4410 C.3   1 <1>   0.1400 
 14 N       -6.3350     2.5190     0.2370 N.am  1 <1>  -0.4200 
 15 C       -6.5180     1.4410     1.0540 C.2   1 <1>   0.5690 
 16 C       -7.2260     2.5070    -0.7970 C.2   1 <1>   0.5690 
 17 O       -5.9650     1.2420     2.1050 O.2   1 <1>  -0.5700 
 18 C       -7.4960     0.4920     0.4020 C.3   1 <1>  -0.0190 
 19 O       -7.2300     3.2490    -1.7450 O.2   1 <1>  -0.5700 
 20 C       -8.2510     1.4250    -0.5480 C.3   1 <1>  -0.0190 
 21 C       -8.4960    -0.3400     1.2100 C.3   1 <1>  -0.0220 
 22 C       -8.8710     0.6090    -1.6860 C.3   1 <1>  -0.0220 
 23 C       -9.4840    -0.9600     0.2200 C.2   1 <1>  -0.2880 
 24 C       -9.6340    -0.5580    -1.0530 C.2   1 <1>  -0.2880 
 25 H        1.7260    -1.1890     0.7490 H     1 <1>   0.1500 
 26 H       -1.4950     2.0250     0.9330 H     1 <1>   0.3700 
 27 H        1.1980     3.2500    -1.3090 H     1 <1>   0.1500 
 28 H        3.5160    -0.2610    -0.6880 H     1 <1>   0.1500 
 29 H        3.2250     1.9620    -1.7050 H     1 <1>   0.1500 
 30 H       -3.0610     4.9930    -0.2530 H     1 <1>   0.0800 
 31 H       -2.7240     4.1920     1.2530 H     1 <1>   0.0800 
 32 H       -3.7250     2.0980     0.3620 H     1 <1>   0.0800 
 33 H       -4.0350     2.9000    -1.1620 H     1 <1>   0.0800 
 34 H       -5.5850     4.4540    -0.0690 H     1 <1>   0.0800 
 35 H       -5.2190     3.7610     1.4950 H     1 <1>   0.0800 
 36 H       -6.9000    -0.1900    -0.1790 H     1 <1>   0.0800 
 37 H       -9.0540     1.8980    -0.0090 H     1 <1>   0.0800 
 38 H       -9.0210     0.2730     1.9230 H     1 <1>   0.0800 
 39 H       -7.9680    -1.1110     1.7450 H     1 <1>   0.0800 
 40 H       -8.1120     0.2380    -2.3520 H     1 <1>   0.0800 
 41 H       -9.5440     1.2350    -2.2470 H     1 <1>   0.0800 
 42 H      -10.0560    -1.7690     0.6460 H     1 <1>   0.1500 
 43 H      -10.3200    -1.0330    -1.7370 H     1 <1>   0.1500 
@<TRIPOS>BOND
  1   1   2  1   
  2   2   3  ar  
  3   2   4  ar  
  4   3   5  1   
  5   3   6  ar  
  6   4   7  ar  
  7   4  25  1   
  8   5   8  am  
  9   5  26  1   
 10   6   9  ar  
 11   6  27  1   
 12   7   9  ar  
 13   7  28  1   
 14   8  10  2   
 15   8  11  1   
 16   9  29  1   
 17  11  12  1   
 18  11  30  1   
 19  11  31  1   
 20  12  13  1   
 21  12  32  1   
 22  12  33  1   
 23  13  14  1   
 24  13  34  1   
 25  13  35  1   
 26  14  15  am  
 27  14  16  am  
 28  15  17  2   
 29  15  18  1   
 30  16  19  2   
 31  16  20  1   
 32  18  20  1   
 33  18  21  1   
 34  18  36  1   
 35  20  22  1   
 36  20  37  1   
 37  21  23  1   
 38  21  38  1   
 39  21  39  1   
 40  22  24  1   
 41  22  40  1   
 42  22  41  1   
 43  23  24  2   
 44  23  42  1   
 45  24  43  1   
@<TRIPOS>SUBSTRUCTURE
  1 ****  12 GROUP 4 **** **** 0

# MOE 2024.06 (io_trps.svl 2023.06)
