@<TRIPOS>MOLECULE
NONAME
32 33 1 0 0 
SMALL
USER_CHARGES


@<TRIPOS>ATOM
  1 S        0.0810    -0.6660     0.1700 S.3   1 <1>  -0.0800 
  2 C        1.4740     0.3460    -0.1500 C.2   1 <1>   0.1660 
  3 C       -0.9640     0.7440     0.3360 C.2   1 <1>  -0.1400 
  4 N        2.7040    -0.1620    -0.3850 N.2   1 <1>  -0.5760 
  5 C        1.1360     1.6590    -0.1260 C.2   1 <1>  -0.0860 
  6 C       -0.2550     1.8760     0.1520 C.2   1 <1>  -0.1500 
  7 C       -2.4250     0.4650     0.6450 C.3   1 <1>   0.0200 
  8 C        3.6130     0.7270    -0.6010 C.2   1 <1>   0.6510 
  9 C        2.1760     2.5960    -0.3700 C.2   1 <1>   0.7160 
 10 C       -3.2450     1.7520     0.7690 C.3   1 <1>  -0.2400 
 11 S        5.2480     0.0940    -0.9230 S.3   1 <1>  -0.3710 
 12 N        3.4370     2.0940    -0.6140 N.am  1 <1>  -0.4200 
 13 O        1.9700     3.8020    -0.3690 O.2   1 <1>  -0.5700 
 14 C        5.0430    -1.7390    -0.7510 C.3   1 <1>   0.2700 
 15 C        4.5600     3.0450    -0.8140 C.3   1 <1>   0.2780 
 16 C        6.3520    -2.4110    -0.9830 C.1   1 <1>   0.3570 
 17 C        5.2160     3.3280     0.5260 C.2   1 <1>  -0.2880 
 18 N        7.3420    -2.9460    -1.1580 N.1   1 <1>  -0.5570 
 19 C        6.4690     3.0010     0.8600 C.2   1 <1>  -0.3000 
 20 H       -0.6450     2.8800     0.1980 H     1 <1>   0.1500 
 21 H       -2.4870    -0.0880     1.5660 H     1 <1>   0.0800 
 22 H       -2.8370    -0.1460    -0.1390 H     1 <1>   0.0800 
 23 H       -2.8580     2.3660     1.5630 H     1 <1>   0.0800 
 24 H       -4.2710     1.5150     0.9870 H     1 <1>   0.0800 
 25 H       -3.2090     2.3070    -0.1520 H     1 <1>   0.0800 
 26 H        4.3180    -2.0560    -1.4780 H     1 <1>   0.0800 
 27 H        4.6860    -1.9350     0.2440 H     1 <1>   0.0800 
 28 H        4.2010     3.9680    -1.2370 H     1 <1>   0.0800 
 29 H        5.2780     2.6460    -1.5080 H     1 <1>   0.0800 
 30 H        4.5510     3.8370     1.2040 H     1 <1>   0.1500 
 31 H        6.9090     3.2160     1.8190 H     1 <1>   0.1500 
 32 H        7.1610     2.4910     0.2110 H     1 <1>   0.1500 
@<TRIPOS>BOND
  1   1   2  1   
  2   1   3  1   
  3   2   4  1   
  4   2   5  2   
  5   3   6  2   
  6   3   7  1   
  7   4   8  2   
  8   5   6  1   
  9   5   9  1   
 10   6  20  1   
 11   7  10  1   
 12   7  21  1   
 13   7  22  1   
 14   8  11  1   
 15   8  12  1   
 16   9  12  am  
 17   9  13  2   
 18  10  23  1   
 19  10  24  1   
 20  10  25  1   
 21  11  14  1   
 22  12  15  1   
 23  14  16  1   
 24  14  26  1   
 25  14  27  1   
 26  15  17  1   
 27  15  28  1   
 28  15  29  1   
 29  16  18  3   
 30  17  19  2   
 31  17  30  1   
 32  19  31  1   
 33  19  32  1   
@<TRIPOS>SUBSTRUCTURE
  1 ****   8 GROUP 4 **** **** 0

# MOE 2024.06 (io_trps.svl 2023.06)
