@<TRIPOS>MOLECULE
NONAME
37 37 1 0 0 
SMALL
USER_CHARGES


@<TRIPOS>ATOM
  1 CL       1.9920     0.0160     3.0250 Cl    1 <1>  -0.1770 
  2 C        2.5540    -0.8150     1.5960 C.ar  1 <1>   0.1770 
  3 C        2.1950    -2.1340     1.4000 C.ar  1 <1>  -0.1500 
  4 C        3.3450    -0.1360     0.6890 C.ar  1 <1>  -0.1500 
  5 C        2.6410    -2.8110     0.2740 C.ar  1 <1>   0.1990 
  6 C        3.7860    -0.7970    -0.4460 C.ar  1 <1>  -0.1500 
  7 N        2.2840    -4.1490     0.0990 N.am  1 <1>  -0.6930 
  8 C        3.4380    -2.1250    -0.6540 C.ar  1 <1>   0.0830 
  9 S        3.3440    -5.4200     0.6080 S.o2  1 <1>   1.3330 
 10 C        0.9350    -4.4460    -0.4670 C.3   1 <1>   0.3370 
 11 O        3.8510    -2.7580    -1.7820 O.3   1 <1>  -0.3630 
 12 O        3.0060    -6.6210    -0.1210 O.2   1 <1>  -0.6500 
 13 O        4.6940    -4.9140     0.5930 O.2   1 <1>  -0.6500 
 14 C        2.8770    -5.6350     2.3140 C.3   1 <1>  -0.1350 
 15 C        0.0850    -5.4200     0.3800 C.2   1 <1>   0.5690 
 16 C        1.0680    -4.8550    -1.9410 C.3   1 <1>  -0.2400 
 17 C        5.2440    -2.8970    -1.9590 C.3   1 <1>   0.0400 
 18 O       -0.7140    -4.9560     1.1590 O.2   1 <1>  -0.5700 
 19 N        0.2540    -6.7690     0.2680 N.am  1 <1>  -0.7300 
 20 C       -0.5200    -7.8090     0.9870 C.3   1 <1>   0.0600 
 21 H        1.5700    -2.6290     2.1200 H     1 <1>   0.1500 
 22 H        3.6070     0.8910     0.8680 H     1 <1>   0.1500 
 23 H        4.3890    -0.2800    -1.1700 H     1 <1>   0.1500 
 24 H        0.3840    -3.5210    -0.4670 H     1 <1>   0.0800 
 25 H        1.8460    -5.9130     2.3970 H     1 <1>   0.0800 
 26 H        3.0340    -4.7240     2.8560 H     1 <1>   0.0800 
 27 H        3.4750    -6.4050     2.7610 H     1 <1>   0.0800 
 28 H        1.6110    -5.7740    -2.0500 H     1 <1>   0.0800 
 29 H        1.5750    -4.0820    -2.4910 H     1 <1>   0.0800 
 30 H        0.0900    -4.9870    -2.3680 H     1 <1>   0.0800 
 31 H        5.4120    -3.6030    -2.7520 H     1 <1>   0.0800 
 32 H        5.6810    -3.2640    -1.0460 H     1 <1>   0.0800 
 33 H        5.6640    -1.9430    -2.2200 H     1 <1>   0.0800 
 34 H        1.0790    -7.1030    -0.2580 H     1 <1>   0.3700 
 35 H        0.1240    -8.3350     1.6700 H     1 <1>   0.0800 
 36 H       -0.9330    -8.5080     0.2800 H     1 <1>   0.0800 
 37 H       -1.3270    -7.3600     1.5430 H     1 <1>   0.0800 
@<TRIPOS>BOND
  1   1   2  1   
  2   2   3  ar  
  3   2   4  ar  
  4   3   5  ar  
  5   3  21  1   
  6   4   6  ar  
  7   4  22  1   
  8   5   7  1   
  9   5   8  ar  
 10   6   8  ar  
 11   6  23  1   
 12   7   9  am  
 13   7  10  1   
 14   8  11  1   
 15   9  12  2   
 16   9  13  2   
 17   9  14  1   
 18  10  15  1   
 19  10  16  1   
 20  10  24  1   
 21  11  17  1   
 22  14  25  1   
 23  14  26  1   
 24  14  27  1   
 25  15  18  2   
 26  15  19  am  
 27  16  28  1   
 28  16  29  1   
 29  16  30  1   
 30  17  31  1   
 31  17  32  1   
 32  17  33  1   
 33  19  20  1   
 34  19  34  1   
 35  20  35  1   
 36  20  36  1   
 37  20  37  1   
@<TRIPOS>SUBSTRUCTURE
  1 ****   7 GROUP 4 **** **** 0

# MOE 2024.06 (io_trps.svl 2023.06)
