@<TRIPOS>MOLECULE
NONAME
35 38 1 0 0 
SMALL
USER_CHARGES


@<TRIPOS>ATOM
  1 O        0.0060     0.4260    -0.6350 O.2   1 <1>  -0.5700 
  2 C       -0.4130     1.3860    -0.0420 C.2   1 <1>   0.5690 
  3 N        0.2770     2.5210     0.3650 N.am  1 <1>  -0.2370 
  4 C       -1.8240     1.5270     0.4390 C.3   1 <1>  -0.0190 
  5 C        1.6840     2.6750     0.3890 C.ar  1 <1>   0.1170 
  6 C       -0.6520     3.4800     0.7440 C.2   1 <1>   0.5690 
  7 C       -3.2570     1.0640     0.1130 C.3   1 <1>   0.4180 
  8 C       -1.9770     3.0260     0.2240 C.3   1 <1>  -0.0190 
  9 C        2.5160     1.6030     0.7020 C.ar  1 <1>  -0.1500 
 10 C        2.2750     3.9020     0.1010 C.ar  1 <1>  -0.1500 
 11 O       -0.4760     4.5060     1.3470 O.2   1 <1>  -0.5700 
 12 O       -3.8040     2.1760    -0.5190 O.3   1 <1>  -0.5600 
 13 C       -4.0020     1.2210     1.4210 C.2   1 <1>  -0.2880 
 14 C       -3.4830    -0.2060    -0.6910 C.3   1 <1>  -0.2400 
 15 C       -3.4840     3.1850     0.3880 C.3   1 <1>   0.4180 
 16 C        3.8910     1.7510     0.7260 C.ar  1 <1>  -0.1500 
 17 C        3.6500     4.0540     0.1250 C.ar  1 <1>  -0.1500 
 18 C       -4.0860     2.5350     1.6210 C.2   1 <1>  -0.2880 
 19 C       -4.1180     4.4970    -0.0510 C.3   1 <1>  -0.2400 
 20 C        4.4610     2.9780     0.4380 C.ar  1 <1>  -0.1500 
 21 H       -1.6980     1.3120     1.4890 H     1 <1>   0.0800 
 22 H       -1.8500     3.2470    -0.8270 H     1 <1>   0.0800 
 23 H        2.0920     0.6400     0.9260 H     1 <1>   0.1500 
 24 H        1.6620     4.7520    -0.1410 H     1 <1>   0.1500 
 25 H       -4.3120     0.3700     2.0020 H     1 <1>   0.1500 
 26 H       -2.9730    -0.1370    -1.6350 H     1 <1>   0.0800 
 27 H       -4.5350    -0.3490    -0.8590 H     1 <1>   0.0800 
 28 H       -3.0970    -1.0510    -0.1530 H     1 <1>   0.0800 
 29 H        4.5190     0.9100     0.9680 H     1 <1>   0.1500 
 30 H        4.0890     5.0110    -0.0980 H     1 <1>   0.1500 
 31 H       -4.4840     3.1270     2.4260 H     1 <1>   0.1500 
 32 H       -3.7840     4.7660    -1.0360 H     1 <1>   0.0800 
 33 H       -3.8400     5.2770     0.6340 H     1 <1>   0.0800 
 34 H       -5.1880     4.4020    -0.0500 H     1 <1>   0.0800 
 35 H        5.5310     3.0950     0.4570 H     1 <1>   0.1500 
@<TRIPOS>BOND
  1   1   2  2   
  2   2   3  am  
  3   2   4  1   
  4   3   5  1   
  5   3   6  am  
  6   4   7  1   
  7   4   8  1   
  8   4  21  1   
  9   5   9  ar  
 10   5  10  ar  
 11   6   8  1   
 12   6  11  2   
 13   7  12  1   
 14   7  13  1   
 15   7  14  1   
 16   8  15  1   
 17   8  22  1   
 18   9  16  ar  
 19   9  23  1   
 20  10  17  ar  
 21  10  24  1   
 22  12  15  1   
 23  13  18  2   
 24  13  25  1   
 25  14  26  1   
 26  14  27  1   
 27  14  28  1   
 28  15  18  1   
 29  15  19  1   
 30  16  20  ar  
 31  16  29  1   
 32  17  20  ar  
 33  17  30  1   
 34  18  31  1   
 35  19  32  1   
 36  19  33  1   
 37  19  34  1   
 38  20  35  1   
@<TRIPOS>SUBSTRUCTURE
  1 ****   3 GROUP 4 **** **** 0

# MOE 2024.06 (io_trps.svl 2023.06)
