@<TRIPOS>MOLECULE
NONAME
34 34 1 0 0 
SMALL
USER_CHARGES


@<TRIPOS>ATOM
  1 O       -0.3530    -0.6940     0.6400 O.2   1 <1>  -0.5700 
  2 C        0.8030    -0.9060     0.3650 C.2   1 <1>   0.6590 
  3 O        1.7270     0.0450     0.4000 O.3   1 <1>  -0.4300 
  4 C        1.3010    -2.2700    -0.0540 C.3   1 <1>  -0.0380 
  5 C        1.4390     1.3820     0.7480 C.3   1 <1>   0.1200 
  6 C        0.1150    -3.1470    -0.3780 C.2   1 <1>   0.3280 
  7 C        0.9380     2.1200    -0.4920 C.3   1 <1>  -0.2400 
  8 N       -0.2920    -3.9910     0.4790 N.2   1 <1>  -0.4920 
  9 C       -0.5110    -2.8720    -1.7440 C.3   1 <1>  -0.1790 
 10 N       -1.5090    -4.6490     0.3410 N.pl3 1 <1>  -0.4080 
 11 C       -2.7560    -4.0860     0.2810 C.2   1 <1>   0.5500 
 12 N       -3.7760    -4.8490     0.0610 N.2   1 <1>  -0.6610 
 13 N       -2.8540    -2.7380     0.4760 N.pl3 1 <1>  -0.5500 
 14 C       -4.9900    -4.2420     0.0020 C.2   1 <1>   0.7670 
 15 C       -4.0470    -2.0800     0.4250 C.2   1 <1>  -0.0380 
 16 O       -5.9780    -4.9310    -0.2150 O.2   1 <1>  -0.5700 
 17 C       -5.1350    -2.8390     0.1830 C.2   1 <1>  -0.1360 
 18 C       -4.0340    -0.5820     0.6450 C.3   1 <1>  -0.1020 
 19 H        1.8580    -2.6930     0.7610 H     1 <1>   0.0800 
 20 H        1.9490    -2.1810    -0.9040 H     1 <1>   0.0800 
 21 H        2.3490     1.8290     1.1090 H     1 <1>   0.0800 
 22 H        0.7050     1.3930     1.5370 H     1 <1>   0.0800 
 23 H        1.6770     2.0820    -1.2720 H     1 <1>   0.0800 
 24 H        0.7530     3.1500    -0.2480 H     1 <1>   0.0800 
 25 H        0.0190     1.6860    -0.8420 H     1 <1>   0.0800 
 26 H        0.2500    -2.8550    -2.5020 H     1 <1>   0.0800 
 27 H       -1.0170    -1.9240    -1.7360 H     1 <1>   0.0800 
 28 H       -1.2200    -3.6320    -2.0140 H     1 <1>   0.0800 
 29 H       -1.5420    -5.6540     0.5360 H     1 <1>   0.4000 
 30 H       -1.9740    -2.2500     0.6920 H     1 <1>   0.4000 
 31 H       -6.1290    -2.4440     0.1180 H     1 <1>   0.1500 
 32 H       -3.4150    -0.1080    -0.0950 H     1 <1>   0.0800 
 33 H       -3.6400    -0.3580     1.6200 H     1 <1>   0.0800 
 34 H       -5.0290    -0.1800     0.5730 H     1 <1>   0.0800 
@<TRIPOS>BOND
  1   1   2  2   
  2   2   3  1   
  3   2   4  1   
  4   3   5  1   
  5   4   6  1   
  6   4  19  1   
  7   4  20  1   
  8   5   7  1   
  9   5  21  1   
 10   5  22  1   
 11   6   8  2   
 12   6   9  1   
 13   7  23  1   
 14   7  24  1   
 15   7  25  1   
 16   8  10  1   
 17   9  26  1   
 18   9  27  1   
 19   9  28  1   
 20  10  11  1   
 21  10  29  1   
 22  11  12  2   
 23  11  13  1   
 24  12  14  1   
 25  13  15  1   
 26  13  30  1   
 27  14  16  2   
 28  14  17  1   
 29  15  17  2   
 30  15  18  1   
 31  17  31  1   
 32  18  32  1   
 33  18  33  1   
 34  18  34  1   
@<TRIPOS>SUBSTRUCTURE
  1 ****  13 GROUP 4 **** **** 0

# MOE 2024.06 (io_trps.svl 2023.06)
