@<TRIPOS>MOLECULE
NONAME
44 46 1 0 0 
SMALL
USER_CHARGES


@<TRIPOS>ATOM
  1 S       -0.2470    -0.0750     0.8510 S.o2  1 <1>   1.4470 
  2 O       -0.6190     1.1760     0.2270 O.2   1 <1>  -0.6500 
  3 O       -0.5220    -0.2870     2.2560 O.2   1 <1>  -0.6500 
  4 N       -1.0480    -1.3120     0.0110 N.am  1 <1>  -0.8490 
  5 C        1.5030    -0.4140     0.4970 C.ar  1 <1>  -0.0090 
  6 C       -0.8520    -2.6210     0.6640 C.3   1 <1>   0.1960 
  7 C       -2.4850    -1.0060    -0.1330 C.3   1 <1>   0.1960 
  8 C        2.4030    -0.7220     1.5090 C.ar  1 <1>  -0.1500 
  9 C        1.9860    -0.3880    -0.8040 C.ar  1 <1>  -0.1500 
 10 C       -1.2930    -3.7880    -0.2270 C.3   1 <1>   0.0700 
 11 C       -3.1880    -1.9390    -1.1280 C.3   1 <1>   0.0700 
 12 C        3.7310    -1.0010     1.2290 C.ar  1 <1>  -0.1500 
 13 C        3.3140    -0.6650    -1.0850 C.ar  1 <1>  -0.1500 
 14 S       -3.0690    -3.6510    -0.5470 S.3   1 <1>  -0.4600 
 15 C        4.2130    -0.9800    -0.0730 C.ar  1 <1>  -0.0090 
 16 S        5.9500    -1.3760    -0.4320 S.o2  1 <1>   1.4470 
 17 O        6.1870    -1.3270    -1.8590 O.2   1 <1>  -0.6500 
 18 O        6.8040    -0.6280     0.4630 O.2   1 <1>  -0.6500 
 19 N        6.0620    -3.0030     0.0270 N.am  1 <1>  -0.8490 
 20 C        7.4660    -3.4280     0.1590 C.3   1 <1>   0.1960 
 21 C        5.3720    -3.9080    -0.9070 C.3   1 <1>   0.1960 
 22 C        7.5630    -4.9090     0.5700 C.3   1 <1>   0.1200 
 23 C        5.5070    -5.3730    -0.4530 C.3   1 <1>   0.1200 
 24 O        6.8550    -5.7210    -0.3250 O.3   1 <1>  -0.5600 
 25 H       -1.3940    -2.6560     1.5960 H     1 <1>   0.0800 
 26 H        0.1920    -2.7580     0.8880 H     1 <1>   0.0800 
 27 H       -2.6060    -0.0010    -0.5010 H     1 <1>   0.0800 
 28 H       -2.9730    -1.0620     0.8270 H     1 <1>   0.0800 
 29 H        2.0630    -0.7440     2.5330 H     1 <1>   0.1500 
 30 H        1.3100    -0.1450    -1.6090 H     1 <1>   0.1500 
 31 H       -1.1310    -4.7340     0.2570 H     1 <1>   0.0800 
 32 H       -0.7860    -3.7680    -1.1750 H     1 <1>   0.0800 
 33 H       -2.7260    -1.8890    -2.0980 H     1 <1>   0.0800 
 34 H       -4.2340    -1.7040    -1.2100 H     1 <1>   0.0800 
 35 H        4.4080    -1.2380     2.0330 H     1 <1>   0.1500 
 36 H        3.6570    -0.6330    -2.1070 H     1 <1>   0.1500 
 37 H        7.9580    -2.8290     0.9070 H     1 <1>   0.0800 
 38 H        7.9850    -3.2850    -0.7750 H     1 <1>   0.0800 
 39 H        5.7870    -3.8140    -1.8970 H     1 <1>   0.0800 
 40 H        4.3280    -3.6520    -0.9560 H     1 <1>   0.0800 
 41 H        7.1610    -5.0520     1.5580 H     1 <1>   0.0800 
 42 H        8.5890    -5.2300     0.5640 H     1 <1>   0.0800 
 43 H        5.0670    -6.0310    -1.1810 H     1 <1>   0.0800 
 44 H        5.0200    -5.5230     0.4940 H     1 <1>   0.0800 
@<TRIPOS>BOND
  1   1   2  2   
  2   1   3  2   
  3   1   4  am  
  4   1   5  1   
  5   4   6  1   
  6   4   7  1   
  7   5   8  ar  
  8   5   9  ar  
  9   6  10  1   
 10   6  25  1   
 11   6  26  1   
 12   7  11  1   
 13   7  27  1   
 14   7  28  1   
 15   8  12  ar  
 16   8  29  1   
 17   9  13  ar  
 18   9  30  1   
 19  10  14  1   
 20  10  31  1   
 21  10  32  1   
 22  11  14  1   
 23  11  33  1   
 24  11  34  1   
 25  12  15  ar  
 26  12  35  1   
 27  13  15  ar  
 28  13  36  1   
 29  15  16  1   
 30  16  17  2   
 31  16  18  2   
 32  16  19  am  
 33  19  20  1   
 34  19  21  1   
 35  20  22  1   
 36  20  37  1   
 37  20  38  1   
 38  21  23  1   
 39  21  39  1   
 40  21  40  1   
 41  22  24  1   
 42  22  41  1   
 43  22  42  1   
 44  23  24  1   
 45  23  43  1   
 46  23  44  1   
@<TRIPOS>SUBSTRUCTURE
  1 ****  13 GROUP 4 **** **** 0

# MOE 2024.06 (io_trps.svl 2023.06)
