@<TRIPOS>MOLECULE
NONAME
38 40 1 0 0 
SMALL
USER_CHARGES


@<TRIPOS>ATOM
  1 O       -0.1570     0.1980    -0.8910 O.2   1 <1>  -0.5700 
  2 C       -1.0720     0.9790    -0.6680 C.2   1 <1>   0.6250 
  3 O       -2.0560     0.4650     0.0900 O.3   1 <1>  -0.2330 
  4 C       -1.1560     2.2960    -1.1710 C.3   1 <1>  -0.7150 
  5 C       -3.2000     1.1270     0.3490 C.ar  1 <1>   0.0820 
  6 C       -2.2340     3.0830    -0.7200 C.2   1 <1>   0.3890 
  7 C       -0.2270     2.8090    -2.0990 C.2   1 <1>   0.4140 
  8 C       -3.3420     2.4520    -0.0500 C.ar  1 <1>   0.0860 
  9 C       -4.2190     0.4630     1.0160 C.ar  1 <1>  -0.1500 
 10 O       -2.2370     4.3100    -0.8090 O.2   1 <1>  -0.5700 
 11 O       -0.5440     3.5740    -2.9960 O.2   1 <1>  -0.5700 
 12 C        1.2570     2.4590    -2.0750 C.3   1 <1>  -0.0990 
 13 C       -4.5480     3.0940     0.2380 C.ar  1 <1>  -0.1500 
 14 C       -5.4060     1.1170     1.2910 C.ar  1 <1>  -0.1500 
 15 C        1.9360     2.7530    -0.7220 C.3   1 <1>  -0.0800 
 16 C       -5.5690     2.4370     0.8990 C.ar  1 <1>  -0.1500 
 17 C        1.8230     4.2430    -0.3490 C.3   1 <1>  -0.1600 
 18 C        3.4100     2.3140    -0.7580 C.3   1 <1>  -0.1600 
 19 C        2.5430     4.5530     0.9710 C.3   1 <1>  -0.1600 
 20 C        4.1240     2.6220     0.5660 C.3   1 <1>  -0.1600 
 21 C        4.0100     4.1100     0.9220 C.3   1 <1>  -0.1600 
 22 H       -4.0730    -0.5600     1.3100 H     1 <1>   0.1500 
 23 H        1.7490     3.0330    -2.8390 H     1 <1>   0.0800 
 24 H        1.3760     1.4270    -2.3400 H     1 <1>   0.0800 
 25 H       -4.6650     4.1190    -0.0680 H     1 <1>   0.1500 
 26 H       -6.1990     0.6050     1.8070 H     1 <1>   0.1500 
 27 H        1.4340     2.1790     0.0380 H     1 <1>   0.0800 
 28 H       -6.4900     2.9520     1.1100 H     1 <1>   0.1500 
 29 H        0.7830     4.5130    -0.2530 H     1 <1>   0.0800 
 30 H        2.2420     4.8440    -1.1370 H     1 <1>   0.0800 
 31 H        3.9150     2.8240    -1.5600 H     1 <1>   0.0800 
 32 H        3.4610     1.2570    -0.9510 H     1 <1>   0.0800 
 33 H        2.0390     4.0380     1.7710 H     1 <1>   0.0800 
 34 H        2.4860     5.6080     1.1700 H     1 <1>   0.0800 
 35 H        5.1600     2.3450     0.4900 H     1 <1>   0.0800 
 36 H        3.6780     2.0340     1.3500 H     1 <1>   0.0800 
 37 H        4.4730     4.2900     1.8770 H     1 <1>   0.0800 
 38 H        4.5320     4.6940     0.1840 H     1 <1>   0.0800 
@<TRIPOS>BOND
  1   1   2  2   
  2   2   3  1   
  3   2   4  1   
  4   3   5  1   
  5   4   6  1   
  6   4   7  1   
  7   5   8  ar  
  8   5   9  ar  
  9   6   8  1   
 10   6  10  2   
 11   7  11  2   
 12   7  12  1   
 13   8  13  ar  
 14   9  14  ar  
 15   9  22  1   
 16  12  15  1   
 17  12  23  1   
 18  12  24  1   
 19  13  16  ar  
 20  13  25  1   
 21  14  16  ar  
 22  14  26  1   
 23  15  17  1   
 24  15  18  1   
 25  15  27  1   
 26  16  28  1   
 27  17  19  1   
 28  17  29  1   
 29  17  30  1   
 30  18  20  1   
 31  18  31  1   
 32  18  32  1   
 33  19  21  1   
 34  19  33  1   
 35  19  34  1   
 36  20  21  1   
 37  20  35  1   
 38  20  36  1   
 39  21  37  1   
 40  21  38  1   
@<TRIPOS>SUBSTRUCTURE
  1 ****   4 GROUP 4 **** **** 0

# MOE 2024.06 (io_trps.svl 2023.06)
