@<TRIPOS>MOLECULE
NONAME
42 44 1 0 0 
SMALL
USER_CHARGES


@<TRIPOS>ATOM
  1 CL       3.5690    -1.8110    -4.0910 Cl    1 <1>  -0.1770 
  2 C        3.5590    -1.6470    -2.3490 C.ar  1 <1>   0.1770 
  3 C        2.3740    -1.7050    -1.6350 C.ar  1 <1>   0.1900 
  4 C        4.7550    -1.4570    -1.6840 C.ar  1 <1>  -0.1500 
  5 F        1.2380    -1.8850    -2.2610 F     1 <1>  -0.1900 
  6 C        2.3610    -1.5740    -0.2600 C.ar  1 <1>  -0.1500 
  7 C        4.7730    -1.3270    -0.2980 C.ar  1 <1>   0.1170 
  8 C        3.5650    -1.3840     0.4010 C.ar  1 <1>  -0.1500 
  9 N        6.0100    -1.1340     0.3340 N.am  1 <1>  -0.5470 
 10 C        6.4120    -1.2100     1.6380 C.2   1 <1>   0.5690 
 11 O        5.6890    -1.5000     2.5600 O.2   1 <1>  -0.5700 
 12 C        7.8870    -0.9090     1.9100 C.3   1 <1>   0.1710 
 13 N        8.7740    -1.1380     0.7280 N.3   1 <1>  -0.8100 
 14 C       10.0760    -0.4650     0.9250 C.3   1 <1>   0.1100 
 15 C        8.9880    -2.5920     0.5140 C.3   1 <1>   0.1100 
 16 C       11.0220    -0.6800    -0.2700 C.3   1 <1>   0.1400 
 17 C        9.8930    -2.8580    -0.6990 C.3   1 <1>   0.1400 
 18 N       11.1930    -2.1370    -0.5490 N.am  1 <1>  -0.6600 
 19 C       12.3760    -2.8130    -0.3170 C.2   1 <1>   0.7150 
 20 O       12.3180    -3.9980    -0.0340 O.2   1 <1>  -0.5700 
 21 C       13.6560    -2.1420    -0.4090 C.2   1 <1>   0.0550 
 22 O       14.6290    -2.3920     0.4630 O.3   1 <1>  -0.2800 
 23 C       14.1090    -1.2110    -1.2970 C.2   1 <1>  -0.1500 
 24 C       15.6740    -1.6560     0.1600 C.2   1 <1>  -0.0100 
 25 C       15.4160    -0.8960    -0.9250 C.2   1 <1>  -0.1500 
 26 H        5.6680    -1.4140    -2.2480 H     1 <1>   0.1500 
 27 H        1.4320    -1.6200     0.2800 H     1 <1>   0.1500 
 28 H        3.5560    -1.2780     1.4700 H     1 <1>   0.1500 
 29 H        6.8150    -0.9560    -0.2760 H     1 <1>   0.3700 
 30 H        8.2170    -1.5060     2.7430 H     1 <1>   0.0800 
 31 H        7.9430     0.1240     2.2040 H     1 <1>   0.0800 
 32 H       10.5510    -0.8400     1.8170 H     1 <1>   0.0800 
 33 H        9.9170     0.5920     1.0520 H     1 <1>   0.0800 
 34 H        8.0430    -3.0820     0.3530 H     1 <1>   0.0800 
 35 H        9.4430    -3.0320     1.3860 H     1 <1>   0.0800 
 36 H       11.9670    -0.2180    -0.0470 H     1 <1>   0.0800 
 37 H       10.6120    -0.1980    -1.1400 H     1 <1>   0.0800 
 38 H        9.4010    -2.5160    -1.5920 H     1 <1>   0.0800 
 39 H       10.0540    -3.9170    -0.8000 H     1 <1>   0.0800 
 40 H       13.5810    -0.7920    -2.1350 H     1 <1>   0.1500 
 41 H       16.5600    -1.7340     0.7650 H     1 <1>   0.1500 
 42 H       16.0630    -0.1940    -1.4210 H     1 <1>   0.1500 
@<TRIPOS>BOND
  1   1   2  1   
  2   2   3  ar  
  3   2   4  ar  
  4   3   5  1   
  5   3   6  ar  
  6   4   7  ar  
  7   4  26  1   
  8   6   8  ar  
  9   6  27  1   
 10   7   8  ar  
 11   7   9  1   
 12   8  28  1   
 13   9  10  am  
 14   9  29  1   
 15  10  11  2   
 16  10  12  1   
 17  12  13  1   
 18  12  30  1   
 19  12  31  1   
 20  13  14  1   
 21  13  15  1   
 22  14  16  1   
 23  14  32  1   
 24  14  33  1   
 25  15  17  1   
 26  15  34  1   
 27  15  35  1   
 28  16  18  1   
 29  16  36  1   
 30  16  37  1   
 31  17  18  1   
 32  17  38  1   
 33  17  39  1   
 34  18  19  am  
 35  19  20  2   
 36  19  21  1   
 37  21  22  1   
 38  21  23  2   
 39  22  24  1   
 40  23  25  1   
 41  23  40  1   
 42  24  25  2   
 43  24  41  1   
 44  25  42  1   
@<TRIPOS>SUBSTRUCTURE
  1 ****  13 GROUP 4 **** **** 0

# MOE 2024.06 (io_trps.svl 2023.06)
