@<TRIPOS>MOLECULE
NONAME
44 45 1 0 0 
SMALL
USER_CHARGES


@<TRIPOS>ATOM
  1 CL       1.6840    -1.9340    -3.1480 Cl    1 <1>  -0.1770 
  2 C        2.2350    -2.4540    -1.5770 C.ar  1 <1>   0.1770 
  3 C        3.5380    -2.1980    -1.2010 C.ar  1 <1>  -0.1500 
  4 C        1.3570    -3.1100    -0.7360 C.ar  1 <1>  -0.1500 
  5 C        3.9970    -2.5930     0.0530 C.ar  1 <1>   0.0530 
  6 C        1.8020    -3.5210     0.5090 C.ar  1 <1>  -0.1500 
  7 C        5.3460    -2.3240     0.4830 C.2   1 <1>   0.1330 
  8 C        3.1080    -3.2660     0.8910 C.ar  1 <1>  -0.1500 
  9 N        6.2310    -3.2360     0.7780 N.2   1 <1>  -0.3380 
 10 N        5.8630    -1.0900     0.6510 N.pl3 1 <1>   0.0480 
 11 N        7.3500    -2.6160     1.1450 N.2   1 <1>  -0.3380 
 12 C        7.0990    -1.3580     1.0580 C.2   1 <1>   0.2430 
 13 C        5.2100     0.2300     0.4890 C.3   1 <1>   0.0960 
 14 S        8.2880    -0.0640     1.4390 S.3   1 <1>  -0.2860 
 15 C        4.3990     0.5860     1.7380 C.3   1 <1>  -0.2400 
 16 C        9.8340    -0.9710     1.9400 C.3   1 <1>   0.1310 
 17 C       11.0030    -0.5710     1.0480 C.2   1 <1>   0.5690 
 18 O       11.7360     0.2930     1.4720 O.2   1 <1>  -0.5700 
 19 N       11.2330    -1.1800    -0.1660 N.am  1 <1>  -0.6600 
 20 C       10.3010    -2.1570    -0.7960 C.3   1 <1>   0.1400 
 21 C       12.3880    -0.7550    -1.0040 C.3   1 <1>   0.1400 
 22 C       10.6650    -3.5840    -0.3920 C.3   1 <1>  -0.2400 
 23 C       13.6440    -1.5200    -0.5950 C.3   1 <1>  -0.2400 
 24 H        4.1970    -1.7000    -1.8880 H     1 <1>   0.1500 
 25 H        0.3460    -3.2970    -1.0530 H     1 <1>   0.1500 
 26 H        1.1360    -4.0410     1.1760 H     1 <1>   0.1500 
 27 H        3.4560    -3.5930     1.8570 H     1 <1>   0.1500 
 28 H        4.5660     0.2020    -0.3710 H     1 <1>   0.0800 
 29 H        5.9630     0.9780     0.3160 H     1 <1>   0.0800 
 30 H        3.6230    -0.1410     1.9060 H     1 <1>   0.0800 
 31 H        3.9380     1.5490     1.6090 H     1 <1>   0.0800 
 32 H        5.0400     0.6300     2.6010 H     1 <1>   0.0800 
 33 H        9.6540    -2.0250     1.8970 H     1 <1>   0.0800 
 34 H       10.0380    -0.6890     2.9560 H     1 <1>   0.0800 
 35 H       10.3380    -2.0640    -1.8670 H     1 <1>   0.0800 
 36 H        9.2910    -1.9450    -0.4990 H     1 <1>   0.0800 
 37 H       12.5550     0.3010    -0.8710 H     1 <1>   0.0800 
 38 H       12.1760    -0.9220    -2.0460 H     1 <1>   0.0800 
 39 H       11.6190    -3.8610    -0.8000 H     1 <1>   0.0800 
 40 H        9.9250    -4.2620    -0.7770 H     1 <1>   0.0800 
 41 H       10.6890    -3.6850     0.6770 H     1 <1>   0.0800 
 42 H       13.8570    -1.3460     0.4450 H     1 <1>   0.0800 
 43 H       14.4800    -1.1750    -1.1740 H     1 <1>   0.0800 
 44 H       13.5230    -2.5730    -0.7650 H     1 <1>   0.0800 
@<TRIPOS>BOND
  1   1   2  1   
  2   2   3  ar  
  3   2   4  ar  
  4   3   5  ar  
  5   3  24  1   
  6   4   6  ar  
  7   4  25  1   
  8   5   7  1   
  9   5   8  ar  
 10   6   8  ar  
 11   6  26  1   
 12   7   9  2   
 13   7  10  1   
 14   8  27  1   
 15   9  11  1   
 16  10  12  1   
 17  10  13  1   
 18  11  12  2   
 19  12  14  1   
 20  13  15  1   
 21  13  28  1   
 22  13  29  1   
 23  14  16  1   
 24  15  30  1   
 25  15  31  1   
 26  15  32  1   
 27  16  17  1   
 28  16  33  1   
 29  16  34  1   
 30  17  18  2   
 31  17  19  am  
 32  19  20  1   
 33  19  21  1   
 34  20  22  1   
 35  20  35  1   
 36  20  36  1   
 37  21  23  1   
 38  21  37  1   
 39  21  38  1   
 40  22  39  1   
 41  22  40  1   
 42  22  41  1   
 43  23  42  1   
 44  23  43  1   
 45  23  44  1   
@<TRIPOS>SUBSTRUCTURE
  1 ****  12 GROUP 4 **** **** 0

# MOE 2024.06 (io_trps.svl 2023.06)
