@<TRIPOS>MOLECULE
NONAME
41 42 1 0 0 
SMALL
USER_CHARGES


@<TRIPOS>ATOM
  1 CL      -0.8780     1.1290    -1.3500 Cl    1 <1>  -0.1770 
  2 C        0.3230     2.1700    -0.6190 C.ar  1 <1>   0.1770 
  3 C       -0.0240     3.1330     0.3400 C.ar  1 <1>   0.0860 
  4 C        1.6280     1.9780    -1.0360 C.ar  1 <1>  -0.1500 
  5 C       -1.3810     3.3740     0.8010 C.2   1 <1>   0.5440 
  6 C        1.0220     3.8960     0.8760 C.ar  1 <1>  -0.1500 
  7 C        2.6150     2.7620    -0.4790 C.ar  1 <1>   0.1900 
  8 O       -1.5830     3.7540     1.9370 O.2   1 <1>  -0.5700 
  9 N       -2.4700     3.2270    -0.0130 N.am  1 <1>  -0.7300 
 10 C        2.3350     3.7210     0.4750 C.ar  1 <1>  -0.1500 
 11 F        3.8490     2.5930    -0.8630 F     1 <1>  -0.1900 
 12 C       -3.8600     3.3560     0.4410 C.3   1 <1>   0.2200 
 13 C       -4.7490     2.3990    -0.3480 C.3   1 <1>  -0.1600 
 14 C       -4.3150     4.8000     0.2530 C.3   1 <1>  -0.1600 
 15 C       -6.2090     2.5840     0.0580 C.3   1 <1>   0.3430 
 16 C       -5.7790     4.9500     0.6520 C.3   1 <1>   0.3430 
 17 N       -6.6220     4.0050    -0.1460 N.4   1 <1>  -0.9590 
 18 C       -8.0730     4.1670     0.1520 C.3   1 <1>   0.3430 
 19 C       -8.5990     5.4780    -0.4360 C.3   1 <1>  -0.1600 
 20 C      -10.1150     5.5950    -0.2390 C.3   1 <1>  -0.2400 
 21 H        1.8730     1.2350    -1.7720 H     1 <1>   0.1500 
 22 H        0.7970     4.6390     1.6240 H     1 <1>   0.1500 
 23 H       -2.3270     2.8420    -0.9500 H     1 <1>   0.3700 
 24 H        3.1310     4.3130     0.8930 H     1 <1>   0.1500 
 25 H       -3.9120     3.1020     1.4890 H     1 <1>   0.0800 
 26 H       -4.4540     1.3860    -0.1360 H     1 <1>   0.0800 
 27 H       -4.6450     2.5690    -1.4050 H     1 <1>   0.0800 
 28 H       -4.1820     5.1110    -0.7680 H     1 <1>   0.0800 
 29 H       -3.7180     5.4400     0.8800 H     1 <1>   0.0800 
 30 H       -6.3290     2.3160     1.0960 H     1 <1>   0.0800 
 31 H       -6.8300     1.9300    -0.5340 H     1 <1>   0.0800 
 32 H       -6.0890     5.9680     0.4790 H     1 <1>   0.0800 
 33 H       -5.8870     4.7380     1.7040 H     1 <1>   0.0800 
 34 H       -6.4840     4.2290    -1.1410 H     1 <1>   0.4500 
 35 H       -8.2400     4.1470     1.2170 H     1 <1>   0.0800 
 36 H       -8.6240     3.3510    -0.2880 H     1 <1>   0.0800 
 37 H       -8.3880     5.5170    -1.4910 H     1 <1>   0.0800 
 38 H       -8.1320     6.3210     0.0430 H     1 <1>   0.0800 
 39 H      -10.6300     4.7870    -0.7300 H     1 <1>   0.0800 
 40 H      -10.4690     6.5220    -0.6590 H     1 <1>   0.0800 
 41 H      -10.3680     5.5840     0.8070 H     1 <1>   0.0800 
@<TRIPOS>BOND
  1   1   2  1   
  2   2   3  ar  
  3   2   4  ar  
  4   3   5  1   
  5   3   6  ar  
  6   4   7  ar  
  7   4  21  1   
  8   5   8  2   
  9   5   9  am  
 10   6  10  ar  
 11   6  22  1   
 12   7  10  ar  
 13   7  11  1   
 14   9  12  1   
 15   9  23  1   
 16  10  24  1   
 17  12  13  1   
 18  12  14  1   
 19  12  25  1   
 20  13  15  1   
 21  13  26  1   
 22  13  27  1   
 23  14  16  1   
 24  14  28  1   
 25  14  29  1   
 26  15  17  1   
 27  15  30  1   
 28  15  31  1   
 29  16  17  1   
 30  16  32  1   
 31  16  33  1   
 32  17  18  1   
 33  17  34  1   
 34  18  19  1   
 35  18  35  1   
 36  18  36  1   
 37  19  20  1   
 38  19  37  1   
 39  19  38  1   
 40  20  39  1   
 41  20  40  1   
 42  20  41  1   
@<TRIPOS>SUBSTRUCTURE
  1 ****   9 GROUP 4 **** **** 0

# MOE 2024.06 (io_trps.svl 2023.06)
