@<TRIPOS>MOLECULE
NONAME
23 25 1 0 0 
SMALL
USER_CHARGES


@<TRIPOS>ATOM
  1 F        0.2440    -0.5790    -1.5710 F     1 <1>  -0.1900 
  2 C        1.3490    -0.9870    -1.0050 C.ar  1 <1>   0.1900 
  3 C        2.3690    -0.0730    -0.8050 C.ar  1 <1>  -0.1500 
  4 C        1.4500    -2.3190    -0.6290 C.ar  1 <1>  -0.1500 
  5 C        3.5280    -0.5330    -0.2030 C.ar  1 <1>  -0.1440 
  6 C        2.6180    -2.7640    -0.0280 C.ar  1 <1>  -0.1500 
  7 C        3.6510    -1.8600     0.1800 C.ar  1 <1>   0.1170 
  8 C        4.8110     0.2050     0.1510 C.3   1 <1>   0.7650 
  9 N        4.8930    -2.0930     0.7590 N.am  1 <1>  -0.5470 
 10 O        5.3940     0.7860    -0.9780 O.3   1 <1>  -0.5600 
 11 O        4.5620     1.2820     1.0040 O.3   1 <1>  -0.5600 
 12 C        5.6360    -0.9540     0.7870 C.2   1 <1>   0.5690 
 13 C        6.1790     1.8330    -0.5300 C.3   1 <1>   0.1200 
 14 C        5.6040     2.1750     0.8390 C.3   1 <1>   0.1200 
 15 O        6.7580    -0.8930     1.2430 O.2   1 <1>  -0.5700 
 16 H        2.2630     0.9540    -1.1060 H     1 <1>   0.1500 
 17 H        0.6270    -2.9880    -0.8080 H     1 <1>   0.1500 
 18 H        2.7260    -3.7910     0.2740 H     1 <1>   0.1500 
 19 H        5.2400    -2.9790     1.1270 H     1 <1>   0.3700 
 20 H        6.1020     2.6530    -1.2220 H     1 <1>   0.0800 
 21 H        7.2010     1.5010    -0.4560 H     1 <1>   0.0800 
 22 H        6.3300     2.0200     1.6200 H     1 <1>   0.0800 
 23 H        5.2190     3.1790     0.8800 H     1 <1>   0.0800 
@<TRIPOS>BOND
  1   1   2  1   
  2   2   3  ar  
  3   2   4  ar  
  4   3   5  ar  
  5   3  16  1   
  6   4   6  ar  
  7   4  17  1   
  8   5   7  ar  
  9   5   8  1   
 10   6   7  ar  
 11   6  18  1   
 12   7   9  1   
 13   8  10  1   
 14   8  11  1   
 15   8  12  1   
 16   9  12  am  
 17   9  19  1   
 18  10  13  1   
 19  11  14  1   
 20  12  15  2   
 21  13  14  1   
 22  13  20  1   
 23  13  21  1   
 24  14  22  1   
 25  14  23  1   
@<TRIPOS>SUBSTRUCTURE
  1 ****   5 GROUP 4 **** **** 0

# MOE 2024.06 (io_trps.svl 2023.06)
