@<TRIPOS>MOLECULE
NONAME
38 39 1 0 0 
SMALL
USER_CHARGES


@<TRIPOS>ATOM
  1 O        0.2050    -0.5350     0.6250 O.3   1 <1>  -0.5600 
  2 C        0.0880    -1.7480    -0.0690 C.3   1 <1>   0.2000 
  3 C        1.0860     0.4310     0.1100 C.3   1 <1>   0.2000 
  4 C        1.4630    -2.4630    -0.1570 C.3   1 <1>   0.3430 
  5 C       -0.5610    -1.4970    -1.4370 C.3   1 <1>  -0.2400 
  6 C        2.3980    -0.2110    -0.4140 C.3   1 <1>   0.3430 
  7 C        1.3530     1.4080     1.2530 C.3   1 <1>  -0.2400 
  8 N        2.6160    -1.5620     0.2020 N.4   1 <1>  -0.9590 
  9 C        3.9340    -2.1890    -0.1190 C.3   1 <1>   0.3430 
 10 C        5.1020    -1.4290     0.5120 C.3   1 <1>  -0.0170 
 11 C        6.3820    -2.1860     0.2190 C.ar  1 <1>  -0.1440 
 12 C        7.1040    -1.9210    -0.9350 C.ar  1 <1>  -0.1500 
 13 C        6.8350    -3.1590     1.0980 C.ar  1 <1>  -0.1500 
 14 C        8.2630    -2.6260    -1.2100 C.ar  1 <1>  -0.1500 
 15 C        7.9930    -3.8630     0.8220 C.ar  1 <1>  -0.1500 
 16 C        8.7070    -3.5980    -0.3320 C.ar  1 <1>  -0.1500 
 17 H       -0.5820    -2.3660     0.5060 H     1 <1>   0.0800 
 18 H        0.5880     0.9540    -0.6890 H     1 <1>   0.0800 
 19 H        1.5880    -2.8410    -1.1580 H     1 <1>   0.0800 
 20 H        1.4510    -3.3140     0.5050 H     1 <1>   0.0800 
 21 H        0.0850    -0.9490    -2.0970 H     1 <1>   0.0800 
 22 H       -1.4820    -0.9560    -1.3080 H     1 <1>   0.0800 
 23 H       -0.7950    -2.4370    -1.9050 H     1 <1>   0.0800 
 24 H        3.2210     0.4480    -0.1940 H     1 <1>   0.0800 
 25 H        2.3350    -0.3070    -1.4850 H     1 <1>   0.0800 
 26 H        1.8210     0.9100     2.0840 H     1 <1>   0.0800 
 27 H        0.4250     1.8410     1.5840 H     1 <1>   0.0800 
 28 H        1.9930     2.2070     0.9230 H     1 <1>   0.0800 
 29 H        2.5370    -1.4150     1.2200 H     1 <1>   0.4500 
 30 H        4.0730    -2.2320    -1.1870 H     1 <1>   0.0800 
 31 H        3.9510    -3.2000     0.2550 H     1 <1>   0.0800 
 32 H        4.9670    -1.3560     1.5770 H     1 <1>   0.0800 
 33 H        5.1800    -0.4370     0.1050 H     1 <1>   0.0800 
 34 H        6.7810    -1.1660    -1.6290 H     1 <1>   0.1500 
 35 H        6.2980    -3.3790     2.0050 H     1 <1>   0.1500 
 36 H        8.8240    -2.4180    -2.1050 H     1 <1>   0.1500 
 37 H        8.3440    -4.6180     1.5060 H     1 <1>   0.1500 
 38 H        9.6100    -4.1460    -0.5460 H     1 <1>   0.1500 
@<TRIPOS>BOND
  1   1   2  1   
  2   1   3  1   
  3   2   4  1   
  4   2   5  1   
  5   2  17  1   
  6   3   6  1   
  7   3   7  1   
  8   3  18  1   
  9   4   8  1   
 10   4  19  1   
 11   4  20  1   
 12   5  21  1   
 13   5  22  1   
 14   5  23  1   
 15   6   8  1   
 16   6  24  1   
 17   6  25  1   
 18   7  26  1   
 19   7  27  1   
 20   7  28  1   
 21   8   9  1   
 22   8  29  1   
 23   9  10  1   
 24   9  30  1   
 25   9  31  1   
 26  10  11  1   
 27  10  32  1   
 28  10  33  1   
 29  11  12  ar  
 30  11  13  ar  
 31  12  14  ar  
 32  12  34  1   
 33  13  15  ar  
 34  13  35  1   
 35  14  16  ar  
 36  14  36  1   
 37  15  16  ar  
 38  15  37  1   
 39  16  38  1   
@<TRIPOS>SUBSTRUCTURE
  1 ****   9 GROUP 4 **** **** 0

# MOE 2024.06 (io_trps.svl 2023.06)
