@<TRIPOS>MOLECULE
NONAME
36 38 1 0 0 
SMALL
USER_CHARGES


@<TRIPOS>ATOM
  1 O       -0.2210    -0.3070     0.1830 O.3   1 <1>  -0.5320 
  2 C       -1.4280    -0.8820     0.0340 C.ar  1 <1>   0.0830 
  3 C       -2.5770    -0.1320     0.2540 C.ar  1 <1>  -0.1430 
  4 C       -1.5090    -2.2190    -0.3390 C.ar  1 <1>  -0.1430 
  5 C       -3.8150    -0.7330     0.0970 C.ar  1 <1>  -0.1500 
  6 C       -2.4870     1.3310     0.6630 C.3   1 <1>  -0.0970 
  7 C       -2.7600    -2.7950    -0.4880 C.ar  1 <1>  -0.1500 
  8 C       -0.2640    -3.0610    -0.5850 C.3   1 <1>  -0.0970 
  9 C       -3.9230    -2.0670    -0.2750 C.ar  1 <1>  -0.1430 
 10 C       -5.2620    -2.7890    -0.4640 C.3   1 <1>   0.0630 
 11 C       -6.5300    -1.9050    -0.5170 C.3   1 <1>  -0.0800 
 12 C       -5.5650    -3.7280     0.7220 C.3   1 <1>  -0.1600 
 13 C       -6.9410    -1.8250     0.9470 C.3   1 <1>  -0.1600 
 14 C       -7.6790    -2.7540    -1.0900 C.3   1 <1>  -0.1600 
 15 C       -6.9880    -3.3290     1.1460 C.3   1 <1>  -0.0800 
 16 C       -7.9690    -3.7560     0.0420 C.3   1 <1>  -0.1600 
 17 H        0.4990    -0.9320     0.0010 H     1 <1>   0.4500 
 18 H       -4.6950    -0.1450     0.2700 H     1 <1>   0.1500 
 19 H       -1.9460     1.4160     1.5880 H     1 <1>   0.0800 
 20 H       -3.4640     1.7600     0.7950 H     1 <1>   0.0800 
 21 H       -1.9650     1.8870    -0.0950 H     1 <1>   0.0800 
 22 H       -2.8390    -3.8280    -0.7750 H     1 <1>   0.1500 
 23 H        0.3170    -2.6340    -1.3830 H     1 <1>   0.0800 
 24 H       -0.5290    -4.0650    -0.8620 H     1 <1>   0.0800 
 25 H        0.3320    -3.1060     0.3090 H     1 <1>   0.0800 
 26 H       -5.1960    -3.3610    -1.3740 H     1 <1>   0.0800 
 27 H       -6.4030    -0.9660    -1.0270 H     1 <1>   0.0800 
 28 H       -4.8800    -3.5430     1.5320 H     1 <1>   0.0800 
 29 H       -5.5010    -4.7640     0.4390 H     1 <1>   0.0800 
 30 H       -7.9000    -1.3560     1.0880 H     1 <1>   0.0800 
 31 H       -6.2030    -1.3540     1.5740 H     1 <1>   0.0800 
 32 H       -7.4070    -3.2460    -2.0080 H     1 <1>   0.0800 
 33 H       -8.5430    -2.1360    -1.2670 H     1 <1>   0.0800 
 34 H       -7.2620    -3.6560     2.1340 H     1 <1>   0.0800 
 35 H       -7.8040    -4.7740    -0.2670 H     1 <1>   0.0800 
 36 H       -8.9850    -3.6500     0.3820 H     1 <1>   0.0800 
@<TRIPOS>BOND
  1   1   2  1   
  2   1  17  1   
  3   2   3  ar  
  4   2   4  ar  
  5   3   5  ar  
  6   3   6  1   
  7   4   7  ar  
  8   4   8  1   
  9   5   9  ar  
 10   5  18  1   
 11   6  19  1   
 12   6  20  1   
 13   6  21  1   
 14   7   9  ar  
 15   7  22  1   
 16   8  23  1   
 17   8  24  1   
 18   8  25  1   
 19   9  10  1   
 20  10  11  1   
 21  10  12  1   
 22  10  26  1   
 23  11  13  1   
 24  11  14  1   
 25  11  27  1   
 26  12  15  1   
 27  12  28  1   
 28  12  29  1   
 29  13  15  1   
 30  13  30  1   
 31  13  31  1   
 32  14  16  1   
 33  14  32  1   
 34  14  33  1   
 35  15  16  1   
 36  15  34  1   
 37  16  35  1   
 38  16  36  1   
@<TRIPOS>SUBSTRUCTURE
  1 ****   9 GROUP 4 **** **** 0

# MOE 2024.06 (io_trps.svl 2023.06)
