@<TRIPOS>MOLECULE
NONAME
35 37 1 0 0 
SMALL
USER_CHARGES


@<TRIPOS>ATOM
  1 O       -0.1270     0.2120     1.3260 O.2   1 <1>  -0.7500 
  2 N       -0.7040     1.4600     1.3260 N.4   1 <1>  -0.1220 
  3 C       -1.6630     1.6890     0.2210 C.3   1 <1>   0.3170 
  4 C        0.2010     2.6580     1.3440 C.3   1 <1>   0.5660 
  5 C       -1.6080     3.2010     0.1750 C.2   1 <1>   0.3280 
  6 C       -3.0700     1.2030     0.6280 C.3   1 <1>  -0.1600 
  7 C       -1.1960     1.0650    -1.1120 C.3   1 <1>  -0.2400 
  8 N       -0.6480     3.7200     0.7880 N.2   1 <1>  -0.6960 
  9 C        1.5230     2.5240     0.5570 C.ar  1 <1>  -0.1440 
 10 C       -2.7170     3.9300    -0.5590 C.3   1 <1>  -0.0990 
 11 C       -4.1830     1.8810    -0.1930 C.3   1 <1>  -0.1600 
 12 C        1.8460     3.3430    -0.5240 C.ar  1 <1>  -0.1500 
 13 C        2.4530     1.5680     0.9490 C.ar  1 <1>  -0.1500 
 14 C       -4.0930     3.4140    -0.1090 C.3   1 <1>  -0.1600 
 15 C        3.0520     3.2030    -1.1900 C.ar  1 <1>  -0.1500 
 16 C        3.6590     1.4250     0.2860 C.ar  1 <1>  -0.1500 
 17 C        3.9610     2.2440    -0.7860 C.ar  1 <1>  -0.1500 
 18 H       -1.2340     1.5270     2.1940 H     1 <1>   0.3600 
 19 H        0.4290     2.8940     2.3680 H     1 <1>   0.0800 
 20 H       -3.2420     1.4250     1.6660 H     1 <1>   0.0800 
 21 H       -3.1270     0.1340     0.5070 H     1 <1>   0.0800 
 22 H       -0.2010     1.3900    -1.3540 H     1 <1>   0.0800 
 23 H       -1.8480     1.3430    -1.9170 H     1 <1>   0.0800 
 24 H       -1.1920    -0.0080    -1.0340 H     1 <1>   0.0800 
 25 H       -2.5970     3.7700    -1.6150 H     1 <1>   0.0800 
 26 H       -2.6390     4.9860    -0.3720 H     1 <1>   0.0800 
 27 H       -5.1420     1.5600     0.1770 H     1 <1>   0.0800 
 28 H       -4.1180     1.5720    -1.2230 H     1 <1>   0.0800 
 29 H        1.1670     4.1050    -0.8620 H     1 <1>   0.1500 
 30 H        2.2330     0.9130     1.7750 H     1 <1>   0.1500 
 31 H       -4.8610     3.8550    -0.7230 H     1 <1>   0.0800 
 32 H       -4.2710     3.7240     0.9070 H     1 <1>   0.0800 
 33 H        3.2820     3.8440    -2.0230 H     1 <1>   0.1500 
 34 H        4.3580     0.6720     0.6050 H     1 <1>   0.1500 
 35 H        4.8980     2.1330    -1.3030 H     1 <1>   0.1500 
@<TRIPOS>BOND
  1   1   2  2   
  2   2   3  1   
  3   2   4  1   
  4   2  18  1   
  5   3   5  1   
  6   3   6  1   
  7   3   7  1   
  8   4   8  1   
  9   4   9  1   
 10   4  19  1   
 11   5   8  2   
 12   5  10  1   
 13   6  11  1   
 14   6  20  1   
 15   6  21  1   
 16   7  22  1   
 17   7  23  1   
 18   7  24  1   
 19   9  12  ar  
 20   9  13  ar  
 21  10  14  1   
 22  10  25  1   
 23  10  26  1   
 24  11  14  1   
 25  11  27  1   
 26  11  28  1   
 27  12  15  ar  
 28  12  29  1   
 29  13  16  ar  
 30  13  30  1   
 31  14  31  1   
 32  14  32  1   
 33  15  17  ar  
 34  15  33  1   
 35  16  17  ar  
 36  16  34  1   
 37  17  35  1   
@<TRIPOS>SUBSTRUCTURE
  1 ****   4 GROUP 4 **** **** 0

# MOE 2024.06 (io_trps.svl 2023.06)
