@<TRIPOS>MOLECULE
NONAME
36 36 1 0 0 
SMALL
USER_CHARGES


@<TRIPOS>ATOM
  1 BR      -1.5860     0.0230     3.0270 Br    1 <1>  -0.1110 
  2 C       -2.2290     0.9000     1.4420 C.ar  1 <1>   0.1110 
  3 C       -3.3890     0.4330     0.8530 C.ar  1 <1>  -0.1500 
  4 C       -1.5190     1.9690     0.9350 C.ar  1 <1>  -0.1500 
  5 C       -3.8640     1.0670    -0.2870 C.ar  1 <1>  -0.1440 
  6 C       -1.9900     2.5910    -0.2080 C.ar  1 <1>  -0.1500 
  7 C       -3.1530     2.1410    -0.8150 C.ar  1 <1>  -0.1500 
  8 C       -5.1430     0.5940    -0.9510 C.3   1 <1>   0.4870 
  9 N       -6.3060     1.0360    -0.1140 N.4   1 <1>  -0.9590 
 10 C       -7.5740     0.3320    -0.5380 C.3   1 <1>   0.3430 
 11 C       -6.4070     2.5390    -0.1410 C.3   1 <1>   0.2630 
 12 C       -8.7950     0.5740     0.4000 C.3   1 <1>   0.3430 
 13 N      -10.0700    -0.1180    -0.0290 N.4   1 <1>  -0.9590 
 14 C      -11.2180     0.3320     0.8310 C.3   1 <1>   0.2630 
 15 C       -9.9910    -1.6190     0.0260 C.3   1 <1>   0.2630 
 16 H       -3.8840    -0.4140     1.2950 H     1 <1>   0.1500 
 17 H       -0.6170     2.3030     1.4200 H     1 <1>   0.1500 
 18 H       -1.4460     3.4230    -0.6260 H     1 <1>   0.1500 
 19 H       -3.4880     2.6420    -1.7090 H     1 <1>   0.1500 
 20 H       -5.1180    -0.4810    -1.0250 H     1 <1>   0.0800 
 21 H       -5.2140     1.0030    -1.9470 H     1 <1>   0.0800 
 22 H       -6.0360     0.7680     0.8460 H     1 <1>   0.4500 
 23 H       -7.3820    -0.7280    -0.5740 H     1 <1>   0.0800 
 24 H       -7.8340     0.6560    -1.5330 H     1 <1>   0.0800 
 25 H       -6.6100     2.8880    -1.1410 H     1 <1>   0.0800 
 26 H       -5.4790     2.9810     0.1900 H     1 <1>   0.0800 
 27 H       -7.1900     2.8840     0.5140 H     1 <1>   0.0800 
 28 H       -8.9820     1.6350     0.4420 H     1 <1>   0.0800 
 29 H       -8.5400     0.2440     1.3940 H     1 <1>   0.0800 
 30 H      -10.3170     0.1530    -0.9970 H     1 <1>   0.4500 
 31 H      -11.0490     0.0630     1.8620 H     1 <1>   0.0800 
 32 H      -12.1360    -0.1340     0.5060 H     1 <1>   0.0800 
 33 H      -11.3430     1.4010     0.7700 H     1 <1>   0.0800 
 34 H       -9.7680    -1.9500     1.0290 H     1 <1>   0.0800 
 35 H       -9.2280    -1.9890    -0.6390 H     1 <1>   0.0800 
 36 H      -10.9340    -2.0530    -0.2700 H     1 <1>   0.0800 
@<TRIPOS>BOND
  1   1   2  1   
  2   2   3  ar  
  3   2   4  ar  
  4   3   5  ar  
  5   3  16  1   
  6   4   6  ar  
  7   4  17  1   
  8   5   7  ar  
  9   5   8  1   
 10   6   7  ar  
 11   6  18  1   
 12   7  19  1   
 13   8   9  1   
 14   8  20  1   
 15   8  21  1   
 16   9  10  1   
 17   9  11  1   
 18   9  22  1   
 19  10  12  1   
 20  10  23  1   
 21  10  24  1   
 22  11  25  1   
 23  11  26  1   
 24  11  27  1   
 25  12  13  1   
 26  12  28  1   
 27  12  29  1   
 28  13  14  1   
 29  13  15  1   
 30  13  30  1   
 31  14  31  1   
 32  14  32  1   
 33  14  33  1   
 34  15  34  1   
 35  15  35  1   
 36  15  36  1   
@<TRIPOS>SUBSTRUCTURE
  1 ****   9 GROUP 4 **** **** 0

# MOE 2024.06 (io_trps.svl 2023.06)
