@<TRIPOS>MOLECULE
NONAME
30 30 1 0 0 
SMALL
USER_CHARGES


@<TRIPOS>ATOM
  1 BR      -0.1920     0.1770     0.2320 Br    1 <1>  -0.1110 
  2 C       -0.1450    -1.7510     0.1180 C.ar  1 <1>   0.1110 
  3 C       -1.3350    -2.4630     0.0510 C.ar  1 <1>   0.0820 
  4 C        1.0990    -2.3430     0.1090 C.ar  1 <1>  -0.1500 
  5 O       -2.4790    -1.7190     0.0670 O.3   1 <1>  -0.3630 
  6 C       -1.2390    -3.8650    -0.0220 C.ar  1 <1>   0.0830 
  7 C        1.2100    -3.7290     0.0240 C.ar  1 <1>   0.0860 
  8 C       -3.7780    -2.2510    -0.0340 C.3   1 <1>   0.1200 
  9 O       -2.3700    -4.6270    -0.0780 O.3   1 <1>  -0.3620 
 10 C        0.0220    -4.4610    -0.0370 C.ar  1 <1>  -0.1500 
 11 C        2.4990    -4.4000     0.0000 C.2   1 <1>   0.5440 
 12 C       -4.7660    -1.0890    -0.0180 C.3   1 <1>  -0.2400 
 13 C       -2.3460    -6.0340     0.0090 C.3   1 <1>   0.1200 
 14 O        2.6070    -5.5780     0.2630 O.2   1 <1>  -0.5700 
 15 N        3.6450    -3.7600    -0.3300 N.am  1 <1>  -0.8000 
 16 C       -3.7900    -6.5260     0.0240 C.3   1 <1>  -0.2400 
 17 H        1.9730    -1.7230     0.1760 H     1 <1>   0.1500 
 18 H       -3.9450    -2.9040     0.8060 H     1 <1>   0.0800 
 19 H       -3.8510    -2.8010    -0.9560 H     1 <1>   0.0800 
 20 H        0.1220    -5.5280    -0.0990 H     1 <1>   0.1500 
 21 H       -4.6720    -0.5380     0.9000 H     1 <1>   0.0800 
 22 H       -5.7700    -1.4640    -0.0940 H     1 <1>   0.0800 
 23 H       -4.5780    -0.4350    -0.8510 H     1 <1>   0.0800 
 24 H       -1.8400    -6.3130     0.9180 H     1 <1>   0.0800 
 25 H       -1.8220    -6.4220    -0.8470 H     1 <1>   0.0800 
 26 H        4.5110    -4.3000    -0.3530 H     1 <1>   0.3700 
 27 H        3.6900    -2.8080    -0.6880 H     1 <1>   0.3700 
 28 H       -4.3090    -6.1210     0.8750 H     1 <1>   0.0800 
 29 H       -3.8070    -7.5980     0.0900 H     1 <1>   0.0800 
 30 H       -4.2910    -6.2290    -0.8790 H     1 <1>   0.0800 
@<TRIPOS>BOND
  1   1   2  1   
  2   2   3  ar  
  3   2   4  ar  
  4   3   5  1   
  5   3   6  ar  
  6   4   7  ar  
  7   4  17  1   
  8   5   8  1   
  9   6   9  1   
 10   6  10  ar  
 11   7  10  ar  
 12   7  11  1   
 13   8  12  1   
 14   8  18  1   
 15   8  19  1   
 16   9  13  1   
 17  10  20  1   
 18  11  14  2   
 19  11  15  am  
 20  12  21  1   
 21  12  22  1   
 22  12  23  1   
 23  13  16  1   
 24  13  24  1   
 25  13  25  1   
 26  15  26  1   
 27  15  27  1   
 28  16  28  1   
 29  16  29  1   
 30  16  30  1   
@<TRIPOS>SUBSTRUCTURE
  1 ****   6 GROUP 4 **** **** 0

# MOE 2024.06 (io_trps.svl 2023.06)
