@<TRIPOS>MOLECULE
NONAME
48 50 1 0 0 
SMALL
USER_CHARGES


@<TRIPOS>ATOM
  1 O        0.8080     0.2560    -2.8460 O.2   1 <1>  -0.5700 
  2 C        0.0430     0.6690    -2.0080 C.2   1 <1>   0.5690 
  3 N        0.3660     0.9030    -0.7010 N.am  1 <1>  -0.5470 
  4 C       -1.4070     0.9580    -2.4020 C.3   1 <1>   0.1710 
  5 C        1.5420     0.7650     0.0490 C.ar  1 <1>   0.1170 
  6 N       -2.3600     0.9150    -1.2520 N.3   1 <1>  -0.8100 
  7 C        2.7680     0.4150    -0.5080 C.ar  1 <1>  -0.1500 
  8 C        1.4800     0.9910     1.4190 C.ar  1 <1>  -0.1500 
  9 C       -2.6230    -0.4870    -0.8330 C.3   1 <1>   0.1100 
 10 C       -3.6410     1.5710    -1.6020 C.3   1 <1>   0.1100 
 11 C        3.9000     0.2890     0.2790 C.ar  1 <1>  -0.1430 
 12 C        2.6040     0.8730     2.2180 C.ar  1 <1>  -0.1430 
 13 C       -3.6180    -0.5700     0.3410 C.3   1 <1>   0.2090 
 14 C       -4.6530     1.5290    -0.4400 C.3   1 <1>   0.2090 
 15 C        3.8130     0.5190     1.6420 C.ar  1 <1>  -0.1500 
 16 C        5.2310    -0.0950    -0.3400 C.3   1 <1>  -0.0970 
 17 C        2.5210     1.1220     3.7130 C.3   1 <1>  -0.0970 
 18 N       -4.8930     0.1260     0.0130 N.pl3 1 <1>  -0.8380 
 19 C       -5.9500    -0.1010     0.8720 C.ar  1 <1>   0.4100 
 20 N       -6.2450     0.8530     1.7480 N.ar  1 <1>  -0.6200 
 21 C       -6.6420    -1.3070     0.7960 C.ar  1 <1>  -0.1500 
 22 C       -7.2530     0.5960     2.5640 C.ar  1 <1>   0.1600 
 23 C       -7.6870    -1.5630     1.6520 C.ar  1 <1>  -0.1500 
 24 C       -7.9940    -0.5720     2.5630 C.ar  1 <1>  -0.1500 
 25 H       -0.4650     1.1940    -0.1760 H     1 <1>   0.3700 
 26 H       -1.7100     0.2580    -3.1600 H     1 <1>   0.0800 
 27 H       -1.4210     1.9420    -2.8370 H     1 <1>   0.0800 
 28 H        2.8410     0.2400    -1.5640 H     1 <1>   0.1500 
 29 H        0.5400     1.2620     1.8620 H     1 <1>   0.1500 
 30 H       -1.7030    -0.9580    -0.5360 H     1 <1>   0.0800 
 31 H       -3.0280    -1.0450    -1.6610 H     1 <1>   0.0800 
 32 H       -4.0810     1.0850    -2.4560 H     1 <1>   0.0800 
 33 H       -3.4580     2.6000    -1.8580 H     1 <1>   0.0800 
 34 H       -3.1810    -0.1150     1.2130 H     1 <1>   0.0800 
 35 H       -3.8180    -1.6020     0.5680 H     1 <1>   0.0800 
 36 H       -5.5850     1.9630    -0.7560 H     1 <1>   0.0800 
 37 H       -4.2750     2.1110     0.3830 H     1 <1>   0.0800 
 38 H        4.6910     0.4230     2.2560 H     1 <1>   0.1500 
 39 H        5.0920    -0.4790    -1.3350 H     1 <1>   0.0800 
 40 H        5.7100    -0.8530     0.2530 H     1 <1>   0.0800 
 41 H        5.8710     0.7680    -0.3890 H     1 <1>   0.0800 
 42 H        1.6610     1.7210     3.9520 H     1 <1>   0.0800 
 43 H        3.4000     1.6410     4.0520 H     1 <1>   0.0800 
 44 H        2.4480     0.1850     4.2340 H     1 <1>   0.0800 
 45 H       -6.3460    -2.0230     0.0540 H     1 <1>   0.1500 
 46 H       -7.5020     1.3620     3.2780 H     1 <1>   0.1500 
 47 H       -8.2390    -2.4850     1.6130 H     1 <1>   0.1500 
 48 H       -8.8000    -0.7040     3.2620 H     1 <1>   0.1500 
@<TRIPOS>BOND
  1   1   2  2   
  2   2   3  am  
  3   2   4  1   
  4   3   5  1   
  5   3  25  1   
  6   4   6  1   
  7   4  26  1   
  8   4  27  1   
  9   5   7  ar  
 10   5   8  ar  
 11   6   9  1   
 12   6  10  1   
 13   7  11  ar  
 14   7  28  1   
 15   8  12  ar  
 16   8  29  1   
 17   9  13  1   
 18   9  30  1   
 19   9  31  1   
 20  10  14  1   
 21  10  32  1   
 22  10  33  1   
 23  11  15  ar  
 24  11  16  1   
 25  12  15  ar  
 26  12  17  1   
 27  13  18  1   
 28  13  34  1   
 29  13  35  1   
 30  14  18  1   
 31  14  36  1   
 32  14  37  1   
 33  15  38  1   
 34  16  39  1   
 35  16  40  1   
 36  16  41  1   
 37  17  42  1   
 38  17  43  1   
 39  17  44  1   
 40  18  19  1   
 41  19  20  ar  
 42  19  21  ar  
 43  20  22  ar  
 44  21  23  ar  
 45  21  45  1   
 46  22  24  ar  
 47  22  46  1   
 48  23  24  ar  
 49  23  47  1   
 50  24  48  1   
@<TRIPOS>SUBSTRUCTURE
  1 ****   9 GROUP 4 **** **** 0

# MOE 2024.06 (io_trps.svl 2023.06)
