@<TRIPOS>MOLECULE
NONAME
36 36 1 0 0 
SMALL
USER_CHARGES


@<TRIPOS>ATOM
  1 CL      -2.0640     0.7350     1.7060 Cl    1 <1>  -0.1770 
  2 C       -0.9900     1.9410     1.0320 C.ar  1 <1>   0.1770 
  3 C       -1.3280     2.5730    -0.1560 C.ar  1 <1>  -0.1440 
  4 C        0.1720     2.2510     1.7120 C.ar  1 <1>  -0.1500 
  5 C       -0.4690     3.5350    -0.6670 C.ar  1 <1>  -0.1500 
  6 C       -2.6070     2.2070    -0.8800 C.3   1 <1>   0.4870 
  7 C        1.0200     3.2150     1.1960 C.ar  1 <1>  -0.1500 
  8 C        0.6980     3.8540     0.0100 C.ar  1 <1>  -0.1500 
  9 N       -3.7710     2.6380    -0.0410 N.4   1 <1>  -0.9590 
 10 C       -5.0290     1.9120    -0.4440 C.3   1 <1>   0.3430 
 11 C       -3.8840     4.1380    -0.0500 C.3   1 <1>   0.2630 
 12 C       -6.1990     2.0550     0.5740 C.3   1 <1>   0.3430 
 13 N       -7.4300     1.2420     0.2420 N.4   1 <1>  -0.9590 
 14 C       -8.5550     1.6030     1.1710 C.3   1 <1>   0.2630 
 15 C       -7.2040    -0.2420     0.3170 C.3   1 <1>   0.2630 
 16 H        0.4140     1.7460     2.6320 H     1 <1>   0.1500 
 17 H       -0.6840     4.0460    -1.5920 H     1 <1>   0.1500 
 18 H       -2.6250     1.1380    -1.0230 H     1 <1>   0.0800 
 19 H       -2.6380     2.6820    -1.8470 H     1 <1>   0.0800 
 20 H        1.9310     3.4670     1.7140 H     1 <1>   0.1500 
 21 H        1.3670     4.6000    -0.3880 H     1 <1>   0.1500 
 22 H       -3.4900     2.3480     0.9130 H     1 <1>   0.4500 
 23 H       -4.8000     0.8630    -0.5420 H     1 <1>   0.0800 
 24 H       -5.3530     2.2750    -1.4060 H     1 <1>   0.0800 
 25 H       -4.1170     4.4950    -1.0410 H     1 <1>   0.0800 
 26 H       -2.9510     4.5840     0.2600 H     1 <1>   0.0800 
 27 H       -4.6530     4.4690     0.6290 H     1 <1>   0.0800 
 28 H       -6.4770     3.0950     0.6250 H     1 <1>   0.0800 
 29 H       -5.8460     1.7600     1.5490 H     1 <1>   0.0800 
 30 H       -7.7620     1.4680    -0.7130 H     1 <1>   0.4500 
 31 H       -8.2930     1.3740     2.1910 H     1 <1>   0.0800 
 32 H       -9.4450     1.0490     0.9160 H     1 <1>   0.0800 
 33 H       -8.7820     2.6560     1.1010 H     1 <1>   0.0800 
 34 H       -6.8830    -0.5270     1.3070 H     1 <1>   0.0800 
 35 H       -6.4550    -0.5540    -0.3920 H     1 <1>   0.0800 
 36 H       -8.1180    -0.7700     0.0940 H     1 <1>   0.0800 
@<TRIPOS>BOND
  1   1   2  1   
  2   2   3  ar  
  3   2   4  ar  
  4   3   5  ar  
  5   3   6  1   
  6   4   7  ar  
  7   4  16  1   
  8   5   8  ar  
  9   5  17  1   
 10   6   9  1   
 11   6  18  1   
 12   6  19  1   
 13   7   8  ar  
 14   7  20  1   
 15   8  21  1   
 16   9  10  1   
 17   9  11  1   
 18   9  22  1   
 19  10  12  1   
 20  10  23  1   
 21  10  24  1   
 22  11  25  1   
 23  11  26  1   
 24  11  27  1   
 25  12  13  1   
 26  12  28  1   
 27  12  29  1   
 28  13  14  1   
 29  13  15  1   
 30  13  30  1   
 31  14  31  1   
 32  14  32  1   
 33  14  33  1   
 34  15  34  1   
 35  15  35  1   
 36  15  36  1   
@<TRIPOS>SUBSTRUCTURE
  1 ****   9 GROUP 4 **** **** 0

# MOE 2024.06 (io_trps.svl 2023.06)
