@<TRIPOS>MOLECULE
NONAME
44 44 1 0 0 
SMALL
USER_CHARGES


@<TRIPOS>ATOM
  1 O       -6.9780     4.1560    -1.1500 O.2   1 <1>  -0.5700 
  2 C       -7.0070     3.1470    -0.4740 C.2   1 <1>   0.6340 
  3 O       -5.9180     2.8050     0.2150 O.3   1 <1>  -0.4300 
  4 C       -8.1750     2.3020    -0.3400 C.ar  1 <1>   0.0860 
  5 C       -4.7330     3.5730     0.1720 C.3   1 <1>   0.1200 
  6 C       -9.4630     2.8960    -0.2350 C.ar  1 <1>   0.1000 
  7 C       -8.0820     0.9150    -0.2830 C.ar  1 <1>   0.2170 
  8 C       -3.6860     2.8730     1.0330 C.3   1 <1>  -0.2400 
  9 N       -9.6230     4.2370    -0.3820 N.pl3 1 <1>  -0.8690 
 10 C      -10.5610     2.0550     0.0040 C.ar  1 <1>  -0.1500 
 11 N       -9.1800     0.1580    -0.0570 N.ar  1 <1>  -0.1790 
 12 C       -6.7810     0.1370    -0.4750 C.3   1 <1>  -0.0970 
 13 C      -10.8440     5.0850    -0.2980 C.3   1 <1>   0.2090 
 14 C      -10.4120     0.6990     0.0950 C.ar  1 <1>   0.2180 
 15 C      -10.4620     6.5400     0.0450 C.3   1 <1>   0.3430 
 16 C      -11.5830    -0.2340     0.3520 C.3   1 <1>  -0.0970 
 17 N      -11.6300     7.4910     0.0570 N.4   1 <1>  -0.9590 
 18 C      -11.1360     8.9010     0.1500 C.3   1 <1>   0.2630 
 19 C      -12.5880     7.2130     1.1760 C.3   1 <1>   0.2630 
 20 H       -4.9470     4.5580     0.5510 H     1 <1>   0.0800 
 21 H       -4.4040     3.6440    -0.8520 H     1 <1>   0.0800 
 22 H       -4.0270     2.8000     2.0500 H     1 <1>   0.0800 
 23 H       -2.7730     3.4400     1.0220 H     1 <1>   0.0800 
 24 H       -3.4800     1.8900     0.6480 H     1 <1>   0.0800 
 25 H       -8.7800     4.7470    -0.7250 H     1 <1>   0.4000 
 26 H      -11.5370     2.4890     0.1080 H     1 <1>   0.1500 
 27 H       -9.0840    -0.8610    -0.0020 H     1 <1>   0.4570 
 28 H       -6.1280     0.6400    -1.1670 H     1 <1>   0.0800 
 29 H       -6.9640    -0.8460    -0.8720 H     1 <1>   0.0800 
 30 H       -6.2660     0.0380     0.4660 H     1 <1>   0.0800 
 31 H      -11.4980     4.6940     0.4600 H     1 <1>   0.0800 
 32 H      -11.3450     5.0580    -1.2510 H     1 <1>   0.0800 
 33 H       -9.7480     6.8750    -0.6890 H     1 <1>   0.0800 
 34 H       -9.9800     6.5520     1.0090 H     1 <1>   0.0800 
 35 H      -12.4990     0.3220     0.4510 H     1 <1>   0.0800 
 36 H      -11.4310    -0.7880     1.2620 H     1 <1>   0.0800 
 37 H      -11.7010    -0.9250    -0.4650 H     1 <1>   0.0800 
 38 H      -12.1350     7.4020    -0.8400 H     1 <1>   0.4500 
 39 H      -10.5970     9.0510     1.0720 H     1 <1>   0.0800 
 40 H      -11.9640     9.5910     0.1210 H     1 <1>   0.0800 
 41 H      -10.4770     9.1240    -0.6730 H     1 <1>   0.0800 
 42 H      -12.0870     7.2940     2.1270 H     1 <1>   0.0800 
 43 H      -13.0000     6.2220     1.0860 H     1 <1>   0.0800 
 44 H      -13.4010     7.9210     1.1560 H     1 <1>   0.0800 
@<TRIPOS>BOND
  1   1   2  2   
  2   2   3  1   
  3   2   4  1   
  4   3   5  1   
  5   4   6  ar  
  6   4   7  ar  
  7   5   8  1   
  8   5  20  1   
  9   5  21  1   
 10   6   9  1   
 11   6  10  ar  
 12   7  11  ar  
 13   7  12  1   
 14   8  22  1   
 15   8  23  1   
 16   8  24  1   
 17   9  13  1   
 18   9  25  1   
 19  10  14  ar  
 20  10  26  1   
 21  11  14  ar  
 22  11  27  1   
 23  12  28  1   
 24  12  29  1   
 25  12  30  1   
 26  13  15  1   
 27  13  31  1   
 28  13  32  1   
 29  14  16  1   
 30  15  17  1   
 31  15  33  1   
 32  15  34  1   
 33  16  35  1   
 34  16  36  1   
 35  16  37  1   
 36  17  18  1   
 37  17  19  1   
 38  17  38  1   
 39  18  39  1   
 40  18  40  1   
 41  18  41  1   
 42  19  42  1   
 43  19  43  1   
 44  19  44  1   
@<TRIPOS>SUBSTRUCTURE
  1 ****   6 GROUP 4 **** **** 0

# MOE 2024.06 (io_trps.svl 2023.06)
