@<TRIPOS>MOLECULE
NONAME
40 41 1 0 0 
SMALL
USER_CHARGES


@<TRIPOS>ATOM
  1 O       -0.9880     0.4110     2.8150 O.2   1 <1>  -0.5700 
  2 C       -0.9890     1.5700     2.4670 C.2   1 <1>   0.5690 
  3 N       -0.3140     1.9850     1.3630 N.am  1 <1>  -0.7300 
  4 C       -1.8060     2.5890     3.2820 C.3   1 <1>   0.2610 
  5 C        0.3400     1.1190     0.3740 C.3   1 <1>   0.2200 
  6 O       -2.1430     3.7380     2.5100 O.3   1 <1>  -0.3630 
  7 C       -1.0360     3.0900     4.5070 C.3   1 <1>  -0.2400 
  8 C        1.4960     1.8890    -0.2520 C.3   1 <1>  -0.1600 
  9 C       -0.6140     0.9140    -0.7960 C.3   1 <1>  -0.1600 
 10 C       -2.9120     3.6580     1.3920 C.ar  1 <1>   0.0820 
 11 C        0.8650     2.7970    -1.3150 C.3   1 <1>  -0.1600 
 12 C       -0.5020     2.1840    -1.6470 C.3   1 <1>  -0.1600 
 13 C       -2.9360     4.7780     0.5760 C.ar  1 <1>  -0.1500 
 14 C       -3.6380     2.5280     1.0260 C.ar  1 <1>  -0.1500 
 15 C       -3.6610     4.7690    -0.6010 C.ar  1 <1>  -0.1500 
 16 C       -4.3630     2.5190    -0.1540 C.ar  1 <1>  -0.1500 
 17 C       -4.3740     3.6420    -0.9770 C.ar  1 <1>   0.0820 
 18 O       -5.0510     3.7120    -2.1530 O.3   1 <1>  -0.3620 
 19 C       -5.7950     2.6140    -2.6310 C.3   1 <1>   0.0400 
 20 H       -0.4730     2.9430     1.0440 H     1 <1>   0.3700 
 21 H       -2.7210     2.1290     3.6070 H     1 <1>   0.0800 
 22 H        0.6490     0.1910     0.8270 H     1 <1>   0.0800 
 23 H       -0.1240     3.5710     4.2010 H     1 <1>   0.0800 
 24 H       -0.7880     2.2590     5.1420 H     1 <1>   0.0800 
 25 H       -1.6400     3.7820     5.0660 H     1 <1>   0.0800 
 26 H        2.1480     1.1840    -0.7370 H     1 <1>   0.0800 
 27 H        2.0650     2.4350     0.4800 H     1 <1>   0.0800 
 28 H       -1.6210     0.7190    -0.4720 H     1 <1>   0.0800 
 29 H       -0.2700     0.0740    -1.3730 H     1 <1>   0.0800 
 30 H        1.4910     2.8550    -2.1890 H     1 <1>   0.0800 
 31 H        0.7290     3.7890    -0.9200 H     1 <1>   0.0800 
 32 H       -1.2840     2.8730    -1.3740 H     1 <1>   0.0800 
 33 H       -0.5930     1.9570    -2.6950 H     1 <1>   0.0800 
 34 H       -2.3830     5.6530     0.8650 H     1 <1>   0.1500 
 35 H       -3.6500     1.6460     1.6380 H     1 <1>   0.1500 
 36 H       -3.6790     5.6350    -1.2380 H     1 <1>   0.1500 
 37 H       -4.9100     1.6330    -0.4130 H     1 <1>   0.1500 
 38 H       -6.2340     2.8930    -3.5710 H     1 <1>   0.0800 
 39 H       -6.5690     2.3810    -1.9210 H     1 <1>   0.0800 
 40 H       -5.1330     1.7770    -2.7700 H     1 <1>   0.0800 
@<TRIPOS>BOND
  1   1   2  2   
  2   2   3  am  
  3   2   4  1   
  4   3   5  1   
  5   3  20  1   
  6   4   6  1   
  7   4   7  1   
  8   4  21  1   
  9   5   8  1   
 10   5   9  1   
 11   5  22  1   
 12   6  10  1   
 13   7  23  1   
 14   7  24  1   
 15   7  25  1   
 16   8  11  1   
 17   8  26  1   
 18   8  27  1   
 19   9  12  1   
 20   9  28  1   
 21   9  29  1   
 22  10  13  ar  
 23  10  14  ar  
 24  11  12  1   
 25  11  30  1   
 26  11  31  1   
 27  12  32  1   
 28  12  33  1   
 29  13  15  ar  
 30  13  34  1   
 31  14  16  ar  
 32  14  35  1   
 33  15  17  ar  
 34  15  36  1   
 35  16  17  ar  
 36  16  37  1   
 37  17  18  1   
 38  18  19  1   
 39  19  38  1   
 40  19  39  1   
 41  19  40  1   
@<TRIPOS>SUBSTRUCTURE
  1 ****  10 GROUP 4 **** **** 0

# MOE 2024.06 (io_trps.svl 2023.06)
