@<TRIPOS>MOLECULE
NONAME
38 41 1 0 0 
SMALL
USER_CHARGES


@<TRIPOS>ATOM
  1 O       -1.2010     0.5020     1.3640 O.2   1 <1>  -0.5700 
  2 C       -1.0440     1.4850     0.6850 C.2   1 <1>   0.5690 
  3 N        0.0560     2.2820     0.6810 N.am  1 <1>  -0.4200 
  4 C       -2.0880     2.0020    -0.2820 C.3   1 <1>  -0.0190 
  5 C       -0.0960     3.3490    -0.1480 C.2   1 <1>   0.5690 
  6 C        1.2760     2.0030     1.4650 C.3   1 <1>   0.2840 
  7 C       -1.4320     3.2880    -0.8600 C.3   1 <1>  -0.0190 
  8 C       -3.3700     2.5340     0.3930 C.3   1 <1>   0.0580 
  9 O        0.6890     4.2480    -0.3060 O.2   1 <1>  -0.5700 
 10 C        2.2580     1.1910     0.6300 C.ar  1 <1>  -0.1440 
 11 C       -2.4190     4.4010    -0.4480 C.3   1 <1>   0.0580 
 12 C       -4.2470     3.0300    -0.7430 C.2   1 <1>  -0.2880 
 13 C       -2.9030     3.8950     0.9120 C.3   1 <1>  -0.1600 
 14 C        3.4280     1.7650     0.1420 C.ar  1 <1>   0.0820 
 15 C        1.9900    -0.1400     0.3430 C.ar  1 <1>  -0.1500 
 16 C       -3.6850     4.1310    -1.2380 C.2   1 <1>  -0.2880 
 17 O        3.7050     3.0540     0.4360 O.3   1 <1>  -0.3630 
 18 C        4.3100     1.0150    -0.6250 C.ar  1 <1>  -0.1500 
 19 C        2.8670    -0.8850    -0.4260 C.ar  1 <1>  -0.1500 
 20 C        3.9140     3.9390    -0.6420 C.3   1 <1>   0.0400 
 21 C        4.0280    -0.3080    -0.9110 C.ar  1 <1>  -0.1500 
 22 H       -2.3000     1.2690    -1.0390 H     1 <1>   0.0800 
 23 H        1.0140     1.4470     2.3480 H     1 <1>   0.0800 
 24 H        1.7130     2.9340     1.7830 H     1 <1>   0.0800 
 25 H       -1.2920     3.2400    -1.9250 H     1 <1>   0.0800 
 26 H       -3.8480     1.8950     1.1160 H     1 <1>   0.0800 
 27 H       -2.0540     5.4150    -0.4670 H     1 <1>   0.0800 
 28 H       -5.1380     2.4970    -1.0280 H     1 <1>   0.1500 
 29 H       -2.1300     3.8370     1.6580 H     1 <1>   0.0800 
 30 H       -3.7230     4.4830     1.2900 H     1 <1>   0.0800 
 31 H        1.0930    -0.6050     0.7170 H     1 <1>   0.1500 
 32 H       -3.9770     4.7730    -2.0520 H     1 <1>   0.1500 
 33 H        5.2170     1.4600    -0.9890 H     1 <1>   0.1500 
 34 H        2.6460    -1.9160    -0.6440 H     1 <1>   0.1500 
 35 H        3.8890     4.9430    -0.2590 H     1 <1>   0.0800 
 36 H        3.1230     3.8060    -1.3600 H     1 <1>   0.0800 
 37 H        4.8700     3.7370    -1.0870 H     1 <1>   0.0800 
 38 H        4.7100    -0.8890    -1.5060 H     1 <1>   0.1500 
@<TRIPOS>BOND
  1   1   2  2   
  2   2   3  am  
  3   2   4  1   
  4   3   5  am  
  5   3   6  1   
  6   4   7  1   
  7   4   8  1   
  8   4  22  1   
  9   5   7  1   
 10   5   9  2   
 11   6  10  1   
 12   6  23  1   
 13   6  24  1   
 14   7  11  1   
 15   7  25  1   
 16   8  12  1   
 17   8  13  1   
 18   8  26  1   
 19  10  14  ar  
 20  10  15  ar  
 21  11  13  1   
 22  11  16  1   
 23  11  27  1   
 24  12  16  2   
 25  12  28  1   
 26  13  29  1   
 27  13  30  1   
 28  14  17  1   
 29  14  18  ar  
 30  15  19  ar  
 31  15  31  1   
 32  16  32  1   
 33  17  20  1   
 34  18  21  ar  
 35  18  33  1   
 36  19  21  ar  
 37  19  34  1   
 38  20  35  1   
 39  20  36  1   
 40  20  37  1   
 41  21  38  1   
@<TRIPOS>SUBSTRUCTURE
  1 ****   3 GROUP 4 **** **** 0

# MOE 2024.06 (io_trps.svl 2023.06)
