@<TRIPOS>MOLECULE
NONAME
42 44 1 0 0 
SMALL
USER_CHARGES


@<TRIPOS>ATOM
  1 S       -0.0040     0.3790    -2.5620 S.3   1 <1>  -0.0800 
  2 C        0.5280     1.3820    -1.2330 C.2   1 <1>  -0.1400 
  3 C       -1.5680     1.1620    -2.5570 C.2   1 <1>  -0.1100 
  4 C       -0.4340     2.2330    -0.8460 C.2   1 <1>  -0.1810 
  5 C        1.9320     1.2440    -0.6870 C.3   1 <1>   0.0200 
  6 C       -1.6690     2.1030    -1.5850 C.2   1 <1>  -0.0860 
  7 C       -0.1840     3.2500     0.2590 C.3   1 <1>   0.0210 
  8 C        2.0460     2.0420     0.6250 C.3   1 <1>  -0.1600 
  9 C       -2.8580     2.8800    -1.3110 C.2   1 <1>   0.7160 
 10 C        1.3250     3.4030     0.5360 C.3   1 <1>  -0.1600 
 11 O       -3.3950     3.5120    -2.2000 O.2   1 <1>  -0.5700 
 12 N       -3.4680     2.8720    -0.0720 N.am  1 <1>  -0.6600 
 13 C       -4.5070     3.8920     0.2490 C.3   1 <1>   0.1400 
 14 C       -3.3150     1.7450     0.8840 C.3   1 <1>   0.1400 
 15 C       -5.8380     3.5600    -0.4540 C.3   1 <1>   0.3430 
 16 C       -4.6610     1.0650     1.1690 C.3   1 <1>  -0.1600 
 17 N       -6.5080     2.2960     0.0280 N.4   1 <1>  -0.9590 
 18 C       -5.6340     1.0810    -0.0160 C.3   1 <1>   0.3430 
 19 C       -7.7400     2.0590    -0.7830 C.3   1 <1>   0.2630 
 20 H       -2.2800     0.8380    -3.2950 H     1 <1>   0.1500 
 21 H        2.6250     1.6290    -1.4150 H     1 <1>   0.0800 
 22 H        2.1620     0.2080    -0.5100 H     1 <1>   0.0800 
 23 H       -0.6770     2.9250     1.1560 H     1 <1>   0.0800 
 24 H       -0.5880     4.2060    -0.0240 H     1 <1>   0.0800 
 25 H        3.0850     2.1900     0.8640 H     1 <1>   0.0800 
 26 H        1.6040     1.4670     1.4200 H     1 <1>   0.0800 
 27 H        1.4670     3.9520     1.4500 H     1 <1>   0.0800 
 28 H        1.7670     3.9760    -0.2620 H     1 <1>   0.0800 
 29 H       -4.1650     4.8500    -0.1050 H     1 <1>   0.0800 
 30 H       -4.6470     3.9700     1.3130 H     1 <1>   0.0800 
 31 H       -2.8830     2.1060     1.8030 H     1 <1>   0.0800 
 32 H       -2.6380     1.0110     0.4780 H     1 <1>   0.0800 
 33 H       -5.6450     3.4850    -1.5120 H     1 <1>   0.0800 
 34 H       -6.5090     4.3900    -0.3110 H     1 <1>   0.0800 
 35 H       -5.1180     1.4980     2.0400 H     1 <1>   0.0800 
 36 H       -4.4480     0.0400     1.4150 H     1 <1>   0.0800 
 37 H       -6.7890     2.4370     1.0080 H     1 <1>   0.4500 
 38 H       -6.2550     0.2010     0.0500 H     1 <1>   0.0800 
 39 H       -5.0920     1.0370    -0.9480 H     1 <1>   0.0800 
 40 H       -7.4810     1.9050    -1.8190 H     1 <1>   0.0800 
 41 H       -8.4030     2.9070    -0.7170 H     1 <1>   0.0800 
 42 H       -8.2640     1.1870    -0.4260 H     1 <1>   0.0800 
@<TRIPOS>BOND
  1   1   2  1   
  2   1   3  1   
  3   2   4  2   
  4   2   5  1   
  5   3   6  2   
  6   3  20  1   
  7   4   6  1   
  8   4   7  1   
  9   5   8  1   
 10   5  21  1   
 11   5  22  1   
 12   6   9  1   
 13   7  10  1   
 14   7  23  1   
 15   7  24  1   
 16   8  10  1   
 17   8  25  1   
 18   8  26  1   
 19   9  11  2   
 20   9  12  am  
 21  10  27  1   
 22  10  28  1   
 23  12  13  1   
 24  12  14  1   
 25  13  15  1   
 26  13  29  1   
 27  13  30  1   
 28  14  16  1   
 29  14  31  1   
 30  14  32  1   
 31  15  17  1   
 32  15  33  1   
 33  15  34  1   
 34  16  18  1   
 35  16  35  1   
 36  16  36  1   
 37  17  18  1   
 38  17  19  1   
 39  17  37  1   
 40  18  38  1   
 41  18  39  1   
 42  19  40  1   
 43  19  41  1   
 44  19  42  1   
@<TRIPOS>SUBSTRUCTURE
  1 ****   9 GROUP 4 **** **** 0

# MOE 2024.06 (io_trps.svl 2023.06)
