@<TRIPOS>MOLECULE
NONAME
32 32 1 0 0 
SMALL
USER_CHARGES


@<TRIPOS>ATOM
  1 BR       0.9700    -0.1040     1.7970 Br    1 <1>  -0.1110 
  2 C        0.3860    -1.7800     1.0500 C.ar  1 <1>   0.1110 
  3 C       -0.9260    -2.1640     1.2140 C.ar  1 <1>  -0.1500 
  4 C        1.3000    -2.5540     0.3670 C.ar  1 <1>  -0.1500 
  5 C       -1.3880    -3.3730     0.6850 C.ar  1 <1>   0.0860 
  6 C        0.8710    -3.7540    -0.1630 C.ar  1 <1>  -0.1500 
  7 C       -0.4540    -4.1730    -0.0100 C.ar  1 <1>   0.0830 
  8 C       -2.7890    -3.7230     0.8850 C.2   1 <1>   0.5440 
  9 O       -0.8640    -5.3630    -0.5260 O.3   1 <1>  -0.3630 
 10 O       -3.4240    -3.1960     1.7800 O.2   1 <1>  -0.5700 
 11 N       -3.4240    -4.6230     0.0730 N.am  1 <1>  -0.7300 
 12 C        0.0190    -6.3010    -1.1060 C.3   1 <1>   0.0400 
 13 C       -4.8120    -5.1220     0.1190 C.3   1 <1>   0.2200 
 14 C       -5.8040    -3.9630    -0.0650 C.3   1 <1>  -0.1600 
 15 C       -5.0240    -5.9100     1.4130 C.3   1 <1>  -0.2400 
 16 C       -7.2430    -4.4340    -0.3220 C.3   1 <1>  -0.2400 
 17 H       -1.5970    -1.5210     1.7560 H     1 <1>   0.1500 
 18 H        2.3170    -2.2210     0.2570 H     1 <1>   0.1500 
 19 H        1.5900    -4.3490    -0.6940 H     1 <1>   0.1500 
 20 H       -2.8080    -5.1410    -0.5610 H     1 <1>   0.3700 
 21 H       -0.5470    -7.1760    -1.3680 H     1 <1>   0.0800 
 22 H        0.7770    -6.5600    -0.3870 H     1 <1>   0.0800 
 23 H        0.4550    -5.8720    -1.9910 H     1 <1>   0.0800 
 24 H       -4.9360    -5.7990    -0.7090 H     1 <1>   0.0800 
 25 H       -5.4860    -3.3690    -0.9040 H     1 <1>   0.0800 
 26 H       -5.7940    -3.3340     0.8080 H     1 <1>   0.0800 
 27 H       -4.9860    -5.2530     2.2630 H     1 <1>   0.0800 
 28 H       -4.2640    -6.6630     1.5160 H     1 <1>   0.0800 
 29 H       -5.9810    -6.3960     1.4020 H     1 <1>   0.0800 
 30 H       -7.2810    -5.0810    -1.1810 H     1 <1>   0.0800 
 31 H       -7.8750    -3.5830    -0.5080 H     1 <1>   0.0800 
 32 H       -7.6310    -4.9590     0.5310 H     1 <1>   0.0800 
@<TRIPOS>BOND
  1   1   2  1   
  2   2   3  ar  
  3   2   4  ar  
  4   3   5  ar  
  5   3  17  1   
  6   4   6  ar  
  7   4  18  1   
  8   5   7  ar  
  9   5   8  1   
 10   6   7  ar  
 11   6  19  1   
 12   7   9  1   
 13   8  10  2   
 14   8  11  am  
 15   9  12  1   
 16  11  13  1   
 17  11  20  1   
 18  12  21  1   
 19  12  22  1   
 20  12  23  1   
 21  13  14  1   
 22  13  15  1   
 23  13  24  1   
 24  14  16  1   
 25  14  25  1   
 26  14  26  1   
 27  15  27  1   
 28  15  28  1   
 29  15  29  1   
 30  16  30  1   
 31  16  31  1   
 32  16  32  1   
@<TRIPOS>SUBSTRUCTURE
  1 ****   5 GROUP 4 **** **** 0

# MOE 2024.06 (io_trps.svl 2023.06)
