@<TRIPOS>MOLECULE
NONAME
41 42 1 0 0 
SMALL
USER_CHARGES


@<TRIPOS>ATOM
  1 F       -0.1680     0.9910     2.2870 F     1 <1>  -0.1900 
  2 C       -1.0270     1.3890     1.3810 C.ar  1 <1>   0.1900 
  3 C       -0.6320     1.6860     0.0700 C.ar  1 <1>   0.0830 
  4 C       -2.3430     1.4990     1.7930 C.ar  1 <1>  -0.1500 
  5 O        0.6270     1.6160    -0.4480 O.3   1 <1>  -0.3630 
  6 C       -1.6160     2.0990    -0.8170 C.ar  1 <1>  -0.1500 
  7 C       -3.3040     1.9140     0.8860 C.ar  1 <1>  -0.1500 
  8 C        1.7480     1.2170     0.3070 C.3   1 <1>   0.1200 
  9 C       -2.9380     2.2130    -0.4160 C.ar  1 <1>  -0.1500 
 10 C        2.9770     1.2610    -0.5990 C.3   1 <1>  -0.1600 
 11 C        4.2260     0.8360     0.1700 C.3   1 <1>   0.1200 
 12 O        5.3230     0.8940    -0.7050 O.3   1 <1>  -0.3630 
 13 C        6.5150     0.5400    -0.1550 C.ar  1 <1>   0.0830 
 14 C        7.3200     1.5150     0.4350 C.ar  1 <1>   0.0830 
 15 C        6.9310    -0.7910    -0.2040 C.ar  1 <1>   0.0830 
 16 O        6.8590     2.8000     0.4690 O.3   1 <1>  -0.3630 
 17 C        8.5520     1.1480     0.9700 C.ar  1 <1>  -0.1500 
 18 O        6.0990    -1.7070    -0.7800 O.3   1 <1>  -0.3630 
 19 C        8.1670    -1.1370     0.3370 C.ar  1 <1>  -0.1500 
 20 C        7.6960     3.8720     0.8380 C.3   1 <1>   0.0400 
 21 C        8.9690    -0.1710     0.9180 C.ar  1 <1>  -0.1500 
 22 C        6.5350    -3.0150    -1.0720 C.3   1 <1>   0.0400 
 23 H       -2.6090     1.2620     2.8070 H     1 <1>   0.1500 
 24 H       -1.3360     2.3330    -1.8290 H     1 <1>   0.1500 
 25 H       -4.3320     2.0040     1.1920 H     1 <1>   0.1500 
 26 H        1.5780     0.2170     0.6660 H     1 <1>   0.0800 
 27 H        1.8620     1.8990     1.1320 H     1 <1>   0.0800 
 28 H       -3.6840     2.5360    -1.1220 H     1 <1>   0.1500 
 29 H        3.1140     2.2630    -0.9650 H     1 <1>   0.0800 
 30 H        2.8310     0.5910    -1.4280 H     1 <1>   0.0800 
 31 H        4.1350    -0.1750     0.5280 H     1 <1>   0.0800 
 32 H        4.4190     1.5030     0.9930 H     1 <1>   0.0800 
 33 H        9.1970     1.8690     1.4330 H     1 <1>   0.1500 
 34 H        8.5190    -2.1500     0.3190 H     1 <1>   0.1500 
 35 H        7.1470     4.7860     0.6980 H     1 <1>   0.0800 
 36 H        8.5660     3.8680     0.2050 H     1 <1>   0.0800 
 37 H        7.9670     3.7640     1.8730 H     1 <1>   0.0800 
 38 H        9.9230    -0.4470     1.3340 H     1 <1>   0.1500 
 39 H        5.7470    -3.5170    -1.6040 H     1 <1>   0.0800 
 40 H        6.7380    -3.5290    -0.1490 H     1 <1>   0.0800 
 41 H        7.4150    -2.9600    -1.6880 H     1 <1>   0.0800 
@<TRIPOS>BOND
  1   1   2  1   
  2   2   3  ar  
  3   2   4  ar  
  4   3   5  1   
  5   3   6  ar  
  6   4   7  ar  
  7   4  23  1   
  8   5   8  1   
  9   6   9  ar  
 10   6  24  1   
 11   7   9  ar  
 12   7  25  1   
 13   8  10  1   
 14   8  26  1   
 15   8  27  1   
 16   9  28  1   
 17  10  11  1   
 18  10  29  1   
 19  10  30  1   
 20  11  12  1   
 21  11  31  1   
 22  11  32  1   
 23  12  13  1   
 24  13  14  ar  
 25  13  15  ar  
 26  14  16  1   
 27  14  17  ar  
 28  15  18  1   
 29  15  19  ar  
 30  16  20  1   
 31  17  21  ar  
 32  17  33  1   
 33  18  22  1   
 34  19  21  ar  
 35  19  34  1   
 36  20  35  1   
 37  20  36  1   
 38  20  37  1   
 39  21  38  1   
 40  22  39  1   
 41  22  40  1   
 42  22  41  1   
@<TRIPOS>SUBSTRUCTURE
  1 ****  11 GROUP 4 **** **** 0

# MOE 2024.06 (io_trps.svl 2023.06)
