@<TRIPOS>MOLECULE
NONAME
31 31 1 0 0 
SMALL
USER_CHARGES


@<TRIPOS>ATOM
  1 S       -0.0280     0.5740     0.2680 S.3   1 <1>  -0.4600 
  2 C       -1.7720     0.1930    -0.0420 C.3   1 <1>   0.0700 
  3 C        0.6770    -1.0410     0.6920 C.3   1 <1>  -0.0100 
  4 C       -2.4540     1.4810    -0.5000 C.3   1 <1>  -0.0990 
  5 C       -3.9430     1.2770    -0.6890 C.2   1 <1>   0.5690 
  6 O       -4.3180     0.2940    -1.2740 O.2   1 <1>  -0.5700 
  7 N       -4.7820     2.2380    -0.1900 N.am  1 <1>  -0.5470 
  8 C       -6.1770     2.3380    -0.1810 C.ar  1 <1>   0.1170 
  9 C       -6.7570     3.5710     0.0930 C.ar  1 <1>  -0.1500 
 10 C       -7.0310     1.2660    -0.4190 C.ar  1 <1>  -0.1500 
 11 C       -8.1300     3.7290     0.1240 C.ar  1 <1>  -0.1500 
 12 C       -8.4030     1.4260    -0.3890 C.ar  1 <1>  -0.1500 
 13 C       -9.0000     2.6600    -0.1180 C.ar  1 <1>   0.0860 
 14 C      -10.4430     2.7870    -0.0970 C.2   1 <1>   0.4230 
 15 O      -11.1900     1.8580    -0.2700 O.2   1 <1>  -0.5700 
 16 C      -11.0940     4.1340     0.1520 C.3   1 <1>  -0.1790 
 17 H       -2.1920    -0.1760     0.8780 H     1 <1>   0.0800 
 18 H       -1.8130    -0.5690    -0.8020 H     1 <1>   0.0800 
 19 H        1.7240    -0.8980     0.8930 H     1 <1>   0.0800 
 20 H        0.5340    -1.6970    -0.1480 H     1 <1>   0.0800 
 21 H        0.1670    -1.4090     1.5640 H     1 <1>   0.0800 
 22 H       -2.0300     1.7930    -1.4370 H     1 <1>   0.0800 
 23 H       -2.2780     2.2500     0.2290 H     1 <1>   0.0800 
 24 H       -4.3020     3.0380     0.2170 H     1 <1>   0.3700 
 25 H       -6.1260     4.4200     0.2830 H     1 <1>   0.1500 
 26 H       -6.6290     0.2910    -0.6280 H     1 <1>   0.1500 
 27 H       -8.5240     4.7060     0.3400 H     1 <1>   0.1500 
 28 H       -9.0340     0.5740    -0.5790 H     1 <1>   0.1500 
 29 H      -10.7800     4.8390    -0.5950 H     1 <1>   0.0800 
 30 H      -10.8320     4.4940     1.1290 H     1 <1>   0.0800 
 31 H      -12.1640     4.0370     0.1000 H     1 <1>   0.0800 
@<TRIPOS>BOND
  1   1   2  1   
  2   1   3  1   
  3   2   4  1   
  4   2  17  1   
  5   2  18  1   
  6   3  19  1   
  7   3  20  1   
  8   3  21  1   
  9   4   5  1   
 10   4  22  1   
 11   4  23  1   
 12   5   6  2   
 13   5   7  am  
 14   7   8  1   
 15   7  24  1   
 16   8   9  ar  
 17   8  10  ar  
 18   9  11  ar  
 19   9  25  1   
 20  10  12  ar  
 21  10  26  1   
 22  11  13  ar  
 23  11  27  1   
 24  12  13  ar  
 25  12  28  1   
 26  13  14  1   
 27  14  15  2   
 28  14  16  1   
 29  16  29  1   
 30  16  30  1   
 31  16  31  1   
@<TRIPOS>SUBSTRUCTURE
  1 ****   8 GROUP 4 **** **** 0

# MOE 2024.06 (io_trps.svl 2023.06)
