@<TRIPOS>MOLECULE
NONAME
43 45 1 0 0 
SMALL
USER_CHARGES


@<TRIPOS>ATOM
  1 CL      -2.9220     2.2960    -3.6850 Cl    1 <1>  -0.1770 
  2 C       -3.1290     1.9310    -1.9870 C.ar  1 <1>   0.1770 
  3 C       -2.2500     2.4400    -1.0440 C.ar  1 <1>   0.1770 
  4 C       -4.1840     1.1280    -1.6010 C.ar  1 <1>  -0.1500 
  5 CL      -0.9100     3.4580    -1.5200 Cl    1 <1>  -0.1770 
  6 C       -2.4250     2.1470     0.2960 C.ar  1 <1>  -0.1500 
  7 C       -4.3760     0.8230    -0.2560 C.ar  1 <1>   0.1170 
  8 C       -3.4840     1.3420     0.6830 C.ar  1 <1>  -0.1500 
  9 N       -5.4550     0.0040     0.1440 N.am  1 <1>  -0.2370 
 10 C       -6.3590     0.3020     1.1270 C.2   1 <1>   0.5690 
 11 C       -5.7590    -1.2140    -0.3970 C.2   1 <1>   0.5690 
 12 O       -6.2620     1.2140     1.9140 O.2   1 <1>  -0.5700 
 13 C       -7.5010    -0.7270     1.1630 C.3   1 <1>   0.2510 
 14 O       -5.1520    -1.7700    -1.2750 O.2   1 <1>  -0.5700 
 15 C       -6.9630    -1.8420     0.2560 C.3   1 <1>  -0.0990 
 16 N       -8.8110    -0.2560     0.6250 N.3   1 <1>  -0.8100 
 17 C       -9.9030    -1.2030     0.9090 C.3   1 <1>   0.1100 
 18 C       -9.1660     1.1030     1.1000 C.3   1 <1>   0.1100 
 19 C      -11.1120    -0.8760     0.0210 C.3   1 <1>  -0.1600 
 20 C      -10.6300     1.4700     0.8010 C.3   1 <1>  -0.1600 
 21 C      -11.2140     0.6220    -0.3430 C.3   1 <1>  -0.0190 
 22 C      -12.6420     1.0080    -0.7200 C.2   1 <1>   0.6590 
 23 O      -13.3900     1.5520     0.0520 O.2   1 <1>  -0.5700 
 24 O      -13.0150     0.6930    -1.9550 O.3   1 <1>  -0.4300 
 25 C      -14.3130     0.9820    -2.4330 C.3   1 <1>   0.0400 
 26 H       -4.8520     0.7380    -2.3490 H     1 <1>   0.1500 
 27 H       -1.7410     2.5460     1.0240 H     1 <1>   0.1500 
 28 H       -3.6220     1.1180     1.7270 H     1 <1>   0.1500 
 29 H       -7.6240    -1.0740     2.1740 H     1 <1>   0.0800 
 30 H       -6.6440    -2.6880     0.8350 H     1 <1>   0.0800 
 31 H       -7.6630    -2.1510    -0.4980 H     1 <1>   0.0800 
 32 H      -10.1810    -1.1240     1.9480 H     1 <1>   0.0800 
 33 H       -9.5980    -2.2180     0.7230 H     1 <1>   0.0800 
 34 H       -8.5290     1.8160     0.6050 H     1 <1>   0.0800 
 35 H       -8.9930     1.1860     2.1610 H     1 <1>   0.0800 
 36 H      -12.0010    -1.1880     0.5410 H     1 <1>   0.0800 
 37 H      -11.0540    -1.4510    -0.8860 H     1 <1>   0.0800 
 38 H      -10.6910     2.5170     0.5570 H     1 <1>   0.0800 
 39 H      -11.2170     1.3190     1.6900 H     1 <1>   0.0800 
 40 H      -10.6010     0.7960    -1.2100 H     1 <1>   0.0800 
 41 H      -14.3860     0.6400    -3.4500 H     1 <1>   0.0800 
 42 H      -14.4710     2.0460    -2.3860 H     1 <1>   0.0800 
 43 H      -15.0320     0.4730    -1.8160 H     1 <1>   0.0800 
@<TRIPOS>BOND
  1   1   2  1   
  2   2   3  ar  
  3   2   4  ar  
  4   3   5  1   
  5   3   6  ar  
  6   4   7  ar  
  7   4  26  1   
  8   6   8  ar  
  9   6  27  1   
 10   7   8  ar  
 11   7   9  1   
 12   8  28  1   
 13   9  10  am  
 14   9  11  am  
 15  10  12  2   
 16  10  13  1   
 17  11  14  2   
 18  11  15  1   
 19  13  15  1   
 20  13  16  1   
 21  13  29  1   
 22  15  30  1   
 23  15  31  1   
 24  16  17  1   
 25  16  18  1   
 26  17  19  1   
 27  17  32  1   
 28  17  33  1   
 29  18  20  1   
 30  18  34  1   
 31  18  35  1   
 32  19  21  1   
 33  19  36  1   
 34  19  37  1   
 35  20  21  1   
 36  20  38  1   
 37  20  39  1   
 38  21  22  1   
 39  21  40  1   
 40  22  23  2   
 41  22  24  1   
 42  24  25  1   
 43  25  41  1   
 44  25  42  1   
 45  25  43  1   
@<TRIPOS>SUBSTRUCTURE
  1 ****  10 GROUP 4 **** **** 0

# MOE 2024.06 (io_trps.svl 2023.06)
