@<TRIPOS>MOLECULE
NONAME
47 50 1 0 0 
SMALL
USER_CHARGES


@<TRIPOS>ATOM
  1 BR       2.1250     2.9450    -3.0610 Br    1 <1>  -0.1110 
  2 C        2.8460     1.5070    -2.0050 C.ar  1 <1>   0.1110 
  3 C        4.2070     1.2720    -2.0470 C.ar  1 <1>  -0.1500 
  4 C        1.9850     0.7520    -1.2300 C.ar  1 <1>  -0.1500 
  5 C        4.7300     0.2470    -1.2770 C.ar  1 <1>  -0.0320 
  6 C        2.5120    -0.2780    -0.4700 C.ar  1 <1>  -0.1500 
  7 C        3.8770    -0.5300    -0.4970 C.ar  1 <1>   0.0830 
  8 C        6.2200    -0.0230    -1.2610 C.3   1 <1>  -0.0680 
  9 O        4.3460    -1.5540     0.2590 O.3   1 <1>  -0.2330 
 10 C        6.6820    -1.1710    -0.4090 C.3   1 <1>   0.0000 
 11 C        7.0530     0.2520    -0.0420 C.3   1 <1>  -0.0950 
 12 C        5.6120    -1.9710     0.3150 C.2   1 <1>   0.7200 
 13 C        7.6480    -2.1420    -1.0430 C.2   1 <1>   0.7200 
 14 C        6.3750     0.8660     1.1900 C.2   1 <1>   0.4840 
 15 C        8.5110     0.7300    -0.2300 C.3   1 <1>  -0.0650 
 16 O        5.8780    -2.9830     0.9090 O.2   1 <1>  -0.5700 
 17 O        7.5160    -2.4950    -2.1880 O.2   1 <1>  -0.5700 
 18 O        8.6620    -2.5520    -0.2940 O.3   1 <1>  -0.4300 
 19 O        6.3640     0.1860     2.1840 O.2   1 <1>  -0.5700 
 20 C        5.7730     2.1870     1.1440 C.ar  1 <1>   0.0860 
 21 C        9.3860     0.4530     0.9990 C.3   1 <1>  -0.2400 
 22 C        9.6110    -3.4760    -0.7690 C.3   1 <1>   0.1200 
 23 C        4.9870     2.6320     2.2110 C.ar  1 <1>  -0.1500 
 24 C        5.9260     3.0710     0.0700 C.ar  1 <1>  -0.1500 
 25 C       10.6560    -3.6770     0.3230 C.3   1 <1>  -0.2400 
 26 C        4.3830     3.8760     2.2090 C.ar  1 <1>  -0.1500 
 27 C        5.3240     4.3160     0.0590 C.ar  1 <1>  -0.1500 
 28 C        4.5500     4.7220     1.1290 C.ar  1 <1>  -0.1500 
 29 H        4.8360     1.8850    -2.6660 H     1 <1>   0.1500 
 30 H        0.9310     0.9670    -1.2220 H     1 <1>   0.1500 
 31 H        1.8710    -0.8870     0.1430 H     1 <1>   0.1500 
 32 H        6.6760     0.0840    -2.2310 H     1 <1>   0.1000 
 33 H        8.5270     1.7880    -0.4220 H     1 <1>   0.0800 
 34 H        8.9540     0.2490    -1.0850 H     1 <1>   0.0800 
 35 H        9.0570     1.0330     1.8430 H     1 <1>   0.0800 
 36 H       10.4090     0.7120     0.7900 H     1 <1>   0.0800 
 37 H        9.3470    -0.5870     1.2710 H     1 <1>   0.0800 
 38 H       10.0580    -3.0790    -1.6650 H     1 <1>   0.0800 
 39 H        9.1030    -4.3980    -0.9940 H     1 <1>   0.0800 
 40 H        4.8450     1.9850     3.0610 H     1 <1>   0.1500 
 41 H        6.5170     2.7930    -0.7800 H     1 <1>   0.1500 
 42 H       11.1470    -2.7460     0.5440 H     1 <1>   0.0800 
 43 H       11.3940    -4.3850    -0.0060 H     1 <1>   0.0800 
 44 H       10.1880    -4.0570     1.2140 H     1 <1>   0.0800 
 45 H        3.7820     4.1850     3.0470 H     1 <1>   0.1500 
 46 H        5.4560     4.9750    -0.7830 H     1 <1>   0.1500 
 47 H        4.0800     5.6910     1.1230 H     1 <1>   0.1500 
@<TRIPOS>BOND
  1   1   2  1   
  2   2   3  ar  
  3   2   4  ar  
  4   3   5  ar  
  5   3  29  1   
  6   4   6  ar  
  7   4  30  1   
  8   5   7  ar  
  9   5   8  1   
 10   6   7  ar  
 11   6  31  1   
 12   7   9  1   
 13   8  10  1   
 14   8  11  1   
 15   8  32  1   
 16   9  12  1   
 17  10  11  1   
 18  10  12  1   
 19  10  13  1   
 20  11  14  1   
 21  11  15  1   
 22  12  16  2   
 23  13  17  2   
 24  13  18  1   
 25  14  19  2   
 26  14  20  1   
 27  15  21  1   
 28  15  33  1   
 29  15  34  1   
 30  18  22  1   
 31  20  23  ar  
 32  20  24  ar  
 33  21  35  1   
 34  21  36  1   
 35  21  37  1   
 36  22  25  1   
 37  22  38  1   
 38  22  39  1   
 39  23  26  ar  
 40  23  40  1   
 41  24  27  ar  
 42  24  41  1   
 43  25  42  1   
 44  25  43  1   
 45  25  44  1   
 46  26  28  ar  
 47  26  45  1   
 48  27  28  ar  
 49  27  46  1   
 50  28  47  1   
@<TRIPOS>SUBSTRUCTURE
  1 ****  11 GROUP 4 **** **** 0

# MOE 2024.06 (io_trps.svl 2023.06)
