@<TRIPOS>MOLECULE
NONAME
31 33 1 0 0 
SMALL
USER_CHARGES


@<TRIPOS>ATOM
  1 O       -0.3220     0.0110    -0.5760 O.2   1 <1>  -0.5700 
  2 C       -0.0950     1.1990    -0.5440 C.2   1 <1>   0.5690 
  3 N        1.1490     1.7400    -0.3660 N.am  1 <1>  -0.5470 
  4 C       -1.2680     2.1760    -0.7060 C.3   1 <1>   0.2610 
  5 C        2.4230     1.1900    -0.1540 C.ar  1 <1>   0.1170 
  6 O       -0.8410     3.5120    -0.7970 O.3   1 <1>  -0.5600 
  7 C       -2.2320     2.1840     0.4740 C.3   1 <1>  -0.1600 
  8 C        3.4870     2.0580     0.0480 C.ar  1 <1>  -0.1500 
  9 C        2.6750    -0.1780    -0.1360 C.ar  1 <1>  -0.1500 
 10 C       -1.8920     4.3690    -0.4840 C.3   1 <1>   0.1200 
 11 C       -2.8210     3.5870     0.4430 C.3   1 <1>  -0.1600 
 12 C        4.7910     1.6150     0.2700 C.ar  1 <1>   0.0410 
 13 C        3.9550    -0.6530     0.0810 C.ar  1 <1>  -0.1500 
 14 C        5.8840     2.5470     0.4810 C.2   1 <1>   0.6970 
 15 C        4.9970     0.2330     0.2800 C.ar  1 <1>  -0.1500 
 16 N        5.7580     3.8400     0.4850 N.2   1 <1>  -0.6190 
 17 N        7.1230     2.2020     0.6910 N.2   1 <1>  -0.6190 
 18 N        6.9310     4.3140     0.7010 N.2   1 <1>  -0.2500 
 19 N        7.7620     3.3170     0.8260 N.2   1 <1>  -0.2500 
 20 H        1.1200     2.7640    -0.3980 H     1 <1>   0.3700 
 21 H       -1.7960     1.9450    -1.6140 H     1 <1>   0.0800 
 22 H       -1.6820     2.0300     1.3870 H     1 <1>   0.0800 
 23 H       -2.9770     1.4140     0.3790 H     1 <1>   0.0800 
 24 H        3.3110     3.1190     0.0360 H     1 <1>   0.1500 
 25 H        1.8790    -0.8810    -0.2900 H     1 <1>   0.1500 
 26 H       -2.3900     4.6380    -1.4000 H     1 <1>   0.0800 
 27 H       -1.4900     5.2480    -0.0110 H     1 <1>   0.0800 
 28 H       -2.8440     4.0250     1.4250 H     1 <1>   0.0800 
 29 H       -3.8180     3.5830     0.0390 H     1 <1>   0.0800 
 30 H        4.1410    -1.7120     0.0940 H     1 <1>   0.1500 
 31 H        5.9940    -0.1380     0.4490 H     1 <1>   0.1500 
@<TRIPOS>BOND
  1   1   2  2   
  2   2   3  am  
  3   2   4  1   
  4   3   5  1   
  5   3  20  1   
  6   4   6  1   
  7   4   7  1   
  8   4  21  1   
  9   5   8  ar  
 10   5   9  ar  
 11   6  10  1   
 12   7  11  1   
 13   7  22  1   
 14   7  23  1   
 15   8  12  ar  
 16   8  24  1   
 17   9  13  ar  
 18   9  25  1   
 19  10  11  1   
 20  10  26  1   
 21  10  27  1   
 22  11  28  1   
 23  11  29  1   
 24  12  14  1   
 25  12  15  ar  
 26  13  15  ar  
 27  13  30  1   
 28  14  16  1   
 29  14  17  2   
 30  15  31  1   
 31  16  18  1   
 32  17  19  1   
 33  18  19  2   
@<TRIPOS>SUBSTRUCTURE
  1 ****   5 GROUP 4 **** **** 0

# MOE 2024.06 (io_trps.svl 2023.06)
