@<TRIPOS>MOLECULE
NONAME
30 30 1 0 0 
SMALL
USER_CHARGES


@<TRIPOS>ATOM
  1 CL      -1.0240     3.0530    -2.9040 Cl    1 <1>  -0.1770 
  2 C        0.2570     3.2160    -1.7210 C.ar  1 <1>   0.1770 
  3 C       -0.0410     3.6800    -0.4430 C.ar  1 <1>   0.1170 
  4 C        1.5410     2.8730    -2.0920 C.ar  1 <1>  -0.1500 
  5 N       -1.3650     4.0190    -0.1140 N.am  1 <1>  -0.5470 
  6 C        1.0120     3.7970     0.4610 C.ar  1 <1>  -0.1500 
  7 C        2.5710     2.9930    -1.1740 C.ar  1 <1>  -0.1500 
  8 C       -2.0220     4.1630     1.0730 C.2   1 <1>   0.5690 
  9 C        2.3180     3.4610     0.1140 C.ar  1 <1>  -0.1440 
 10 O       -1.5040     4.0270     2.1560 O.2   1 <1>  -0.5700 
 11 C       -3.5100     4.5130     0.9900 C.3   1 <1>   0.1710 
 12 C        3.4530     3.5970     1.1430 C.3   1 <1>   1.1640 
 13 N       -4.1270     4.2110    -0.3390 N.3   1 <1>  -0.8100 
 14 F        3.5490     2.5280     1.9220 F     1 <1>  -0.3400 
 15 F        4.6450     3.7500     0.5760 F     1 <1>  -0.3400 
 16 F        3.2960     4.6380     1.9510 F     1 <1>  -0.3400 
 17 C       -5.3820     4.9510    -0.5120 C.3   1 <1>   0.0300 
 18 C       -4.3670     2.7690    -0.5050 C.3   1 <1>   0.0300 
 19 H        1.7320     2.5150    -3.0890 H     1 <1>   0.1500 
 20 H       -2.0240     4.0810    -0.9020 H     1 <1>   0.3700 
 21 H        0.8060     4.1590     1.4540 H     1 <1>   0.1500 
 22 H        3.5700     2.7190    -1.4730 H     1 <1>   0.1500 
 23 H       -3.5910     5.5660     1.1880 H     1 <1>   0.0800 
 24 H       -4.0360     3.9900     1.7690 H     1 <1>   0.0800 
 25 H       -5.1970     6.0100    -0.4450 H     1 <1>   0.0800 
 26 H       -6.0950     4.6700     0.2450 H     1 <1>   0.0800 
 27 H       -5.7990     4.7430    -1.4820 H     1 <1>   0.0800 
 28 H       -3.4460     2.2190    -0.4040 H     1 <1>   0.0800 
 29 H       -4.7670     2.5750    -1.4850 H     1 <1>   0.0800 
 30 H       -5.0660     2.4140     0.2340 H     1 <1>   0.0800 
@<TRIPOS>BOND
  1   1   2  1   
  2   2   3  ar  
  3   2   4  ar  
  4   3   5  1   
  5   3   6  ar  
  6   4   7  ar  
  7   4  19  1   
  8   5   8  am  
  9   5  20  1   
 10   6   9  ar  
 11   6  21  1   
 12   7   9  ar  
 13   7  22  1   
 14   8  10  2   
 15   8  11  1   
 16   9  12  1   
 17  11  13  1   
 18  11  23  1   
 19  11  24  1   
 20  12  14  1   
 21  12  15  1   
 22  12  16  1   
 23  13  17  1   
 24  13  18  1   
 25  17  25  1   
 26  17  26  1   
 27  17  27  1   
 28  18  28  1   
 29  18  29  1   
 30  18  30  1   
@<TRIPOS>SUBSTRUCTURE
  1 ****   3 GROUP 4 **** **** 0

# MOE 2024.06 (io_trps.svl 2023.06)
