@<TRIPOS>MOLECULE
NONAME
34 35 1 0 0 
SMALL
USER_CHARGES


@<TRIPOS>ATOM
  1 S        0.4480     0.5310     0.6460 S.o2  1 <1>   1.3830 
  2 O        0.4500    -0.0140     1.9830 O.2   1 <1>  -0.6500 
  3 O        1.0390     1.8320     0.4230 O.2   1 <1>  -0.6500 
  4 N        1.2110    -0.5620    -0.3530 N.2   1 <1>  -0.6380 
  5 C       -1.2220     0.5320     0.0270 C.3   1 <1>  -0.1350 
  6 C        2.4670    -0.6030    -0.2590 C.2   1 <1>   0.6410 
  7 S        3.4000    -1.7590    -1.1920 S.3   1 <1>  -0.2820 
  8 N        3.3880     0.1160     0.4700 N.pl3 1 <1>  -0.4080 
  9 C        4.9060    -1.1490    -0.4860 C.2   1 <1>   0.5300 
 10 N        4.7340    -0.1950     0.3340 N.2   1 <1>  -0.4920 
 11 C        6.1790    -1.8340    -0.9520 C.3   1 <1>  -0.0990 
 12 C        7.4500    -1.2530    -0.3080 C.3   1 <1>  -0.1600 
 13 C        8.7150    -1.9670    -0.8010 C.3   1 <1>  -0.0170 
 14 C        9.9500    -1.3690    -0.1480 C.ar  1 <1>  -0.1440 
 15 C       10.6110    -0.3060    -0.7420 C.ar  1 <1>  -0.1500 
 16 C       10.4240    -1.8790     1.0510 C.ar  1 <1>  -0.1500 
 17 C       11.7360     0.2400    -0.1470 C.ar  1 <1>  -0.1500 
 18 C       11.5490    -1.3350     1.6470 C.ar  1 <1>  -0.1500 
 19 C       12.2060    -0.2750     1.0480 C.ar  1 <1>  -0.1500 
 20 H       -1.6430    -0.4520     0.0980 H     1 <1>   0.0800 
 21 H       -1.2360     0.8420    -0.9990 H     1 <1>   0.0800 
 22 H       -1.8270     1.2070     0.6000 H     1 <1>   0.0800 
 23 H        3.0820     0.9270     1.0290 H     1 <1>   0.4000 
 24 H        6.2410    -1.7360    -2.0200 H     1 <1>   0.0800 
 25 H        6.1030    -2.8800    -0.7150 H     1 <1>   0.0800 
 26 H        7.3860    -1.3470     0.7630 H     1 <1>   0.0800 
 27 H        7.5240    -0.2040    -0.5390 H     1 <1>   0.0800 
 28 H        8.7960    -1.8730    -1.8700 H     1 <1>   0.0800 
 29 H        8.6590    -3.0160    -0.5680 H     1 <1>   0.0800 
 30 H       10.2540     0.1030    -1.6700 H     1 <1>   0.1500 
 31 H        9.9200    -2.7020     1.5260 H     1 <1>   0.1500 
 32 H       12.2440     1.0650    -0.6140 H     1 <1>   0.1500 
 33 H       11.9110    -1.7360     2.5770 H     1 <1>   0.1500 
 34 H       13.0800     0.1490     1.5110 H     1 <1>   0.1500 
@<TRIPOS>BOND
  1   1   2  2   
  2   1   3  2   
  3   1   4  1   
  4   1   5  1   
  5   4   6  2   
  6   5  20  1   
  7   5  21  1   
  8   5  22  1   
  9   6   7  1   
 10   6   8  1   
 11   7   9  1   
 12   8  10  1   
 13   8  23  1   
 14   9  10  2   
 15   9  11  1   
 16  11  12  1   
 17  11  24  1   
 18  11  25  1   
 19  12  13  1   
 20  12  26  1   
 21  12  27  1   
 22  13  14  1   
 23  13  28  1   
 24  13  29  1   
 25  14  15  ar  
 26  14  16  ar  
 27  15  17  ar  
 28  15  30  1   
 29  16  18  ar  
 30  16  31  1   
 31  17  19  ar  
 32  17  32  1   
 33  18  19  ar  
 34  18  33  1   
 35  19  34  1   
@<TRIPOS>SUBSTRUCTURE
  1 ****  10 GROUP 4 **** **** 0

# MOE 2024.06 (io_trps.svl 2023.06)
