@<TRIPOS>MOLECULE
NONAME
31 31 1 0 0 
SMALL
USER_CHARGES


@<TRIPOS>ATOM
  1 BR       0.3240    -0.6860     0.1830 Br    1 <1>  -0.1110 
  2 C       -1.5340    -1.1540     0.3940 C.ar  1 <1>   0.1110 
  3 C       -2.3210    -1.2850    -0.7340 C.ar  1 <1>  -0.1500 
  4 C       -2.0330    -1.3480     1.6670 C.ar  1 <1>  -0.1500 
  5 C       -3.6540    -1.6210    -0.5760 C.ar  1 <1>  -0.1500 
  6 C       -3.3690    -1.6820     1.8090 C.ar  1 <1>  -0.1500 
  7 C       -4.1940    -1.8220     0.6950 C.ar  1 <1>   0.1000 
  8 N       -5.5290    -2.1560     0.8930 N.pl3 1 <1>  -0.7760 
  9 P       -6.7310    -2.5400    -0.2520 P.3   1 <1>   1.5180 
 10 O       -6.4730    -3.7860    -0.9620 O.2   1 <1>  -0.7000 
 11 O       -8.0520    -2.5260     0.6530 O.3   1 <1>  -0.5510 
 12 O       -6.8620    -1.2230    -1.1570 O.3   1 <1>  -0.5510 
 13 C       -9.3040    -2.7420     0.1020 C.3   1 <1>   0.1200 
 14 C       -6.9950     0.0320    -0.5880 C.3   1 <1>   0.1200 
 15 C       -9.5830    -4.2430     0.0530 C.3   1 <1>  -0.2400 
 16 C       -7.1670     1.0370    -1.7200 C.3   1 <1>  -0.2400 
 17 H       -1.9000    -1.1290    -1.7110 H     1 <1>   0.1500 
 18 H       -1.3910    -1.2380     2.5230 H     1 <1>   0.1500 
 19 H       -4.2690    -1.7270    -1.4510 H     1 <1>   0.1500 
 20 H       -3.7750    -1.8330     2.7920 H     1 <1>   0.1500 
 21 H       -5.7310    -2.6470     1.7560 H     1 <1>   0.4000 
 22 H       -9.3480    -2.2960    -0.8790 H     1 <1>   0.0800 
 23 H      -10.0240    -2.2590     0.7400 H     1 <1>   0.0800 
 24 H       -6.1070     0.2520    -0.0180 H     1 <1>   0.0800 
 25 H       -7.8550     0.0340     0.0610 H     1 <1>   0.0800 
 26 H       -8.9050    -4.7390    -0.6180 H     1 <1>   0.0800 
 27 H      -10.5840    -4.4110    -0.3020 H     1 <1>   0.0800 
 28 H       -9.4940    -4.6710     1.0360 H     1 <1>   0.0800 
 29 H       -6.3050     1.0200    -2.3620 H     1 <1>   0.0800 
 30 H       -7.2720     2.0270    -1.3140 H     1 <1>   0.0800 
 31 H       -8.0470     0.8050    -2.2920 H     1 <1>   0.0800 
@<TRIPOS>BOND
  1   1   2  1   
  2   2   3  ar  
  3   2   4  ar  
  4   3   5  ar  
  5   3  17  1   
  6   4   6  ar  
  7   4  18  1   
  8   5   7  ar  
  9   5  19  1   
 10   6   7  ar  
 11   6  20  1   
 12   7   8  1   
 13   8   9  1   
 14   8  21  1   
 15   9  10  2   
 16   9  11  1   
 17   9  12  1   
 18  11  13  1   
 19  12  14  1   
 20  13  15  1   
 21  13  22  1   
 22  13  23  1   
 23  14  16  1   
 24  14  24  1   
 25  14  25  1   
 26  15  26  1   
 27  15  27  1   
 28  15  28  1   
 29  16  29  1   
 30  16  30  1   
 31  16  31  1   
@<TRIPOS>SUBSTRUCTURE
  1 ****   8 GROUP 4 **** **** 0

# MOE 2024.06 (io_trps.svl 2023.06)
