@<TRIPOS>MOLECULE
NONAME
50 52 1 0 0 
SMALL
USER_CHARGES


@<TRIPOS>ATOM
  1 S       -0.4080    -0.1690     0.8050 S.o2  1 <1>   1.4470 
  2 O       -0.7080    -0.2290     2.2190 O.2   1 <1>  -0.6500 
  3 O        0.7790    -0.8240     0.3020 O.2   1 <1>  -0.6500 
  4 N       -1.7330    -0.8530    -0.0040 N.am  1 <1>  -0.8490 
  5 C       -0.4190     1.5540     0.2290 C.ar  1 <1>  -0.0090 
  6 C       -3.0140    -0.3250     0.4930 C.3   1 <1>   0.1960 
  7 C       -1.7070    -2.3160     0.0990 C.3   1 <1>   0.1960 
  8 C       -0.7120     2.6040     1.0990 C.ar  1 <1>  -0.1500 
  9 C       -0.1490     1.8560    -1.1040 C.ar  1 <1>  -0.1500 
 10 C       -4.1780    -0.8400    -0.3660 C.3   1 <1>  -0.0190 
 11 C       -2.8270    -2.9300    -0.7500 C.3   1 <1>  -0.1600 
 12 C       -0.7370     3.9170     0.6570 C.ar  1 <1>  -0.1500 
 13 C       -0.1680     3.1620    -1.5650 C.ar  1 <1>  -0.1500 
 14 C       -5.5010    -0.2590     0.1130 C.2   1 <1>   0.5690 
 15 C       -4.2040    -2.3790    -0.3580 C.3   1 <1>  -0.1600 
 16 C       -0.4630     4.1720    -0.6720 C.ar  1 <1>   0.1900 
 17 O       -5.6370     0.0470     1.2730 O.2   1 <1>  -0.5700 
 18 N       -6.5080    -0.1120    -0.7870 N.am  1 <1>  -0.7300 
 19 F       -0.4850     5.4050    -1.0960 F     1 <1>  -0.1900 
 20 C       -7.8410     0.4530    -0.4670 C.3   1 <1>   0.1400 
 21 C       -8.8240    -0.6730    -0.1440 C.3   1 <1>  -0.0170 
 22 C      -10.1930    -0.0970     0.1740 C.ar  1 <1>  -0.1440 
 23 C      -11.1850    -0.0520    -0.7950 C.ar  1 <1>  -0.1500 
 24 C      -10.4590     0.3960     1.4420 C.ar  1 <1>  -0.1500 
 25 C      -12.4280     0.4800    -0.4980 C.ar  1 <1>  -0.1500 
 26 C      -11.7010     0.9280     1.7400 C.ar  1 <1>  -0.1500 
 27 C      -12.6870     0.9700     0.7690 C.ar  1 <1>  -0.1500 
 28 H       -3.0080     0.7520     0.4540 H     1 <1>   0.0800 
 29 H       -3.1600    -0.6180     1.5210 H     1 <1>   0.0800 
 30 H       -1.8170    -2.6120     1.1300 H     1 <1>   0.0800 
 31 H       -0.7610    -2.6900    -0.2570 H     1 <1>   0.0800 
 32 H       -0.9230     2.3910     2.1350 H     1 <1>   0.1500 
 33 H        0.0790     1.0520    -1.7860 H     1 <1>   0.1500 
 34 H       -4.0140    -0.4960    -1.3700 H     1 <1>   0.0800 
 35 H       -2.8170    -3.9990    -0.6280 H     1 <1>   0.0800 
 36 H       -2.6280    -2.7180    -1.7860 H     1 <1>   0.0800 
 37 H       -0.9620     4.7280     1.3270 H     1 <1>   0.1500 
 38 H        0.0420     3.3950    -2.5940 H     1 <1>   0.1500 
 39 H       -4.9530    -2.7420    -1.0410 H     1 <1>   0.0800 
 40 H       -4.4590    -2.7240     0.6300 H     1 <1>   0.0800 
 41 H       -6.3740    -0.4140    -1.7530 H     1 <1>   0.3700 
 42 H       -8.2010     1.0270    -1.3030 H     1 <1>   0.0800 
 43 H       -7.7620     1.1110     0.3830 H     1 <1>   0.0800 
 44 H       -8.4650    -1.2260     0.7060 H     1 <1>   0.0800 
 45 H       -8.8970    -1.3450    -0.9800 H     1 <1>   0.0800 
 46 H      -10.9960    -0.4300    -1.7840 H     1 <1>   0.1500 
 47 H       -9.6970     0.3680     2.2030 H     1 <1>   0.1500 
 48 H      -13.1940     0.5120    -1.2530 H     1 <1>   0.1500 
 49 H      -11.9000     1.3090     2.7260 H     1 <1>   0.1500 
 50 H      -13.6530     1.3840     1.0000 H     1 <1>   0.1500 
@<TRIPOS>BOND
  1   1   2  2   
  2   1   3  2   
  3   1   4  am  
  4   1   5  1   
  5   4   6  1   
  6   4   7  1   
  7   5   8  ar  
  8   5   9  ar  
  9   6  10  1   
 10   6  28  1   
 11   6  29  1   
 12   7  11  1   
 13   7  30  1   
 14   7  31  1   
 15   8  12  ar  
 16   8  32  1   
 17   9  13  ar  
 18   9  33  1   
 19  10  14  1   
 20  10  15  1   
 21  10  34  1   
 22  11  15  1   
 23  11  35  1   
 24  11  36  1   
 25  12  16  ar  
 26  12  37  1   
 27  13  16  ar  
 28  13  38  1   
 29  14  17  2   
 30  14  18  am  
 31  15  39  1   
 32  15  40  1   
 33  16  19  1   
 34  18  20  1   
 35  18  41  1   
 36  20  21  1   
 37  20  42  1   
 38  20  43  1   
 39  21  22  1   
 40  21  44  1   
 41  21  45  1   
 42  22  23  ar  
 43  22  24  ar  
 44  23  25  ar  
 45  23  46  1   
 46  24  26  ar  
 47  24  47  1   
 48  25  27  ar  
 49  25  48  1   
 50  26  27  ar  
 51  26  49  1   
 52  27  50  1   
@<TRIPOS>SUBSTRUCTURE
  1 ****  14 GROUP 4 **** **** 0

# MOE 2024.06 (io_trps.svl 2023.06)
