@<TRIPOS>MOLECULE
NONAME
45 46 1 0 0 
SMALL
USER_CHARGES


@<TRIPOS>ATOM
  1 O       -0.5250     1.1770     0.6220 O.2   1 <1>  -0.5700 
  2 C       -0.2090     2.0960    -0.1110 C.2   1 <1>   0.5440 
  3 N       -1.2260     2.7130    -0.8040 N.am  1 <1>  -0.6600 
  4 C        1.1670     2.5570    -0.1890 C.ar  1 <1>   0.0860 
  5 C       -2.4370     1.9160    -1.1570 C.3   1 <1>   0.1400 
  6 C       -1.5240     4.1450    -0.5200 C.3   1 <1>   0.1400 
  7 C        2.0690     2.3110     0.8480 C.ar  1 <1>  -0.1500 
  8 C        1.6460     3.2620    -1.2960 C.ar  1 <1>  -0.1500 
  9 C       -3.4720     2.0060    -0.0200 C.3   1 <1>   0.3430 
 10 C       -2.5840     4.2510     0.5990 C.3   1 <1>   0.3430 
 11 C        3.3770     2.7580     0.7980 C.ar  1 <1>  -0.1500 
 12 C        2.9500     3.7140    -1.3530 C.ar  1 <1>  -0.1500 
 13 N       -3.8240     3.4390     0.3080 N.4   1 <1>  -0.9590 
 14 C        3.8270     3.4710    -0.3090 C.ar  1 <1>   0.0830 
 15 C       -4.7750     3.4910     1.4580 C.3   1 <1>   0.2630 
 16 O        5.0830     3.9480    -0.4410 O.3   1 <1>  -0.3630 
 17 C        6.0710     3.7300     0.5440 C.3   1 <1>   0.1200 
 18 C        7.3860     4.3920     0.1040 C.3   1 <1>  -0.0800 
 19 C        8.4950     4.0930     1.1210 C.3   1 <1>  -0.2400 
 20 C        7.2310     5.9120    -0.0600 C.3   1 <1>  -0.2400 
 21 H       -2.1610     0.8850    -1.3050 H     1 <1>   0.0800 
 22 H       -2.8570     2.2790    -2.0790 H     1 <1>   0.0800 
 23 H       -1.8790     4.6240    -1.4160 H     1 <1>   0.0800 
 24 H       -0.6280     4.6540    -0.2070 H     1 <1>   0.0800 
 25 H        1.7360     1.7550     1.7080 H     1 <1>   0.1500 
 26 H        0.9910     3.4540    -2.1280 H     1 <1>   0.1500 
 27 H       -3.0510     1.5260     0.8490 H     1 <1>   0.0800 
 28 H       -4.3580     1.4630    -0.3030 H     1 <1>   0.0800 
 29 H       -2.8490     5.2870     0.7370 H     1 <1>   0.0800 
 30 H       -2.1370     3.9010     1.5150 H     1 <1>   0.0800 
 31 H        4.0300     2.5430     1.6230 H     1 <1>   0.1500 
 32 H        3.3060     4.2580    -2.2110 H     1 <1>   0.1500 
 33 H       -4.2810     3.8440    -0.5210 H     1 <1>   0.4500 
 34 H       -4.3210     3.0640     2.3380 H     1 <1>   0.0800 
 35 H       -5.6710     2.9360     1.2300 H     1 <1>   0.0800 
 36 H       -5.0500     4.5110     1.6730 H     1 <1>   0.0800 
 37 H        6.2050     2.6680     0.6530 H     1 <1>   0.0800 
 38 H        5.7260     4.1560     1.4700 H     1 <1>   0.0800 
 39 H        7.6750     3.9670    -0.8420 H     1 <1>   0.0800 
 40 H        8.2480     4.5010     2.0860 H     1 <1>   0.0800 
 41 H        9.4250     4.5250     0.7950 H     1 <1>   0.0800 
 42 H        8.6350     3.0310     1.2210 H     1 <1>   0.0800 
 43 H        6.9300     6.3660     0.8680 H     1 <1>   0.0800 
 44 H        6.4880     6.1330    -0.8060 H     1 <1>   0.0800 
 45 H        8.1620     6.3510    -0.3730 H     1 <1>   0.0800 
@<TRIPOS>BOND
  1   1   2  2   
  2   2   3  am  
  3   2   4  1   
  4   3   5  1   
  5   3   6  1   
  6   4   7  ar  
  7   4   8  ar  
  8   5   9  1   
  9   5  21  1   
 10   5  22  1   
 11   6  10  1   
 12   6  23  1   
 13   6  24  1   
 14   7  11  ar  
 15   7  25  1   
 16   8  12  ar  
 17   8  26  1   
 18   9  13  1   
 19   9  27  1   
 20   9  28  1   
 21  10  13  1   
 22  10  29  1   
 23  10  30  1   
 24  11  14  ar  
 25  11  31  1   
 26  12  14  ar  
 27  12  32  1   
 28  13  15  1   
 29  13  33  1   
 30  14  16  1   
 31  15  34  1   
 32  15  35  1   
 33  15  36  1   
 34  16  17  1   
 35  17  18  1   
 36  17  37  1   
 37  17  38  1   
 38  18  19  1   
 39  18  20  1   
 40  18  39  1   
 41  19  40  1   
 42  19  41  1   
 43  19  42  1   
 44  20  43  1   
 45  20  44  1   
 46  20  45  1   
@<TRIPOS>SUBSTRUCTURE
  1 ****   4 GROUP 4 **** **** 0

# MOE 2024.06 (io_trps.svl 2023.06)
