@<TRIPOS>MOLECULE
NONAME
43 45 1 0 0 
SMALL
USER_CHARGES


@<TRIPOS>ATOM
  1 F        0.5340    -0.7490     0.9850 F     1 <1>  -0.1900 
  2 C        1.6620    -1.3120     0.6360 C.ar  1 <1>   0.1900 
  3 C        2.4600    -1.8690     1.6180 C.ar  1 <1>  -0.1500 
  4 C        2.0150    -1.3310    -0.7000 C.ar  1 <1>  -0.1500 
  5 C        3.6530    -2.4630     1.2430 C.ar  1 <1>  -0.1500 
  6 C        3.2100    -1.9290    -1.0590 C.ar  1 <1>  -0.1500 
  7 C        4.0370    -2.4990    -0.0960 C.ar  1 <1>   0.1000 
  8 N        5.2310    -3.0920    -0.4900 N.pl3 1 <1>  -0.8380 
  9 C        5.2920    -4.5790    -0.3770 C.3   1 <1>   0.2090 
 10 C        6.4810    -2.3880    -0.0770 C.3   1 <1>   0.2090 
 11 C        6.5240    -5.1340    -1.1220 C.3   1 <1>   0.3430 
 12 C        7.7040    -2.9620    -0.8220 C.3   1 <1>   0.3430 
 13 N        7.8070    -4.4660    -0.6940 N.4   1 <1>  -0.9590 
 14 C        8.9820    -5.0160    -1.4260 C.3   1 <1>   0.4860 
 15 C       10.2660    -4.3970    -0.8790 C.ar  1 <1>  -0.1430 
 16 C       10.8410    -4.7760     0.3430 C.ar  1 <1>  -0.1430 
 17 C       10.8720    -3.4140    -1.6500 C.ar  1 <1>  -0.1500 
 18 C       12.0080    -4.1380     0.7560 C.ar  1 <1>  -0.1500 
 19 C       10.2190    -5.8680     1.2350 C.3   1 <1>   1.1630 
 20 C       12.0300    -2.7940    -1.2230 C.ar  1 <1>  -0.1500 
 21 C       12.5960    -3.1550    -0.0180 C.ar  1 <1>  -0.1500 
 22 F       10.9310    -6.1900     2.3040 F     1 <1>  -0.3400 
 23 F        9.0230    -5.4850     1.6760 F     1 <1>  -0.3400 
 24 F       10.0080    -6.9910     0.5630 F     1 <1>  -0.3400 
 25 H        2.1490    -1.8330     2.6470 H     1 <1>   0.1500 
 26 H        1.3670    -0.8870    -1.4340 H     1 <1>   0.1500 
 27 H        4.2860    -2.9000     1.9920 H     1 <1>   0.1500 
 28 H        3.5100    -1.9580    -2.0900 H     1 <1>   0.1500 
 29 H        4.3960    -5.0010    -0.8010 H     1 <1>   0.0800 
 30 H        5.3310    -4.8630     0.6610 H     1 <1>   0.0800 
 31 H        6.6200    -2.4860     0.9850 H     1 <1>   0.0800 
 32 H        6.3860    -1.3390    -0.3020 H     1 <1>   0.0800 
 33 H        6.3700    -4.9780    -2.1780 H     1 <1>   0.0800 
 34 H        6.5850    -6.1960    -0.9500 H     1 <1>   0.0800 
 35 H        8.5960    -2.4970    -0.4350 H     1 <1>   0.0800 
 36 H        7.6160    -2.6940    -1.8620 H     1 <1>   0.0800 
 37 H        7.9350    -4.6680     0.3090 H     1 <1>   0.4500 
 38 H        8.8950    -4.7900    -2.4770 H     1 <1>   0.0800 
 39 H        9.0180    -6.0880    -1.3230 H     1 <1>   0.0800 
 40 H       10.4580    -3.1170    -2.6000 H     1 <1>   0.1500 
 41 H       12.4840    -4.3960     1.6890 H     1 <1>   0.1500 
 42 H       12.4960    -2.0320    -1.8260 H     1 <1>   0.1500 
 43 H       13.5000    -2.6730     0.3170 H     1 <1>   0.1500 
@<TRIPOS>BOND
  1   1   2  1   
  2   2   3  ar  
  3   2   4  ar  
  4   3   5  ar  
  5   3  25  1   
  6   4   6  ar  
  7   4  26  1   
  8   5   7  ar  
  9   5  27  1   
 10   6   7  ar  
 11   6  28  1   
 12   7   8  1   
 13   8   9  1   
 14   8  10  1   
 15   9  11  1   
 16   9  29  1   
 17   9  30  1   
 18  10  12  1   
 19  10  31  1   
 20  10  32  1   
 21  11  13  1   
 22  11  33  1   
 23  11  34  1   
 24  12  13  1   
 25  12  35  1   
 26  12  36  1   
 27  13  14  1   
 28  13  37  1   
 29  14  15  1   
 30  14  38  1   
 31  14  39  1   
 32  15  16  ar  
 33  15  17  ar  
 34  16  18  ar  
 35  16  19  1   
 36  17  20  ar  
 37  17  40  1   
 38  18  21  ar  
 39  18  41  1   
 40  19  22  1   
 41  19  23  1   
 42  19  24  1   
 43  20  21  ar  
 44  20  42  1   
 45  21  43  1   
@<TRIPOS>SUBSTRUCTURE
  1 ****  12 GROUP 4 **** **** 0

# MOE 2024.06 (io_trps.svl 2023.06)
