@<TRIPOS>MOLECULE
NONAME
32 32 1 0 0 
SMALL
USER_CHARGES


@<TRIPOS>ATOM
  1 BR      -0.1620    -0.2580    -1.0810 Br    1 <1>  -0.1110 
  2 C        1.6060    -0.9250    -0.6620 C.ar  1 <1>   0.1110 
  3 C        2.3470    -0.2810     0.3200 C.ar  1 <1>  -0.1440 
  4 C        2.0810    -2.0300    -1.3560 C.ar  1 <1>  -0.1440 
  5 C        3.6120    -0.7670     0.6110 C.ar  1 <1>  -0.1500 
  6 C        1.7990     0.9260     1.0680 C.3   1 <1>  -0.0960 
  7 C        3.3480    -2.4950    -1.0450 C.ar  1 <1>  -0.1500 
  8 C        1.2520    -2.7240    -2.4260 C.3   1 <1>  -0.0960 
  9 C        4.1160    -1.8720    -0.0720 C.ar  1 <1>   0.0830 
 10 O        5.3460    -2.3990     0.1510 O.3   1 <1>  -0.3630 
 11 C        6.2590    -1.7840     1.0500 C.3   1 <1>   0.1810 
 12 C        7.6120    -2.4930     1.0600 C.2   1 <1>   0.5690 
 13 O        8.0120    -2.8880     2.1320 O.2   1 <1>  -0.5700 
 14 N        8.3600    -2.6450    -0.0900 N.am  1 <1>  -0.6600 
 15 C        9.6490    -3.3920    -0.0860 C.3   1 <1>   0.0600 
 16 C        7.9300    -2.1790    -1.4380 C.3   1 <1>   0.0600 
 17 H        4.1890    -0.2790     1.3720 H     1 <1>   0.1500 
 18 H        1.5800     1.7200     0.3760 H     1 <1>   0.0800 
 19 H        2.5080     1.2910     1.7890 H     1 <1>   0.0800 
 20 H        0.8960     0.6580     1.5870 H     1 <1>   0.0800 
 21 H        3.7580    -3.3480    -1.5530 H     1 <1>   0.1500 
 22 H        1.0190    -2.0340    -3.2160 H     1 <1>   0.0800 
 23 H        0.3360    -3.0910    -2.0000 H     1 <1>   0.0800 
 24 H        1.7870    -3.5560    -2.8480 H     1 <1>   0.0800 
 25 H        5.8320    -1.8230     2.0350 H     1 <1>   0.0800 
 26 H        6.3970    -0.7620     0.7520 H     1 <1>   0.0800 
 27 H        9.8800    -3.7600     0.8990 H     1 <1>   0.0800 
 28 H       10.4460    -2.7420    -0.4040 H     1 <1>   0.0800 
 29 H        9.5850    -4.2310    -0.7570 H     1 <1>   0.0800 
 30 H        7.2200    -1.3750    -1.3640 H     1 <1>   0.0800 
 31 H        7.4750    -2.9950    -1.9720 H     1 <1>   0.0800 
 32 H        8.7820    -1.8260    -1.9930 H     1 <1>   0.0800 
@<TRIPOS>BOND
  1   1   2  1   
  2   2   3  ar  
  3   2   4  ar  
  4   3   5  ar  
  5   3   6  1   
  6   4   7  ar  
  7   4   8  1   
  8   5   9  ar  
  9   5  17  1   
 10   6  18  1   
 11   6  19  1   
 12   6  20  1   
 13   7   9  ar  
 14   7  21  1   
 15   8  22  1   
 16   8  23  1   
 17   8  24  1   
 18   9  10  1   
 19  10  11  1   
 20  11  12  1   
 21  11  25  1   
 22  11  26  1   
 23  12  13  2   
 24  12  14  am  
 25  14  15  1   
 26  14  16  1   
 27  15  27  1   
 28  15  28  1   
 29  15  29  1   
 30  16  30  1   
 31  16  31  1   
 32  16  32  1   
@<TRIPOS>SUBSTRUCTURE
  1 ****   9 GROUP 4 **** **** 0

# MOE 2024.06 (io_trps.svl 2023.06)
