@<TRIPOS>MOLECULE
NONAME
46 49 1 0 0 
SMALL
USER_CHARGES


@<TRIPOS>ATOM
  1 S        2.7540     0.8140     2.3860 S.3   1 <1>  -0.2420 
  2 C        2.9710     1.1550     0.6690 C.2   1 <1>   0.6510 
  3 C        1.0960     1.4470     2.3580 C.2   1 <1>  -0.0490 
  4 N        4.0710     0.9030     0.0320 N.2   1 <1>  -0.6210 
  5 N        1.8260     1.7150     0.1690 N.am  1 <1>  -0.2290 
  6 C        0.7950     1.8680     1.1230 C.2   1 <1>  -0.0410 
  7 C        4.0780     1.2310    -1.2990 C.2   1 <1>   0.0330 
  8 C        1.8180     2.0660    -1.1580 C.2   1 <1>   0.6160 
  9 C        2.9980     1.8000    -1.8990 C.2   1 <1>  -0.1360 
 10 C        5.3720     0.9190    -2.0510 C.3   1 <1>   0.4810 
 11 O        0.8390     2.5870    -1.6650 O.2   1 <1>  -0.5700 
 12 N        6.5200     1.2590    -1.1680 N.4   1 <1>  -0.9590 
 13 C        6.7410     2.7280    -1.0620 C.3   1 <1>   0.3430 
 14 C        7.7550     0.5070    -1.5180 C.3   1 <1>   0.3430 
 15 C        7.7960     3.0110     0.0080 C.3   1 <1>  -0.1600 
 16 C        8.8250     0.7610    -0.4580 C.3   1 <1>  -0.1600 
 17 C        9.1100     2.2640    -0.2740 C.3   1 <1>  -0.0800 
 18 C       10.1380     2.5210     0.8440 C.3   1 <1>  -0.0170 
 19 C       11.4600     1.8250     0.5570 C.ar  1 <1>  -0.1430 
 20 C       12.3210     2.3330    -0.4050 C.ar  1 <1>  -0.1500 
 21 C       11.8160     0.6760     1.2470 C.ar  1 <1>  -0.1500 
 22 C       13.5170     1.6950    -0.6810 C.ar  1 <1>  -0.1500 
 23 C       13.0120     0.0370     0.9720 C.ar  1 <1>  -0.1500 
 24 C       13.8630     0.5450     0.0060 C.ar  1 <1>  -0.1500 
 25 H        0.5440     1.4250     3.2830 H     1 <1>   0.1500 
 26 H       -0.1390     2.3010     0.7990 H     1 <1>   0.1500 
 27 H        2.9690     2.0710    -2.9380 H     1 <1>   0.1500 
 28 H        5.4230     1.4660    -2.9780 H     1 <1>   0.0800 
 29 H        5.3890    -0.1360    -2.2700 H     1 <1>   0.0800 
 30 H        6.1960     0.9450    -0.2360 H     1 <1>   0.4500 
 31 H        5.8200     3.2210    -0.7940 H     1 <1>   0.0800 
 32 H        7.0760     3.1180    -2.0100 H     1 <1>   0.0800 
 33 H        8.1210     0.8290    -2.4790 H     1 <1>   0.0800 
 34 H        7.5470    -0.5500    -1.5670 H     1 <1>   0.0800 
 35 H        7.4050     2.7280     0.9710 H     1 <1>   0.0800 
 36 H        7.9840     4.0700     0.0360 H     1 <1>   0.0800 
 37 H        9.7250     0.2560    -0.7640 H     1 <1>   0.0800 
 38 H        8.5140     0.3240     0.4750 H     1 <1>   0.0800 
 39 H        9.5230     2.6430    -1.1950 H     1 <1>   0.0800 
 40 H        9.7490     2.1830     1.7890 H     1 <1>   0.0800 
 41 H       10.3210     3.5780     0.9330 H     1 <1>   0.0800 
 42 H       12.0660     3.2290    -0.9430 H     1 <1>   0.1500 
 43 H       11.1660     0.2700     2.0030 H     1 <1>   0.1500 
 44 H       14.1810     2.0930    -1.4280 H     1 <1>   0.1500 
 45 H       13.2840    -0.8540     1.5100 H     1 <1>   0.1500 
 46 H       14.7930     0.0490    -0.2070 H     1 <1>   0.1500 
@<TRIPOS>BOND
  1   1   2  1   
  2   1   3  1   
  3   2   4  2   
  4   2   5  1   
  5   3   6  2   
  6   3  25  1   
  7   4   7  1   
  8   5   6  1   
  9   5   8  am  
 10   6  26  1   
 11   7   9  2   
 12   7  10  1   
 13   8   9  1   
 14   8  11  2   
 15   9  27  1   
 16  10  12  1   
 17  10  28  1   
 18  10  29  1   
 19  12  13  1   
 20  12  14  1   
 21  12  30  1   
 22  13  15  1   
 23  13  31  1   
 24  13  32  1   
 25  14  16  1   
 26  14  33  1   
 27  14  34  1   
 28  15  17  1   
 29  15  35  1   
 30  15  36  1   
 31  16  17  1   
 32  16  37  1   
 33  16  38  1   
 34  17  18  1   
 35  17  39  1   
 36  18  19  1   
 37  18  40  1   
 38  18  41  1   
 39  19  20  ar  
 40  19  21  ar  
 41  20  22  ar  
 42  20  42  1   
 43  21  23  ar  
 44  21  43  1   
 45  22  24  ar  
 46  22  44  1   
 47  23  24  ar  
 48  23  45  1   
 49  24  46  1   
@<TRIPOS>SUBSTRUCTURE
  1 ****  12 GROUP 4 **** **** 0

# MOE 2024.06 (io_trps.svl 2023.06)
