@<TRIPOS>MOLECULE
NONAME
41 41 1 0 0 
SMALL
USER_CHARGES


@<TRIPOS>ATOM
  1 O       -4.9260     6.7510     0.0390 O.3   1 <1>  -0.3630 
  2 C       -6.1290     6.1220     0.1200 C.ar  1 <1>   0.0830 
  3 C       -3.7120     6.0400     0.1200 C.3   1 <1>   0.1200 
  4 C       -7.2750     6.9080     0.0290 C.ar  1 <1>  -0.1440 
  5 C       -6.2520     4.7430     0.2860 C.ar  1 <1>  -0.1500 
  6 C       -2.5710     7.0450    -0.0050 C.3   1 <1>   0.1200 
  7 C       -8.5240     6.3110     0.1060 C.ar  1 <1>  -0.1500 
  8 C       -7.1700     8.4150    -0.1530 C.3   1 <1>  -0.0960 
  9 C       -7.5030     4.1590     0.3610 C.ar  1 <1>  -0.1500 
 10 O       -1.3550     6.3600     0.0740 O.3   1 <1>  -0.5600 
 11 C       -8.6390     4.9420     0.2710 C.ar  1 <1>  -0.1500 
 12 C       -0.2360     7.1740    -0.0260 C.3   1 <1>   0.1200 
 13 C        0.9940     6.2670     0.0780 C.3   1 <1>   0.3430 
 14 N        2.2690     7.0440    -0.0070 N.4   1 <1>  -0.9060 
 15 C        3.4690     6.2050     0.1180 C.3   1 <1>   0.4230 
 16 C        4.6480     7.1350     0.3700 C.3   1 <1>  -0.2400 
 17 C        3.6700     5.4130    -1.1700 C.3   1 <1>  -0.2400 
 18 H       -3.6810     5.3310    -0.6890 H     1 <1>   0.0800 
 19 H       -3.6740     5.5430     1.0730 H     1 <1>   0.0800 
 20 H       -5.3910     4.1080     0.3590 H     1 <1>   0.1500 
 21 H       -2.6230     7.7580     0.8000 H     1 <1>   0.0800 
 22 H       -2.6290     7.5460    -0.9570 H     1 <1>   0.0800 
 23 H       -9.4150     6.9090     0.0370 H     1 <1>   0.1500 
 24 H       -6.6340     8.8440     0.6740 H     1 <1>   0.0800 
 25 H       -8.1420     8.8700    -0.2040 H     1 <1>   0.0800 
 26 H       -6.6390     8.6350    -1.0610 H     1 <1>   0.0800 
 27 H       -7.5940     3.0940     0.4890 H     1 <1>   0.1500 
 28 H       -9.6130     4.4880     0.3290 H     1 <1>   0.1500 
 29 H       -0.2610     7.8850     0.7820 H     1 <1>   0.0800 
 30 H       -0.2650     7.6760    -0.9790 H     1 <1>   0.0800 
 31 H        0.9520     5.5450    -0.7210 H     1 <1>   0.0800 
 32 H        0.9520     5.7390     1.0170 H     1 <1>   0.0800 
 33 H        2.2950     7.7480     0.7390 H     1 <1>   0.4500 
 34 H        2.3240     7.5450    -0.9010 H     1 <1>   0.4500 
 35 H        3.3650     5.5280     0.9530 H     1 <1>   0.0800 
 36 H        4.7860     7.8250    -0.4440 H     1 <1>   0.0800 
 37 H        5.5490     6.5540     0.4660 H     1 <1>   0.0800 
 38 H        4.5170     7.6810     1.2870 H     1 <1>   0.0800 
 39 H        3.7570     6.0650    -2.0220 H     1 <1>   0.0800 
 40 H        2.8680     4.7170    -1.3310 H     1 <1>   0.0800 
 41 H        4.5790     4.8410    -1.1000 H     1 <1>   0.0800 
@<TRIPOS>BOND
  1   1   2  1   
  2   1   3  1   
  3   2   4  ar  
  4   2   5  ar  
  5   3   6  1   
  6   3  18  1   
  7   3  19  1   
  8   4   7  ar  
  9   4   8  1   
 10   5   9  ar  
 11   5  20  1   
 12   6  10  1   
 13   6  21  1   
 14   6  22  1   
 15   7  11  ar  
 16   7  23  1   
 17   8  24  1   
 18   8  25  1   
 19   8  26  1   
 20   9  11  ar  
 21   9  27  1   
 22  10  12  1   
 23  11  28  1   
 24  12  13  1   
 25  12  29  1   
 26  12  30  1   
 27  13  14  1   
 28  13  31  1   
 29  13  32  1   
 30  14  15  1   
 31  14  33  1   
 32  14  34  1   
 33  15  16  1   
 34  15  17  1   
 35  15  35  1   
 36  16  36  1   
 37  16  37  1   
 38  16  38  1   
 39  17  39  1   
 40  17  40  1   
 41  17  41  1   
@<TRIPOS>SUBSTRUCTURE
  1 ****   6 GROUP 4 **** **** 0

# MOE 2024.06 (io_trps.svl 2023.06)
