@<TRIPOS>MOLECULE
NONAME
50 52 1 0 0 
SMALL
USER_CHARGES


@<TRIPOS>ATOM
  1 O        0.0300     0.4780     0.4090 O.2   1 <1>  -0.5700 
  2 C        0.4790    -0.5460    -0.0640 C.2   1 <1>   0.6900 
  3 N        1.8090    -0.6940    -0.3370 N.am  1 <1>  -0.5470 
  4 N       -0.3380    -1.6060    -0.3450 N.am  1 <1>  -0.5470 
  5 C        2.8550     0.2400    -0.3250 C.ar  1 <1>   0.1170 
  6 C       -1.6830    -1.7980    -0.0070 C.ar  1 <1>   0.1170 
  7 C        4.1570    -0.2150    -0.1480 C.ar  1 <1>  -0.1500 
  8 C        2.6520     1.6050    -0.5060 C.ar  1 <1>  -0.1500 
  9 C       -2.5110    -2.5110    -0.8650 C.ar  1 <1>  -0.1500 
 10 C       -2.2250    -1.3090     1.1760 C.ar  1 <1>  -0.1500 
 11 C        5.2320     0.6590    -0.1460 C.ar  1 <1>  -0.1430 
 12 C        3.7180     2.4850    -0.5050 C.ar  1 <1>  -0.1500 
 13 C       -3.8460    -2.7140    -0.5620 C.ar  1 <1>  -0.1500 
 14 C       -3.5570    -1.5090     1.4860 C.ar  1 <1>  -0.1500 
 15 C        5.0070     2.0130    -0.3260 C.ar  1 <1>  -0.1500 
 16 C        6.6490     0.1510     0.0490 C.3   1 <1>  -0.0970 
 17 C       -4.3810    -2.2050     0.6140 C.ar  1 <1>  -0.1430 
 18 C       -5.8500    -2.3920     0.9430 C.3   1 <1>   0.4860 
 19 N       -6.6520    -1.4550     0.1100 N.4   1 <1>  -0.9590 
 20 C       -6.3200    -0.0280     0.4070 C.3   1 <1>   0.3430 
 21 C       -8.1120    -1.7310     0.2310 C.3   1 <1>   0.3430 
 22 C       -7.0680     0.8890    -0.5630 C.3   1 <1>  -0.1600 
 23 C       -8.8880    -0.8460    -0.7460 C.3   1 <1>  -0.1600 
 24 C       -8.5820     0.6420    -0.5310 C.3   1 <1>  -0.1600 
 25 H        2.1110    -1.6570    -0.4330 H     1 <1>   0.3700 
 26 H        0.0450    -2.2620    -1.0180 H     1 <1>   0.3700 
 27 H        4.3310    -1.2650    -0.0080 H     1 <1>   0.1500 
 28 H        1.6580     1.9860    -0.6500 H     1 <1>   0.1500 
 29 H       -2.1090    -2.9060    -1.7810 H     1 <1>   0.1500 
 30 H       -1.5950    -0.7660     1.8600 H     1 <1>   0.1500 
 31 H        3.5440     3.5380    -0.6430 H     1 <1>   0.1500 
 32 H       -4.4560    -3.2720    -1.2520 H     1 <1>   0.1500 
 33 H       -3.9340    -1.1130     2.4140 H     1 <1>   0.1500 
 34 H        5.8310     2.7050    -0.3270 H     1 <1>   0.1500 
 35 H        6.6490    -0.8640     0.4040 H     1 <1>   0.0800 
 36 H        7.1630     0.7620     0.7700 H     1 <1>   0.0800 
 37 H        7.1820     0.1920    -0.8830 H     1 <1>   0.0800 
 38 H       -6.0190    -2.2000     1.9900 H     1 <1>   0.0800 
 39 H       -6.1320    -3.4110     0.7320 H     1 <1>   0.0800 
 40 H       -6.3750    -1.6150    -0.8650 H     1 <1>   0.4500 
 41 H       -5.2590     0.1380     0.3030 H     1 <1>   0.0800 
 42 H       -6.6040     0.2120     1.4190 H     1 <1>   0.0800 
 43 H       -8.4400    -1.5250     1.2380 H     1 <1>   0.0800 
 44 H       -8.3150    -2.7670     0.0130 H     1 <1>   0.0800 
 45 H       -6.6900     0.7350    -1.5600 H     1 <1>   0.0800 
 46 H       -6.8680     1.9140    -0.3020 H     1 <1>   0.0800 
 47 H       -9.9430    -1.0140    -0.6120 H     1 <1>   0.0800 
 48 H       -8.6450    -1.1280    -1.7560 H     1 <1>   0.0800 
 49 H       -9.0640     1.2290    -1.2960 H     1 <1>   0.0800 
 50 H       -8.9770     0.9580     0.4200 H     1 <1>   0.0800 
@<TRIPOS>BOND
  1   1   2  2   
  2   2   3  am  
  3   2   4  am  
  4   3   5  1   
  5   3  25  1   
  6   4   6  1   
  7   4  26  1   
  8   5   7  ar  
  9   5   8  ar  
 10   6   9  ar  
 11   6  10  ar  
 12   7  11  ar  
 13   7  27  1   
 14   8  12  ar  
 15   8  28  1   
 16   9  13  ar  
 17   9  29  1   
 18  10  14  ar  
 19  10  30  1   
 20  11  15  ar  
 21  11  16  1   
 22  12  15  ar  
 23  12  31  1   
 24  13  17  ar  
 25  13  32  1   
 26  14  17  ar  
 27  14  33  1   
 28  15  34  1   
 29  16  35  1   
 30  16  36  1   
 31  16  37  1   
 32  17  18  1   
 33  18  19  1   
 34  18  38  1   
 35  18  39  1   
 36  19  20  1   
 37  19  21  1   
 38  19  40  1   
 39  20  22  1   
 40  20  41  1   
 41  20  42  1   
 42  21  23  1   
 43  21  43  1   
 44  21  44  1   
 45  22  24  1   
 46  22  45  1   
 47  22  46  1   
 48  23  24  1   
 49  23  47  1   
 50  23  48  1   
 51  24  49  1   
 52  24  50  1   
@<TRIPOS>SUBSTRUCTURE
  1 ****   6 GROUP 4 **** **** 0

# MOE 2024.06 (io_trps.svl 2023.06)
