@<TRIPOS>MOLECULE
NONAME
30 30 1 0 0 
SMALL
USER_CHARGES


@<TRIPOS>ATOM
  1 O       -0.7180     2.4250     2.0090 O.2   1 <1>  -0.5700 
  2 C       -1.1120     2.2360     0.8940 C.2   1 <1>   0.4480 
  3 C       -0.1560     2.3360    -0.3280 C.3   1 <1>   0.3410 
  4 C       -2.5790     1.8850     0.6770 C.3   1 <1>  -0.0990 
  5 O       -0.6790     1.7080    -1.4490 O.3   1 <1>  -0.6800 
  6 C        0.0820     3.7940    -0.7300 C.3   1 <1>  -0.2400 
  7 C        1.1830     1.6440    -0.0580 C.3   1 <1>  -0.2400 
  8 C       -3.3660     3.0200     0.0130 C.3   1 <1>  -0.0170 
  9 C       -4.8310     2.6380    -0.1160 C.ar  1 <1>  -0.1440 
 10 C       -5.2940     2.0280    -1.2720 C.ar  1 <1>  -0.1500 
 11 C       -5.7150     2.8910     0.9210 C.ar  1 <1>  -0.1500 
 12 C       -6.6280     1.6750    -1.3890 C.ar  1 <1>  -0.1500 
 13 C       -7.0490     2.5390     0.8050 C.ar  1 <1>  -0.1500 
 14 C       -7.5060     1.9310    -0.3510 C.ar  1 <1>  -0.1500 
 15 H       -3.0210     1.6740     1.6340 H     1 <1>   0.0800 
 16 H       -2.6580     0.9920     0.0850 H     1 <1>   0.0800 
 17 H       -0.5610     0.7430    -1.3650 H     1 <1>   0.4000 
 18 H       -0.8440     4.2750    -0.9850 H     1 <1>   0.0800 
 19 H        0.7500     3.8500    -1.5710 H     1 <1>   0.0800 
 20 H        0.5230     4.3300     0.0920 H     1 <1>   0.0800 
 21 H        1.0290     0.6180     0.2230 H     1 <1>   0.0800 
 22 H        1.6860     2.1350     0.7560 H     1 <1>   0.0800 
 23 H        1.8200     1.6910    -0.9240 H     1 <1>   0.0800 
 24 H       -2.9670     3.2260    -0.9650 H     1 <1>   0.0800 
 25 H       -3.2770     3.9170     0.6020 H     1 <1>   0.0800 
 26 H       -4.6190     1.8250    -2.0840 H     1 <1>   0.1500 
 27 H       -5.3690     3.3630     1.8240 H     1 <1>   0.1500 
 28 H       -6.9810     1.2030    -2.2890 H     1 <1>   0.1500 
 29 H       -7.7300     2.7390     1.6130 H     1 <1>   0.1500 
 30 H       -8.5420     1.6570    -0.4420 H     1 <1>   0.1500 
@<TRIPOS>BOND
  1   1   2  2   
  2   2   3  1   
  3   2   4  1   
  4   3   5  1   
  5   3   6  1   
  6   3   7  1   
  7   4   8  1   
  8   4  15  1   
  9   4  16  1   
 10   5  17  1   
 11   6  18  1   
 12   6  19  1   
 13   6  20  1   
 14   7  21  1   
 15   7  22  1   
 16   7  23  1   
 17   8   9  1   
 18   8  24  1   
 19   8  25  1   
 20   9  10  ar  
 21   9  11  ar  
 22  10  12  ar  
 23  10  26  1   
 24  11  13  ar  
 25  11  27  1   
 26  12  14  ar  
 27  12  28  1   
 28  13  14  ar  
 29  13  29  1   
 30  14  30  1   
@<TRIPOS>SUBSTRUCTURE
  1 ****   8 GROUP 4 **** **** 0

# MOE 2024.06 (io_trps.svl 2023.06)
