@<TRIPOS>MOLECULE
NONAME
38 39 1 0 0 
SMALL
USER_CHARGES


@<TRIPOS>ATOM
  1 BR       0.3200    -0.2020    -1.1800 Br    1 <1>  -0.1110 
  2 C        1.1590     1.4270    -0.5780 C.ar  1 <1>   0.1110 
  3 C        2.5040     1.4320    -0.2480 C.ar  1 <1>  -0.1440 
  4 C        0.3710     2.5570    -0.4960 C.ar  1 <1>  -0.1500 
  5 C        3.0560     2.6300     0.1730 C.ar  1 <1>  -0.1500 
  6 C        3.3550     0.1740    -0.3430 C.3   1 <1>  -0.0960 
  7 C        0.9180     3.7590    -0.0610 C.ar  1 <1>  -0.0090 
  8 C        2.2740     3.7850     0.2610 C.ar  1 <1>   0.0830 
  9 S       -0.0760     5.2720     0.0590 S.o2  1 <1>   1.4470 
 10 O        2.7910     4.9760     0.6550 O.3   1 <1>  -0.3630 
 11 O        0.1010     6.0910    -1.1190 O.2   1 <1>  -0.6500 
 12 O       -0.0220     5.8570     1.3790 O.2   1 <1>  -0.6500 
 13 N       -1.6590     4.7160     0.0190 N.am  1 <1>  -0.9140 
 14 C        4.1460     5.1370     1.0130 C.3   1 <1>   0.0400 
 15 C       -2.5990     5.7170    -0.4960 C.3   1 <1>   0.1960 
 16 C       -4.0530     5.2410    -0.3550 C.3   1 <1>   0.2000 
 17 O       -4.9150     6.2560    -0.7480 O.3   1 <1>  -0.5600 
 18 C       -4.4880     4.9200     1.0700 C.3   1 <1>  -0.1600 
 19 C       -6.1800     6.0600    -0.2010 C.3   1 <1>   0.1200 
 20 C       -5.9850     5.1820     1.0340 C.3   1 <1>  -0.1600 
 21 H       -0.6650     2.4900    -0.7760 H     1 <1>   0.1500 
 22 H        4.0980     2.6530     0.4270 H     1 <1>   0.1500 
 23 H        3.3630    -0.1890    -1.3560 H     1 <1>   0.0800 
 24 H        2.9540    -0.5910     0.2970 H     1 <1>   0.0800 
 25 H        4.3690     0.3690    -0.0450 H     1 <1>   0.0800 
 26 H       -1.8670     4.6170     1.0120 H     1 <1>   0.4200 
 27 H        4.2970     6.1660     1.2860 H     1 <1>   0.0800 
 28 H        4.7630     4.8910     0.1670 H     1 <1>   0.0800 
 29 H        4.3640     4.5020     1.8530 H     1 <1>   0.0800 
 30 H       -2.3950     5.9000    -1.5380 H     1 <1>   0.0800 
 31 H       -2.4760     6.6410     0.0460 H     1 <1>   0.0800 
 32 H       -4.2310     4.4010    -1.0050 H     1 <1>   0.0800 
 33 H       -4.0130     5.5980     1.7580 H     1 <1>   0.0800 
 34 H       -4.2520     3.9070     1.3420 H     1 <1>   0.0800 
 35 H       -6.7950     5.5710    -0.9370 H     1 <1>   0.0800 
 36 H       -6.5950     7.0220     0.0470 H     1 <1>   0.0800 
 37 H       -6.3250     5.6800     1.9250 H     1 <1>   0.0800 
 38 H       -6.5350     4.2650     0.9130 H     1 <1>   0.0800 
@<TRIPOS>BOND
  1   1   2  1   
  2   2   3  ar  
  3   2   4  ar  
  4   3   5  ar  
  5   3   6  1   
  6   4   7  ar  
  7   4  21  1   
  8   5   8  ar  
  9   5  22  1   
 10   6  23  1   
 11   6  24  1   
 12   6  25  1   
 13   7   8  ar  
 14   7   9  1   
 15   8  10  1   
 16   9  11  2   
 17   9  12  2   
 18   9  13  am  
 19  10  14  1   
 20  13  15  1   
 21  13  26  1   
 22  14  27  1   
 23  14  28  1   
 24  14  29  1   
 25  15  16  1   
 26  15  30  1   
 27  15  31  1   
 28  16  17  1   
 29  16  18  1   
 30  16  32  1   
 31  17  19  1   
 32  18  20  1   
 33  18  33  1   
 34  18  34  1   
 35  19  20  1   
 36  19  35  1   
 37  19  36  1   
 38  20  37  1   
 39  20  38  1   
@<TRIPOS>SUBSTRUCTURE
  1 ****   9 GROUP 4 **** **** 0

# MOE 2024.06 (io_trps.svl 2023.06)
