@<TRIPOS>MOLECULE
NONAME
44 48 1 0 0 
SMALL
USER_CHARGES


@<TRIPOS>ATOM
  1 O       -1.5850    -2.1930     2.2950 O.2   1 <1>  -0.5700 
  2 C       -1.6820    -1.9190     1.1270 C.2   1 <1>   0.5690 
  3 N       -0.8230    -2.2540     0.0900 N.am  1 <1>  -0.2370 
  4 C       -2.7710    -1.0700     0.5390 C.3   1 <1>  -0.0190 
  5 C        0.4620    -2.8240     0.2330 C.ar  1 <1>   0.1170 
  6 C       -1.4460    -1.9520    -1.1130 C.2   1 <1>   0.5690 
  7 C       -4.1950    -0.5570     0.8180 C.3   1 <1>   0.1530 
  8 C       -2.9070    -1.7630    -0.8220 C.3   1 <1>  -0.0190 
  9 C        1.5440    -2.3390    -0.4910 C.ar  1 <1>  -0.1500 
 10 C        0.6730    -3.8880     1.1030 C.ar  1 <1>  -0.1500 
 11 O       -0.9510    -1.8610    -2.2060 O.2   1 <1>  -0.5700 
 12 C       -5.2660    -1.6060     0.5460 C.2   1 <1>  -0.2880 
 13 C       -4.3260     0.1550    -0.5380 C.3   1 <1>  -0.1900 
 14 C       -4.1580    -1.0780    -1.4250 C.3   1 <1>   0.1530 
 15 C        2.8250    -2.8750    -0.3630 C.ar  1 <1>   0.0860 
 16 C        1.9280    -4.4510     1.2380 C.ar  1 <1>  -0.1500 
 17 C       -5.2840    -1.8670    -0.7650 C.2   1 <1>  -0.2880 
 18 C       -5.3140     1.2380    -0.8180 C.3   1 <1>  -0.2000 
 19 C       -3.8300     1.5240    -0.8730 C.3   1 <1>  -0.2000 
 20 C        3.9540    -2.3550    -1.1100 C.2   1 <1>   0.6340 
 21 C        2.9900    -3.9500     0.5090 C.ar  1 <1>  -0.1500 
 22 O        4.7180    -3.0740    -1.7110 O.2   1 <1>  -0.5700 
 23 O        4.2080    -1.0440    -1.1320 O.3   1 <1>  -0.4300 
 24 C        3.8830    -0.1810    -0.0670 C.3   1 <1>   0.1200 
 25 C        4.6280     1.1310    -0.2860 C.3   1 <1>  -0.2400 
 26 H       -2.2170    -0.1510     0.4150 H     1 <1>   0.0800 
 27 H       -4.3380     0.0850     1.6700 H     1 <1>   0.0800 
 28 H       -3.2010    -2.7910    -0.6720 H     1 <1>   0.0800 
 29 H        1.3950    -1.5290    -1.1840 H     1 <1>   0.1500 
 30 H       -0.1470    -4.2830     1.6790 H     1 <1>   0.1500 
 31 H       -5.8640    -1.9940     1.3530 H     1 <1>   0.1500 
 32 H       -4.2200    -0.9450    -2.4920 H     1 <1>   0.0800 
 33 H        2.0770    -5.2790     1.9110 H     1 <1>   0.1500 
 34 H       -5.9040    -2.5280    -1.3470 H     1 <1>   0.1500 
 35 H       -5.8910     1.6370    -0.0020 H     1 <1>   0.1000 
 36 H       -5.8730     1.2040    -1.7380 H     1 <1>   0.1000 
 37 H       -3.3830     1.7030    -1.8360 H     1 <1>   0.1000 
 38 H       -3.4110     2.1470    -0.1010 H     1 <1>   0.1000 
 39 H        3.9660    -4.3950     0.6100 H     1 <1>   0.1500 
 40 H        4.1890    -0.6420     0.8570 H     1 <1>   0.0800 
 41 H        2.8200    -0.0130    -0.0630 H     1 <1>   0.0800 
 42 H        5.6890     0.9540    -0.3020 H     1 <1>   0.0800 
 43 H        4.4060     1.8160     0.5110 H     1 <1>   0.0800 
 44 H        4.3260     1.5770    -1.2170 H     1 <1>   0.0800 
@<TRIPOS>BOND
  1   1   2  2   
  2   2   3  am  
  3   2   4  1   
  4   3   5  1   
  5   3   6  am  
  6   4   7  1   
  7   4   8  1   
  8   4  26  1   
  9   5   9  ar  
 10   5  10  ar  
 11   6   8  1   
 12   6  11  2   
 13   7  12  1   
 14   7  13  1   
 15   7  27  1   
 16   8  14  1   
 17   8  28  1   
 18   9  15  ar  
 19   9  29  1   
 20  10  16  ar  
 21  10  30  1   
 22  12  17  2   
 23  12  31  1   
 24  13  14  1   
 25  13  18  1   
 26  13  19  1   
 27  14  17  1   
 28  14  32  1   
 29  15  20  1   
 30  15  21  ar  
 31  16  21  ar  
 32  16  33  1   
 33  17  34  1   
 34  18  19  1   
 35  18  35  1   
 36  18  36  1   
 37  19  37  1   
 38  19  38  1   
 39  20  22  2   
 40  20  23  1   
 41  21  39  1   
 42  23  24  1   
 43  24  25  1   
 44  24  40  1   
 45  24  41  1   
 46  25  42  1   
 47  25  43  1   
 48  25  44  1   
@<TRIPOS>SUBSTRUCTURE
  1 ****   3 GROUP 4 **** **** 0

# MOE 2024.06 (io_trps.svl 2023.06)
