@<TRIPOS>MOLECULE
NONAME
38 39 1 0 0 
SMALL
USER_CHARGES


@<TRIPOS>ATOM
  1 CL      -0.2190    -0.6570    -0.7550 Cl    1 <1>  -0.1770 
  2 C       -1.8060    -1.2580    -0.3450 C.ar  1 <1>   0.1770 
  3 C       -2.7770    -1.3320    -1.3250 C.ar  1 <1>  -0.1500 
  4 C       -2.0690    -1.6530     0.9510 C.ar  1 <1>  -0.1500 
  5 C       -4.0410    -1.8080    -1.0110 C.ar  1 <1>  -0.1440 
  6 C       -3.3280    -2.1290     1.2660 C.ar  1 <1>  -0.1500 
  7 C       -4.3290    -2.2110     0.2980 C.ar  1 <1>   0.1170 
  8 C       -5.0950    -1.8730    -2.1120 C.3   1 <1>  -0.0960 
  9 N       -5.6090    -2.7020     0.5970 N.am  1 <1>  -0.5470 
 10 C       -6.3060    -2.7790     1.7710 C.2   1 <1>   0.5690 
 11 O       -5.8810    -2.4200     2.8400 O.2   1 <1>  -0.5700 
 12 C       -7.7130    -3.3410     1.7020 C.3   1 <1>  -0.0990 
 13 C       -8.6730    -2.3920     0.9660 C.3   1 <1>  -0.1600 
 14 C      -10.0540    -3.0270     0.7750 C.3   1 <1>   0.1400 
 15 N      -10.8950    -2.1560    -0.0740 N.am  1 <1>  -0.4200 
 16 C      -11.9320    -1.4080     0.3840 C.2   1 <1>   0.5690 
 17 C      -10.7420    -2.0260    -1.4190 C.2   1 <1>   0.5690 
 18 O      -12.3010    -1.3350     1.5270 O.2   1 <1>  -0.5700 
 19 C      -12.5920    -0.6560    -0.7500 C.3   1 <1>  -0.0990 
 20 O       -9.8990    -2.5660    -2.0870 O.2   1 <1>  -0.5700 
 21 C      -11.7810    -1.0870    -1.9880 C.3   1 <1>  -0.0990 
 22 H       -2.5320    -1.0160    -2.3220 H     1 <1>   0.1500 
 23 H       -1.3000    -1.5870     1.7000 H     1 <1>   0.1500 
 24 H       -3.5280    -2.4410     2.2750 H     1 <1>   0.1500 
 25 H       -4.7190    -1.4550    -3.0290 H     1 <1>   0.0800 
 26 H       -5.9680    -1.3130    -1.8250 H     1 <1>   0.0800 
 27 H       -5.3740    -2.8940    -2.2990 H     1 <1>   0.0800 
 28 H       -6.1390    -2.9810    -0.2260 H     1 <1>   0.3700 
 29 H       -8.0670    -3.5080     2.7040 H     1 <1>   0.0800 
 30 H       -7.6730    -4.2930     1.2030 H     1 <1>   0.0800 
 31 H       -8.2600    -2.1510     0.0020 H     1 <1>   0.0800 
 32 H       -8.7720    -1.4810     1.5310 H     1 <1>   0.0800 
 33 H      -10.5300    -3.1730     1.7300 H     1 <1>   0.0800 
 34 H       -9.9580    -3.9850     0.2930 H     1 <1>   0.0800 
 35 H      -12.5190     0.4020    -0.5770 H     1 <1>   0.0800 
 36 H      -13.6240    -0.9470    -0.8300 H     1 <1>   0.0800 
 37 H      -12.3940    -1.6080    -2.7000 H     1 <1>   0.0800 
 38 H      -11.3000    -0.2490    -2.4580 H     1 <1>   0.0800 
@<TRIPOS>BOND
  1   1   2  1   
  2   2   3  ar  
  3   2   4  ar  
  4   3   5  ar  
  5   3  22  1   
  6   4   6  ar  
  7   4  23  1   
  8   5   7  ar  
  9   5   8  1   
 10   6   7  ar  
 11   6  24  1   
 12   7   9  1   
 13   8  25  1   
 14   8  26  1   
 15   8  27  1   
 16   9  10  am  
 17   9  28  1   
 18  10  11  2   
 19  10  12  1   
 20  12  13  1   
 21  12  29  1   
 22  12  30  1   
 23  13  14  1   
 24  13  31  1   
 25  13  32  1   
 26  14  15  1   
 27  14  33  1   
 28  14  34  1   
 29  15  16  am  
 30  15  17  am  
 31  16  18  2   
 32  16  19  1   
 33  17  20  2   
 34  17  21  1   
 35  19  21  1   
 36  19  35  1   
 37  19  36  1   
 38  21  37  1   
 39  21  38  1   
@<TRIPOS>SUBSTRUCTURE
  1 ****   9 GROUP 4 **** **** 0

# MOE 2024.06 (io_trps.svl 2023.06)
