@<TRIPOS>MOLECULE
NONAME
38 39 1 0 0 
SMALL
USER_CHARGES


@<TRIPOS>ATOM
  1 O        0.0910     0.8670    -0.6140 O.2   1 <1>  -0.5700 
  2 C        0.0940     2.0620    -0.4240 C.2   1 <1>   0.6900 
  3 N       -1.0000     2.8060    -0.7160 N.am  1 <1>  -0.5390 
  4 N        1.1800     2.6790     0.0640 N.am  1 <1>  -0.7300 
  5 C       -1.0620     4.1790    -0.6080 C.2   1 <1>  -0.0290 
  6 C        1.3200     4.1430     0.1510 C.3   1 <1>   0.5020 
  7 C        0.0280     4.8920    -0.2040 C.2   1 <1>  -0.1240 
  8 C       -2.4260     4.7460    -0.9750 C.3   1 <1>  -0.1020 
  9 C        2.4890     4.5280    -0.7610 C.ar  1 <1>  -0.1440 
 10 C        0.1500     6.3140    -0.0690 C.2   1 <1>   0.7060 
 11 C        3.7550     4.8330    -0.2610 C.ar  1 <1>  -0.1440 
 12 C        2.2780     4.5660    -2.1350 C.ar  1 <1>  -0.1500 
 13 O       -0.5710     7.1120    -0.6360 O.2   1 <1>  -0.5700 
 14 O        1.1120     6.7970     0.7270 O.3   1 <1>  -0.4300 
 15 C        4.7710     5.1850    -1.1380 C.ar  1 <1>  -0.1500 
 16 C        4.0740     4.7880     1.2290 C.3   1 <1>  -0.0970 
 17 C        3.2970     4.9170    -3.0010 C.ar  1 <1>  -0.1500 
 18 C        1.3340     8.1850     0.8530 C.3   1 <1>   0.1200 
 19 C        4.5450     5.2300    -2.5010 C.ar  1 <1>  -0.1500 
 20 C        2.5600     8.3950     1.7350 C.3   1 <1>  -0.2400 
 21 H       -1.7890     2.2560    -1.0540 H     1 <1>   0.3700 
 22 H        2.0490     2.1510     0.0440 H     1 <1>   0.3700 
 23 H        1.5540     4.3740     1.1740 H     1 <1>   0.0800 
 24 H       -3.2050     4.1370    -0.5520 H     1 <1>   0.0800 
 25 H       -2.5390     4.7590    -2.0440 H     1 <1>   0.0800 
 26 H       -2.5670     5.7430    -0.6040 H     1 <1>   0.0800 
 27 H        1.3130     4.3190    -2.5430 H     1 <1>   0.1500 
 28 H        5.7510     5.4270    -0.7660 H     1 <1>   0.1500 
 29 H        3.8760     3.8060     1.6200 H     1 <1>   0.0800 
 30 H        3.4770     5.5070     1.7600 H     1 <1>   0.0800 
 31 H        5.1090     5.0160     1.4090 H     1 <1>   0.0800 
 32 H        3.1170     4.9460    -4.0610 H     1 <1>   0.1500 
 33 H        0.4570     8.6320     1.2910 H     1 <1>   0.0800 
 34 H        1.4960     8.5960    -0.1300 H     1 <1>   0.0800 
 35 H        5.3410     5.5050    -3.1710 H     1 <1>   0.1500 
 36 H        2.4040     7.9510     2.7020 H     1 <1>   0.0800 
 37 H        2.7340     9.4480     1.8660 H     1 <1>   0.0800 
 38 H        3.4270     7.9630     1.2700 H     1 <1>   0.0800 
@<TRIPOS>BOND
  1   1   2  2   
  2   2   3  am  
  3   2   4  am  
  4   3   5  1   
  5   3  21  1   
  6   4   6  1   
  7   4  22  1   
  8   5   7  2   
  9   5   8  1   
 10   6   7  1   
 11   6   9  1   
 12   6  23  1   
 13   7  10  1   
 14   8  24  1   
 15   8  25  1   
 16   8  26  1   
 17   9  11  ar  
 18   9  12  ar  
 19  10  13  2   
 20  10  14  1   
 21  11  15  ar  
 22  11  16  1   
 23  12  17  ar  
 24  12  27  1   
 25  14  18  1   
 26  15  19  ar  
 27  15  28  1   
 28  16  29  1   
 29  16  30  1   
 30  16  31  1   
 31  17  19  ar  
 32  17  32  1   
 33  18  20  1   
 34  18  33  1   
 35  18  34  1   
 36  19  35  1   
 37  20  36  1   
 38  20  37  1   
 39  20  38  1   
@<TRIPOS>SUBSTRUCTURE
  1 ****   6 GROUP 4 **** **** 0

# MOE 2024.06 (io_trps.svl 2023.06)
