@<TRIPOS>MOLECULE
NONAME
51 52 1 0 0 
SMALL
USER_CHARGES


@<TRIPOS>ATOM
  1 O       -2.0590     1.3010    -1.6610 O.2   1 <1>  -0.5700 
  2 C       -1.8980     1.8740    -0.6100 C.2   1 <1>   0.6590 
  3 O       -2.0820     1.2580     0.5570 O.3   1 <1>  -0.4300 
  4 C       -1.4640     3.3570    -0.5730 C.3   1 <1>   0.2510 
  5 C       -2.4080    -0.1080     0.6650 C.3   1 <1>   0.1200 
  6 N       -0.0060     3.5880    -0.3080 N.3   1 <1>  -0.8100 
  7 C       -2.3110     4.1450     0.4460 C.3   1 <1>  -0.1600 
  8 C       -1.1130    -0.9170     0.6670 C.3   1 <1>  -0.2400 
  9 C        0.3440     5.0190    -0.3630 C.3   1 <1>   0.1100 
 10 C        0.8300     2.7700    -1.2210 C.3   1 <1>   0.2530 
 11 C       -1.9750     5.6390     0.4370 C.3   1 <1>  -0.1600 
 12 C       -0.4720     5.8190     0.6540 C.3   1 <1>  -0.1600 
 13 C        2.3310     2.9660    -1.0150 C.ar  1 <1>  -0.1430 
 14 C        3.0340     2.2420    -0.0530 C.ar  1 <1>   0.0830 
 15 C        3.0130     3.8710    -1.8160 C.ar  1 <1>  -0.1500 
 16 O        2.3600     1.3390     0.7060 O.3   1 <1>  -0.3630 
 17 C        4.4060     2.4470     0.1280 C.ar  1 <1>   0.0830 
 18 C        4.3670     4.0880    -1.6380 C.ar  1 <1>  -0.1500 
 19 C        2.5590    -0.0200     0.3970 C.3   1 <1>   0.0400 
 20 O        5.0720     1.7140     1.0700 O.3   1 <1>  -0.3630 
 21 C        5.0610     3.4020    -0.6560 C.ar  1 <1>   0.0830 
 22 C        6.1430     0.9110     0.6220 C.3   1 <1>   0.0400 
 23 O        6.3710     3.7140    -0.4980 O.3   1 <1>  -0.3630 
 24 C        6.6910     4.4200     0.6800 C.3   1 <1>   0.0400 
 25 H       -1.6830     3.7530    -1.5490 H     1 <1>   0.0800 
 26 H       -3.0500    -0.3890    -0.1540 H     1 <1>   0.0800 
 27 H       -2.9380    -0.2440     1.5910 H     1 <1>   0.0800 
 28 H       -2.1310     3.7460     1.4300 H     1 <1>   0.0800 
 29 H       -3.3540     4.0110     0.2230 H     1 <1>   0.0800 
 30 H       -0.5900    -0.7820    -0.2630 H     1 <1>   0.0800 
 31 H       -1.3370    -1.9610     0.7860 H     1 <1>   0.0800 
 32 H       -0.4880    -0.6030     1.4830 H     1 <1>   0.0800 
 33 H        0.1730     5.4000    -1.3560 H     1 <1>   0.0800 
 34 H        1.3840     5.1490    -0.1200 H     1 <1>   0.0800 
 35 H        0.5800     3.0060    -2.2410 H     1 <1>   0.0800 
 36 H        0.6100     1.7280    -1.0700 H     1 <1>   0.0800 
 37 H       -2.5220     6.1430     1.2150 H     1 <1>   0.0800 
 38 H       -2.2580     6.0690    -0.5090 H     1 <1>   0.0800 
 39 H       -0.2160     6.8610     0.5750 H     1 <1>   0.0800 
 40 H       -0.2040     5.4890     1.6430 H     1 <1>   0.0800 
 41 H        2.4870     4.4200    -2.5770 H     1 <1>   0.1500 
 42 H        4.8900     4.7980    -2.2520 H     1 <1>   0.1500 
 43 H        3.5780    -0.2840     0.6050 H     1 <1>   0.0800 
 44 H        2.3320    -0.1770    -0.6420 H     1 <1>   0.0800 
 45 H        1.9000    -0.6020     1.0140 H     1 <1>   0.0800 
 46 H        6.3640     0.1910     1.3880 H     1 <1>   0.0800 
 47 H        7.0030     1.5290     0.4460 H     1 <1>   0.0800 
 48 H        5.8500     0.4100    -0.2840 H     1 <1>   0.0800 
 49 H        7.7440     4.6380     0.6670 H     1 <1>   0.0800 
 50 H        6.4520     3.8130     1.5350 H     1 <1>   0.0800 
 51 H        6.1240     5.3340     0.7020 H     1 <1>   0.0800 
@<TRIPOS>BOND
  1   1   2  2   
  2   2   3  1   
  3   2   4  1   
  4   3   5  1   
  5   4   6  1   
  6   4   7  1   
  7   4  25  1   
  8   5   8  1   
  9   5  26  1   
 10   5  27  1   
 11   6   9  1   
 12   6  10  1   
 13   7  11  1   
 14   7  28  1   
 15   7  29  1   
 16   8  30  1   
 17   8  31  1   
 18   8  32  1   
 19   9  12  1   
 20   9  33  1   
 21   9  34  1   
 22  10  13  1   
 23  10  35  1   
 24  10  36  1   
 25  11  12  1   
 26  11  37  1   
 27  11  38  1   
 28  12  39  1   
 29  12  40  1   
 30  13  14  ar  
 31  13  15  ar  
 32  14  16  1   
 33  14  17  ar  
 34  15  18  ar  
 35  15  41  1   
 36  16  19  1   
 37  17  20  1   
 38  17  21  ar  
 39  18  21  ar  
 40  18  42  1   
 41  19  43  1   
 42  19  44  1   
 43  19  45  1   
 44  20  22  1   
 45  21  23  1   
 46  22  46  1   
 47  22  47  1   
 48  22  48  1   
 49  23  24  1   
 50  24  49  1   
 51  24  50  1   
 52  24  51  1   
@<TRIPOS>SUBSTRUCTURE
  1 ****  13 GROUP 4 **** **** 0

# MOE 2024.06 (io_trps.svl 2023.06)
