@<TRIPOS>MOLECULE
NONAME
36 36 1 0 0 
SMALL
USER_CHARGES


@<TRIPOS>ATOM
  1 S        0.0290     0.3710     1.2100 S.3   1 <1>  -0.3710 
  2 C       -1.5470     1.1420     0.8960 C.2   1 <1>   0.6510 
  3 C        1.1230     1.0240    -0.1300 C.3   1 <1>   0.1500 
  4 N       -1.6990     1.9190    -0.1020 N.2   1 <1>  -0.6210 
  5 N       -2.5020     0.8170     1.7940 N.am  1 <1>  -0.4900 
  6 C        2.2250    -0.0220    -0.3520 C.3   1 <1>  -0.1600 
  7 C        1.6460     2.3850     0.3360 C.3   1 <1>  -0.2400 
  8 C       -2.9400     2.4790    -0.2820 C.2   1 <1>   0.0210 
  9 C       -3.7490     1.3410     1.6640 C.2   1 <1>   0.6160 
 10 C        3.1540     0.3230    -1.5240 C.3   1 <1>  -0.2400 
 11 O       -3.0350     3.2270    -1.2610 O.3   1 <1>  -0.8500 
 12 C       -3.9960     2.2040     0.5960 C.2   1 <1>  -0.1240 
 13 O       -4.5630     0.9880     2.5350 O.2   1 <1>  -0.5700 
 14 C       -5.3960     2.8110     0.4230 C.3   1 <1>   0.0580 
 15 C       -6.0270     2.3710    -0.9120 C.3   1 <1>  -0.1600 
 16 C       -5.3480     4.3390     0.5800 C.3   1 <1>  -0.2400 
 17 C       -7.5190     2.7120    -1.0360 C.3   1 <1>  -0.2400 
 18 H        0.5180     1.1280    -1.0160 H     1 <1>   0.0800 
 19 H       -2.3160     0.1940     2.5640 H     1 <1>   0.3700 
 20 H        1.7550    -0.9680    -0.5560 H     1 <1>   0.0800 
 21 H        2.8050    -0.1270     0.5480 H     1 <1>   0.0800 
 22 H        2.2290     2.2800     1.2330 H     1 <1>   0.0800 
 23 H        0.8160     3.0420     0.5310 H     1 <1>   0.0800 
 24 H        2.2490     2.8370    -0.4290 H     1 <1>   0.0800 
 25 H        2.5810     0.4680    -2.4230 H     1 <1>   0.0800 
 26 H        3.8510    -0.4800    -1.6870 H     1 <1>   0.0800 
 27 H        3.7130     1.2180    -1.3190 H     1 <1>   0.0800 
 28 H       -6.0300     2.4380     1.2080 H     1 <1>   0.0800 
 29 H       -5.9020     1.3070    -1.0090 H     1 <1>   0.0800 
 30 H       -5.4850     2.8270    -1.7240 H     1 <1>   0.0800 
 31 H       -4.8010     4.7710    -0.2390 H     1 <1>   0.0800 
 32 H       -4.8420     4.5930     1.4930 H     1 <1>   0.0800 
 33 H       -6.3360     4.7570     0.6020 H     1 <1>   0.0800 
 34 H       -8.0700     2.2870    -0.2170 H     1 <1>   0.0800 
 35 H       -7.9040     2.3120    -1.9570 H     1 <1>   0.0800 
 36 H       -7.6630     3.7770    -1.0450 H     1 <1>   0.0800 
@<TRIPOS>BOND
  1   1   2  1   
  2   1   3  1   
  3   2   4  2   
  4   2   5  1   
  5   3   6  1   
  6   3   7  1   
  7   3  18  1   
  8   4   8  1   
  9   5   9  am  
 10   5  19  1   
 11   6  10  1   
 12   6  20  1   
 13   6  21  1   
 14   7  22  1   
 15   7  23  1   
 16   7  24  1   
 17   8  11  1   
 18   8  12  2   
 19   9  12  1   
 20   9  13  2   
 21  10  25  1   
 22  10  26  1   
 23  10  27  1   
 24  12  14  1   
 25  14  15  1   
 26  14  16  1   
 27  14  28  1   
 28  15  17  1   
 29  15  29  1   
 30  15  30  1   
 31  16  31  1   
 32  16  32  1   
 33  16  33  1   
 34  17  34  1   
 35  17  35  1   
 36  17  36  1   
@<TRIPOS>SUBSTRUCTURE
  1 ****   4 GROUP 4 **** **** 0

# MOE 2024.06 (io_trps.svl 2023.06)
