@<TRIPOS>MOLECULE
NONAME
44 45 1 0 0 
SMALL
USER_CHARGES


@<TRIPOS>ATOM
  1 O        0.3970    -0.2150    -0.2890 O.3   1 <1>  -0.3630 
  2 C       -0.6260     0.6480    -0.5140 C.ar  1 <1>   0.0830 
  3 C        0.9700    -0.2360     1.0000 C.3   1 <1>   0.2000 
  4 C       -0.4730     2.0380    -0.4560 C.ar  1 <1>   0.0820 
  5 C       -1.8650     0.1080    -0.8190 C.ar  1 <1>  -0.1500 
  6 C        2.3940    -0.7670     0.8580 C.3   1 <1>  -0.2400 
  7 C        0.1200    -1.1410     1.8930 C.3   1 <1>  -0.2400 
  8 O        0.7190     2.6320    -0.2050 O.3   1 <1>  -0.3630 
  9 C       -1.5700     2.8590    -0.6580 C.ar  1 <1>  -0.1500 
 10 C       -2.9540     0.9350    -1.0340 C.ar  1 <1>  -0.1500 
 11 C        1.7120     2.4930    -1.2000 C.3   1 <1>   0.1200 
 12 C       -2.8090     2.3100    -0.9470 C.ar  1 <1>  -0.1500 
 13 C        3.0170     3.0520    -0.6490 C.3   1 <1>   0.1200 
 14 O        4.0260     2.8790    -1.6210 O.3   1 <1>  -0.3630 
 15 C        5.3060     3.2520    -1.3710 C.ar  1 <1>   0.0830 
 16 C        5.7200     3.8510    -0.1860 C.ar  1 <1>  -0.1500 
 17 C        6.2320     3.0090    -2.3720 C.ar  1 <1>  -0.1500 
 18 C        7.0480     4.2010    -0.0050 C.ar  1 <1>   0.0830 
 19 C        7.5600     3.3570    -2.1980 C.ar  1 <1>  -0.1500 
 20 O        7.3680     4.7790     1.1810 O.3   1 <1>  -0.3630 
 21 C        7.9720     3.9520    -1.0170 C.ar  1 <1>  -0.1500 
 22 C        8.6890     5.1780     1.4680 C.3   1 <1>   0.0400 
 23 H        0.9910     0.7640     1.3980 H     1 <1>   0.0800 
 24 H       -1.9700    -0.9600    -0.8810 H     1 <1>   0.1500 
 25 H        2.3840    -1.7600     0.4440 H     1 <1>   0.0800 
 26 H        2.8720    -0.8000     1.8200 H     1 <1>   0.0800 
 27 H        2.9650    -0.1210     0.2170 H     1 <1>   0.0800 
 28 H        0.0630    -2.1300     1.4760 H     1 <1>   0.0800 
 29 H       -0.8710    -0.7360     1.9910 H     1 <1>   0.0800 
 30 H        0.5560    -1.2030     2.8730 H     1 <1>   0.0800 
 31 H       -1.4500     3.9250    -0.5930 H     1 <1>   0.1500 
 32 H       -3.9150     0.5090    -1.2660 H     1 <1>   0.1500 
 33 H        1.3950     3.0430    -2.0680 H     1 <1>   0.0800 
 34 H        1.8270     1.4520    -1.4420 H     1 <1>   0.0800 
 35 H       -3.6570     2.9520    -1.1080 H     1 <1>   0.1500 
 36 H        3.3060     2.5150     0.2360 H     1 <1>   0.0800 
 37 H        2.9190     4.1040    -0.4460 H     1 <1>   0.0800 
 38 H        5.0370     4.0590     0.6130 H     1 <1>   0.1500 
 39 H        5.9060     2.5460    -3.2860 H     1 <1>   0.1500 
 40 H        8.2720     3.1640    -2.9810 H     1 <1>   0.1500 
 41 H        9.0070     4.2120    -0.9060 H     1 <1>   0.1500 
 42 H        8.7010     5.6080     2.4540 H     1 <1>   0.0800 
 43 H        8.9980     5.9130     0.7460 H     1 <1>   0.0800 
 44 H        9.3290     4.3140     1.4390 H     1 <1>   0.0800 
@<TRIPOS>BOND
  1   1   2  1   
  2   1   3  1   
  3   2   4  ar  
  4   2   5  ar  
  5   3   6  1   
  6   3   7  1   
  7   3  23  1   
  8   4   8  1   
  9   4   9  ar  
 10   5  10  ar  
 11   5  24  1   
 12   6  25  1   
 13   6  26  1   
 14   6  27  1   
 15   7  28  1   
 16   7  29  1   
 17   7  30  1   
 18   8  11  1   
 19   9  12  ar  
 20   9  31  1   
 21  10  12  ar  
 22  10  32  1   
 23  11  13  1   
 24  11  33  1   
 25  11  34  1   
 26  12  35  1   
 27  13  14  1   
 28  13  36  1   
 29  13  37  1   
 30  14  15  1   
 31  15  16  ar  
 32  15  17  ar  
 33  16  18  ar  
 34  16  38  1   
 35  17  19  ar  
 36  17  39  1   
 37  18  20  1   
 38  18  21  ar  
 39  19  21  ar  
 40  19  40  1   
 41  20  22  1   
 42  21  41  1   
 43  22  42  1   
 44  22  43  1   
 45  22  44  1   
@<TRIPOS>SUBSTRUCTURE
  1 ****  13 GROUP 4 **** **** 0

# MOE 2024.06 (io_trps.svl 2023.06)
