@<TRIPOS>MOLECULE
NONAME
48 49 1 0 0 
SMALL
USER_CHARGES


@<TRIPOS>ATOM
  1 O       -0.0470     0.8030    -1.8730 O.2   1 <1>  -0.5700 
  2 C       -0.2090     1.2490    -0.7630 C.2   1 <1>   0.4950 
  3 C       -1.5270     1.4930    -0.2500 C.2   1 <1>  -0.1360 
  4 C        1.0280     1.5630     0.1210 C.3   1 <1>   0.0610 
  5 C       -2.6970     1.2700    -0.8970 C.2   1 <1>  -0.1780 
  6 C        2.3480     1.2310    -0.6090 C.3   1 <1>  -0.2400 
  7 C        1.0690     3.0600     0.4870 C.3   1 <1>  -0.2400 
  8 C        0.9960     0.7310     1.4170 C.3   1 <1>  -0.2400 
  9 C       -4.0450     1.4890    -0.4420 C.ar  1 <1>   0.0280 
 10 C       -5.1150     1.1880    -1.2840 C.ar  1 <1>  -0.1500 
 11 C       -4.3510     1.9920     0.8230 C.ar  1 <1>  -0.1500 
 12 C       -6.4240     1.3860    -0.8900 C.ar  1 <1>  -0.1500 
 13 C       -5.6590     2.1930     1.2220 C.ar  1 <1>  -0.1500 
 14 C       -6.7160     1.9050     0.3660 C.ar  1 <1>  -0.0230 
 15 N       -8.0590     2.1080     0.7750 N.pl3 1 <1>   0.5930 
 16 N       -8.7490     1.1300     1.3950 N.2   1 <1>  -0.4180 
 17 C       -8.8670     3.1880     0.6570 C.2   1 <1>  -0.3320 
 18 N       -9.9320     1.5460     1.6630 N.2   1 <1>  -0.2270 
 19 C      -10.0250     2.8010     1.2210 C.2   1 <1>   0.0770 
 20 C       -8.5220     4.5390     0.0210 C.3   1 <1>   0.1800 
 21 C       -7.3710     5.2140     0.7760 C.3   1 <1>  -0.2400 
 22 C       -9.7400     5.4720     0.0910 C.3   1 <1>  -0.2400 
 23 C       -8.1480     4.3660    -1.4550 C.3   1 <1>  -0.2400 
 24 H       -1.5450     1.8900     0.7440 H     1 <1>   0.1500 
 25 H       -2.6370     0.8700    -1.8960 H     1 <1>   0.1500 
 26 H        2.4280     1.8030    -1.5160 H     1 <1>   0.0800 
 27 H        2.3770     0.1870    -0.8710 H     1 <1>   0.0800 
 28 H        3.2000     1.4500     0.0090 H     1 <1>   0.0800 
 29 H        1.9530     3.2870     1.0560 H     1 <1>   0.0800 
 30 H        0.2150     3.3450     1.0730 H     1 <1>   0.0800 
 31 H        1.0810     3.6580    -0.4080 H     1 <1>   0.0800 
 32 H        1.8790     0.9110     2.0050 H     1 <1>   0.0800 
 33 H        0.9560    -0.3180     1.1810 H     1 <1>   0.0800 
 34 H        0.1400     0.9740     2.0200 H     1 <1>   0.0800 
 35 H       -4.9180     0.7890    -2.2630 H     1 <1>   0.1500 
 36 H       -3.5640     2.2300     1.5120 H     1 <1>   0.1500 
 37 H       -7.2290     1.1350    -1.5600 H     1 <1>   0.1500 
 38 H       -5.8660     2.5730     2.2080 H     1 <1>   0.1500 
 39 H      -10.9390     3.3550     1.3400 H     1 <1>   0.1500 
 40 H       -7.5930     5.2620     1.8270 H     1 <1>   0.0800 
 41 H       -7.2190     6.2150     0.4140 H     1 <1>   0.0800 
 42 H       -6.4520     4.6770     0.6430 H     1 <1>   0.0800 
 43 H       -9.5150     6.4250    -0.3520 H     1 <1>   0.0800 
 44 H      -10.0300     5.6390     1.1130 H     1 <1>   0.0800 
 45 H      -10.5730     5.0450    -0.4400 H     1 <1>   0.0800 
 46 H       -8.0410     5.3240    -1.9310 H     1 <1>   0.0800 
 47 H       -8.9120     3.8120    -1.9710 H     1 <1>   0.0800 
 48 H       -7.2150     3.8470    -1.5620 H     1 <1>   0.0800 
@<TRIPOS>BOND
  1   1   2  2   
  2   2   3  1   
  3   2   4  1   
  4   3   5  2   
  5   3  24  1   
  6   4   6  1   
  7   4   7  1   
  8   4   8  1   
  9   5   9  1   
 10   5  25  1   
 11   6  26  1   
 12   6  27  1   
 13   6  28  1   
 14   7  29  1   
 15   7  30  1   
 16   7  31  1   
 17   8  32  1   
 18   8  33  1   
 19   8  34  1   
 20   9  10  ar  
 21   9  11  ar  
 22  10  12  ar  
 23  10  35  1   
 24  11  13  ar  
 25  11  36  1   
 26  12  14  ar  
 27  12  37  1   
 28  13  14  ar  
 29  13  38  1   
 30  14  15  1   
 31  15  16  1   
 32  15  17  1   
 33  16  18  2   
 34  17  19  2   
 35  17  20  1   
 36  18  19  1   
 37  19  39  1   
 38  20  21  1   
 39  20  22  1   
 40  20  23  1   
 41  21  40  1   
 42  21  41  1   
 43  21  42  1   
 44  22  43  1   
 45  22  44  1   
 46  22  45  1   
 47  23  46  1   
 48  23  47  1   
 49  23  48  1   
@<TRIPOS>SUBSTRUCTURE
  1 ****  11 GROUP 4 **** **** 0

# MOE 2024.06 (io_trps.svl 2023.06)
