@<TRIPOS>MOLECULE
NONAME
39 41 1 0 0 
SMALL
USER_CHARGES


@<TRIPOS>ATOM
  1 S       -1.5830     0.5140    -0.9410 S.3   1 <1>  -0.0800 
  2 C       -0.1190     1.2440    -0.4010 C.2   1 <1>   0.4340 
  3 C       -2.3570     1.3540     0.3670 C.2   1 <1>   0.4420 
  4 S        1.3610     0.8550    -1.3200 S.3   1 <1>  -0.2860 
  5 N       -0.2420     1.9980     0.6130 N.2   1 <1>  -0.3380 
  6 N       -1.5360     2.0630     1.0580 N.2   1 <1>  -0.3380 
  7 N       -3.7160     1.1630     0.4980 N.am  1 <1>  -0.4940 
  8 C        2.6640     1.8160    -0.4360 C.3   1 <1>   0.0700 
  9 C       -4.5950     1.6750     1.4090 C.2   1 <1>   0.5690 
 10 C        3.9970     1.5630    -1.1380 C.3   1 <1>  -0.2400 
 11 O       -4.2800     2.4260     2.2960 O.2   1 <1>  -0.5700 
 12 C       -6.0580     1.2710     1.2920 C.3   1 <1>   0.1810 
 13 O       -6.2540     0.3850     0.1960 O.3   1 <1>  -0.3630 
 14 C       -7.4840    -0.1060    -0.0950 C.ar  1 <1>   0.0820 
 15 C       -8.6320     0.2070     0.6340 C.ar  1 <1>  -0.1500 
 16 C       -7.5710    -0.9640    -1.1840 C.ar  1 <1>  -0.1500 
 17 C       -9.8390    -0.3490     0.2520 C.ar  1 <1>  -0.1430 
 18 C       -8.7870    -1.5150    -1.5560 C.ar  1 <1>  -0.1500 
 19 C       -9.9160    -1.1960    -0.8250 C.ar  1 <1>  -0.1430 
 20 C      -11.1920    -0.1530     0.8890 C.3   1 <1>  -0.0170 
 21 C      -11.3280    -1.6760    -1.0480 C.3   1 <1>  -0.0170 
 22 C      -12.1640    -0.7610    -0.1370 C.3   1 <1>  -0.1600 
 23 H       -4.1500     0.5430    -0.1860 H     1 <1>   0.3700 
 24 H        2.6770     1.4760     0.5850 H     1 <1>   0.0800 
 25 H        2.3810     2.8540    -0.4760 H     1 <1>   0.0800 
 26 H        4.2380     0.5150    -1.1090 H     1 <1>   0.0800 
 27 H        4.7790     2.1100    -0.6450 H     1 <1>   0.0800 
 28 H        3.9430     1.8840    -2.1630 H     1 <1>   0.0800 
 29 H       -6.6590     2.1480     1.1350 H     1 <1>   0.0800 
 30 H       -6.3620     0.7710     2.1940 H     1 <1>   0.0800 
 31 H       -8.6130     0.8640     1.4810 H     1 <1>   0.1500 
 32 H       -6.6840    -1.2010    -1.7410 H     1 <1>   0.1500 
 33 H       -8.8530    -2.1800    -2.3990 H     1 <1>   0.1500 
 34 H      -11.4020     0.8880     1.0630 H     1 <1>   0.0800 
 35 H      -11.2330    -0.6950     1.8180 H     1 <1>   0.0800 
 36 H      -11.4110    -2.7020    -0.7360 H     1 <1>   0.0800 
 37 H      -11.6200    -1.5810    -2.0790 H     1 <1>   0.0800 
 38 H      -12.5790     0.0330    -0.7330 H     1 <1>   0.0800 
 39 H      -12.9670    -1.2960     0.3390 H     1 <1>   0.0800 
@<TRIPOS>BOND
  1   1   2  1   
  2   1   3  1   
  3   2   4  1   
  4   2   5  2   
  5   3   6  2   
  6   3   7  1   
  7   4   8  1   
  8   5   6  1   
  9   7   9  am  
 10   7  23  1   
 11   8  10  1   
 12   8  24  1   
 13   8  25  1   
 14   9  11  2   
 15   9  12  1   
 16  10  26  1   
 17  10  27  1   
 18  10  28  1   
 19  12  13  1   
 20  12  29  1   
 21  12  30  1   
 22  13  14  1   
 23  14  15  ar  
 24  14  16  ar  
 25  15  17  ar  
 26  15  31  1   
 27  16  18  ar  
 28  16  32  1   
 29  17  19  ar  
 30  17  20  1   
 31  18  19  ar  
 32  18  33  1   
 33  19  21  1   
 34  20  22  1   
 35  20  34  1   
 36  20  35  1   
 37  21  22  1   
 38  21  36  1   
 39  21  37  1   
 40  22  38  1   
 41  22  39  1   
@<TRIPOS>SUBSTRUCTURE
  1 ****  13 GROUP 4 **** **** 0

# MOE 2024.06 (io_trps.svl 2023.06)
