@<TRIPOS>MOLECULE
NONAME
49 51 1 0 0 
SMALL
USER_CHARGES


@<TRIPOS>ATOM
  1 S       -0.3020     1.2190    -1.4460 S.o2  1 <1>   1.4470 
  2 O       -0.8620     2.4560    -0.9420 O.2   1 <1>  -0.6500 
  3 O        0.2660     1.2110    -2.7770 O.2   1 <1>  -0.6500 
  4 N        0.9190     0.7690    -0.3600 N.am  1 <1>  -0.8490 
  5 C       -1.5410    -0.1120    -1.2970 C.ar  1 <1>  -0.0090 
  6 C        2.1420     1.5450    -0.5850 C.3   1 <1>   0.1960 
  7 C        0.4820     0.8700     1.0370 C.3   1 <1>   0.1960 
  8 C       -1.2860    -1.4420    -1.6420 C.ar  1 <1>  -0.1440 
  9 C       -2.8020     0.1990    -0.8010 C.ar  1 <1>  -0.1500 
 10 C        3.2790     1.0110     0.2940 C.3   1 <1>  -0.1600 
 11 C        1.5550     0.2990     1.9690 C.3   1 <1>  -0.1600 
 12 C       -2.2750    -2.4000    -1.4840 C.ar  1 <1>  -0.1500 
 13 C        0.0640    -1.8850    -2.1960 C.3   1 <1>  -0.0970 
 14 C       -3.8160    -0.7440    -0.6420 C.ar  1 <1>   0.0860 
 15 C        2.8960     1.0180     1.7780 C.3   1 <1>  -0.1600 
 16 C       -3.5160    -2.0570    -0.9900 C.ar  1 <1>  -0.1500 
 17 C       -5.1260    -0.3820    -0.1330 C.2   1 <1>   0.5440 
 18 O       -5.7680    -1.1810     0.5170 O.2   1 <1>  -0.5700 
 19 N       -5.6350     0.8640    -0.4180 N.am  1 <1>  -0.5470 
 20 C       -6.7300     1.5720     0.0930 C.ar  1 <1>   0.1170 
 21 C       -7.1840     2.6850    -0.6050 C.ar  1 <1>  -0.1500 
 22 C       -7.3730     1.2440     1.2820 C.ar  1 <1>  -0.1500 
 23 C       -8.2370     3.4430    -0.1320 C.ar  1 <1>  -0.1500 
 24 C       -8.4260     2.0060     1.7520 C.ar  1 <1>  -0.1500 
 25 C       -8.8880     3.1290     1.0630 C.ar  1 <1>  -0.1790 
 26 C       -9.9930     3.9370     1.5630 C.2   1 <1>   0.9790 
 27 O      -10.5570     3.6530     2.6350 O.co2 1 <1>  -0.9000 
 28 O      -10.3880     4.9320     0.9270 O.co2 1 <1>  -0.9000 
 29 H        1.9610     2.5850    -0.3670 H     1 <1>   0.0800 
 30 H        2.4410     1.4650    -1.6170 H     1 <1>   0.0800 
 31 H       -0.4290     0.3140     1.1770 H     1 <1>   0.0800 
 32 H        0.2910     1.9010     1.2900 H     1 <1>   0.0800 
 33 H       -3.0020     1.2180    -0.5150 H     1 <1>   0.1500 
 34 H        4.1570     1.6140     0.1440 H     1 <1>   0.0800 
 35 H        3.5120     0.0080    -0.0170 H     1 <1>   0.0800 
 36 H        1.6710    -0.7510     1.7620 H     1 <1>   0.0800 
 37 H        1.2330     0.4000     2.9900 H     1 <1>   0.0800 
 38 H       -2.0830    -3.4280    -1.7440 H     1 <1>   0.1500 
 39 H        0.2750    -1.3770    -3.1200 H     1 <1>   0.0800 
 40 H        0.0750    -2.9420    -2.3910 H     1 <1>   0.0800 
 41 H        0.8490    -1.6710    -1.4930 H     1 <1>   0.0800 
 42 H        2.8090     2.0350     2.1210 H     1 <1>   0.0800 
 43 H        3.6610     0.5320     2.3590 H     1 <1>   0.0800 
 44 H       -4.2730    -2.8150    -0.8690 H     1 <1>   0.1500 
 45 H       -5.1380     1.3620    -1.1520 H     1 <1>   0.3700 
 46 H       -6.7160     2.9670    -1.5280 H     1 <1>   0.1500 
 47 H       -7.0520     0.3940     1.8530 H     1 <1>   0.1500 
 48 H       -8.5780     4.3030    -0.6850 H     1 <1>   0.1500 
 49 H       -8.9130     1.7390     2.6750 H     1 <1>   0.1500 
@<TRIPOS>BOND
  1   1   2  2   
  2   1   3  2   
  3   1   4  am  
  4   1   5  1   
  5   4   6  1   
  6   4   7  1   
  7   5   8  ar  
  8   5   9  ar  
  9   6  10  1   
 10   6  29  1   
 11   6  30  1   
 12   7  11  1   
 13   7  31  1   
 14   7  32  1   
 15   8  12  ar  
 16   8  13  1   
 17   9  14  ar  
 18   9  33  1   
 19  10  15  1   
 20  10  34  1   
 21  10  35  1   
 22  11  15  1   
 23  11  36  1   
 24  11  37  1   
 25  12  16  ar  
 26  12  38  1   
 27  13  39  1   
 28  13  40  1   
 29  13  41  1   
 30  14  16  ar  
 31  14  17  1   
 32  15  42  1   
 33  15  43  1   
 34  16  44  1   
 35  17  18  2   
 36  17  19  am  
 37  19  20  1   
 38  19  45  1   
 39  20  21  ar  
 40  20  22  ar  
 41  21  23  ar  
 42  21  46  1   
 43  22  24  ar  
 44  22  47  1   
 45  23  25  ar  
 46  23  48  1   
 47  24  25  ar  
 48  24  49  1   
 49  25  26  1   
 50  26  27  ar  
 51  26  28  ar  
@<TRIPOS>SUBSTRUCTURE
  1 ****   9 GROUP 4 **** **** 0

# MOE 2024.06 (io_trps.svl 2023.06)
