@<TRIPOS>MOLECULE
NONAME
47 50 1 0 0 
SMALL
USER_CHARGES


@<TRIPOS>ATOM
  1 CL      -1.7540    -0.0080     0.6030 Cl    1 <1>  -0.1770 
  2 C       -2.3000     1.5890     0.1500 C.ar  1 <1>   0.1770 
  3 C       -3.3910     1.7290    -0.6960 C.ar  1 <1>  -0.1440 
  4 C       -1.6350     2.6880     0.6600 C.ar  1 <1>  -0.1500 
  5 C       -3.8140     3.0080    -1.0320 C.ar  1 <1>  -0.1500 
  6 C       -4.1040     0.5080    -1.2410 C.3   1 <1>   0.4870 
  7 C       -2.0670     3.9580     0.3210 C.ar  1 <1>  -0.1500 
  8 C       -3.1540     4.1150    -0.5240 C.ar  1 <1>  -0.1500 
  9 N       -4.8050    -0.1910    -0.1300 N.4   1 <1>  -0.9590 
 10 C       -5.3920    -1.4930    -0.6090 C.3   1 <1>   0.3430 
 11 C       -5.8480     0.6960     0.5060 C.3   1 <1>   0.3430 
 12 C       -6.2100    -2.2050     0.4900 C.3   1 <1>   0.1400 
 13 C       -6.6450    -0.0330     1.6080 C.3   1 <1>   0.1400 
 14 N       -7.2370    -1.2860     1.0640 N.am  1 <1>  -0.6600 
 15 C       -8.3960    -1.1420     0.3640 C.2   1 <1>   0.6900 
 16 O       -8.3280    -0.9400    -0.8340 O.2   1 <1>  -0.5700 
 17 N       -9.5660    -1.1960     1.0530 N.am  1 <1>  -0.5470 
 18 C      -10.8960    -0.9980     0.6460 C.ar  1 <1>   0.1170 
 19 C      -11.2340    -0.2690    -0.4960 C.ar  1 <1>  -0.1500 
 20 C      -11.9170    -1.5400     1.4330 C.ar  1 <1>  -0.1500 
 21 C      -12.5680    -0.1130    -0.8090 C.ar  1 <1>   0.0830 
 22 C      -13.2560    -1.3740     1.1030 C.ar  1 <1>  -0.1500 
 23 O      -13.1050     0.5410    -1.8440 O.3   1 <1>  -0.3620 
 24 C      -13.5520    -0.6500    -0.0330 C.ar  1 <1>   0.0830 
 25 C      -14.5190     0.4040    -1.7260 C.3   1 <1>   0.4000 
 26 O      -14.7560    -0.3610    -0.5450 O.3   1 <1>  -0.3620 
 27 H       -0.7890     2.5530     1.3130 H     1 <1>   0.1500 
 28 H       -4.6520     3.1610    -1.6930 H     1 <1>   0.1500 
 29 H       -3.3790    -0.1510    -1.6920 H     1 <1>   0.0800 
 30 H       -4.8130     0.8030    -1.9980 H     1 <1>   0.0800 
 31 H       -1.5570     4.8240     0.7100 H     1 <1>   0.1500 
 32 H       -3.4830     5.1070    -0.7870 H     1 <1>   0.1500 
 33 H       -4.0880    -0.3980     0.5800 H     1 <1>   0.4500 
 34 H       -4.6080    -2.1500    -0.9480 H     1 <1>   0.0800 
 35 H       -6.0500    -1.3060    -1.4430 H     1 <1>   0.0800 
 36 H       -6.5460     1.0260    -0.2470 H     1 <1>   0.0800 
 37 H       -5.3800     1.5710     0.9290 H     1 <1>   0.0800 
 38 H       -5.5580    -2.5540     1.2720 H     1 <1>   0.0800 
 39 H       -6.7000    -3.0640     0.0630 H     1 <1>   0.0800 
 40 H       -7.4300     0.6120     1.9640 H     1 <1>   0.0800 
 41 H       -6.0040    -0.2650     2.4410 H     1 <1>   0.0800 
 42 H       -9.4470    -1.5280     2.0060 H     1 <1>   0.3700 
 43 H      -10.4910     0.1710    -1.1310 H     1 <1>   0.1500 
 44 H      -11.6670    -2.1030     2.3140 H     1 <1>   0.1500 
 45 H      -14.0460    -1.7900     1.7020 H     1 <1>   0.1500 
 46 H      -14.9020    -0.1250    -2.5800 H     1 <1>   0.0800 
 47 H      -14.9680     1.3760    -1.6230 H     1 <1>   0.0800 
@<TRIPOS>BOND
  1   1   2  1   
  2   2   3  ar  
  3   2   4  ar  
  4   3   5  ar  
  5   3   6  1   
  6   4   7  ar  
  7   4  27  1   
  8   5   8  ar  
  9   5  28  1   
 10   6   9  1   
 11   6  29  1   
 12   6  30  1   
 13   7   8  ar  
 14   7  31  1   
 15   8  32  1   
 16   9  10  1   
 17   9  11  1   
 18   9  33  1   
 19  10  12  1   
 20  10  34  1   
 21  10  35  1   
 22  11  13  1   
 23  11  36  1   
 24  11  37  1   
 25  12  14  1   
 26  12  38  1   
 27  12  39  1   
 28  13  14  1   
 29  13  40  1   
 30  13  41  1   
 31  14  15  am  
 32  15  16  2   
 33  15  17  am  
 34  17  18  1   
 35  17  42  1   
 36  18  19  ar  
 37  18  20  ar  
 38  19  21  ar  
 39  19  43  1   
 40  20  22  ar  
 41  20  44  1   
 42  21  23  1   
 43  21  24  ar  
 44  22  24  ar  
 45  22  45  1   
 46  23  25  1   
 47  24  26  1   
 48  25  26  1   
 49  25  46  1   
 50  25  47  1   
@<TRIPOS>SUBSTRUCTURE
  1 ****  16 GROUP 4 **** **** 0

# MOE 2024.06 (io_trps.svl 2023.06)
