@<TRIPOS>MOLECULE
NONAME
26 26 1 0 0 
SMALL
USER_CHARGES


@<TRIPOS>ATOM
  1 O        0.7710    -0.3130     0.0220 O.2   1 <1>  -0.5700 
  2 C        0.8640    -1.5090    -0.1370 C.2   1 <1>   0.5690 
  3 N        2.0140    -2.1800     0.1670 N.am  1 <1>  -0.6600 
  4 C       -0.3390    -2.2460    -0.7000 C.3   1 <1>  -0.0990 
  5 C        2.2790    -3.5820    -0.2390 C.3   1 <1>   0.1400 
  6 C        3.1550    -1.4680     0.8390 C.3   1 <1>   0.2010 
  7 C       -0.8450    -3.3760     0.2140 C.3   1 <1>  -0.1600 
  8 C        1.4300    -4.5500     0.5900 C.3   1 <1>  -0.1600 
  9 C        4.0230    -0.6730    -0.1370 C.2   1 <1>   0.5690 
 10 C       -0.0240    -4.6700     0.1070 C.3   1 <1>  -0.1600 
 11 O        5.1870    -0.9550    -0.2810 O.2   1 <1>  -0.5700 
 12 N        3.4730     0.3420    -0.8310 N.am  1 <1>  -0.8000 
 13 H       -0.1020    -2.6240    -1.6770 H     1 <1>   0.0800 
 14 H       -1.1310    -1.5290    -0.8190 H     1 <1>   0.0800 
 15 H        3.3220    -3.8070    -0.0920 H     1 <1>   0.0800 
 16 H        2.0690    -3.7040    -1.2890 H     1 <1>   0.0800 
 17 H        3.7730    -2.1750     1.3610 H     1 <1>   0.0800 
 18 H        2.7610    -0.7830     1.5680 H     1 <1>   0.0800 
 19 H       -1.8600    -3.6040    -0.0650 H     1 <1>   0.0800 
 20 H       -0.8630    -3.0350     1.2350 H     1 <1>   0.0800 
 21 H        1.4600    -4.2630     1.6270 H     1 <1>   0.0800 
 22 H        1.8790    -5.5250     0.5160 H     1 <1>   0.0800 
 23 H       -0.0350    -5.0150    -0.9130 H     1 <1>   0.0800 
 24 H       -0.5120    -5.4250     0.7000 H     1 <1>   0.0800 
 25 H        4.0140     0.8760    -1.5090 H     1 <1>   0.3700 
 26 H        2.4640     0.5340    -0.7590 H     1 <1>   0.3700 
@<TRIPOS>BOND
  1   1   2  2   
  2   2   3  am  
  3   2   4  1   
  4   3   5  1   
  5   3   6  1   
  6   4   7  1   
  7   4  13  1   
  8   4  14  1   
  9   5   8  1   
 10   5  15  1   
 11   5  16  1   
 12   6   9  1   
 13   6  17  1   
 14   6  18  1   
 15   7  10  1   
 16   7  19  1   
 17   7  20  1   
 18   8  10  1   
 19   8  21  1   
 20   8  22  1   
 21   9  11  2   
 22   9  12  am  
 23  10  23  1   
 24  10  24  1   
 25  12  25  1   
 26  12  26  1   
@<TRIPOS>SUBSTRUCTURE
  1 ****   3 GROUP 4 **** **** 0

# MOE 2024.06 (io_trps.svl 2023.06)
