@<TRIPOS>MOLECULE
NONAME
51 54 1 0 0 
SMALL
USER_CHARGES


@<TRIPOS>ATOM
  1 O        0.9860     0.9820     1.4010 O.2   1 <1>  -0.5700 
  2 C        0.7240     1.9510     0.7140 C.2   1 <1>   0.5440 
  3 N       -0.5210     2.5250     0.8330 N.am  1 <1>  -0.6600 
  4 C        1.6690     2.3930    -0.2860 C.ar  1 <1>   0.0860 
  5 C       -0.7440     3.9720     0.4580 C.3   1 <1>   0.2810 
  6 C       -1.6820     1.5820     0.7900 C.3   1 <1>   0.1400 
  7 C        2.0980     3.7240    -0.3890 C.ar  1 <1>   0.1170 
  8 C        2.1670     1.4630    -1.1990 C.ar  1 <1>  -0.1500 
  9 C        0.3980     4.9040     0.9520 C.2   1 <1>   0.5690 
 10 C       -2.1150     4.4800     0.9650 C.3   1 <1>  -0.1600 
 11 C       -2.9680     2.1890     1.3480 C.3   1 <1>  -0.1600 
 12 N        1.6990     4.7000     0.5370 N.am  1 <1>  -0.4770 
 13 C        2.9630     4.0820    -1.4230 C.ar  1 <1>  -0.1500 
 14 C        3.0340     1.8280    -2.2080 C.ar  1 <1>  -0.1500 
 15 O        0.1420     5.8380     1.6840 O.2   1 <1>  -0.5700 
 16 C       -3.2730     3.5260     0.6790 C.3   1 <1>  -0.1600 
 17 C        2.7950     5.4880     1.2000 C.3   1 <1>   0.2010 
 18 C        3.4290     3.1480    -2.3250 C.ar  1 <1>  -0.1500 
 19 C        2.9560     6.8950     0.6300 C.2   1 <1>   0.5690 
 20 O        3.9690     7.1590     0.0290 O.2   1 <1>  -0.5700 
 21 N        1.9410     7.7900     0.8220 N.am  1 <1>  -0.5470 
 22 C        1.7730     9.1300     0.4250 C.ar  1 <1>   0.1170 
 23 C        2.7420     9.8990    -0.2250 C.ar  1 <1>   0.1600 
 24 C        0.5570     9.7350     0.6990 C.ar  1 <1>  -0.1500 
 25 N        2.6000    11.1610    -0.6070 N.ar  1 <1>  -0.6200 
 26 C        0.3900    11.0450     0.3110 C.ar  1 <1>  -0.1500 
 27 C        1.4220    11.7100    -0.3310 C.ar  1 <1>   0.3930 
 28 O        1.1950    12.9950    -0.6890 O.3   1 <1>  -0.3620 
 29 C        2.1990    13.7410    -1.3500 C.3   1 <1>   0.0400 
 30 H       -0.7600     4.0260    -0.6160 H     1 <1>   0.0800 
 31 H       -1.4480     0.6930     1.3510 H     1 <1>   0.0800 
 32 H       -1.8450     1.2900    -0.2330 H     1 <1>   0.0800 
 33 H        1.8610     0.4340    -1.1080 H     1 <1>   0.1500 
 34 H       -2.3230     5.4360     0.5170 H     1 <1>   0.0800 
 35 H       -2.0590     4.6340     2.0300 H     1 <1>   0.0800 
 36 H       -2.8630     2.3180     2.4120 H     1 <1>   0.0800 
 37 H       -3.7810     1.5040     1.1810 H     1 <1>   0.0800 
 38 H        3.2820     5.1040    -1.5300 H     1 <1>   0.1500 
 39 H        3.4020     1.0910    -2.9030 H     1 <1>   0.1500 
 40 H       -3.3950     3.3930    -0.3830 H     1 <1>   0.0800 
 41 H       -4.1870     3.9320     1.0770 H     1 <1>   0.0800 
 42 H        3.7290     4.9650     1.0910 H     1 <1>   0.0800 
 43 H        2.5940     5.5630     2.2540 H     1 <1>   0.0800 
 44 H        4.1000     3.4430    -3.1140 H     1 <1>   0.1500 
 45 H        1.1240     7.3770     1.2950 H     1 <1>   0.3700 
 46 H        3.6930     9.4500    -0.4430 H     1 <1>   0.1500 
 47 H       -0.2310     9.2000     1.1980 H     1 <1>   0.1500 
 48 H       -0.5310    11.5670     0.4950 H     1 <1>   0.1500 
 49 H        1.8160    14.7270    -1.5430 H     1 <1>   0.0800 
 50 H        2.4440    13.2500    -2.2760 H     1 <1>   0.0800 
 51 H        3.0650    13.7970    -0.7150 H     1 <1>   0.0800 
@<TRIPOS>BOND
  1   1   2  2   
  2   2   3  am  
  3   2   4  1   
  4   3   5  1   
  5   3   6  1   
  6   4   7  ar  
  7   4   8  ar  
  8   5   9  1   
  9   5  10  1   
 10   5  30  1   
 11   6  11  1   
 12   6  31  1   
 13   6  32  1   
 14   7  12  1   
 15   7  13  ar  
 16   8  14  ar  
 17   8  33  1   
 18   9  12  am  
 19   9  15  2   
 20  10  16  1   
 21  10  34  1   
 22  10  35  1   
 23  11  16  1   
 24  11  36  1   
 25  11  37  1   
 26  12  17  1   
 27  13  18  ar  
 28  13  38  1   
 29  14  18  ar  
 30  14  39  1   
 31  16  40  1   
 32  16  41  1   
 33  17  19  1   
 34  17  42  1   
 35  17  43  1   
 36  18  44  1   
 37  19  20  2   
 38  19  21  am  
 39  21  22  1   
 40  21  45  1   
 41  22  23  ar  
 42  22  24  ar  
 43  23  25  ar  
 44  23  46  1   
 45  24  26  ar  
 46  24  47  1   
 47  25  27  ar  
 48  26  27  ar  
 49  26  48  1   
 50  27  28  1   
 51  28  29  1   
 52  29  49  1   
 53  29  50  1   
 54  29  51  1   
@<TRIPOS>SUBSTRUCTURE
  1 ****  12 GROUP 4 **** **** 0

# MOE 2024.06 (io_trps.svl 2023.06)
