@<TRIPOS>MOLECULE
NONAME
52 54 1 0 0 
SMALL
USER_CHARGES


@<TRIPOS>ATOM
  1 CL       1.0870    -2.4460    -2.4190 Cl    1 <1>  -0.1770 
  2 C       -0.2940    -2.5690    -1.3540 C.ar  1 <1>   0.1770 
  3 C       -0.2140    -3.1990    -0.1140 C.ar  1 <1>  -0.1440 
  4 C       -1.4710    -2.0030    -1.8070 C.ar  1 <1>  -0.1500 
  5 C       -1.3690    -3.2500     0.6610 C.ar  1 <1>  -0.1500 
  6 C        1.0690    -3.8460     0.4330 C.3   1 <1>   0.3400 
  7 C       -2.6080    -2.0540    -1.0230 C.ar  1 <1>   0.0830 
  8 C       -2.5620    -2.7090     0.2110 C.ar  1 <1>   0.0830 
  9 C        2.1880    -2.8110     0.5900 C.2   1 <1>  -0.1240 
 10 C        1.4540    -5.0660    -0.4220 C.2   1 <1>  -0.1240 
 11 O       -3.7250    -1.4520    -1.5010 O.3   1 <1>  -0.3620 
 12 O       -3.6500    -2.8580     1.0040 O.3   1 <1>  -0.3630 
 13 C        3.3550    -2.9750    -0.0800 C.2   1 <1>  -0.0380 
 14 C        1.9320    -1.7100     1.4560 C.2   1 <1>   0.4950 
 15 C        2.6760    -5.0950    -1.0260 C.2   1 <1>  -0.0380 
 16 C        0.4270    -6.0650    -0.4980 C.2   1 <1>   0.7060 
 17 C       -4.2100    -0.3530    -0.7600 C.3   1 <1>   0.0400 
 18 C       -4.6720    -3.6890     0.5040 C.3   1 <1>   0.1200 
 19 N        3.5800    -4.0650    -0.8820 N.pl3 1 <1>  -0.6000 
 20 C        4.4890    -1.9630     0.0110 C.3   1 <1>  -0.0220 
 21 O        0.9750    -1.6190     2.1880 O.2   1 <1>  -0.5700 
 22 C        2.9450    -0.5780     1.4800 C.3   1 <1>  -0.0990 
 23 C        3.2050    -6.2220    -1.9000 C.3   1 <1>  -0.1020 
 24 O        0.2620    -6.8070    -1.4480 O.2   1 <1>  -0.5700 
 25 O       -0.4060    -6.1940     0.5440 O.3   1 <1>  -0.4300 
 26 C       -5.7310    -3.8420     1.5910 C.3   1 <1>  -0.2400 
 27 C        4.3780    -1.0970     1.2750 C.3   1 <1>  -0.1600 
 28 C       -1.4800    -7.1140     0.5320 C.3   1 <1>   0.0400 
 29 H       -1.5020    -1.5190    -2.7650 H     1 <1>   0.1500 
 30 H       -1.3590    -3.7190     1.6280 H     1 <1>   0.1500 
 31 H        0.8760    -4.2090     1.4270 H     1 <1>   0.0800 
 32 H       -5.0060     0.1050    -1.3190 H     1 <1>   0.0800 
 33 H       -3.4090     0.3500    -0.6150 H     1 <1>   0.0800 
 34 H       -4.5810    -0.6960     0.1890 H     1 <1>   0.0800 
 35 H       -4.2400    -4.6420     0.2500 H     1 <1>   0.0800 
 36 H       -5.0910    -3.2350    -0.3770 H     1 <1>   0.0800 
 37 H        4.4590    -4.1190    -1.4090 H     1 <1>   0.4000 
 38 H        4.4580    -1.3380    -0.8650 H     1 <1>   0.0800 
 39 H        5.4350    -2.4750     0.0230 H     1 <1>   0.0800 
 40 H        2.8790    -0.0640     2.4230 H     1 <1>   0.0800 
 41 H        2.6900     0.1180     0.7020 H     1 <1>   0.0800 
 42 H        2.6520    -7.1320    -1.7700 H     1 <1>   0.0800 
 43 H        3.1480    -5.9320    -2.9340 H     1 <1>   0.0800 
 44 H        4.2290    -6.4330    -1.6530 H     1 <1>   0.0800 
 45 H       -5.2970    -4.2870     2.4680 H     1 <1>   0.0800 
 46 H       -6.5240    -4.4760     1.2390 H     1 <1>   0.0800 
 47 H       -6.1430    -2.8810     1.8410 H     1 <1>   0.0800 
 48 H        5.0650    -0.2710     1.2150 H     1 <1>   0.0800 
 49 H        4.6510    -1.6950     2.1270 H     1 <1>   0.0800 
 50 H       -1.0860    -8.1080     0.4170 H     1 <1>   0.0800 
 51 H       -2.0110    -7.0290     1.4630 H     1 <1>   0.0800 
 52 H       -2.1320    -6.8740    -0.2900 H     1 <1>   0.0800 
@<TRIPOS>BOND
  1   1   2  1   
  2   2   3  ar  
  3   2   4  ar  
  4   3   5  ar  
  5   3   6  1   
  6   4   7  ar  
  7   4  29  1   
  8   5   8  ar  
  9   5  30  1   
 10   6   9  1   
 11   6  10  1   
 12   6  31  1   
 13   7   8  ar  
 14   7  11  1   
 15   8  12  1   
 16   9  13  2   
 17   9  14  1   
 18  10  15  2   
 19  10  16  1   
 20  11  17  1   
 21  12  18  1   
 22  13  19  1   
 23  13  20  1   
 24  14  21  2   
 25  14  22  1   
 26  15  19  1   
 27  15  23  1   
 28  16  24  2   
 29  16  25  1   
 30  17  32  1   
 31  17  33  1   
 32  17  34  1   
 33  18  26  1   
 34  18  35  1   
 35  18  36  1   
 36  19  37  1   
 37  20  27  1   
 38  20  38  1   
 39  20  39  1   
 40  22  27  1   
 41  22  40  1   
 42  22  41  1   
 43  23  42  1   
 44  23  43  1   
 45  23  44  1   
 46  25  28  1   
 47  26  45  1   
 48  26  46  1   
 49  26  47  1   
 50  27  48  1   
 51  27  49  1   
 52  28  50  1   
 53  28  51  1   
 54  28  52  1   
@<TRIPOS>SUBSTRUCTURE
  1 ****   3 GROUP 4 **** **** 0

# MOE 2024.06 (io_trps.svl 2023.06)
