@<TRIPOS>MOLECULE
NONAME
31 31 1 0 0 
SMALL
USER_CHARGES


@<TRIPOS>ATOM
  1 I       -0.1230    -0.4500    -0.1440 I     1 <1>  -0.0810 
  2 C        1.5800     0.8250    -0.0310 C.ar  1 <1>   0.0810 
  3 C        2.8100     0.2670     0.2570 C.ar  1 <1>  -0.1500 
  4 C        1.4110     2.1770    -0.2480 C.ar  1 <1>  -0.1500 
  5 C        3.9220     1.0920     0.3310 C.ar  1 <1>  -0.1440 
  6 C        2.5250     2.9940    -0.1700 C.ar  1 <1>  -0.1500 
  7 C        3.7860     2.4700     0.1150 C.ar  1 <1>   0.1170 
  8 C        5.2770     0.4670     0.6420 C.3   1 <1>  -0.0960 
  9 N        4.9200     3.2950     0.2090 N.am  1 <1>  -0.5470 
 10 C        5.2020     4.5140    -0.3400 C.2   1 <1>   0.5690 
 11 O        4.4520     5.1240    -1.0600 O.2   1 <1>  -0.5700 
 12 C        6.5570     5.1190    -0.0250 C.3   1 <1>  -0.0990 
 13 C        7.6990     4.3960    -0.7620 C.3   1 <1>  -0.1600 
 14 C        9.0720     5.0440    -0.5300 C.3   1 <1>  -0.1600 
 15 C        9.5550     4.9230     0.9200 C.3   1 <1>  -0.2400 
 16 H        2.8900    -0.7930     0.4180 H     1 <1>   0.1500 
 17 H        0.4420     2.5850    -0.4700 H     1 <1>   0.1500 
 18 H        2.4050     4.0490    -0.3310 H     1 <1>   0.1500 
 19 H        5.2020    -0.6040     0.6990 H     1 <1>   0.0800 
 20 H        5.6430     0.8290     1.5860 H     1 <1>   0.0800 
 21 H        5.9830     0.7110    -0.1320 H     1 <1>   0.0800 
 22 H        5.6890     2.8780     0.7260 H     1 <1>   0.3700 
 23 H        6.7060     5.0810     1.0380 H     1 <1>   0.0800 
 24 H        6.5420     6.1540    -0.3170 H     1 <1>   0.0800 
 25 H        7.4870     4.4180    -1.8190 H     1 <1>   0.0800 
 26 H        7.7360     3.3630    -0.4630 H     1 <1>   0.0800 
 27 H        9.0360     6.0830    -0.8120 H     1 <1>   0.0800 
 28 H        9.7900     4.5620    -1.1710 H     1 <1>   0.0800 
 29 H        8.9250     5.4840     1.5870 H     1 <1>   0.0800 
 30 H       10.5550     5.3110     1.0020 H     1 <1>   0.0800 
 31 H        9.5660     3.8930     1.2310 H     1 <1>   0.0800 
@<TRIPOS>BOND
  1   1   2  1   
  2   2   3  ar  
  3   2   4  ar  
  4   3   5  ar  
  5   3  16  1   
  6   4   6  ar  
  7   4  17  1   
  8   5   7  ar  
  9   5   8  1   
 10   6   7  ar  
 11   6  18  1   
 12   7   9  1   
 13   8  19  1   
 14   8  20  1   
 15   8  21  1   
 16   9  10  am  
 17   9  22  1   
 18  10  11  2   
 19  10  12  1   
 20  12  13  1   
 21  12  23  1   
 22  12  24  1   
 23  13  14  1   
 24  13  25  1   
 25  13  26  1   
 26  14  15  1   
 27  14  27  1   
 28  14  28  1   
 29  15  29  1   
 30  15  30  1   
 31  15  31  1   
@<TRIPOS>SUBSTRUCTURE
  1 ****   9 GROUP 4 **** **** 0

# MOE 2024.06 (io_trps.svl 2023.06)
