@<TRIPOS>MOLECULE
NONAME
35 35 1 0 0 
SMALL
USER_CHARGES


@<TRIPOS>ATOM
  1 BR       0.3290     0.7250     0.3480 Br    1 <1>  -0.1110 
  2 C        1.0930    -1.0280     0.1310 C.ar  1 <1>   0.1110 
  3 C        0.3660    -2.1240     0.5550 C.ar  1 <1>  -0.1500 
  4 C        2.3450    -1.1440    -0.4400 C.ar  1 <1>  -0.1500 
  5 C        0.9130    -3.3900     0.4000 C.ar  1 <1>  -0.1440 
  6 C        2.8890    -2.4070    -0.5960 C.ar  1 <1>  -0.1500 
  7 C        2.1760    -3.5300    -0.1790 C.ar  1 <1>   0.0830 
  8 C        0.1480    -4.6090     0.8770 C.3   1 <1>   0.4870 
  9 O        2.6550    -4.7930    -0.3250 O.3   1 <1>  -0.3630 
 10 N       -0.0500    -5.4960    -0.2850 N.4   1 <1>  -0.9060 
 11 C        4.0400    -5.0410    -0.4390 C.3   1 <1>   0.2580 
 12 C       -0.5940    -6.8180     0.0270 C.3   1 <1>   0.4230 
 13 C        4.2270    -6.5440    -0.4120 C.2   1 <1>  -0.2880 
 14 C       -0.3910    -7.6930    -1.2020 C.3   1 <1>  -0.2400 
 15 C       -2.0750    -6.6860     0.3650 C.3   1 <1>  -0.2400 
 16 C        4.8500    -7.2280     0.5530 C.2   1 <1>  -0.3000 
 17 H       -0.6020    -1.9670     0.9980 H     1 <1>   0.1500 
 18 H        2.8780    -0.2630    -0.7550 H     1 <1>   0.1500 
 19 H        3.8610    -2.4900    -1.0480 H     1 <1>   0.1500 
 20 H       -0.8010    -4.3160     1.2950 H     1 <1>   0.0800 
 21 H        0.7250    -5.1140     1.6340 H     1 <1>   0.0800 
 22 H        0.8930    -5.6030    -0.6900 H     1 <1>   0.4500 
 23 H       -0.6160    -5.0220    -0.9930 H     1 <1>   0.4500 
 24 H        4.5430    -4.5720     0.3900 H     1 <1>   0.0800 
 25 H        4.3980    -4.6340    -1.3690 H     1 <1>   0.0800 
 26 H       -0.0620    -7.2500     0.8610 H     1 <1>   0.0800 
 27 H        3.8000    -7.0260    -1.2750 H     1 <1>   0.1500 
 28 H       -0.9070    -7.2940    -2.0580 H     1 <1>   0.0800 
 29 H       -0.7760    -8.6790    -1.0110 H     1 <1>   0.0800 
 30 H        0.6560    -7.7910    -1.4290 H     1 <1>   0.0800 
 31 H       -2.6230    -6.2420    -0.4470 H     1 <1>   0.0800 
 32 H       -2.2210    -6.1060     1.2580 H     1 <1>   0.0800 
 33 H       -2.4890    -7.6630     0.5460 H     1 <1>   0.0800 
 34 H        4.9750    -8.2980     0.5460 H     1 <1>   0.1500 
 35 H        5.2930    -6.7840     1.4290 H     1 <1>   0.1500 
@<TRIPOS>BOND
  1   1   2  1   
  2   2   3  ar  
  3   2   4  ar  
  4   3   5  ar  
  5   3  17  1   
  6   4   6  ar  
  7   4  18  1   
  8   5   7  ar  
  9   5   8  1   
 10   6   7  ar  
 11   6  19  1   
 12   7   9  1   
 13   8  10  1   
 14   8  20  1   
 15   8  21  1   
 16   9  11  1   
 17  10  12  1   
 18  10  22  1   
 19  10  23  1   
 20  11  13  1   
 21  11  24  1   
 22  11  25  1   
 23  12  14  1   
 24  12  15  1   
 25  12  26  1   
 26  13  16  2   
 27  13  27  1   
 28  14  28  1   
 29  14  29  1   
 30  14  30  1   
 31  15  31  1   
 32  15  32  1   
 33  15  33  1   
 34  16  34  1   
 35  16  35  1   
@<TRIPOS>SUBSTRUCTURE
  1 ****   7 GROUP 4 **** **** 0

# MOE 2024.06 (io_trps.svl 2023.06)
