@<TRIPOS>MOLECULE
NONAME
46 48 1 0 0 
SMALL
USER_CHARGES


@<TRIPOS>ATOM
  1 CL      -2.4790    -2.2550    -2.5580 Cl    1 <1>  -0.1770 
  2 C       -1.4650    -2.6860    -1.1980 C.ar  1 <1>   0.1770 
  3 C       -1.9020    -2.4570     0.1000 C.ar  1 <1>   0.0830 
  4 C       -0.2380    -3.2670    -1.4510 C.ar  1 <1>  -0.1500 
  5 O       -3.1170    -1.8900     0.2900 O.3   1 <1>  -0.3630 
  6 C       -1.0750    -2.8220     1.1550 C.ar  1 <1>  -0.1500 
  7 C        0.5950    -3.6390    -0.4020 C.ar  1 <1>  -0.0090 
  8 C       -3.8910    -2.2290     1.4310 C.3   1 <1>   0.1810 
  9 C        0.1540    -3.4070     0.8970 C.ar  1 <1>  -0.1500 
 10 S        2.2060    -4.4100    -0.7070 S.o2  1 <1>   1.4470 
 11 C       -5.3280    -1.7310     1.3050 C.2   1 <1>   0.5690 
 12 O        2.2210    -5.7170    -0.0880 O.2   1 <1>  -0.6500 
 13 O        2.5640    -4.2750    -2.1030 O.2   1 <1>  -0.6500 
 14 N        3.2610    -3.4310     0.1840 N.am  1 <1>  -0.8490 
 15 O       -5.7560    -1.0750     2.2270 O.2   1 <1>  -0.5700 
 16 N       -6.1140    -2.0340     0.2170 N.am  1 <1>  -0.6600 
 17 C        3.5310    -2.1290    -0.4030 C.3   1 <1>   0.1960 
 18 C        4.5630    -4.0410     0.3840 C.3   1 <1>   0.1960 
 19 C       -5.6900    -2.8480    -0.9640 C.3   1 <1>   0.1400 
 20 C       -7.4830    -1.4560     0.0650 C.3   1 <1>   0.1400 
 21 C        4.7540    -1.6260     0.3530 C.3   1 <1>  -0.1600 
 22 C        5.4610    -2.8940     0.8340 C.3   1 <1>  -0.1600 
 23 C       -6.7990    -3.8280    -1.3880 C.3   1 <1>   0.1200 
 24 C       -8.4820    -2.5260    -0.4010 C.3   1 <1>   0.1200 
 25 O       -8.0190    -3.1640    -1.5580 O.3   1 <1>  -0.5600 
 26 H        0.0680    -3.4320    -2.4710 H     1 <1>   0.1500 
 27 H       -1.3660    -2.6510     2.1760 H     1 <1>   0.1500 
 28 H       -3.4370    -1.7730     2.2920 H     1 <1>   0.0800 
 29 H       -3.8920    -3.2970     1.5420 H     1 <1>   0.0800 
 30 H        0.7920    -3.6890     1.7190 H     1 <1>   0.1500 
 31 H        2.6880    -1.4660    -0.2910 H     1 <1>   0.0800 
 32 H        3.7750    -2.2300    -1.4490 H     1 <1>   0.0800 
 33 H        4.9250    -4.4460    -0.5490 H     1 <1>   0.0800 
 34 H        4.5120    -4.8280     1.1190 H     1 <1>   0.0800 
 35 H       -4.8030    -3.4120    -0.7450 H     1 <1>   0.0800 
 36 H       -5.4680    -2.1880    -1.7850 H     1 <1>   0.0800 
 37 H       -7.4510    -0.6620    -0.6610 H     1 <1>   0.0800 
 38 H       -7.8250    -1.0380     0.9960 H     1 <1>   0.0800 
 39 H        4.4380    -1.0350     1.1940 H     1 <1>   0.0800 
 40 H        5.3800    -1.0270    -0.2840 H     1 <1>   0.0800 
 41 H        6.4440    -2.9950     0.4080 H     1 <1>   0.0800 
 42 H        5.5410    -2.8940     1.9070 H     1 <1>   0.0800 
 43 H       -6.9280    -4.5970    -0.6460 H     1 <1>   0.0800 
 44 H       -6.5450    -4.2900    -2.3250 H     1 <1>   0.0800 
 45 H       -9.4290    -2.0730    -0.6330 H     1 <1>   0.0800 
 46 H       -8.6300    -3.2650     0.3670 H     1 <1>   0.0800 
@<TRIPOS>BOND
  1   1   2  1   
  2   2   3  ar  
  3   2   4  ar  
  4   3   5  1   
  5   3   6  ar  
  6   4   7  ar  
  7   4  26  1   
  8   5   8  1   
  9   6   9  ar  
 10   6  27  1   
 11   7   9  ar  
 12   7  10  1   
 13   8  11  1   
 14   8  28  1   
 15   8  29  1   
 16   9  30  1   
 17  10  12  2   
 18  10  13  2   
 19  10  14  am  
 20  11  15  2   
 21  11  16  am  
 22  14  17  1   
 23  14  18  1   
 24  16  19  1   
 25  16  20  1   
 26  17  21  1   
 27  17  31  1   
 28  17  32  1   
 29  18  22  1   
 30  18  33  1   
 31  18  34  1   
 32  19  23  1   
 33  19  35  1   
 34  19  36  1   
 35  20  24  1   
 36  20  37  1   
 37  20  38  1   
 38  21  22  1   
 39  21  39  1   
 40  21  40  1   
 41  22  41  1   
 42  22  42  1   
 43  23  25  1   
 44  23  43  1   
 45  23  44  1   
 46  24  25  1   
 47  24  45  1   
 48  24  46  1   
@<TRIPOS>SUBSTRUCTURE
  1 ****   3 GROUP 4 **** **** 0

# MOE 2024.06 (io_trps.svl 2023.06)
