@<TRIPOS>MOLECULE
NONAME
29 29 1 0 0 
SMALL
USER_CHARGES


@<TRIPOS>ATOM
  1 S       -0.2850    -0.8640    -0.9550 S.o2  1 <1>   1.3330 
  2 O       -0.0660    -2.2850    -0.8450 O.2   1 <1>  -0.6500 
  3 O       -0.3600    -0.2700    -2.2700 O.2   1 <1>  -0.6500 
  4 N        1.0420    -0.1870    -0.1840 N.am  1 <1>  -0.9140 
  5 C       -1.7110    -0.4160     0.0480 C.3   1 <1>   0.0890 
  6 C        1.3860     1.1780    -0.6500 C.3   1 <1>   0.2570 
  7 C       -1.9030     1.0870     0.2080 C.ar  1 <1>  -0.1430 
  8 C        2.6510     1.7580    -0.0110 C.2   1 <1>   0.6590 
  9 C       -1.5270     1.7200     1.3840 C.ar  1 <1>  -0.1500 
 10 C       -2.4320     1.8370    -0.8310 C.ar  1 <1>  -0.1500 
 11 O        2.6520     2.8170     0.5640 O.2   1 <1>  -0.5700 
 12 O        3.7530     1.0240    -0.1400 O.3   1 <1>  -0.4300 
 13 C       -1.6780     3.0890     1.5170 C.ar  1 <1>  -0.1500 
 14 C       -2.5850     3.2050    -0.6970 C.ar  1 <1>  -0.1500 
 15 C        4.9880     1.4390     0.4090 C.3   1 <1>   0.0400 
 16 C       -2.2080     3.8320     0.4780 C.ar  1 <1>  -0.1500 
 17 H        1.8170    -0.8050    -0.4300 H     1 <1>   0.4200 
 18 H       -1.6040    -0.8590     1.0190 H     1 <1>   0.0800 
 19 H       -2.5940    -0.8310    -0.3960 H     1 <1>   0.0800 
 20 H        0.5730     1.8510    -0.4440 H     1 <1>   0.0800 
 21 H        1.5440     1.1700    -1.7140 H     1 <1>   0.0800 
 22 H       -1.1080     1.1570     2.2000 H     1 <1>   0.1500 
 23 H       -2.7220     1.3630    -1.7550 H     1 <1>   0.1500 
 24 H       -1.3810     3.5770     2.4300 H     1 <1>   0.1500 
 25 H       -2.9960     3.7830    -1.5060 H     1 <1>   0.1500 
 26 H        5.7300     0.6940     0.1840 H     1 <1>   0.0800 
 27 H        4.8770     1.5440     1.4740 H     1 <1>   0.0800 
 28 H        5.2640     2.3830    -0.0300 H     1 <1>   0.0800 
 29 H       -2.3250     4.8970     0.5820 H     1 <1>   0.1500 
@<TRIPOS>BOND
  1   1   2  2   
  2   1   3  2   
  3   1   4  am  
  4   1   5  1   
  5   4   6  1   
  6   4  17  1   
  7   5   7  1   
  8   5  18  1   
  9   5  19  1   
 10   6   8  1   
 11   6  20  1   
 12   6  21  1   
 13   7   9  ar  
 14   7  10  ar  
 15   8  11  2   
 16   8  12  1   
 17   9  13  ar  
 18   9  22  1   
 19  10  14  ar  
 20  10  23  1   
 21  12  15  1   
 22  13  16  ar  
 23  13  24  1   
 24  14  16  ar  
 25  14  25  1   
 26  15  26  1   
 27  15  27  1   
 28  15  28  1   
 29  16  29  1   
@<TRIPOS>SUBSTRUCTURE
  1 ****   6 GROUP 4 **** **** 0

# MOE 2024.06 (io_trps.svl 2023.06)
