@<TRIPOS>MOLECULE
NONAME
47 49 1 0 0 
SMALL
USER_CHARGES


@<TRIPOS>ATOM
  1 CL       0.3000    -3.4470     2.1360 Cl    1 <1>  -0.1770 
  2 C        0.5450    -3.1860     0.4230 C.ar  1 <1>   0.1770 
  3 C        1.1850    -2.0270    -0.0130 C.ar  1 <1>   0.1170 
  4 C        0.0850    -4.1410    -0.4630 C.ar  1 <1>  -0.1500 
  5 N        1.6340    -1.0560     0.8960 N.am  1 <1>  -0.5470 
  6 C        1.3720    -1.8610    -1.3800 C.ar  1 <1>  -0.1500 
  7 C        0.2690    -3.9510    -1.8230 C.ar  1 <1>  -0.1500 
  8 C        1.2700     0.2450     1.0410 C.2   1 <1>   0.5690 
  9 C        0.9140    -2.8120    -2.2780 C.ar  1 <1>  -0.1500 
 10 O        1.7970     0.9100     1.8950 O.2   1 <1>  -0.5700 
 11 C        0.2000     0.8670     0.1470 C.3   1 <1>  -0.0190 
 12 C       -0.1040     2.3390     0.4700 C.3   1 <1>   0.1400 
 13 C       -1.1680     0.1700     0.2230 C.3   1 <1>  -0.0990 
 14 N       -1.5280     2.5100     0.1160 N.am  1 <1>  -0.4770 
 15 C       -2.1390     1.2950     0.0010 C.2   1 <1>   0.5690 
 16 C       -2.1280     3.7850     0.0910 C.ar  1 <1>   0.1170 
 17 O       -3.3000     1.0850    -0.2480 O.2   1 <1>  -0.5700 
 18 C       -1.5000     4.8600    -0.5310 C.ar  1 <1>  -0.1500 
 19 C       -3.3620     4.0050     0.6950 C.ar  1 <1>  -0.1500 
 20 C       -2.0750     6.1190    -0.5400 C.ar  1 <1>  -0.1500 
 21 C       -3.9430     5.2590     0.6880 C.ar  1 <1>  -0.1500 
 22 C       -3.3070     6.3250     0.0750 C.ar  1 <1>   0.0830 
 23 O       -3.9450     7.5250     0.1160 O.3   1 <1>  -0.3630 
 24 C       -3.4010     8.6580    -0.5210 C.3   1 <1>   0.1200 
 25 C       -4.3610     9.8290    -0.3140 C.3   1 <1>  -0.1600 
 26 C       -3.8380    11.1060    -0.9810 C.3   1 <1>  -0.2400 
 27 H       -0.4090    -5.0220    -0.0940 H     1 <1>   0.1500 
 28 H        2.2210    -1.3890     1.6650 H     1 <1>   0.3700 
 29 H        1.8840    -0.9890    -1.7470 H     1 <1>   0.1500 
 30 H       -0.0860    -4.6870    -2.5240 H     1 <1>   0.1500 
 31 H        1.0620    -2.6690    -3.3350 H     1 <1>   0.1500 
 32 H        0.5480     0.8340    -0.8680 H     1 <1>   0.0800 
 33 H        0.5300     2.9970    -0.0970 H     1 <1>   0.0800 
 34 H        0.0110     2.5470     1.5210 H     1 <1>   0.0800 
 35 H       -1.3440    -0.2490     1.1970 H     1 <1>   0.0800 
 36 H       -1.2820    -0.5860    -0.5320 H     1 <1>   0.0800 
 37 H       -0.5560     4.7150    -1.0200 H     1 <1>   0.1500 
 38 H       -3.8710     3.1870     1.1720 H     1 <1>   0.1500 
 39 H       -1.5550     6.9190    -1.0300 H     1 <1>   0.1500 
 40 H       -4.8970     5.4180     1.1580 H     1 <1>   0.1500 
 41 H       -3.2900     8.4380    -1.5690 H     1 <1>   0.0800 
 42 H       -2.4430     8.8690    -0.0780 H     1 <1>   0.0800 
 43 H       -4.4820    10.0040     0.7410 H     1 <1>   0.0800 
 44 H       -5.3200     9.5770    -0.7330 H     1 <1>   0.0800 
 45 H       -2.8860    11.3860    -0.5650 H     1 <1>   0.0800 
 46 H       -4.5310    11.9140    -0.8210 H     1 <1>   0.0800 
 47 H       -3.7250    10.9590    -2.0410 H     1 <1>   0.0800 
@<TRIPOS>BOND
  1   1   2  1   
  2   2   3  ar  
  3   2   4  ar  
  4   3   5  1   
  5   3   6  ar  
  6   4   7  ar  
  7   4  27  1   
  8   5   8  am  
  9   5  28  1   
 10   6   9  ar  
 11   6  29  1   
 12   7   9  ar  
 13   7  30  1   
 14   8  10  2   
 15   8  11  1   
 16   9  31  1   
 17  11  12  1   
 18  11  13  1   
 19  11  32  1   
 20  12  14  1   
 21  12  33  1   
 22  12  34  1   
 23  13  15  1   
 24  13  35  1   
 25  13  36  1   
 26  14  15  am  
 27  14  16  1   
 28  15  17  2   
 29  16  18  ar  
 30  16  19  ar  
 31  18  20  ar  
 32  18  37  1   
 33  19  21  ar  
 34  19  38  1   
 35  20  22  ar  
 36  20  39  1   
 37  21  22  ar  
 38  21  40  1   
 39  22  23  1   
 40  23  24  1   
 41  24  25  1   
 42  24  41  1   
 43  24  42  1   
 44  25  26  1   
 45  25  43  1   
 46  25  44  1   
 47  26  45  1   
 48  26  46  1   
 49  26  47  1   
@<TRIPOS>SUBSTRUCTURE
  1 ****  14 GROUP 4 **** **** 0

# MOE 2024.06 (io_trps.svl 2023.06)
