@<TRIPOS>MOLECULE
NONAME
36 36 1 0 0 
SMALL
USER_CHARGES


@<TRIPOS>ATOM
  1 S        0.2930    -0.2860     0.9370 S.o2  1 <1>   1.4470 
  2 O        0.7430     0.8620     1.6890 O.2   1 <1>  -0.6500 
  3 O        0.4910    -1.6230     1.4430 O.2   1 <1>  -0.6500 
  4 N        1.1900    -0.2990    -0.5450 N.am  1 <1>  -0.6400 
  5 C       -1.4090    -0.0590     0.3590 C.ar  1 <1>  -0.0090 
  6 N        1.9610     0.9310    -0.9280 N.am  1 <1>  -0.3480 
  7 C       -2.1870    -1.1420    -0.0340 C.ar  1 <1>  -0.1500 
  8 C       -1.9710     1.2090     0.2660 C.ar  1 <1>  -0.1500 
  9 C        3.2410     1.3180    -0.6710 C.2   1 <1>   0.5690 
 10 C       -3.4790    -0.9670    -0.4990 C.ar  1 <1>  -0.1500 
 11 C       -3.2630     1.3910    -0.1980 C.ar  1 <1>  -0.1500 
 12 O        3.5740     2.4200    -1.0580 O.2   1 <1>  -0.5700 
 13 C        4.2980     0.4110     0.0300 C.3   1 <1>   0.0610 
 14 C       -4.0240     0.3020    -0.5850 C.ar  1 <1>  -0.1430 
 15 C        5.6650     1.1270     0.1230 C.3   1 <1>  -0.2400 
 16 C        3.8930     0.0450     1.4700 C.3   1 <1>  -0.2400 
 17 C        4.5270    -0.8860    -0.7710 C.3   1 <1>  -0.2400 
 18 C       -5.4410     0.4970    -1.0930 C.3   1 <1>  -0.0970 
 19 H        1.7620    -1.1450    -0.5180 H     1 <1>   0.4200 
 20 H        1.4300     1.6340    -1.4560 H     1 <1>   0.3700 
 21 H       -1.7800    -2.1370     0.0270 H     1 <1>   0.1500 
 22 H       -1.3930     2.0680     0.5640 H     1 <1>   0.1500 
 23 H       -4.0590    -1.8250    -0.7930 H     1 <1>   0.1500 
 24 H       -3.6720     2.3850    -0.2550 H     1 <1>   0.1500 
 25 H        5.5730     2.0320     0.6980 H     1 <1>   0.0800 
 26 H        6.0190     1.3910    -0.8590 H     1 <1>   0.0800 
 27 H        6.4040     0.5020     0.5910 H     1 <1>   0.0800 
 28 H        3.6110     0.9300     2.0130 H     1 <1>   0.0800 
 29 H        4.7080    -0.4270     1.9890 H     1 <1>   0.0800 
 30 H        3.0690    -0.6400     1.4830 H     1 <1>   0.0800 
 31 H        4.8230    -0.6510    -1.7790 H     1 <1>   0.0800 
 32 H        3.6380    -1.4860    -0.8120 H     1 <1>   0.0800 
 33 H        5.3040    -1.4770    -0.3200 H     1 <1>   0.0800 
 34 H       -5.6960    -0.2700    -1.8010 H     1 <1>   0.0800 
 35 H       -5.5400     1.4520    -1.5770 H     1 <1>   0.0800 
 36 H       -6.1310     0.4520    -0.2690 H     1 <1>   0.0800 
@<TRIPOS>BOND
  1   1   2  2   
  2   1   3  2   
  3   1   4  am  
  4   1   5  1   
  5   4   6  1   
  6   4  19  1   
  7   5   7  ar  
  8   5   8  ar  
  9   6   9  am  
 10   6  20  1   
 11   7  10  ar  
 12   7  21  1   
 13   8  11  ar  
 14   8  22  1   
 15   9  12  2   
 16   9  13  1   
 17  10  14  ar  
 18  10  23  1   
 19  11  14  ar  
 20  11  24  1   
 21  13  15  1   
 22  13  16  1   
 23  13  17  1   
 24  14  18  1   
 25  15  25  1   
 26  15  26  1   
 27  15  27  1   
 28  16  28  1   
 29  16  29  1   
 30  16  30  1   
 31  17  31  1   
 32  17  32  1   
 33  17  33  1   
 34  18  34  1   
 35  18  35  1   
 36  18  36  1   
@<TRIPOS>SUBSTRUCTURE
  1 ****   4 GROUP 4 **** **** 0

# MOE 2024.06 (io_trps.svl 2023.06)
