@<TRIPOS>MOLECULE
NONAME
42 43 1 0 0 
SMALL
USER_CHARGES


@<TRIPOS>ATOM
  1 O        0.4900    -1.0650     1.1330 O.2   1 <1>  -0.5700 
  2 C        0.0900    -1.6910     0.1660 C.2   1 <1>   0.7200 
  3 O        0.9380    -1.9630    -0.8370 O.3   1 <1>  -0.4300 
  4 C       -1.2880    -2.1460     0.0140 C.2   1 <1>   0.5560 
  5 C        2.2920    -1.5730    -0.9600 C.3   1 <1>   0.2000 
  6 O       -1.5250    -3.3450    -0.0940 O.2   1 <1>  -0.5700 
  7 C       -2.3950    -1.2560    -0.0530 C.2   1 <1>  -0.1360 
  8 C        3.1420    -2.2170     0.1370 C.3   1 <1>  -0.2400 
  9 C        2.4100    -0.0480    -1.0110 C.3   1 <1>  -0.2400 
 10 C       -2.4810     0.1080     0.0200 C.2   1 <1>   0.0720 
 11 N       -1.3730     0.8750     0.3220 N.pl3 1 <1>  -0.8690 
 12 C       -3.7330     0.8240    -0.1930 C.ar  1 <1>   0.0280 
 13 C       -1.4050     2.3200     0.5620 C.3   1 <1>   0.3690 
 14 C       -3.9160     2.0950     0.3610 C.ar  1 <1>  -0.1430 
 15 C       -4.7810     0.3070    -0.9580 C.ar  1 <1>  -0.1500 
 16 C       -2.7720     2.7030     1.1620 C.3   1 <1>  -0.0170 
 17 C       -1.1520     3.0100    -0.7780 C.3   1 <1>  -0.2400 
 18 C       -0.2730     2.6350     1.5370 C.3   1 <1>  -0.2400 
 19 C       -5.0980     2.7940     0.1870 C.ar  1 <1>  -0.1500 
 20 C       -5.9630     1.0030    -1.1350 C.ar  1 <1>  -0.1500 
 21 C       -6.1260     2.2480    -0.5580 C.ar  1 <1>  -0.1500 
 22 H        2.6200    -1.9650    -1.9080 H     1 <1>   0.0800 
 23 H       -3.3110    -1.7930    -0.1960 H     1 <1>   0.1500 
 24 H        2.9110    -1.8070     1.1040 H     1 <1>   0.0800 
 25 H        4.1820    -2.0320    -0.0590 H     1 <1>   0.0800 
 26 H        2.9840    -3.2800     0.1510 H     1 <1>   0.0800 
 27 H        2.1830     0.3940    -0.0580 H     1 <1>   0.0800 
 28 H        1.7470     0.3510    -1.7580 H     1 <1>   0.0800 
 29 H        3.4160     0.2260    -1.2700 H     1 <1>   0.0800 
 30 H       -0.5300     0.4400     0.7300 H     1 <1>   0.4000 
 31 H       -4.6790    -0.6490    -1.4350 H     1 <1>   0.1500 
 32 H       -2.8320     2.3350     2.1700 H     1 <1>   0.0800 
 33 H       -2.8620     3.7730     1.1950 H     1 <1>   0.0800 
 34 H       -1.9260     2.7580    -1.4800 H     1 <1>   0.0800 
 35 H       -0.2050     2.7040    -1.1830 H     1 <1>   0.0800 
 36 H       -1.1430     4.0770    -0.6520 H     1 <1>   0.0800 
 37 H       -0.2510     3.6880     1.7500 H     1 <1>   0.0800 
 38 H        0.6750     2.3550     1.1150 H     1 <1>   0.0800 
 39 H       -0.4150     2.1030     2.4610 H     1 <1>   0.0800 
 40 H       -5.2250     3.7670     0.6280 H     1 <1>   0.1500 
 41 H       -6.7560     0.5770    -1.7240 H     1 <1>   0.1500 
 42 H       -7.0450     2.7910    -0.6920 H     1 <1>   0.1500 
@<TRIPOS>BOND
  1   1   2  2   
  2   2   3  1   
  3   2   4  1   
  4   3   5  1   
  5   4   6  2   
  6   4   7  1   
  7   5   8  1   
  8   5   9  1   
  9   5  22  1   
 10   7  10  2   
 11   7  23  1   
 12   8  24  1   
 13   8  25  1   
 14   8  26  1   
 15   9  27  1   
 16   9  28  1   
 17   9  29  1   
 18  10  11  1   
 19  10  12  1   
 20  11  13  1   
 21  11  30  1   
 22  12  14  ar  
 23  12  15  ar  
 24  13  16  1   
 25  13  17  1   
 26  13  18  1   
 27  14  16  1   
 28  14  19  ar  
 29  15  20  ar  
 30  15  31  1   
 31  16  32  1   
 32  16  33  1   
 33  17  34  1   
 34  17  35  1   
 35  17  36  1   
 36  18  37  1   
 37  18  38  1   
 38  18  39  1   
 39  19  21  ar  
 40  19  40  1   
 41  20  21  ar  
 42  20  41  1   
 43  21  42  1   
@<TRIPOS>SUBSTRUCTURE
  1 ****  11 GROUP 4 **** **** 0

# MOE 2024.06 (io_trps.svl 2023.06)
