@<TRIPOS>MOLECULE
NONAME
54 55 1 0 0 
SMALL
USER_CHARGES


@<TRIPOS>ATOM
  1 O        0.5610     1.0230     2.7470 O.2   1 <1>  -0.5700 
  2 C        0.2370     1.6510     1.7660 C.2   1 <1>   0.5690 
  3 N        1.0710     1.7470     0.6930 N.am  1 <1>  -0.7300 
  4 C       -1.1360     2.3360     1.7210 C.3   1 <1>   0.2610 
  5 C        2.4020     1.1360     0.6220 C.3   1 <1>   0.2200 
  6 O       -1.4610     2.6660     0.3730 O.3   1 <1>  -0.3630 
  7 C       -1.1670     3.6300     2.5440 C.3   1 <1>  -0.2400 
  8 C        3.3310     2.0340    -0.1850 C.3   1 <1>  -0.1600 
  9 C        2.2840    -0.2250    -0.0540 C.3   1 <1>  -0.1600 
 10 C       -2.7640     2.7700     0.0210 C.ar  1 <1>   0.0820 
 11 C        4.7290     1.4170    -0.3380 C.3   1 <1>   0.5030 
 12 C        3.6470    -0.9120    -0.1980 C.3   1 <1>   0.5030 
 13 C       -3.2190     3.9520    -0.5550 C.ar  1 <1>  -0.1440 
 14 C       -3.6350     1.7050     0.2140 C.ar  1 <1>  -0.1500 
 15 N        4.6520     0.0080    -0.7610 N.4   1 <1>  -0.9060 
 16 C        5.5530     1.5340     0.9470 C.3   1 <1>  -0.2400 
 17 C        5.4840     2.1380    -1.4520 C.3   1 <1>  -0.2400 
 18 C        3.5350    -2.0600    -1.2000 C.3   1 <1>  -0.2400 
 19 C        4.1460    -1.4880     1.1300 C.3   1 <1>  -0.2400 
 20 C       -4.5540     4.0600    -0.9130 C.ar  1 <1>  -0.1500 
 21 C       -2.2740     5.1210    -0.7920 C.3   1 <1>  -0.0970 
 22 C       -4.9650     1.8240    -0.1470 C.ar  1 <1>  -0.1500 
 23 C       -5.4240     3.0030    -0.7080 C.ar  1 <1>  -0.1500 
 24 H        0.7010     2.2210    -0.1370 H     1 <1>   0.3700 
 25 H       -1.8650     1.6460     2.1020 H     1 <1>   0.0800 
 26 H        2.7780     1.0210     1.6250 H     1 <1>   0.0800 
 27 H       -0.4490     4.3330     2.1620 H     1 <1>   0.0800 
 28 H       -0.9220     3.4120     3.5680 H     1 <1>   0.0800 
 29 H       -2.1500     4.0650     2.5160 H     1 <1>   0.0800 
 30 H        3.4140     2.9890     0.3030 H     1 <1>   0.0800 
 31 H        2.9030     2.2010    -1.1580 H     1 <1>   0.0800 
 32 H        1.8340    -0.1010    -1.0230 H     1 <1>   0.0800 
 33 H        1.6310    -0.8520     0.5290 H     1 <1>   0.0800 
 34 H       -3.2820     0.7820     0.6330 H     1 <1>   0.1500 
 35 H        5.5730    -0.4130    -0.6230 H     1 <1>   0.4500 
 36 H        4.4920     0.0200    -1.7690 H     1 <1>   0.4500 
 37 H        5.0280     1.1720     1.8080 H     1 <1>   0.0800 
 38 H        5.7720     2.5700     1.1420 H     1 <1>   0.0800 
 39 H        6.4910     1.0160     0.8590 H     1 <1>   0.0800 
 40 H        4.9640     2.0670    -2.3910 H     1 <1>   0.0800 
 41 H        6.4780     1.7420    -1.5700 H     1 <1>   0.0800 
 42 H        5.5780     3.1840    -1.2140 H     1 <1>   0.0800 
 43 H        3.2110    -1.7100    -2.1640 H     1 <1>   0.0800 
 44 H        2.8090    -2.7760    -0.8550 H     1 <1>   0.0800 
 45 H        4.4730    -2.5760    -1.3080 H     1 <1>   0.0800 
 46 H        4.1160    -0.7720     1.9270 H     1 <1>   0.0800 
 47 H        5.1440    -1.8780     1.0390 H     1 <1>   0.0800 
 48 H        3.5060    -2.2990     1.4330 H     1 <1>   0.0800 
 49 H       -4.9250     4.9680    -1.3550 H     1 <1>   0.1500 
 50 H       -1.4380     4.7990    -1.3870 H     1 <1>   0.0800 
 51 H       -1.9090     5.4910     0.1480 H     1 <1>   0.0800 
 52 H       -2.7710     5.9220    -1.3070 H     1 <1>   0.0800 
 53 H       -5.6420     1.0010     0.0050 H     1 <1>   0.1500 
 54 H       -6.4590     3.0970    -0.9880 H     1 <1>   0.1500 
@<TRIPOS>BOND
  1   1   2  2   
  2   2   3  am  
  3   2   4  1   
  4   3   5  1   
  5   3  24  1   
  6   4   6  1   
  7   4   7  1   
  8   4  25  1   
  9   5   8  1   
 10   5   9  1   
 11   5  26  1   
 12   6  10  1   
 13   7  27  1   
 14   7  28  1   
 15   7  29  1   
 16   8  11  1   
 17   8  30  1   
 18   8  31  1   
 19   9  12  1   
 20   9  32  1   
 21   9  33  1   
 22  10  13  ar  
 23  10  14  ar  
 24  11  15  1   
 25  11  16  1   
 26  11  17  1   
 27  12  15  1   
 28  12  18  1   
 29  12  19  1   
 30  13  20  ar  
 31  13  21  1   
 32  14  22  ar  
 33  14  34  1   
 34  15  35  1   
 35  15  36  1   
 36  16  37  1   
 37  16  38  1   
 38  16  39  1   
 39  17  40  1   
 40  17  41  1   
 41  17  42  1   
 42  18  43  1   
 43  18  44  1   
 44  18  45  1   
 45  19  46  1   
 46  19  47  1   
 47  19  48  1   
 48  20  23  ar  
 49  20  49  1   
 50  21  50  1   
 51  21  51  1   
 52  21  52  1   
 53  22  23  ar  
 54  22  53  1   
 55  23  54  1   
@<TRIPOS>SUBSTRUCTURE
  1 ****   3 GROUP 4 **** **** 0

# MOE 2024.06 (io_trps.svl 2023.06)
