@<TRIPOS>MOLECULE
NONAME
44 45 1 0 0 
SMALL
USER_CHARGES


@<TRIPOS>ATOM
  1 O        1.0740    -0.4440     0.9760 O.3   1 <1>  -0.3630 
  2 C       -0.1540    -0.9790     0.7610 C.ar  1 <1>   0.0830 
  3 C        1.3730     0.8310     0.4450 C.3   1 <1>   0.1200 
  4 C       -0.3010    -2.2710     0.2290 C.ar  1 <1>  -0.1440 
  5 C       -1.2690    -0.2200     1.1020 C.ar  1 <1>  -0.1500 
  6 C        2.7970     1.2250     0.8560 C.3   1 <1>  -0.1600 
  7 C       -1.6050    -2.7280     0.0320 C.ar  1 <1>  -0.1500 
  8 C        0.9150    -3.1730    -0.1350 C.3   1 <1>   0.1440 
  9 C       -2.5440    -0.7030     0.8950 C.ar  1 <1>  -0.1500 
 10 C        3.8620     0.2530     0.3240 C.3   1 <1>  -0.1600 
 11 C       -2.7090    -1.9600     0.3540 C.ar  1 <1>  -0.1500 
 12 C        1.8080    -3.4110     1.0950 C.3   1 <1>  -0.2400 
 13 C        0.5110    -4.5740    -0.6360 C.3   1 <1>  -0.2400 
 14 C        1.7290    -2.5350    -1.2710 C.3   1 <1>  -0.2400 
 15 C        5.2710     0.6610     0.7690 C.3   1 <1>   0.0960 
 16 N        6.2660    -0.2960     0.2470 N.pl3 1 <1>   0.0480 
 17 C        6.5980    -1.5040     0.7540 C.2   1 <1>   0.0360 
 18 C        7.0360    -0.1620    -0.8480 C.2   1 <1>  -0.3020 
 19 N        7.5050    -2.1300     0.0750 N.2   1 <1>  -0.5650 
 20 C        7.7820    -1.2850    -0.9350 C.2   1 <1>   0.0770 
 21 H        0.6750     1.5500     0.8310 H     1 <1>   0.0800 
 22 H        1.2780     0.7770    -0.6260 H     1 <1>   0.0800 
 23 H       -1.1530     0.7500     1.5450 H     1 <1>   0.1500 
 24 H        2.8420     1.2710     1.9300 H     1 <1>   0.0800 
 25 H        2.9970     2.2120     0.4770 H     1 <1>   0.0800 
 26 H       -1.8110    -3.6980    -0.3780 H     1 <1>   0.1500 
 27 H       -3.4020    -0.1080     1.1570 H     1 <1>   0.1500 
 28 H        3.8210     0.2310    -0.7510 H     1 <1>   0.0800 
 29 H        3.6570    -0.7360     0.6950 H     1 <1>   0.0800 
 30 H       -3.7000    -2.3460     0.1870 H     1 <1>   0.1500 
 31 H        1.2240    -3.8310     1.8940 H     1 <1>   0.0800 
 32 H        2.2510    -2.5030     1.4510 H     1 <1>   0.0800 
 33 H        2.6080    -4.0900     0.8610 H     1 <1>   0.0800 
 34 H       -0.0730    -4.5030    -1.5370 H     1 <1>   0.0800 
 35 H       -0.0570    -5.0940     0.1140 H     1 <1>   0.0800 
 36 H        1.3820    -5.1640    -0.8580 H     1 <1>   0.0800 
 37 H        2.1260    -1.5850    -0.9800 H     1 <1>   0.0800 
 38 H        1.1030    -2.3840    -2.1320 H     1 <1>   0.0800 
 39 H        2.5540    -3.1650    -1.5510 H     1 <1>   0.0800 
 40 H        5.3340     0.6700     1.8430 H     1 <1>   0.0800 
 41 H        5.5100     1.6420     0.4020 H     1 <1>   0.0800 
 42 H        6.1360    -1.8940     1.6430 H     1 <1>   0.1500 
 43 H        7.0150     0.6990    -1.4900 H     1 <1>   0.1500 
 44 H        8.5160    -1.5340    -1.6840 H     1 <1>   0.1500 
@<TRIPOS>BOND
  1   1   2  1   
  2   1   3  1   
  3   2   4  ar  
  4   2   5  ar  
  5   3   6  1   
  6   3  21  1   
  7   3  22  1   
  8   4   7  ar  
  9   4   8  1   
 10   5   9  ar  
 11   5  23  1   
 12   6  10  1   
 13   6  24  1   
 14   6  25  1   
 15   7  11  ar  
 16   7  26  1   
 17   8  12  1   
 18   8  13  1   
 19   8  14  1   
 20   9  11  ar  
 21   9  27  1   
 22  10  15  1   
 23  10  28  1   
 24  10  29  1   
 25  11  30  1   
 26  12  31  1   
 27  12  32  1   
 28  12  33  1   
 29  13  34  1   
 30  13  35  1   
 31  13  36  1   
 32  14  37  1   
 33  14  38  1   
 34  14  39  1   
 35  15  16  1   
 36  15  40  1   
 37  15  41  1   
 38  16  17  1   
 39  16  18  1   
 40  17  19  2   
 41  17  42  1   
 42  18  20  2   
 43  18  43  1   
 44  19  20  1   
 45  20  44  1   
@<TRIPOS>SUBSTRUCTURE
  1 ****   1 GROUP 4 **** **** 0

# MOE 2024.06 (io_trps.svl 2023.06)
