@<TRIPOS>MOLECULE
NONAME
43 43 1 0 0 
SMALL
USER_CHARGES


@<TRIPOS>ATOM
  1 S       -0.2890    -0.4470     1.5000 S.o2  1 <1>   1.4470 
  2 O       -0.8620     0.6440     2.2570 O.2   1 <1>  -0.6500 
  3 O       -0.2530    -1.7390     2.1480 O.2   1 <1>  -0.6500 
  4 N       -1.3140    -0.7060     0.1900 N.am  1 <1>  -0.9140 
  5 C        1.3390    -0.0940     0.7800 C.ar  1 <1>  -0.0090 
  6 C       -1.5910     0.4220    -0.7070 C.3   1 <1>   0.1960 
  7 C        1.7050     1.1770     0.3520 C.ar  1 <1>   0.0830 
  8 C        2.2580    -1.1220     0.6150 C.ar  1 <1>  -0.1500 
  9 C       -2.4290     1.5390    -0.0710 C.3   1 <1>   0.1200 
 10 O        0.8000     2.1790     0.4900 O.3   1 <1>  -0.3630 
 11 C        2.9630     1.3900    -0.2040 C.ar  1 <1>  -0.1500 
 12 C        3.5150    -0.9290     0.0590 C.ar  1 <1>  -0.1430 
 13 O       -2.8860     2.3780    -1.0860 O.3   1 <1>  -0.5600 
 14 C        1.0290     3.4860     0.0120 C.3   1 <1>   0.0400 
 15 C        3.8690     0.3530    -0.3540 C.ar  1 <1>  -0.1430 
 16 C        4.4540    -2.1370    -0.0730 C.3   1 <1>   0.0630 
 17 C       -3.6410     3.4520    -0.6240 C.3   1 <1>   0.0400 
 18 C        5.2250     0.6690    -0.9730 C.3   1 <1>  -0.0970 
 19 C        3.8480    -3.2040    -0.9930 C.3   1 <1>  -0.2400 
 20 C        4.7820    -2.7300     1.3020 C.3   1 <1>  -0.2400 
 21 H       -2.1820    -1.0200     0.6150 H     1 <1>   0.4200 
 22 H       -2.1410     0.0390    -1.5500 H     1 <1>   0.0800 
 23 H       -0.6680     0.8290    -1.0820 H     1 <1>   0.0800 
 24 H        1.9710    -2.1090     0.9360 H     1 <1>   0.1500 
 25 H       -1.8360     2.1270     0.6070 H     1 <1>   0.0800 
 26 H       -3.2830     1.1280     0.4390 H     1 <1>   0.0800 
 27 H        3.2520     2.3710    -0.5280 H     1 <1>   0.1500 
 28 H        0.1490     4.0710     0.2090 H     1 <1>   0.0800 
 29 H        1.2110     3.4450    -1.0480 H     1 <1>   0.0800 
 30 H        1.8710     3.9070     0.5340 H     1 <1>   0.0800 
 31 H        5.3860    -1.8390    -0.5140 H     1 <1>   0.0800 
 32 H       -3.9420     4.0390    -1.4740 H     1 <1>   0.0800 
 33 H       -3.0400     4.0510     0.0370 H     1 <1>   0.0800 
 34 H       -4.5120     3.0800    -0.1130 H     1 <1>   0.0800 
 35 H        5.3080     1.7110    -1.2230 H     1 <1>   0.0800 
 36 H        5.3600     0.0990    -1.8740 H     1 <1>   0.0800 
 37 H        6.0100     0.4290    -0.2800 H     1 <1>   0.0800 
 38 H        2.9470    -3.6120    -0.5720 H     1 <1>   0.0800 
 39 H        4.5480    -4.0050    -1.1450 H     1 <1>   0.0800 
 40 H        3.6120    -2.7690    -1.9480 H     1 <1>   0.0800 
 41 H        3.9020    -3.1290     1.7730 H     1 <1>   0.0800 
 42 H        5.1940    -1.9670     1.9380 H     1 <1>   0.0800 
 43 H        5.5040    -3.5200     1.2030 H     1 <1>   0.0800 
@<TRIPOS>BOND
  1   1   2  2   
  2   1   3  2   
  3   1   4  am  
  4   1   5  1   
  5   4   6  1   
  6   4  21  1   
  7   5   7  ar  
  8   5   8  ar  
  9   6   9  1   
 10   6  22  1   
 11   6  23  1   
 12   7  10  1   
 13   7  11  ar  
 14   8  12  ar  
 15   8  24  1   
 16   9  13  1   
 17   9  25  1   
 18   9  26  1   
 19  10  14  1   
 20  11  15  ar  
 21  11  27  1   
 22  12  15  ar  
 23  12  16  1   
 24  13  17  1   
 25  14  28  1   
 26  14  29  1   
 27  14  30  1   
 28  15  18  1   
 29  16  19  1   
 30  16  20  1   
 31  16  31  1   
 32  17  32  1   
 33  17  33  1   
 34  17  34  1   
 35  18  35  1   
 36  18  36  1   
 37  18  37  1   
 38  19  38  1   
 39  19  39  1   
 40  19  40  1   
 41  20  41  1   
 42  20  42  1   
 43  20  43  1   
@<TRIPOS>SUBSTRUCTURE
  1 ****   5 GROUP 4 **** **** 0

# MOE 2024.06 (io_trps.svl 2023.06)
