@<TRIPOS>MOLECULE
NONAME
39 41 1 0 0 
SMALL
USER_CHARGES


@<TRIPOS>ATOM
  1 CL       0.0630     0.0070     1.1240 Cl    1 <1>  -0.1770 
  2 C       -0.6430    -1.5210     0.6490 C.ar  1 <1>   0.1770 
  3 C        0.1430    -2.5190     0.0670 C.ar  1 <1>   0.0530 
  4 C       -1.9930    -1.6940     0.8890 C.ar  1 <1>  -0.1500 
  5 C        1.5520    -2.3590    -0.2070 C.2   1 <1>   0.0870 
  6 C       -0.4980    -3.7170    -0.2510 C.ar  1 <1>  -0.1500 
  7 C       -2.6020    -2.8910     0.5560 C.ar  1 <1>  -0.1500 
  8 O        2.3850    -3.3690     0.0110 O.3   1 <1>  -0.2800 
  9 C        2.2700    -1.3080    -0.6860 C.2   1 <1>  -0.1500 
 10 C       -1.8490    -3.9030    -0.0130 C.ar  1 <1>  -0.1500 
 11 C        3.6080    -2.9950    -0.2970 C.2   1 <1>  -0.0400 
 12 C        3.6030    -1.7170    -0.7420 C.2   1 <1>  -0.1500 
 13 C        4.7120    -4.0130    -0.0950 C.3   1 <1>   0.5230 
 14 N        6.0240    -3.3950    -0.4020 N.4   1 <1>  -0.9060 
 15 C        7.1660    -4.3350    -0.1830 C.3   1 <1>   0.3430 
 16 C        8.5300    -3.6780    -0.4500 C.3   1 <1>   0.2000 
 17 O        9.5100    -4.5840    -0.0940 O.3   1 <1>  -0.5600 
 18 C        8.8400    -2.4460     0.3930 C.3   1 <1>  -0.1600 
 19 C       10.7160    -3.9310     0.1600 C.3   1 <1>   0.1200 
 20 C       10.3560    -2.4840     0.4920 C.3   1 <1>  -0.1600 
 21 H       -2.5620    -0.8990     1.3370 H     1 <1>   0.1500 
 22 H        0.0710    -4.5140    -0.6960 H     1 <1>   0.1500 
 23 H       -3.6530    -3.0350     0.7410 H     1 <1>   0.1500 
 24 H        1.9010    -0.3380    -0.9720 H     1 <1>   0.1500 
 25 H       -2.3170    -4.8380    -0.2710 H     1 <1>   0.1500 
 26 H        4.4050    -1.0840    -1.0800 H     1 <1>   0.1500 
 27 H        4.5350    -4.8600    -0.7390 H     1 <1>   0.0800 
 28 H        4.6910    -4.3520     0.9280 H     1 <1>   0.0800 
 29 H        6.1270    -2.5670     0.1970 H     1 <1>   0.4500 
 30 H        6.0020    -3.0690    -1.3760 H     1 <1>   0.4500 
 31 H        7.0680    -5.1900    -0.8320 H     1 <1>   0.0800 
 32 H        7.1580    -4.6800     0.8380 H     1 <1>   0.0800 
 33 H        8.6610    -3.4680    -1.4990 H     1 <1>   0.0800 
 34 H        8.4140    -2.5490     1.3770 H     1 <1>   0.0800 
 35 H        8.4890    -1.5360    -0.0600 H     1 <1>   0.0800 
 36 H       11.3310    -3.9930    -0.7220 H     1 <1>   0.0800 
 37 H       11.2050    -4.4260     0.9830 H     1 <1>   0.0800 
 38 H       10.7040    -2.2100     1.4730 H     1 <1>   0.0800 
 39 H       10.8100    -1.8290    -0.2320 H     1 <1>   0.0800 
@<TRIPOS>BOND
  1   1   2  1   
  2   2   3  ar  
  3   2   4  ar  
  4   3   5  1   
  5   3   6  ar  
  6   4   7  ar  
  7   4  21  1   
  8   5   8  1   
  9   5   9  2   
 10   6  10  ar  
 11   6  22  1   
 12   7  10  ar  
 13   7  23  1   
 14   8  11  1   
 15   9  12  1   
 16   9  24  1   
 17  10  25  1   
 18  11  12  2   
 19  11  13  1   
 20  12  26  1   
 21  13  14  1   
 22  13  27  1   
 23  13  28  1   
 24  14  15  1   
 25  14  29  1   
 26  14  30  1   
 27  15  16  1   
 28  15  31  1   
 29  15  32  1   
 30  16  17  1   
 31  16  18  1   
 32  16  33  1   
 33  17  19  1   
 34  18  20  1   
 35  18  34  1   
 36  18  35  1   
 37  19  20  1   
 38  19  36  1   
 39  19  37  1   
 40  20  38  1   
 41  20  39  1   
@<TRIPOS>SUBSTRUCTURE
  1 ****  11 GROUP 4 **** **** 0

# MOE 2024.06 (io_trps.svl 2023.06)
