@<TRIPOS>MOLECULE
NONAME
43 45 1 0 0 
SMALL
USER_CHARGES


@<TRIPOS>ATOM
  1 O        0.0660    -1.2570    -1.4140 O.2   1 <1>  -0.5700 
  2 C       -0.2360    -1.3880    -0.2580 C.2   1 <1>   0.6590 
  3 O       -0.6010    -2.5450     0.2670 O.3   1 <1>  -0.4300 
  4 C       -0.2140    -0.2230     0.6970 C.3   1 <1>  -0.1790 
  5 C       -0.6940    -3.7380    -0.4980 C.3   1 <1>   0.3440 
  6 C       -1.9960    -4.4590    -0.1570 C.ar  1 <1>  -0.1440 
  7 C        0.5400    -4.6460    -0.2370 C.3   1 <1>   0.0000 
  8 C       -2.0780    -5.8170    -0.4570 C.ar  1 <1>   0.1000 
  9 C       -3.0830    -3.8200     0.4260 C.ar  1 <1>  -0.1500 
 10 C        0.3460    -5.8990    -1.1450 C.3   1 <1>   0.4330 
 11 C        0.6580    -5.0020     1.2680 C.3   1 <1>  -0.2400 
 12 C        1.8480    -3.9220    -0.6390 C.3   1 <1>  -0.2400 
 13 N       -1.0130    -6.4840    -1.0480 N.pl3 1 <1>  -0.8690 
 14 C       -3.2420    -6.5130    -0.1630 C.ar  1 <1>  -0.1500 
 15 C       -4.2390    -4.5240     0.7160 C.ar  1 <1>  -0.1500 
 16 C        1.3660    -7.0220    -0.9290 C.ar  1 <1>  -0.1440 
 17 C       -4.3180    -5.8730     0.4220 C.ar  1 <1>  -0.1500 
 18 C        2.4500    -7.1380    -1.7900 C.ar  1 <1>  -0.1500 
 19 C        1.2320    -7.9440     0.1030 C.ar  1 <1>  -0.1500 
 20 C        3.3810    -8.1480    -1.6220 C.ar  1 <1>  -0.1500 
 21 C        2.1620    -8.9550     0.2730 C.ar  1 <1>  -0.1500 
 22 C        3.2380    -9.0570    -0.5890 C.ar  1 <1>  -0.1500 
 23 H        0.4740    -0.4280     1.4950 H     1 <1>   0.0800 
 24 H       -1.1960    -0.0730     1.1020 H     1 <1>   0.0800 
 25 H        0.0970     0.6660     0.1800 H     1 <1>   0.0800 
 26 H       -0.7350    -3.4800    -1.5430 H     1 <1>   0.0800 
 27 H       -3.0410    -2.7720     0.6590 H     1 <1>   0.1500 
 28 H        0.4490    -5.5670    -2.1640 H     1 <1>   0.0800 
 29 H        0.7100    -4.1110     1.8670 H     1 <1>   0.0800 
 30 H       -0.1920    -5.5730     1.5970 H     1 <1>   0.0800 
 31 H        1.5460    -5.5770     1.4580 H     1 <1>   0.0800 
 32 H        2.0150    -3.0610    -0.0180 H     1 <1>   0.0800 
 33 H        1.8040    -3.5950    -1.6630 H     1 <1>   0.0800 
 34 H        2.6960    -4.5750    -0.5240 H     1 <1>   0.0800 
 35 H       -0.9760    -7.5010    -0.9350 H     1 <1>   0.4000 
 36 H       -3.3030    -7.5580    -0.3990 H     1 <1>   0.1500 
 37 H       -5.0760    -4.0210     1.1700 H     1 <1>   0.1500 
 38 H       -5.2160    -6.4220     0.6460 H     1 <1>   0.1500 
 39 H        2.5760    -6.4420    -2.6010 H     1 <1>   0.1500 
 40 H        0.4020    -7.8760     0.7840 H     1 <1>   0.1500 
 41 H        4.2180    -8.2280    -2.2940 H     1 <1>   0.1500 
 42 H        2.0480    -9.6610     1.0770 H     1 <1>   0.1500 
 43 H        3.9620    -9.8430    -0.4570 H     1 <1>   0.1500 
@<TRIPOS>BOND
  1   1   2  2   
  2   2   3  1   
  3   2   4  1   
  4   3   5  1   
  5   4  23  1   
  6   4  24  1   
  7   4  25  1   
  8   5   6  1   
  9   5   7  1   
 10   5  26  1   
 11   6   8  ar  
 12   6   9  ar  
 13   7  10  1   
 14   7  11  1   
 15   7  12  1   
 16   8  13  1   
 17   8  14  ar  
 18   9  15  ar  
 19   9  27  1   
 20  10  13  1   
 21  10  16  1   
 22  10  28  1   
 23  11  29  1   
 24  11  30  1   
 25  11  31  1   
 26  12  32  1   
 27  12  33  1   
 28  12  34  1   
 29  13  35  1   
 30  14  17  ar  
 31  14  36  1   
 32  15  17  ar  
 33  15  37  1   
 34  16  18  ar  
 35  16  19  ar  
 36  17  38  1   
 37  18  20  ar  
 38  18  39  1   
 39  19  21  ar  
 40  19  40  1   
 41  20  22  ar  
 42  20  41  1   
 43  21  22  ar  
 44  21  42  1   
 45  22  43  1   
@<TRIPOS>SUBSTRUCTURE
  1 ****   7 GROUP 4 **** **** 0

# MOE 2024.06 (io_trps.svl 2023.06)
