@<TRIPOS>MOLECULE
NONAME
31 31 1 0 0 
SMALL
USER_CHARGES


@<TRIPOS>ATOM
  1 O       -4.3210    -3.0280     0.6400 O.2   1 <1>  -0.5700 
  2 C       -4.9630    -3.8950     0.1100 C.2   1 <1>   0.6590 
  3 O       -6.2630    -3.7670    -0.1190 O.3   1 <1>  -0.4300 
  4 C       -4.3370    -5.1920    -0.3330 C.3   1 <1>  -0.1790 
  5 C       -6.9420    -2.5920     0.2530 C.3   1 <1>   0.1200 
  6 C       -8.4100    -2.7550    -0.1360 C.3   1 <1>  -0.1600 
  7 C       -9.1990    -1.5050     0.2500 C.3   1 <1>   0.3430 
  8 N      -10.6110    -1.6150    -0.2120 N.4   1 <1>  -0.9590 
  9 C      -11.3030    -0.2800    -0.1310 C.3   1 <1>   0.3430 
 10 C      -11.3940    -2.6500     0.5570 C.3   1 <1>   0.3430 
 11 C      -12.7950    -0.3890    -0.5010 C.3   1 <1>   0.1200 
 12 C      -12.8820    -2.6500     0.1570 C.3   1 <1>   0.1200 
 13 O      -13.4160    -1.3650     0.2830 O.3   1 <1>  -0.5600 
 14 H       -4.8060    -6.0110     0.1780 H     1 <1>   0.0800 
 15 H       -3.2880    -5.1850    -0.1030 H     1 <1>   0.0800 
 16 H       -4.4660    -5.3110    -1.3920 H     1 <1>   0.0800 
 17 H       -6.4850    -1.7640    -0.2630 H     1 <1>   0.0800 
 18 H       -6.8260    -2.4630     1.3170 H     1 <1>   0.0800 
 19 H       -8.7990    -3.6160     0.3770 H     1 <1>   0.0800 
 20 H       -8.4660    -2.9080    -1.1990 H     1 <1>   0.0800 
 21 H       -8.7350    -0.6470    -0.2130 H     1 <1>   0.0800 
 22 H       -9.1690    -1.3660     1.3190 H     1 <1>   0.0800 
 23 H      -10.6080    -1.8990    -1.2010 H     1 <1>   0.4500 
 24 H      -10.8250     0.4260    -0.7900 H     1 <1>   0.0800 
 25 H      -11.2340     0.1060     0.8730 H     1 <1>   0.0800 
 26 H      -11.3290    -2.4450     1.6130 H     1 <1>   0.0800 
 27 H      -10.9830    -3.6310     0.3840 H     1 <1>   0.0800 
 28 H      -12.9250    -0.6410    -1.5390 H     1 <1>   0.0800 
 29 H      -13.2930     0.5470    -0.3120 H     1 <1>   0.0800 
 30 H      -13.4410    -3.3000     0.8080 H     1 <1>   0.0800 
 31 H      -13.0150    -2.9850    -0.8570 H     1 <1>   0.0800 
@<TRIPOS>BOND
  1   1   2  2   
  2   2   3  1   
  3   2   4  1   
  4   3   5  1   
  5   4  14  1   
  6   4  15  1   
  7   4  16  1   
  8   5   6  1   
  9   5  17  1   
 10   5  18  1   
 11   6   7  1   
 12   6  19  1   
 13   6  20  1   
 14   7   8  1   
 15   7  21  1   
 16   7  22  1   
 17   8   9  1   
 18   8  10  1   
 19   8  23  1   
 20   9  11  1   
 21   9  24  1   
 22   9  25  1   
 23  10  12  1   
 24  10  26  1   
 25  10  27  1   
 26  11  13  1   
 27  11  28  1   
 28  11  29  1   
 29  12  13  1   
 30  12  30  1   
 31  12  31  1   
@<TRIPOS>SUBSTRUCTURE
  1 ****   6 GROUP 4 **** **** 0

# MOE 2024.06 (io_trps.svl 2023.06)
