@<TRIPOS>MOLECULE
NONAME
50 52 1 0 0 
SMALL
USER_CHARGES


@<TRIPOS>ATOM
  1 CL       1.6760     3.0990     1.8750 Cl    1 <1>  -0.1770 
  2 C        2.8320     2.1800     0.9480 C.ar  1 <1>   0.1770 
  3 C        2.4160     1.0480     0.2750 C.ar  1 <1>  -0.1500 
  4 C        4.1490     2.5980     0.9010 C.ar  1 <1>  -0.1500 
  5 C        3.3370     0.3170    -0.4570 C.ar  1 <1>  -0.1500 
  6 C        5.0680     1.8650     0.1690 C.ar  1 <1>  -0.1500 
  7 C        4.6670     0.7180    -0.5080 C.ar  1 <1>  -0.1430 
  8 C        5.6760    -0.0970    -1.2960 C.3   1 <1>   0.4870 
  9 N        6.5180    -0.8690    -0.3450 N.4   1 <1>  -0.9590 
 10 C        7.6610    -1.5580    -1.0500 C.3   1 <1>   0.3430 
 11 C        5.6870    -1.8390     0.4640 C.3   1 <1>   0.3430 
 12 C        8.5140    -2.4130    -0.0960 C.3   1 <1>   0.1100 
 13 C        6.5510    -2.6650     1.4260 C.3   1 <1>   0.1100 
 14 N        7.6310    -3.3320     0.6520 N.pl3 1 <1>  -0.4870 
 15 N        8.1230    -4.5440     1.0210 N.2   1 <1>  -0.5030 
 16 C        7.3640    -5.5810     1.0510 C.2   1 <1>   0.3030 
 17 C        5.9850    -5.6500     0.6280 C.ar  1 <1>   0.0860 
 18 C        7.9700    -6.8760     1.5570 C.3   1 <1>  -0.1790 
 19 C        4.9660    -6.0530     1.4940 C.ar  1 <1>  -0.1500 
 20 C        5.6190    -5.2840    -0.6690 C.ar  1 <1>  -0.1500 
 21 C        3.6410    -6.0600     1.0970 C.ar  1 <1>  -0.1500 
 22 C        4.2980    -5.2880    -1.0730 C.ar  1 <1>  -0.1500 
 23 C        3.2980    -5.6650    -0.1930 C.ar  1 <1>   0.0830 
 24 O        2.0280    -5.6230    -0.6600 O.3   1 <1>  -0.3620 
 25 C        0.9540    -6.1520     0.0870 C.3   1 <1>   0.0400 
 26 H        1.3830     0.7510     0.3250 H     1 <1>   0.1500 
 27 H        4.4410     3.4880     1.4310 H     1 <1>   0.1500 
 28 H        2.9990    -0.5620    -0.9830 H     1 <1>   0.1500 
 29 H        6.0890     2.2050     0.1330 H     1 <1>   0.1500 
 30 H        6.2910     0.5690    -1.8810 H     1 <1>   0.0800 
 31 H        5.1640    -0.7660    -1.9680 H     1 <1>   0.0800 
 32 H        6.9130    -0.1980     0.3250 H     1 <1>   0.4500 
 33 H        7.2710    -2.2090    -1.8160 H     1 <1>   0.0800 
 34 H        8.2950    -0.8290    -1.5280 H     1 <1>   0.0800 
 35 H        4.9440    -1.3040     1.0330 H     1 <1>   0.0800 
 36 H        5.1730    -2.5200    -0.1950 H     1 <1>   0.0800 
 37 H        9.0510    -1.7890     0.5960 H     1 <1>   0.0800 
 38 H        9.2300    -2.9880    -0.6570 H     1 <1>   0.0800 
 39 H        5.9440    -3.3930     1.9320 H     1 <1>   0.0800 
 40 H        6.9900    -2.0280     2.1740 H     1 <1>   0.0800 
 41 H        7.5950    -7.1000     2.5380 H     1 <1>   0.0800 
 42 H        9.0400    -6.7900     1.6120 H     1 <1>   0.0800 
 43 H        7.7250    -7.6830     0.8910 H     1 <1>   0.0800 
 44 H        5.2180    -6.3560     2.4950 H     1 <1>   0.1500 
 45 H        6.3930    -4.9970    -1.3580 H     1 <1>   0.1500 
 46 H        2.8910    -6.3710     1.7990 H     1 <1>   0.1500 
 47 H        4.0290    -5.0070    -2.0760 H     1 <1>   0.1500 
 48 H        0.0620    -6.0710    -0.5080 H     1 <1>   0.0800 
 49 H        0.8410    -5.5830     0.9920 H     1 <1>   0.0800 
 50 H        1.1550    -7.1870     0.3030 H     1 <1>   0.0800 
@<TRIPOS>BOND
  1   1   2  1   
  2   2   3  ar  
  3   2   4  ar  
  4   3   5  ar  
  5   3  26  1   
  6   4   6  ar  
  7   4  27  1   
  8   5   7  ar  
  9   5  28  1   
 10   6   7  ar  
 11   6  29  1   
 12   7   8  1   
 13   8   9  1   
 14   8  30  1   
 15   8  31  1   
 16   9  10  1   
 17   9  11  1   
 18   9  32  1   
 19  10  12  1   
 20  10  33  1   
 21  10  34  1   
 22  11  13  1   
 23  11  35  1   
 24  11  36  1   
 25  12  14  1   
 26  12  37  1   
 27  12  38  1   
 28  13  14  1   
 29  13  39  1   
 30  13  40  1   
 31  14  15  1   
 32  15  16  2   
 33  16  17  1   
 34  16  18  1   
 35  17  19  ar  
 36  17  20  ar  
 37  18  41  1   
 38  18  42  1   
 39  18  43  1   
 40  19  21  ar  
 41  19  44  1   
 42  20  22  ar  
 43  20  45  1   
 44  21  23  ar  
 45  21  46  1   
 46  22  23  ar  
 47  22  47  1   
 48  23  24  1   
 49  24  25  1   
 50  25  48  1   
 51  25  49  1   
 52  25  50  1   
@<TRIPOS>SUBSTRUCTURE
  1 ****  11 GROUP 4 **** **** 0

# MOE 2024.06 (io_trps.svl 2023.06)
