@<TRIPOS>MOLECULE
NONAME
39 43 1 0 0 
SMALL
USER_CHARGES


@<TRIPOS>ATOM
  1 O        0.5010     1.6450     1.8230 O.2   1 <1>  -0.5700 
  2 C        0.1490     2.5820     1.1480 C.2   1 <1>   0.5690 
  3 N        0.9310     3.5510     0.5470 N.am  1 <1>  -0.1200 
  4 C       -1.2790     2.9820     0.9060 C.3   1 <1>  -0.0190 
  5 N        2.3890     3.5260     0.4990 N.am  1 <1>  -0.4300 
  6 C        0.1550     4.3440    -0.2770 C.2   1 <1>   0.5690 
  7 C       -2.7150     2.4270     0.8980 C.3   1 <1>   0.1530 
  8 C       -1.1330     3.6030    -0.4940 C.3   1 <1>  -0.0190 
  9 C        3.1010     2.8330    -0.4350 C.2   1 <1>   0.5440 
 10 O        0.4330     5.4190    -0.7540 O.2   1 <1>  -0.5700 
 11 C       -3.0400     1.6470    -0.3690 C.2   1 <1>  -0.2880 
 12 C       -3.3470     3.7490     0.4330 C.3   1 <1>  -0.1900 
 13 C       -2.6050     3.8650    -0.8990 C.3   1 <1>   0.1530 
 14 O        2.4950     2.1800    -1.2690 O.2   1 <1>  -0.5700 
 15 C        4.5510     2.8670    -0.4270 C.ar  1 <1>   0.0860 
 16 C       -3.0330     2.4920    -1.4050 C.2   1 <1>  -0.2880 
 17 C       -4.7920     4.0850     0.5970 C.3   1 <1>  -0.2000 
 18 C       -3.7310     4.9030     1.3010 C.3   1 <1>  -0.2000 
 19 C        5.2590     4.0290    -0.1120 C.ar  1 <1>  -0.1500 
 20 C        5.2920     1.7260    -0.7360 C.ar  1 <1>  -0.1500 
 21 C        6.6420     4.0440    -0.0880 C.ar  1 <1>  -0.1500 
 22 C        6.6750     1.7360    -0.7150 C.ar  1 <1>  -0.1500 
 23 C        7.3530     2.8960    -0.3880 C.ar  1 <1>  -0.1500 
 24 H       -1.3490     3.7750     1.6360 H     1 <1>   0.0800 
 25 H        2.8770     4.0350     1.2370 H     1 <1>   0.3700 
 26 H       -3.1100     2.0500     1.8250 H     1 <1>   0.0800 
 27 H       -0.7910     2.8440    -1.1830 H     1 <1>   0.0800 
 28 H       -3.2390     0.5890    -0.3200 H     1 <1>   0.1500 
 29 H       -2.8300     4.7060    -1.5320 H     1 <1>   0.0800 
 30 H       -3.2290     2.3300    -2.4520 H     1 <1>   0.1500 
 31 H       -5.4130     3.4260     1.1790 H     1 <1>   0.1000 
 32 H       -5.3200     4.5200    -0.2340 H     1 <1>   0.1000 
 33 H       -3.5500     5.9060     0.9550 H     1 <1>   0.1000 
 34 H       -3.6590     4.8160     2.3720 H     1 <1>   0.1000 
 35 H        4.7250     4.9370     0.1070 H     1 <1>   0.1500 
 36 H        4.7690     0.8210    -0.9950 H     1 <1>   0.1500 
 37 H        7.1690     4.9500     0.1580 H     1 <1>   0.1500 
 38 H        7.2240     0.8410    -0.9550 H     1 <1>   0.1500 
 39 H        8.4290     2.9060    -0.3710 H     1 <1>   0.1500 
@<TRIPOS>BOND
  1   1   2  2   
  2   2   3  am  
  3   2   4  1   
  4   3   5  1   
  5   3   6  am  
  6   4   7  1   
  7   4   8  1   
  8   4  24  1   
  9   5   9  am  
 10   5  25  1   
 11   6   8  1   
 12   6  10  2   
 13   7  11  1   
 14   7  12  1   
 15   7  26  1   
 16   8  13  1   
 17   8  27  1   
 18   9  14  2   
 19   9  15  1   
 20  11  16  2   
 21  11  28  1   
 22  12  13  1   
 23  12  17  1   
 24  12  18  1   
 25  13  16  1   
 26  13  29  1   
 27  15  19  ar  
 28  15  20  ar  
 29  16  30  1   
 30  17  18  1   
 31  17  31  1   
 32  17  32  1   
 33  18  33  1   
 34  18  34  1   
 35  19  21  ar  
 36  19  35  1   
 37  20  22  ar  
 38  20  36  1   
 39  21  23  ar  
 40  21  37  1   
 41  22  23  ar  
 42  22  38  1   
 43  23  39  1   
@<TRIPOS>SUBSTRUCTURE
  1 ****   3 GROUP 4 **** **** 0

# MOE 2024.06 (io_trps.svl 2023.06)
