@<TRIPOS>MOLECULE
NONAME
45 48 1 0 0 
SMALL
USER_CHARGES


@<TRIPOS>ATOM
  1 CL       1.4230     2.0600    -0.6540 Cl    1 <1>  -0.1770 
  2 C        0.0200     3.0920    -0.7290 C.ar  1 <1>   0.1770 
  3 C       -0.9290     3.0100     0.2720 C.ar  1 <1>  -0.1500 
  4 C       -0.1240     3.9700    -1.7860 C.ar  1 <1>  -0.1500 
  5 C       -2.0550     3.8200     0.2170 C.ar  1 <1>  -0.1440 
  6 C       -1.2420     4.7840    -1.8390 C.ar  1 <1>  -0.1500 
  7 C       -2.2020     4.7090    -0.8410 C.ar  1 <1>  -0.1500 
  8 C       -3.1140     3.7300     1.3010 C.3   1 <1>   0.4870 
  9 N       -4.3100     3.0470     0.7490 N.4   1 <1>  -0.9590 
 10 C       -5.4930     3.0400     1.6660 C.3   1 <1>   0.3430 
 11 C       -4.0450     1.6700     0.2110 C.3   1 <1>   0.3430 
 12 C       -6.7530     2.5320     0.9250 C.3   1 <1>   0.1100 
 13 C       -5.3320     1.0370    -0.3760 C.3   1 <1>   0.1100 
 14 N       -6.4560     2.0010    -0.4340 N.3   1 <1>  -0.8100 
 15 C       -7.6540     1.3850    -1.0510 C.3   1 <1>   0.2480 
 16 C       -8.7700     2.4030    -1.2710 C.2   1 <1>   0.0330 
 17 N       -9.6680     2.5580    -0.2500 N.2   1 <1>  -0.6210 
 18 C       -8.8670     3.1170    -2.4240 C.2   1 <1>  -0.1360 
 19 C      -10.6090     3.4190    -0.4590 C.2   1 <1>   0.6510 
 20 C       -9.9110     4.0550    -2.6050 C.2   1 <1>   0.6160 
 21 S      -11.8660     3.7810     0.7270 S.3   1 <1>  -0.2420 
 22 N      -10.8060     4.1910    -1.5730 N.am  1 <1>  -0.2290 
 23 O      -10.0210     4.7250    -3.6210 O.2   1 <1>  -0.5700 
 24 C      -12.6190     4.9730    -0.3490 C.2   1 <1>  -0.0490 
 25 C      -11.9280     5.0460    -1.4940 C.2   1 <1>  -0.0410 
 26 H       -0.7680     2.3140     1.0770 H     1 <1>   0.1500 
 27 H        0.6310     4.0150    -2.5520 H     1 <1>   0.1500 
 28 H       -1.3610     5.4760    -2.6560 H     1 <1>   0.1500 
 29 H       -3.0600     5.3580    -0.9040 H     1 <1>   0.1500 
 30 H       -3.3740     4.7240     1.6280 H     1 <1>   0.0800 
 31 H       -2.7290     3.1820     2.1450 H     1 <1>   0.0800 
 32 H       -4.6350     3.5640    -0.0820 H     1 <1>   0.4500 
 33 H       -5.6850     4.0320     2.0390 H     1 <1>   0.0800 
 34 H       -5.2990     2.4010     2.5110 H     1 <1>   0.0800 
 35 H       -3.6590     1.0320     0.9880 H     1 <1>   0.0800 
 36 H       -3.3020     1.7230    -0.5680 H     1 <1>   0.0800 
 37 H       -7.4400     3.3570     0.8410 H     1 <1>   0.0800 
 38 H       -7.2360     1.7770     1.5230 H     1 <1>   0.0800 
 39 H       -5.6120     0.1870     0.2250 H     1 <1>   0.0800 
 40 H       -5.1150     0.6730    -1.3670 H     1 <1>   0.0800 
 41 H       -8.0220     0.5800    -0.4370 H     1 <1>   0.0800 
 42 H       -7.3810     0.9710    -2.0070 H     1 <1>   0.0800 
 43 H       -8.1710     3.0110    -3.2340 H     1 <1>   0.1500 
 44 H      -13.4990     5.4780     0.0130 H     1 <1>   0.1500 
 45 H      -12.1420     5.6810    -2.3390 H     1 <1>   0.1500 
@<TRIPOS>BOND
  1   1   2  1   
  2   2   3  ar  
  3   2   4  ar  
  4   3   5  ar  
  5   3  26  1   
  6   4   6  ar  
  7   4  27  1   
  8   5   7  ar  
  9   5   8  1   
 10   6   7  ar  
 11   6  28  1   
 12   7  29  1   
 13   8   9  1   
 14   8  30  1   
 15   8  31  1   
 16   9  10  1   
 17   9  11  1   
 18   9  32  1   
 19  10  12  1   
 20  10  33  1   
 21  10  34  1   
 22  11  13  1   
 23  11  35  1   
 24  11  36  1   
 25  12  14  1   
 26  12  37  1   
 27  12  38  1   
 28  13  14  1   
 29  13  39  1   
 30  13  40  1   
 31  14  15  1   
 32  15  16  1   
 33  15  41  1   
 34  15  42  1   
 35  16  17  1   
 36  16  18  2   
 37  17  19  2   
 38  18  20  1   
 39  18  43  1   
 40  19  21  1   
 41  19  22  1   
 42  20  22  am  
 43  20  23  2   
 44  21  24  1   
 45  22  25  1   
 46  24  25  2   
 47  24  44  1   
 48  25  45  1   
@<TRIPOS>SUBSTRUCTURE
  1 ****  14 GROUP 4 **** **** 0

# MOE 2024.06 (io_trps.svl 2023.06)
