@<TRIPOS>MOLECULE
NONAME
46 48 1 0 0 
SMALL
USER_CHARGES


@<TRIPOS>ATOM
  1 O       -0.9510     0.8350     0.5260 O.2   1 <1>  -0.5700 
  2 C       -1.5490     1.2170    -0.4610 C.2   1 <1>   0.5440 
  3 N       -2.8370     0.8190    -0.6760 N.am  1 <1>  -0.7300 
  4 C       -0.9100     2.1070    -1.4110 C.ar  1 <1>   0.0860 
  5 C       -3.7730     0.1330     0.2410 C.3   1 <1>   0.3000 
  6 C        0.4320     1.9480    -1.7550 C.ar  1 <1>  -0.1500 
  7 C       -1.6100     3.1540    -2.0120 C.ar  1 <1>  -0.1500 
  8 C       -3.2550    -1.2840     0.5700 C.3   1 <1>  -0.1600 
  9 C       -5.1140     0.0060    -0.5150 C.3   1 <1>  -0.1600 
 10 C       -3.9520     0.9570     1.5420 C.3   1 <1>  -0.0170 
 11 C        1.0460     2.7850    -2.6700 C.ar  1 <1>  -0.1500 
 12 C       -1.0030     3.9940    -2.9280 C.ar  1 <1>  -0.1500 
 13 C       -3.1580    -2.2000    -0.6620 C.3   1 <1>  -0.1600 
 14 C       -5.0450    -0.9140    -1.7490 C.3   1 <1>  -0.1600 
 15 C       -4.3880     2.4080     1.3310 C.ar  1 <1>  -0.1440 
 16 C        0.3270     3.8090    -3.2600 C.ar  1 <1>  -0.1500 
 17 C       -4.5100    -2.3020    -1.3780 C.3   1 <1>  -0.1600 
 18 C       -3.4340     3.4100     1.2260 C.ar  1 <1>  -0.1500 
 19 C       -5.7340     2.7430     1.2530 C.ar  1 <1>  -0.1500 
 20 C       -3.8140     4.7250     1.0210 C.ar  1 <1>  -0.1500 
 21 C       -6.1210     4.0570     1.0500 C.ar  1 <1>  -0.1500 
 22 C       -5.1560     5.0430     0.9300 C.ar  1 <1>   0.0820 
 23 O       -5.5150     6.3190     0.7270 O.3   1 <1>  -0.5330 
 24 H       -3.2880     1.1190    -1.5370 H     1 <1>   0.3700 
 25 H        0.9940     1.1550    -1.2910 H     1 <1>   0.1500 
 26 H       -2.6410     3.3190    -1.7500 H     1 <1>   0.1500 
 27 H       -3.9260    -1.7410     1.2760 H     1 <1>   0.0800 
 28 H       -2.2950    -1.2250     1.0490 H     1 <1>   0.0800 
 29 H       -5.4550     0.9780    -0.8230 H     1 <1>   0.0800 
 30 H       -5.8520    -0.3930     0.1590 H     1 <1>   0.0800 
 31 H       -4.6770     0.4680     2.1660 H     1 <1>   0.0800 
 32 H       -3.0280     0.9470     2.0920 H     1 <1>   0.0800 
 33 H        2.0830     2.6400    -2.9210 H     1 <1>   0.1500 
 34 H       -1.5630     4.7950    -3.3790 H     1 <1>   0.1500 
 35 H       -2.8360    -3.1800    -0.3570 H     1 <1>   0.0800 
 36 H       -2.4180    -1.8100    -1.3400 H     1 <1>   0.0800 
 37 H       -4.4060    -0.4780    -2.4960 H     1 <1>   0.0800 
 38 H       -6.0270    -1.0130    -2.1780 H     1 <1>   0.0800 
 39 H        0.8020     4.4610    -3.9730 H     1 <1>   0.1500 
 40 H       -5.2160    -2.7980    -0.7350 H     1 <1>   0.0800 
 41 H       -4.4010    -2.8970    -2.2690 H     1 <1>   0.0800 
 42 H       -2.3870     3.1690     1.3050 H     1 <1>   0.1500 
 43 H       -6.4850     1.9800     1.3490 H     1 <1>   0.1500 
 44 H       -3.0760     5.5010     0.9350 H     1 <1>   0.1500 
 45 H       -7.1640     4.3030     0.9870 H     1 <1>   0.1500 
 46 H       -6.4790     6.4450     0.7030 H     1 <1>   0.4500 
@<TRIPOS>BOND
  1   1   2  2   
  2   2   3  am  
  3   2   4  1   
  4   3   5  1   
  5   3  24  1   
  6   4   6  ar  
  7   4   7  ar  
  8   5   8  1   
  9   5   9  1   
 10   5  10  1   
 11   6  11  ar  
 12   6  25  1   
 13   7  12  ar  
 14   7  26  1   
 15   8  13  1   
 16   8  27  1   
 17   8  28  1   
 18   9  14  1   
 19   9  29  1   
 20   9  30  1   
 21  10  15  1   
 22  10  31  1   
 23  10  32  1   
 24  11  16  ar  
 25  11  33  1   
 26  12  16  ar  
 27  12  34  1   
 28  13  17  1   
 29  13  35  1   
 30  13  36  1   
 31  14  17  1   
 32  14  37  1   
 33  14  38  1   
 34  15  18  ar  
 35  15  19  ar  
 36  16  39  1   
 37  17  40  1   
 38  17  41  1   
 39  18  20  ar  
 40  18  42  1   
 41  19  21  ar  
 42  19  43  1   
 43  20  22  ar  
 44  20  44  1   
 45  21  22  ar  
 46  21  45  1   
 47  22  23  1   
 48  23  46  1   
@<TRIPOS>SUBSTRUCTURE
  1 ****   3 GROUP 4 **** **** 0

# MOE 2024.06 (io_trps.svl 2023.06)
