@<TRIPOS>MOLECULE
NONAME
50 51 1 0 0 
SMALL
USER_CHARGES


@<TRIPOS>ATOM
  1 O        0.3250     0.6920     0.2970 O.3   1 <1>  -0.5600 
  2 C       -0.8120     1.4710     0.5250 C.3   1 <1>   0.1200 
  3 C        1.5370     1.3770     0.3650 C.3   1 <1>   0.1200 
  4 C       -1.2590     2.1380    -0.7790 C.3   1 <1>   0.1200 
  5 C        2.6630     0.3630     0.1430 C.3   1 <1>   0.1100 
  6 O       -2.4110     2.8760    -0.5460 O.3   1 <1>  -0.6800 
  7 N        4.0020     0.9900     0.2270 N.3   1 <1>  -0.8100 
  8 C        5.0440    -0.0450     0.4310 C.3   1 <1>   0.1100 
  9 C        4.3190     1.8000    -0.9780 C.3   1 <1>   0.1100 
 10 C        6.4660     0.5580     0.5460 C.3   1 <1>   0.3430 
 11 C        5.7500     2.3920    -0.9380 C.3   1 <1>   0.3430 
 12 N        6.4410     2.0450     0.3500 N.4   1 <1>  -0.9590 
 13 C        7.7500     2.7040     0.5950 C.3   1 <1>   0.4230 
 14 C        7.4950     4.1770     0.9400 C.3   1 <1>  -0.1600 
 15 C        8.7110     2.4840    -0.5880 C.3   1 <1>  -0.1600 
 16 C        8.7590     4.9800     1.2910 C.3   1 <1>  -0.1600 
 17 C       10.1710     2.7360    -0.1850 C.3   1 <1>  -0.1600 
 18 C        9.6220     5.2880     0.0590 C.3   1 <1>  -0.1600 
 19 C       10.6350     4.1950    -0.3150 C.3   1 <1>  -0.1600 
 20 H       -0.6020     2.2020     1.2870 H     1 <1>   0.0800 
 21 H       -1.5820     0.8060     0.8750 H     1 <1>   0.0800 
 22 H        1.6280     1.8210     1.3410 H     1 <1>   0.0800 
 23 H        1.5450     2.1360    -0.3960 H     1 <1>   0.0800 
 24 H       -1.4750     1.4010    -1.5320 H     1 <1>   0.0800 
 25 H       -0.5080     2.8190    -1.1370 H     1 <1>   0.0800 
 26 H        2.5350    -0.1150    -0.8140 H     1 <1>   0.0800 
 27 H        2.5720    -0.3860     0.9110 H     1 <1>   0.0800 
 28 H       -3.1670     2.2880    -0.3510 H     1 <1>   0.4000 
 29 H        5.0250    -0.7490    -0.3850 H     1 <1>   0.0800 
 30 H        4.8310    -0.5950     1.3330 H     1 <1>   0.0800 
 31 H        3.6180     2.6130    -1.0600 H     1 <1>   0.0800 
 32 H        4.2150     1.1970    -1.8640 H     1 <1>   0.0800 
 33 H        7.1050     0.0960    -0.1880 H     1 <1>   0.0800 
 34 H        6.8640     0.3250     1.5190 H     1 <1>   0.0800 
 35 H        5.6860     3.4620    -1.0490 H     1 <1>   0.0800 
 36 H        6.3140     2.0110    -1.7730 H     1 <1>   0.0800 
 37 H        5.7720     2.3600     1.0690 H     1 <1>   0.4500 
 38 H        8.1950     2.2470     1.4650 H     1 <1>   0.0800 
 39 H        6.8470     4.2120     1.7980 H     1 <1>   0.0800 
 40 H        6.9930     4.6720     0.1290 H     1 <1>   0.0800 
 41 H        8.4490     3.1060    -1.4250 H     1 <1>   0.0800 
 42 H        8.6490     1.4590    -0.9030 H     1 <1>   0.0800 
 43 H        9.3410     4.4830     2.0490 H     1 <1>   0.0800 
 44 H        8.4410     5.9220     1.7070 H     1 <1>   0.0800 
 45 H       10.8130     2.1370    -0.8100 H     1 <1>   0.0800 
 46 H       10.3330     2.4010     0.8270 H     1 <1>   0.0800 
 47 H       10.1790     6.1900     0.2510 H     1 <1>   0.0800 
 48 H        8.9900     5.4990    -0.7860 H     1 <1>   0.0800 
 49 H       10.9440     4.3700    -1.3330 H     1 <1>   0.0800 
 50 H       11.5140     4.3170     0.2950 H     1 <1>   0.0800 
@<TRIPOS>BOND
  1   1   2  1   
  2   1   3  1   
  3   2   4  1   
  4   2  20  1   
  5   2  21  1   
  6   3   5  1   
  7   3  22  1   
  8   3  23  1   
  9   4   6  1   
 10   4  24  1   
 11   4  25  1   
 12   5   7  1   
 13   5  26  1   
 14   5  27  1   
 15   6  28  1   
 16   7   8  1   
 17   7   9  1   
 18   8  10  1   
 19   8  29  1   
 20   8  30  1   
 21   9  11  1   
 22   9  31  1   
 23   9  32  1   
 24  10  12  1   
 25  10  33  1   
 26  10  34  1   
 27  11  12  1   
 28  11  35  1   
 29  11  36  1   
 30  12  13  1   
 31  12  37  1   
 32  13  14  1   
 33  13  15  1   
 34  13  38  1   
 35  14  16  1   
 36  14  39  1   
 37  14  40  1   
 38  15  17  1   
 39  15  41  1   
 40  15  42  1   
 41  16  18  1   
 42  16  43  1   
 43  16  44  1   
 44  17  19  1   
 45  17  45  1   
 46  17  46  1   
 47  18  19  1   
 48  18  47  1   
 49  18  48  1   
 50  19  49  1   
 51  19  50  1   
@<TRIPOS>SUBSTRUCTURE
  1 ****  11 GROUP 4 **** **** 0

# MOE 2024.06 (io_trps.svl 2023.06)
