@<TRIPOS>MOLECULE
NONAME
38 40 1 0 0 
SMALL
USER_CHARGES


@<TRIPOS>ATOM
  1 O       -0.8890     0.7850    -0.0810 O.3   1 <1>  -0.3630 
  2 C       -1.9210    -0.1090    -0.1530 C.ar  1 <1>   0.0820 
  3 C       -1.1050     2.1800    -0.1000 C.3   1 <1>   0.0400 
  4 C       -1.6440    -1.4670    -0.3730 C.ar  1 <1>   0.0820 
  5 C       -3.2440     0.2990    -0.0280 C.ar  1 <1>  -0.1500 
  6 O       -0.4010    -2.0070    -0.4980 O.3   1 <1>  -0.3630 
  7 C       -2.6960    -2.3610    -0.4860 C.ar  1 <1>  -0.1500 
  8 C       -4.3220    -0.5920    -0.1390 C.ar  1 <1>   0.0170 
  9 C        0.6540    -1.5620     0.3270 C.3   1 <1>   0.0400 
 10 C       -4.0030    -1.9350    -0.3700 C.ar  1 <1>  -0.1500 
 11 C       -5.6810    -0.1370    -0.0330 C.cat 1 <1>   0.7830 
 12 N       -6.0700     1.1420    -0.2900 N.pl3 1 <1>  -0.7000 
 13 N       -6.7910    -0.8280     0.3190 N.pl3 1 <1>  -0.8080 
 14 C       -7.4220     1.2560    -0.0900 C.2   1 <1>   0.2770 
 15 O       -6.8980    -2.0680     0.6810 O.3   1 <1>  -0.4420 
 16 C       -7.8550     0.0300     0.2800 C.2   1 <1>   0.1820 
 17 C       -8.2170     2.4210    -0.2210 C.2   1 <1>   0.4620 
 18 C       -9.2970    -0.2890     0.5980 C.3   1 <1>   0.0080 
 19 N       -7.6910     3.5620    -0.5830 N.2   1 <1>  -0.8000 
 20 C       -9.7020     2.2310     0.1320 C.3   1 <1>  -0.0990 
 21 C      -10.2110     0.7760    -0.0480 C.3   1 <1>  -0.1600 
 22 O       -8.4730     4.5020    -0.6170 O.3   1 <1>  -0.6500 
 23 H       -0.1470     2.6650    -0.1380 H     1 <1>   0.0800 
 24 H       -1.6220     2.4680     0.7990 H     1 <1>   0.0800 
 25 H       -1.6780     2.4350    -0.9740 H     1 <1>   0.0800 
 26 H       -3.4740     1.3270     0.1670 H     1 <1>   0.1500 
 27 H       -2.4820    -3.3990    -0.6630 H     1 <1>   0.1500 
 28 H        1.3890    -2.3440     0.3790 H     1 <1>   0.0800 
 29 H        0.2690    -1.3500     1.3090 H     1 <1>   0.0800 
 30 H        1.0900    -0.6820    -0.1100 H     1 <1>   0.0800 
 31 H       -4.8050    -2.6500    -0.4580 H     1 <1>   0.1500 
 32 H       -5.5500     1.9540    -0.6170 H     1 <1>   0.4500 
 33 H       -9.5350    -1.2670     0.2190 H     1 <1>   0.0800 
 34 H       -9.4150    -0.2990     1.6660 H     1 <1>   0.0800 
 35 H       -9.8320     2.5460     1.1500 H     1 <1>   0.0800 
 36 H      -10.2930     2.8840    -0.4850 H     1 <1>   0.0800 
 37 H      -11.2080     0.6880     0.3460 H     1 <1>   0.0800 
 38 H      -10.2610     0.5750    -1.1050 H     1 <1>   0.0800 
@<TRIPOS>BOND
  1   1   2  1   
  2   1   3  1   
  3   2   4  ar  
  4   2   5  ar  
  5   3  23  1   
  6   3  24  1   
  7   3  25  1   
  8   4   6  1   
  9   4   7  ar  
 10   5   8  ar  
 11   5  26  1   
 12   6   9  1   
 13   7  10  ar  
 14   7  27  1   
 15   8  10  ar  
 16   8  11  1   
 17   9  28  1   
 18   9  29  1   
 19   9  30  1   
 20  10  31  1   
 21  11  12  ar  
 22  11  13  ar  
 23  12  14  1   
 24  12  32  1   
 25  13  15  1   
 26  13  16  1   
 27  14  16  2   
 28  14  17  1   
 29  16  18  1   
 30  17  19  2   
 31  17  20  1   
 32  18  21  1   
 33  18  33  1   
 34  18  34  1   
 35  19  22  1   
 36  20  21  1   
 37  20  35  1   
 38  20  36  1   
 39  21  37  1   
 40  21  38  1   
@<TRIPOS>SUBSTRUCTURE
  1 ****  11 GROUP 4 **** **** 0

# MOE 2024.06 (io_trps.svl 2023.06)
