@<TRIPOS>MOLECULE
NONAME
42 43 1 0 0 
SMALL
USER_CHARGES


@<TRIPOS>ATOM
  1 CL       0.7940    -0.1230     1.6030 Cl    1 <1>  -0.1770 
  2 C        2.1280     0.7320     0.8640 C.ar  1 <1>   0.1770 
  3 C        2.9350     0.0980    -0.0800 C.ar  1 <1>   0.0540 
  4 C        2.3530     2.0370     1.2630 C.ar  1 <1>  -0.1500 
  5 C        2.7320    -1.2720    -0.4890 C.2   1 <1>   0.2350 
  6 C        3.9860     0.8410    -0.6160 C.ar  1 <1>  -0.1500 
  7 C        3.4120     2.7470     0.7230 C.ar  1 <1>  -0.1500 
  8 N        1.7070    -1.7380    -1.1240 N.2   1 <1>  -0.4100 
  9 C        3.6500    -2.2930    -0.2890 C.2   1 <1>  -0.0860 
 10 C        4.2290     2.1420    -0.2170 C.ar  1 <1>  -0.1500 
 11 O        1.8750    -3.0170    -1.3710 O.3   1 <1>  -0.0190 
 12 C        3.0430    -3.3400    -0.8740 C.2   1 <1>  -0.0400 
 13 C        4.9090    -2.1620     0.3790 C.2   1 <1>   0.7160 
 14 C        3.5260    -4.7700    -1.0140 C.3   1 <1>  -0.0600 
 15 O        4.9640    -2.0460     1.5870 O.2   1 <1>  -0.5700 
 16 N        6.0450    -2.1540    -0.3620 N.am  1 <1>  -0.7300 
 17 C        7.2780    -1.3890     0.0150 C.3   1 <1>   0.1140 
 18 C        7.4690    -0.2130    -0.9680 C.2   1 <1>   0.9060 
 19 C        8.5140    -2.3130     0.0140 C.3   1 <1>  -0.1600 
 20 O        6.9210    -0.2930    -2.0810 O.co2 1 <1>  -0.9000 
 21 O        8.1270     0.7790    -0.6310 O.co2 1 <1>  -0.9000 
 22 C        8.6030    -3.3220     1.1800 C.3   1 <1>  -0.0800 
 23 C       10.0520    -3.8000     1.3360 C.3   1 <1>  -0.2400 
 24 C        7.6990    -4.5480     0.9850 C.3   1 <1>  -0.2400 
 25 H        1.7090     2.4880     1.9950 H     1 <1>   0.1500 
 26 H        4.6320     0.3960    -1.3560 H     1 <1>   0.1500 
 27 H        3.6050     3.7600     1.0300 H     1 <1>   0.1500 
 28 H        5.0670     2.6730    -0.6420 H     1 <1>   0.1500 
 29 H        3.5940    -5.0290    -2.0550 H     1 <1>   0.0800 
 30 H        2.8350    -5.4350    -0.5310 H     1 <1>   0.0800 
 31 H        4.4950    -4.8850    -0.5630 H     1 <1>   0.0800 
 32 H        5.9170    -2.0190    -1.3760 H     1 <1>   0.3700 
 33 H        7.1570    -0.9590     0.9920 H     1 <1>   0.0800 
 34 H        9.3670    -1.6590     0.0800 H     1 <1>   0.0800 
 35 H        8.5850    -2.8160    -0.9340 H     1 <1>   0.0800 
 36 H        8.3150    -2.8230     2.0910 H     1 <1>   0.0800 
 37 H       10.3840    -4.2950     0.4400 H     1 <1>   0.0800 
 38 H       10.1350    -4.4840     2.1610 H     1 <1>   0.0800 
 39 H       10.7020    -2.9640     1.5280 H     1 <1>   0.0800 
 40 H        7.8840    -5.0060     0.0300 H     1 <1>   0.0800 
 41 H        6.6650    -4.2660     1.0400 H     1 <1>   0.0800 
 42 H        7.8780    -5.2720     1.7590 H     1 <1>   0.0800 
@<TRIPOS>BOND
  1   1   2  1   
  2   2   3  ar  
  3   2   4  ar  
  4   3   5  1   
  5   3   6  ar  
  6   4   7  ar  
  7   4  25  1   
  8   5   8  2   
  9   5   9  1   
 10   6  10  ar  
 11   6  26  1   
 12   7  10  ar  
 13   7  27  1   
 14   8  11  1   
 15   9  12  2   
 16   9  13  1   
 17  10  28  1   
 18  11  12  1   
 19  12  14  1   
 20  13  15  2   
 21  13  16  am  
 22  14  29  1   
 23  14  30  1   
 24  14  31  1   
 25  16  17  1   
 26  16  32  1   
 27  17  18  1   
 28  17  19  1   
 29  17  33  1   
 30  18  20  ar  
 31  18  21  ar  
 32  19  22  1   
 33  19  34  1   
 34  19  35  1   
 35  22  23  1   
 36  22  24  1   
 37  22  36  1   
 38  23  37  1   
 39  23  38  1   
 40  23  39  1   
 41  24  40  1   
 42  24  41  1   
 43  24  42  1   
@<TRIPOS>SUBSTRUCTURE
  1 ****  13 GROUP 4 **** **** 0

# MOE 2024.06 (io_trps.svl 2023.06)
