@<TRIPOS>MOLECULE
NONAME
49 51 1 0 0 
SMALL
USER_CHARGES


@<TRIPOS>ATOM
  1 S        0.0820     0.2470     1.1830 S.o2  1 <1>   1.4470 
  2 O       -0.5860    -0.9400     0.6960 O.2   1 <1>  -0.6500 
  3 O       -0.0620     0.6230     2.5730 O.2   1 <1>  -0.6500 
  4 N       -0.4900     1.5490     0.2600 N.am  1 <1>  -0.8490 
  5 C        1.8500     0.1870     0.7710 C.ar  1 <1>  -0.0090 
  6 C       -1.7930     2.0210     0.7540 C.3   1 <1>   0.1960 
  7 C       -0.6060     1.2300    -1.1750 C.3   1 <1>   0.1960 
  8 C        2.3210    -0.5940    -0.2740 C.ar  1 <1>  -0.1500 
  9 C        2.7750     0.9430     1.4790 C.ar  1 <1>  -0.1500 
 10 C       -2.3190     3.1970    -0.0890 C.3   1 <1>   0.1200 
 11 C       -1.1530     2.4310    -1.9680 C.3   1 <1>   0.1200 
 12 C        3.6660    -0.6490    -0.6490 C.ar  1 <1>   0.0860 
 13 C        4.1160     0.9110     1.1520 C.ar  1 <1>  -0.1500 
 14 O       -2.3810     2.8490    -1.4430 O.3   1 <1>  -0.5600 
 15 C        4.5670     0.1290     0.0940 C.ar  1 <1>   0.0820 
 16 C        4.0470    -1.4820    -1.7790 C.2   1 <1>   0.5440 
 17 O        5.8880     0.1090    -0.2100 O.3   1 <1>  -0.1650 
 18 O        3.2420    -1.7670    -2.6390 O.2   1 <1>  -0.5700 
 19 N        5.2860    -1.9940    -1.9460 N.am  1 <1>  -0.8000 
 20 C        6.6800     1.2040    -0.0960 C.ar  1 <1>   0.0820 
 21 C        7.9440     1.0510     0.4490 C.ar  1 <1>  -0.1500 
 22 C        6.2570     2.4540    -0.5240 C.ar  1 <1>  -0.1500 
 23 C        8.7890     2.1420     0.5870 C.ar  1 <1>  -0.1430 
 24 C        7.0970     3.5430    -0.3880 C.ar  1 <1>  -0.1500 
 25 C        8.3610     3.3980     0.1660 C.ar  1 <1>  -0.1430 
 26 C       10.1680     1.9350     1.1960 C.3   1 <1>  -0.0970 
 27 C        9.2530     4.6250     0.2980 C.3   1 <1>  -0.0970 
 28 H       -1.6980     2.3460     1.7760 H     1 <1>   0.0800 
 29 H       -2.5110     1.2170     0.7260 H     1 <1>   0.0800 
 30 H       -1.2690     0.3920    -1.3210 H     1 <1>   0.0800 
 31 H        0.3590     0.9640    -1.5700 H     1 <1>   0.0800 
 32 H        1.6140    -1.1920    -0.8270 H     1 <1>   0.1500 
 33 H        2.4380     1.5600     2.2970 H     1 <1>   0.1500 
 34 H       -1.6770     4.0540     0.0180 H     1 <1>   0.0800 
 35 H       -3.3120     3.4660     0.2260 H     1 <1>   0.0800 
 36 H       -1.3120     2.1570    -2.9960 H     1 <1>   0.0800 
 37 H       -0.4620     3.2550    -1.9300 H     1 <1>   0.0800 
 38 H        4.8120     1.4960     1.7290 H     1 <1>   0.1500 
 39 H        5.4910    -2.5360    -2.7860 H     1 <1>   0.3700 
 40 H        6.0810    -1.7100    -1.3710 H     1 <1>   0.3700 
 41 H        8.2570     0.0740     0.7670 H     1 <1>   0.1500 
 42 H        5.2840     2.5770    -0.9630 H     1 <1>   0.1500 
 43 H        6.7600     4.5100    -0.7200 H     1 <1>   0.1500 
 44 H       10.3230     0.9050     1.4620 H     1 <1>   0.0800 
 45 H       10.2720     2.5310     2.0850 H     1 <1>   0.0800 
 46 H       10.9290     2.2190     0.4920 H     1 <1>   0.0800 
 47 H       10.1590     4.4830    -0.2620 H     1 <1>   0.0800 
 48 H        9.5000     4.7910     1.3310 H     1 <1>   0.0800 
 49 H        8.7600     5.5030    -0.0760 H     1 <1>   0.0800 
@<TRIPOS>BOND
  1   1   2  2   
  2   1   3  2   
  3   1   4  am  
  4   1   5  1   
  5   4   6  1   
  6   4   7  1   
  7   5   8  ar  
  8   5   9  ar  
  9   6  10  1   
 10   6  28  1   
 11   6  29  1   
 12   7  11  1   
 13   7  30  1   
 14   7  31  1   
 15   8  12  ar  
 16   8  32  1   
 17   9  13  ar  
 18   9  33  1   
 19  10  14  1   
 20  10  34  1   
 21  10  35  1   
 22  11  14  1   
 23  11  36  1   
 24  11  37  1   
 25  12  15  ar  
 26  12  16  1   
 27  13  15  ar  
 28  13  38  1   
 29  15  17  1   
 30  16  18  2   
 31  16  19  am  
 32  17  20  1   
 33  19  39  1   
 34  19  40  1   
 35  20  21  ar  
 36  20  22  ar  
 37  21  23  ar  
 38  21  41  1   
 39  22  24  ar  
 40  22  42  1   
 41  23  25  ar  
 42  23  26  1   
 43  24  25  ar  
 44  24  43  1   
 45  25  27  1   
 46  26  44  1   
 47  26  45  1   
 48  26  46  1   
 49  27  47  1   
 50  27  48  1   
 51  27  49  1   
@<TRIPOS>SUBSTRUCTURE
  1 ****  13 GROUP 4 **** **** 0

# MOE 2024.06 (io_trps.svl 2023.06)
