@<TRIPOS>MOLECULE
NONAME
53 57 1 0 0 
SMALL
USER_CHARGES


@<TRIPOS>ATOM
  1 S       -0.3150     1.8650     1.6010 S.3   1 <1>  -0.2860 
  2 C        1.4580     1.7450     1.7840 C.2   1 <1>   0.5340 
  3 C       -0.5400     2.2090    -0.2130 C.3   1 <1>   0.1310 
  4 O        2.2070     1.9190     0.7540 O.3   1 <1>  -0.2800 
  5 N        2.0930     1.4970     2.8600 N.2   1 <1>  -0.3380 
  6 C       -2.0050     2.3700    -0.5850 C.2   1 <1>   0.5690 
  7 C        3.4110     1.7560     1.2280 C.2   1 <1>   0.4250 
  8 N        3.3770     1.5050     2.5010 N.2   1 <1>  -0.3380 
  9 O       -2.2550     2.8120    -1.6800 O.2   1 <1>  -0.5700 
 10 N       -2.9680     2.0130     0.3080 N.am  1 <1>  -0.7300 
 11 C        4.5490     1.8920     0.3530 C.ar  1 <1>   0.0530 
 12 C       -4.4320     2.0870     0.1720 C.3   1 <1>   0.3000 
 13 C        5.5610     0.9250     0.2860 C.ar  1 <1>   0.0830 
 14 C        4.6630     3.0170    -0.4650 C.ar  1 <1>  -0.1500 
 15 C       -4.9190     1.2100    -0.9980 C.3   1 <1>  -0.1600 
 16 C       -4.8890     3.5430    -0.0400 C.3   1 <1>  -0.1600 
 17 C       -5.0460     1.5570     1.4810 C.3   1 <1>  -0.1600 
 18 O        5.4280    -0.1810     1.0590 O.3   1 <1>  -0.3630 
 19 C        6.6490     1.1050    -0.5660 C.ar  1 <1>  -0.1500 
 20 C        5.7410     3.1900    -1.3110 C.ar  1 <1>  -0.1500 
 21 C       -6.4560     1.2630    -1.0890 C.3   1 <1>  -0.0800 
 22 C       -6.4260     3.6030    -0.1280 C.3   1 <1>  -0.0800 
 23 C       -6.5840     1.6060     1.4090 C.3   1 <1>  -0.0800 
 24 C        6.4480    -1.1460     1.1900 C.3   1 <1>   0.0400 
 25 C        6.7380     2.2330    -1.3600 C.ar  1 <1>  -0.1500 
 26 C       -6.8990     2.7240    -1.3030 C.3   1 <1>  -0.1600 
 27 C       -7.0610     0.7400     0.2270 C.3   1 <1>  -0.1600 
 28 C       -7.0310     3.0630     1.1820 C.3   1 <1>  -0.1600 
 29 H       -0.1110     1.3860    -0.7520 H     1 <1>   0.0800 
 30 H       -0.0030     3.1120    -0.4360 H     1 <1>   0.0800 
 31 H       -2.6620     1.6810     1.2240 H     1 <1>   0.3700 
 32 H        3.8950     3.7700    -0.4320 H     1 <1>   0.1500 
 33 H       -4.5980     0.1950    -0.8530 H     1 <1>   0.0800 
 34 H       -4.5020     1.5660    -1.9230 H     1 <1>   0.0800 
 35 H       -4.4710     3.9310    -0.9510 H     1 <1>   0.0800 
 36 H       -4.5470     4.1560     0.7750 H     1 <1>   0.0800 
 37 H       -4.7320     0.5410     1.6470 H     1 <1>   0.0800 
 38 H       -4.7120     2.1550     2.3100 H     1 <1>   0.0800 
 39 H        7.4340     0.3770    -0.6290 H     1 <1>   0.1500 
 40 H        5.8090     4.0680    -1.9310 H     1 <1>   0.1500 
 41 H       -6.7930     0.6570    -1.9130 H     1 <1>   0.0800 
 42 H       -6.7420     4.6210    -0.2840 H     1 <1>   0.0800 
 43 H       -7.0070     1.2340     2.3270 H     1 <1>   0.0800 
 44 H        6.1230    -1.8780     1.9070 H     1 <1>   0.0800 
 45 H        7.3430    -0.6630     1.5410 H     1 <1>   0.0800 
 46 H        6.6100    -1.6160     0.2360 H     1 <1>   0.0800 
 47 H        7.5810     2.3670    -2.0170 H     1 <1>   0.1500 
 48 H       -7.9710     2.7720    -1.3850 H     1 <1>   0.0800 
 49 H       -6.4860     3.0980    -2.2250 H     1 <1>   0.0800 
 50 H       -6.7680    -0.2840     0.3820 H     1 <1>   0.0800 
 51 H       -8.1360     0.7650     0.1680 H     1 <1>   0.0800 
 52 H       -8.1050     3.1100     1.1320 H     1 <1>   0.0800 
 53 H       -6.7170     3.6760     2.0080 H     1 <1>   0.0800 
@<TRIPOS>BOND
  1   1   2  1   
  2   1   3  1   
  3   2   4  1   
  4   2   5  2   
  5   3   6  1   
  6   3  29  1   
  7   3  30  1   
  8   4   7  1   
  9   5   8  1   
 10   6   9  2   
 11   6  10  am  
 12   7   8  2   
 13   7  11  1   
 14  10  12  1   
 15  10  31  1   
 16  11  13  ar  
 17  11  14  ar  
 18  12  15  1   
 19  12  16  1   
 20  12  17  1   
 21  13  18  1   
 22  13  19  ar  
 23  14  20  ar  
 24  14  32  1   
 25  15  21  1   
 26  15  33  1   
 27  15  34  1   
 28  16  22  1   
 29  16  35  1   
 30  16  36  1   
 31  17  23  1   
 32  17  37  1   
 33  17  38  1   
 34  18  24  1   
 35  19  25  ar  
 36  19  39  1   
 37  20  25  ar  
 38  20  40  1   
 39  21  26  1   
 40  21  27  1   
 41  21  41  1   
 42  22  26  1   
 43  22  28  1   
 44  22  42  1   
 45  23  27  1   
 46  23  28  1   
 47  23  43  1   
 48  24  44  1   
 49  24  45  1   
 50  24  46  1   
 51  25  47  1   
 52  26  48  1   
 53  26  49  1   
 54  27  50  1   
 55  27  51  1   
 56  28  52  1   
 57  28  53  1   
@<TRIPOS>SUBSTRUCTURE
  1 ****   3 GROUP 4 **** **** 0

# MOE 2024.06 (io_trps.svl 2023.06)
