@<TRIPOS>MOLECULE
NONAME
40 42 1 0 0 
SMALL
USER_CHARGES


@<TRIPOS>ATOM
  1 O       -4.1370    -3.3820     0.1620 O.2   1 <1>  -0.5700 
  2 C       -4.8380    -2.4110     0.2220 C.2   1 <1>   0.4480 
  3 C       -6.3690    -2.4470     0.0380 C.3   1 <1>   0.0610 
  4 C       -4.1740    -1.0600     0.5060 C.3   1 <1>   0.4040 
  5 C       -7.0400    -2.2030     1.4090 C.3   1 <1>  -0.1600 
  6 C       -6.7880    -3.8220    -0.5460 C.3   1 <1>  -0.1600 
  7 C       -6.8270    -1.3370    -0.9350 C.3   1 <1>  -0.1600 
  8 N       -2.7180    -1.2270     0.8580 N.4   1 <1>  -0.9060 
  9 C       -8.5730    -2.0730     1.3640 C.3   1 <1>  -0.0800 
 10 C       -8.2570    -3.9480    -0.9930 C.3   1 <1>  -0.0800 
 11 C       -8.3480    -1.3840    -1.1220 C.3   1 <1>  -0.0800 
 12 C       -1.9290     0.0380     0.8720 C.3   1 <1>   0.2630 
 13 C       -9.2760    -3.4400     1.3950 C.3   1 <1>  -0.1600 
 14 C       -9.0580    -1.1580     0.2240 C.3   1 <1>  -0.1600 
 15 C       -9.2140    -4.3330     0.1450 C.3   1 <1>  -0.1600 
 16 C       -8.7400    -2.7150    -1.7730 C.3   1 <1>  -0.1600 
 17 H       -4.6910    -0.5710     1.3130 H     1 <1>   0.0800 
 18 H       -4.2640    -0.4500    -0.3760 H     1 <1>   0.0800 
 19 H       -6.6660    -1.2860     1.8260 H     1 <1>   0.0800 
 20 H       -6.7660    -2.9910     2.0910 H     1 <1>   0.0800 
 21 H       -6.5610    -4.6050     0.1570 H     1 <1>   0.0800 
 22 H       -6.1810    -4.0090    -1.4160 H     1 <1>   0.0800 
 23 H       -6.3500    -1.4670    -1.8920 H     1 <1>   0.0800 
 24 H       -6.5690    -0.3620    -0.5630 H     1 <1>   0.0800 
 25 H       -2.3320    -1.9080     0.1820 H     1 <1>   0.4500 
 26 H       -2.6520    -1.7220     1.7590 H     1 <1>   0.4500 
 27 H       -8.8650    -1.5940     2.2840 H     1 <1>   0.0800 
 28 H       -8.2980    -4.7750    -1.6830 H     1 <1>   0.0800 
 29 H       -8.6410    -0.5920    -1.7910 H     1 <1>   0.0800 
 30 H       -1.9610     0.5130    -0.0960 H     1 <1>   0.0800 
 31 H       -0.8980    -0.1690     1.1160 H     1 <1>   0.0800 
 32 H       -2.3240     0.7210     1.6070 H     1 <1>   0.0800 
 33 H      -10.3150    -3.2720     1.6230 H     1 <1>   0.0800 
 34 H       -8.8820    -4.0000     2.2260 H     1 <1>   0.0800 
 35 H       -8.8840    -0.1380     0.5200 H     1 <1>   0.0800 
 36 H      -10.1220    -1.2660     0.0970 H     1 <1>   0.0800 
 37 H       -8.9630    -5.3290     0.4670 H     1 <1>   0.0800 
 38 H      -10.2070    -4.3990    -0.2660 H     1 <1>   0.0800 
 39 H       -8.3030    -2.7480    -2.7560 H     1 <1>   0.0800 
 40 H       -9.8070    -2.7560    -1.9080 H     1 <1>   0.0800 
@<TRIPOS>BOND
  1   1   2  2   
  2   2   3  1   
  3   2   4  1   
  4   3   5  1   
  5   3   6  1   
  6   3   7  1   
  7   4   8  1   
  8   4  17  1   
  9   4  18  1   
 10   5   9  1   
 11   5  19  1   
 12   5  20  1   
 13   6  10  1   
 14   6  21  1   
 15   6  22  1   
 16   7  11  1   
 17   7  23  1   
 18   7  24  1   
 19   8  12  1   
 20   8  25  1   
 21   8  26  1   
 22   9  13  1   
 23   9  14  1   
 24   9  27  1   
 25  10  15  1   
 26  10  16  1   
 27  10  28  1   
 28  11  14  1   
 29  11  16  1   
 30  11  29  1   
 31  12  30  1   
 32  12  31  1   
 33  12  32  1   
 34  13  15  1   
 35  13  33  1   
 36  13  34  1   
 37  14  35  1   
 38  14  36  1   
 39  15  37  1   
 40  15  38  1   
 41  16  39  1   
 42  16  40  1   
@<TRIPOS>SUBSTRUCTURE
  1 ****   3 GROUP 4 **** **** 0

# MOE 2024.06 (io_trps.svl 2023.06)
