@<TRIPOS>MOLECULE
NONAME
34 37 1 0 0 
SMALL
USER_CHARGES


@<TRIPOS>ATOM
  1 N        0.0280     0.3060    -0.2030 N.2   1 <1>  -0.6290 
  2 C       -0.6300     1.3270     0.2400 C.2   1 <1>   0.5090 
  3 C        1.4100     0.3440    -0.1840 C.ar  1 <1>   0.1790 
  4 N       -2.0150     1.3000     0.1600 N.pl3 1 <1>  -0.7880 
  5 N        0.0240     2.4550     0.7720 N.pl3 1 <1>   0.2940 
  6 C        2.1230     1.4560     0.3000 C.ar  1 <1>   0.0530 
  7 C        2.1210    -0.7520    -0.6670 C.ar  1 <1>  -0.1500 
  8 C       -2.6740     2.2570    -0.7950 C.3   1 <1>   0.2090 
  9 C       -2.6720    -0.0510     0.2520 C.3   1 <1>   0.2090 
 10 C        1.3600     2.5550     0.7970 C.2   1 <1>   0.1330 
 11 C       -0.3630     3.6010     1.3390 C.2   1 <1>   0.0360 
 12 C        3.5190     1.4360     0.2800 C.ar  1 <1>  -0.1500 
 13 C        3.5000    -0.7590    -0.6800 C.ar  1 <1>  -0.1500 
 14 C       -4.1700     1.9390    -1.0400 C.3   1 <1>   0.3430 
 15 C       -4.1840     0.0300     0.5720 C.3   1 <1>   0.3430 
 16 N        1.7370     3.6930     1.3090 N.2   1 <1>  -0.3380 
 17 N        0.6330     4.3520     1.6530 N.2   1 <1>  -0.3380 
 18 C        4.2020     0.3410    -0.2040 C.ar  1 <1>  -0.1500 
 19 N       -4.8110     1.3440     0.1810 N.4   1 <1>  -0.9060 
 20 H        1.5730    -1.6000    -1.0350 H     1 <1>   0.1500 
 21 H       -2.1510     2.2430    -1.7380 H     1 <1>   0.0800 
 22 H       -2.5960     3.2570    -0.4030 H     1 <1>   0.0800 
 23 H       -2.1830    -0.6460     1.0070 H     1 <1>   0.0800 
 24 H       -2.5380    -0.5660    -0.6850 H     1 <1>   0.0800 
 25 H       -1.3920     3.8490     1.5100 H     1 <1>   0.1500 
 26 H        4.0580     2.2910     0.6510 H     1 <1>   0.1500 
 27 H        4.0360    -1.6120    -1.0570 H     1 <1>   0.1500 
 28 H       -4.2450     1.2430    -1.8600 H     1 <1>   0.0800 
 29 H       -4.6810     2.8430    -1.3330 H     1 <1>   0.0800 
 30 H       -4.3220    -0.1290     1.6290 H     1 <1>   0.0800 
 31 H       -4.6790    -0.7800     0.0610 H     1 <1>   0.0800 
 32 H        5.2790     0.3340    -0.2150 H     1 <1>   0.1500 
 33 H       -5.8280     1.2400     0.0600 H     1 <1>   0.4500 
 34 H       -4.6610     1.9960     0.9620 H     1 <1>   0.4500 
@<TRIPOS>BOND
  1   1   2  2   
  2   1   3  1   
  3   2   4  1   
  4   2   5  1   
  5   3   6  ar  
  6   3   7  ar  
  7   4   8  1   
  8   4   9  1   
  9   5  10  1   
 10   5  11  1   
 11   6  10  1   
 12   6  12  ar  
 13   7  13  ar  
 14   7  20  1   
 15   8  14  1   
 16   8  21  1   
 17   8  22  1   
 18   9  15  1   
 19   9  23  1   
 20   9  24  1   
 21  10  16  2   
 22  11  17  2   
 23  11  25  1   
 24  12  18  ar  
 25  12  26  1   
 26  13  18  ar  
 27  13  27  1   
 28  14  19  1   
 29  14  28  1   
 30  14  29  1   
 31  15  19  1   
 32  15  30  1   
 33  15  31  1   
 34  16  17  1   
 35  18  32  1   
 36  19  33  1   
 37  19  34  1   
@<TRIPOS>SUBSTRUCTURE
  1 ****   2 GROUP 4 **** **** 0

# MOE 2024.06 (io_trps.svl 2023.06)
