@<TRIPOS>MOLECULE
NONAME
54 55 1 0 0 
SMALL
USER_CHARGES


@<TRIPOS>ATOM
  1 O       -0.1600     0.1760    -1.9820 O.2   1 <1>  -0.5700 
  2 C       -0.1680     1.0910    -1.1950 C.2   1 <1>   0.5690 
  3 N       -1.2580     1.3790    -0.4460 N.am  1 <1>  -0.7300 
  4 C        1.0920     1.9370    -1.0360 C.3   1 <1>  -0.0190 
  5 C       -2.5570     0.7160    -0.5720 C.3   1 <1>   0.3640 
  6 C        1.7610     1.6970     0.3310 C.3   1 <1>  -0.1600 
  7 C        0.8200     3.4410    -1.2470 C.3   1 <1>  -0.1600 
  8 C       -3.6440     1.7550    -0.3210 C.ar  1 <1>  -0.1440 
  9 C       -2.6230    -0.4380     0.4230 C.3   1 <1>  -0.2400 
 10 C        3.0210     2.5510     0.4950 C.3   1 <1>   0.1400 
 11 C        2.0920     4.2710    -1.0580 C.3   1 <1>   0.1400 
 12 C       -3.7640     2.4010     0.9020 C.ar  1 <1>  -0.1500 
 13 C       -4.5350     2.0760    -1.3340 C.ar  1 <1>  -0.1500 
 14 N        2.6760     3.9840     0.2820 N.am  1 <1>  -0.6600 
 15 C       -4.7550     3.3450     1.1050 C.ar  1 <1>  -0.1500 
 16 C       -5.5250     3.0200    -1.1300 C.ar  1 <1>  -0.1500 
 17 C        2.8620     4.9860     1.2000 C.2   1 <1>   0.5690 
 18 C       -5.6460     3.6660     0.0910 C.ar  1 <1>  -0.1430 
 19 O        2.5640     6.1340     0.9720 O.2   1 <1>  -0.5700 
 20 C        3.4560     4.6900     2.5580 C.3   1 <1>  -0.1790 
 21 C       -6.7450     4.7070     0.3000 C.3   1 <1>   0.0630 
 22 C       -6.1210     6.0920     0.5570 C.3   1 <1>  -0.1600 
 23 C       -7.6860     4.2650     1.4290 C.3   1 <1>  -0.2400 
 24 C       -7.1480     7.2330     0.5830 C.3   1 <1>  -0.2400 
 25 H       -1.2750     2.2120     0.1400 H     1 <1>   0.3700 
 26 H        1.7810     1.6200    -1.7990 H     1 <1>   0.0800 
 27 H       -2.6570     0.3210    -1.5700 H     1 <1>   0.0800 
 28 H        2.0220     0.6580     0.4220 H     1 <1>   0.0800 
 29 H        1.0750     1.9340     1.1260 H     1 <1>   0.0800 
 30 H        0.0800     3.7930    -0.5500 H     1 <1>   0.0800 
 31 H        0.4370     3.6010    -2.2390 H     1 <1>   0.0800 
 32 H       -2.4600    -0.0950     1.4280 H     1 <1>   0.0800 
 33 H       -1.8790    -1.1730     0.1730 H     1 <1>   0.0800 
 34 H       -3.5910    -0.9030     0.3700 H     1 <1>   0.0800 
 35 H        3.7570     2.2580    -0.2350 H     1 <1>   0.0800 
 36 H        3.4400     2.3860     1.4710 H     1 <1>   0.0800 
 37 H        1.8560     5.3180    -1.1570 H     1 <1>   0.0800 
 38 H        2.8130     4.0220    -1.8170 H     1 <1>   0.0800 
 39 H       -3.0890     2.1720     1.7070 H     1 <1>   0.1500 
 40 H       -4.4620     1.5930    -2.2930 H     1 <1>   0.1500 
 41 H       -4.8280     3.8320     2.0610 H     1 <1>   0.1500 
 42 H       -6.2030     3.2500    -1.9330 H     1 <1>   0.1500 
 43 H        4.4440     4.2880     2.4440 H     1 <1>   0.0800 
 44 H        2.8330     3.9920     3.0840 H     1 <1>   0.0800 
 45 H        3.5170     5.5960     3.1310 H     1 <1>   0.0800 
 46 H       -7.3270     4.7700    -0.6040 H     1 <1>   0.0800 
 47 H       -5.4100     6.2920    -0.2260 H     1 <1>   0.0800 
 48 H       -5.5810     6.0820     1.4870 H     1 <1>   0.0800 
 49 H       -7.1840     4.2920     2.3790 H     1 <1>   0.0800 
 50 H       -8.0230     3.2590     1.2470 H     1 <1>   0.0800 
 51 H       -8.5490     4.9030     1.4750 H     1 <1>   0.0800 
 52 H       -7.7210     7.2470    -0.3280 H     1 <1>   0.0800 
 53 H       -6.6410     8.1770     0.6800 H     1 <1>   0.0800 
 54 H       -7.8200     7.1280     1.4160 H     1 <1>   0.0800 
@<TRIPOS>BOND
  1   1   2  2   
  2   2   3  am  
  3   2   4  1   
  4   3   5  1   
  5   3  25  1   
  6   4   6  1   
  7   4   7  1   
  8   4  26  1   
  9   5   8  1   
 10   5   9  1   
 11   5  27  1   
 12   6  10  1   
 13   6  28  1   
 14   6  29  1   
 15   7  11  1   
 16   7  30  1   
 17   7  31  1   
 18   8  12  ar  
 19   8  13  ar  
 20   9  32  1   
 21   9  33  1   
 22   9  34  1   
 23  10  14  1   
 24  10  35  1   
 25  10  36  1   
 26  11  14  1   
 27  11  37  1   
 28  11  38  1   
 29  12  15  ar  
 30  12  39  1   
 31  13  16  ar  
 32  13  40  1   
 33  14  17  am  
 34  15  18  ar  
 35  15  41  1   
 36  16  18  ar  
 37  16  42  1   
 38  17  19  2   
 39  17  20  1   
 40  18  21  1   
 41  20  43  1   
 42  20  44  1   
 43  20  45  1   
 44  21  22  1   
 45  21  23  1   
 46  21  46  1   
 47  22  24  1   
 48  22  47  1   
 49  22  48  1   
 50  23  49  1   
 51  23  50  1   
 52  23  51  1   
 53  24  52  1   
 54  24  53  1   
 55  24  54  1   
@<TRIPOS>SUBSTRUCTURE
  1 ****   3 GROUP 4 **** **** 0

# MOE 2024.06 (io_trps.svl 2023.06)
