@<TRIPOS>MOLECULE
NONAME
38 38 1 0 0 
SMALL
USER_CHARGES


@<TRIPOS>ATOM
  1 F       -0.5920    -0.3500     0.7090 F     1 <1>  -0.1900 
  2 C       -0.4850    -1.6060     0.3530 C.ar  1 <1>   0.1900 
  3 C       -1.6350    -2.3500     0.1030 C.ar  1 <1>   0.0820 
  4 C        0.7840    -2.1400     0.2420 C.ar  1 <1>  -0.1500 
  5 O       -2.8480    -1.7450     0.2370 O.3   1 <1>  -0.3630 
  6 C       -1.4780    -3.6830    -0.2730 C.ar  1 <1>  -0.1500 
  7 C        0.9190    -3.4660    -0.1330 C.ar  1 <1>  -0.1500 
  8 C       -4.0510    -2.4410    -0.0010 C.3   1 <1>   0.1200 
  9 C       -0.2090    -4.2310    -0.3880 C.ar  1 <1>  -0.1500 
 10 C       -5.2050    -1.4720     0.2390 C.3   1 <1>   0.1200 
 11 O       -6.4110    -2.1390     0.0070 O.3   1 <1>  -0.5600 
 12 C       -7.5390    -1.3530     0.1930 C.3   1 <1>   0.1200 
 13 C       -8.7590    -2.2340    -0.0970 C.3   1 <1>   0.3430 
 14 N      -10.0400    -1.4800     0.0630 N.4   1 <1>  -0.9060 
 15 C      -11.2310    -2.2880    -0.2370 C.3   1 <1>   0.4230 
 16 C      -12.4050    -1.3310    -0.3810 C.3   1 <1>  -0.2400 
 17 C      -11.4730    -3.2740     0.9020 C.3   1 <1>  -0.2400 
 18 H        1.6440    -1.5280     0.4450 H     1 <1>   0.1500 
 19 H       -2.3250    -4.3090    -0.4800 H     1 <1>   0.1500 
 20 H        1.8990    -3.9030    -0.2260 H     1 <1>   0.1500 
 21 H       -4.1050    -3.2690     0.6840 H     1 <1>   0.0800 
 22 H       -4.0500    -2.7810    -1.0210 H     1 <1>   0.0800 
 23 H       -0.0970    -5.2620    -0.6790 H     1 <1>   0.1500 
 24 H       -5.1300    -0.6400    -0.4410 H     1 <1>   0.0800 
 25 H       -5.1860    -1.1270     1.2590 H     1 <1>   0.0800 
 26 H       -7.4900    -0.5230    -0.4910 H     1 <1>   0.0800 
 27 H       -7.5470    -1.0080     1.2130 H     1 <1>   0.0800 
 28 H       -8.7410    -3.0730     0.5780 H     1 <1>   0.0800 
 29 H       -8.6800    -2.6060    -1.1060 H     1 <1>   0.0800 
 30 H      -10.0440    -0.6670    -0.5640 H     1 <1>   0.4500 
 31 H      -10.1300    -1.1270     1.0220 H     1 <1>   0.4500 
 32 H      -11.0930    -2.8250    -1.1640 H     1 <1>   0.0800 
 33 H      -12.5760    -0.7780     0.5270 H     1 <1>   0.0800 
 34 H      -13.2990    -1.8890    -0.6010 H     1 <1>   0.0800 
 35 H      -12.2440    -0.6460    -1.1950 H     1 <1>   0.0800 
 36 H      -11.5940    -2.7660     1.8420 H     1 <1>   0.0800 
 37 H      -10.6730    -3.9880     0.9790 H     1 <1>   0.0800 
 38 H      -12.3750    -3.8290     0.7090 H     1 <1>   0.0800 
@<TRIPOS>BOND
  1   1   2  1   
  2   2   3  ar  
  3   2   4  ar  
  4   3   5  1   
  5   3   6  ar  
  6   4   7  ar  
  7   4  18  1   
  8   5   8  1   
  9   6   9  ar  
 10   6  19  1   
 11   7   9  ar  
 12   7  20  1   
 13   8  10  1   
 14   8  21  1   
 15   8  22  1   
 16   9  23  1   
 17  10  11  1   
 18  10  24  1   
 19  10  25  1   
 20  11  12  1   
 21  12  13  1   
 22  12  26  1   
 23  12  27  1   
 24  13  14  1   
 25  13  28  1   
 26  13  29  1   
 27  14  15  1   
 28  14  30  1   
 29  14  31  1   
 30  15  16  1   
 31  15  17  1   
 32  15  32  1   
 33  16  33  1   
 34  16  34  1   
 35  16  35  1   
 36  17  36  1   
 37  17  37  1   
 38  17  38  1   
@<TRIPOS>SUBSTRUCTURE
  1 ****  10 GROUP 4 **** **** 0

# MOE 2024.06 (io_trps.svl 2023.06)
