@<TRIPOS>MOLECULE
NONAME
49 50 1 0 0 
SMALL
USER_CHARGES


@<TRIPOS>ATOM
  1 O        0.4560     0.6210     0.6180 O.2   1 <1>  -0.5700 
  2 C       -0.6170     1.0150     0.1940 C.2   1 <1>   0.5440 
  3 N       -1.5170     0.0860    -0.2510 N.am  1 <1>  -0.7300 
  4 C       -0.9360     2.4310     0.1350 C.ar  1 <1>   0.0860 
  5 C       -1.3320    -1.3810    -0.2170 C.3   1 <1>   0.1400 
  6 C        0.0410     3.4030    -0.1580 C.ar  1 <1>   0.1170 
  7 C       -2.2460     2.8600     0.3660 C.ar  1 <1>  -0.1500 
  8 C       -2.6120    -2.0310     0.3080 C.3   1 <1>  -0.1600 
  9 N        1.3710     3.0020    -0.3620 N.am  1 <1>  -0.5470 
 10 C       -0.3320     4.7440    -0.2230 C.ar  1 <1>  -0.1500 
 11 C       -2.5980     4.1930     0.2950 C.ar  1 <1>  -0.1500 
 12 C       -2.4770    -3.5570     0.3650 C.3   1 <1>  -0.2400 
 13 C        2.4650     3.6090    -0.9110 C.2   1 <1>   0.5690 
 14 C       -1.6350     5.1390    -0.0040 C.ar  1 <1>  -0.1500 
 15 O        2.4570     4.7140    -1.3900 O.2   1 <1>  -0.5700 
 16 C        3.7630     2.8310    -0.9080 C.3   1 <1>  -0.0990 
 17 C        4.4950     2.9820     0.4300 C.3   1 <1>  -0.0170 
 18 C        5.7890     2.1840     0.4200 C.ar  1 <1>  -0.1430 
 19 C        6.9660     2.7650    -0.0270 C.ar  1 <1>  -0.1500 
 20 C        5.8040     0.8680     0.8560 C.ar  1 <1>  -0.1500 
 21 C        8.1470     2.0430    -0.0380 C.ar  1 <1>  -0.1500 
 22 C        6.9830     0.1440     0.8460 C.ar  1 <1>  -0.1500 
 23 C        8.1610     0.7220     0.4010 C.ar  1 <1>   0.0830 
 24 O        9.2720    -0.0560     0.4260 O.3   1 <1>  -0.3630 
 25 C       10.5250     0.4430     0.0120 C.3   1 <1>   0.0400 
 26 H       -2.3610     0.4060    -0.7270 H     1 <1>   0.3700 
 27 H       -0.5040    -1.6350     0.4250 H     1 <1>   0.0800 
 28 H       -1.1140    -1.7340    -1.2100 H     1 <1>   0.0800 
 29 H       -3.0040     2.1380     0.6130 H     1 <1>   0.1500 
 30 H       -3.4370    -1.7770    -0.3350 H     1 <1>   0.0800 
 31 H       -2.8170    -1.6600     1.2970 H     1 <1>   0.0800 
 32 H        1.5350     2.0370    -0.0420 H     1 <1>   0.3700 
 33 H        0.4020     5.4970    -0.4430 H     1 <1>   0.1500 
 34 H       -3.6150     4.5000     0.4730 H     1 <1>   0.1500 
 35 H       -2.2860    -3.9570    -0.6150 H     1 <1>   0.0800 
 36 H       -3.3860    -3.9930     0.7410 H     1 <1>   0.0800 
 37 H       -1.6690    -3.8390     1.0180 H     1 <1>   0.0800 
 38 H       -1.9000     6.1810    -0.0620 H     1 <1>   0.1500 
 39 H        4.3880     3.1970    -1.7020 H     1 <1>   0.0800 
 40 H        3.5600     1.7930    -1.1000 H     1 <1>   0.0800 
 41 H        3.8660     2.6390     1.2330 H     1 <1>   0.0800 
 42 H        4.7100     4.0220     0.6070 H     1 <1>   0.0800 
 43 H        6.9650     3.7850    -0.3700 H     1 <1>   0.1500 
 44 H        4.8990     0.4010     1.2050 H     1 <1>   0.1500 
 45 H        9.0390     2.5230    -0.3900 H     1 <1>   0.1500 
 46 H        6.9970    -0.8760     1.1840 H     1 <1>   0.1500 
 47 H       11.2500    -0.3420     0.1240 H     1 <1>   0.0800 
 48 H       10.7910     1.2790     0.6350 H     1 <1>   0.0800 
 49 H       10.4600     0.7360    -1.0210 H     1 <1>   0.0800 
@<TRIPOS>BOND
  1   1   2  2   
  2   2   3  am  
  3   2   4  1   
  4   3   5  1   
  5   3  26  1   
  6   4   6  ar  
  7   4   7  ar  
  8   5   8  1   
  9   5  27  1   
 10   5  28  1   
 11   6   9  1   
 12   6  10  ar  
 13   7  11  ar  
 14   7  29  1   
 15   8  12  1   
 16   8  30  1   
 17   8  31  1   
 18   9  13  am  
 19   9  32  1   
 20  10  14  ar  
 21  10  33  1   
 22  11  14  ar  
 23  11  34  1   
 24  12  35  1   
 25  12  36  1   
 26  12  37  1   
 27  13  15  2   
 28  13  16  1   
 29  14  38  1   
 30  16  17  1   
 31  16  39  1   
 32  16  40  1   
 33  17  18  1   
 34  17  41  1   
 35  17  42  1   
 36  18  19  ar  
 37  18  20  ar  
 38  19  21  ar  
 39  19  43  1   
 40  20  22  ar  
 41  20  44  1   
 42  21  23  ar  
 43  21  45  1   
 44  22  23  ar  
 45  22  46  1   
 46  23  24  1   
 47  24  25  1   
 48  25  47  1   
 49  25  48  1   
 50  25  49  1   
@<TRIPOS>SUBSTRUCTURE
  1 ****   9 GROUP 4 **** **** 0

# MOE 2024.06 (io_trps.svl 2023.06)
