@<TRIPOS>MOLECULE
NONAME
33 34 1 0 0 
SMALL
USER_CHARGES


@<TRIPOS>ATOM
  1 S        0.1630     0.1100    -1.1750 S.2   1 <1>  -0.3800 
  2 C        0.9890    -1.1110    -0.5340 C.2   1 <1>   0.5810 
  3 S        0.0990    -2.6000    -0.1510 S.3   1 <1>  -0.3710 
  4 N        2.3070    -1.0820    -0.2670 N.am  1 <1>  -0.6600 
  5 C       -1.6810    -2.3240    -0.5880 C.3   1 <1>   0.0700 
  6 C        3.1740     0.0930    -0.5090 C.3   1 <1>   0.1400 
  7 C        3.0870    -2.2000     0.3100 C.3   1 <1>   0.1400 
  8 C       -2.3650    -1.6010     0.5760 C.3   1 <1>   0.1400 
  9 C        4.4830    -0.2350     0.2000 C.3   1 <1>  -0.1600 
 10 C        4.5430    -1.7590     0.2090 C.3   1 <1>  -0.1600 
 11 N       -3.8080    -1.3980     0.2950 N.am  1 <1>  -0.4200 
 12 C       -4.7220    -2.4020     0.2210 C.2   1 <1>   0.5690 
 13 C       -4.3960    -0.1820     0.1370 C.2   1 <1>   0.5690 
 14 O       -4.4910    -3.5760     0.3390 O.2   1 <1>  -0.5700 
 15 C       -6.1060    -1.8530    -0.0380 C.3   1 <1>  -0.0990 
 16 O       -3.8460     0.8860     0.1900 O.2   1 <1>  -0.5700 
 17 C       -5.8800    -0.3310    -0.1060 C.3   1 <1>  -0.0990 
 18 H       -2.1080    -3.3000    -0.7380 H     1 <1>   0.0800 
 19 H       -1.7260    -1.7610    -1.5030 H     1 <1>   0.0800 
 20 H        2.7280     0.9930    -0.1190 H     1 <1>   0.0800 
 21 H        3.3360     0.1970    -1.5680 H     1 <1>   0.0800 
 22 H        2.9160    -3.1140    -0.2340 H     1 <1>   0.0800 
 23 H        2.8040    -2.3320     1.3400 H     1 <1>   0.0800 
 24 H       -1.8930    -0.6480     0.7410 H     1 <1>   0.0800 
 25 H       -2.2660    -2.1910     1.4700 H     1 <1>   0.0800 
 26 H        4.4350     0.1360     1.2090 H     1 <1>   0.0800 
 27 H        5.3280     0.2080    -0.2960 H     1 <1>   0.0800 
 28 H        4.9510    -2.1140    -0.7210 H     1 <1>   0.0800 
 29 H        5.1340    -2.1430     1.0210 H     1 <1>   0.0800 
 30 H       -6.7610    -2.1200     0.7700 H     1 <1>   0.0800 
 31 H       -6.4850    -2.2400    -0.9660 H     1 <1>   0.0800 
 32 H       -6.1310     0.0650    -1.0740 H     1 <1>   0.0800 
 33 H       -6.4300     0.1870     0.6580 H     1 <1>   0.0800 
@<TRIPOS>BOND
  1   1   2  2   
  2   2   3  1   
  3   2   4  am  
  4   3   5  1   
  5   4   6  1   
  6   4   7  1   
  7   5   8  1   
  8   5  18  1   
  9   5  19  1   
 10   6   9  1   
 11   6  20  1   
 12   6  21  1   
 13   7  10  1   
 14   7  22  1   
 15   7  23  1   
 16   8  11  1   
 17   8  24  1   
 18   8  25  1   
 19   9  10  1   
 20   9  26  1   
 21   9  27  1   
 22  10  28  1   
 23  10  29  1   
 24  11  12  am  
 25  11  13  am  
 26  12  14  2   
 27  12  15  1   
 28  13  16  2   
 29  13  17  1   
 30  15  17  1   
 31  15  30  1   
 32  15  31  1   
 33  17  32  1   
 34  17  33  1   
@<TRIPOS>SUBSTRUCTURE
  1 ****   5 GROUP 4 **** **** 0

# MOE 2024.06 (io_trps.svl 2023.06)
