@<TRIPOS>MOLECULE
NONAME
37 39 1 0 0 
SMALL
USER_CHARGES


@<TRIPOS>ATOM
  1 S        0.1070    -0.1750     1.0560 S.o2  1 <1>   1.3330 
  2 O        0.9550    -0.5670     2.1560 O.2   1 <1>  -0.6500 
  3 O       -1.2990     0.0590     1.2780 O.2   1 <1>  -0.6500 
  4 N        0.7830     1.2800     0.3740 N.am  1 <1>  -0.5140 
  5 C        0.2850    -1.3270    -0.2880 C.3   1 <1>  -0.1350 
  6 N        2.0660     1.3950    -0.1110 N.2   1 <1>  -0.4300 
  7 C        0.3210     2.5330     0.9760 C.3   1 <1>   0.4560 
  8 C        2.5100     2.5750     0.0630 C.2   1 <1>   0.4750 
  9 C       -0.9380     3.0570     0.2980 C.2   1 <1>  -0.1400 
 10 C        1.4990     3.4720     0.7360 C.3   1 <1>  -0.0990 
 11 C        3.8320     3.0540    -0.2800 C.2   1 <1>  -0.0860 
 12 S       -1.6770     4.4870     1.0070 S.3   1 <1>  -0.0800 
 13 C       -1.6440     2.6510    -0.7760 C.2   1 <1>  -0.1500 
 14 C        4.9810     2.3210    -0.3690 C.2   1 <1>  -0.0400 
 15 C        4.2480     4.3720    -0.6010 C.2   1 <1>  -0.1810 
 16 C       -2.9480     4.4870    -0.2020 C.2   1 <1>  -0.1100 
 17 C       -2.7870     3.4640    -1.0600 C.2   1 <1>  -0.1500 
 18 O        6.0060     3.0710    -0.7060 O.3   1 <1>  -0.2800 
 19 C        5.2670     0.8490    -0.1380 C.3   1 <1>  -0.0600 
 20 C        5.5720     4.3010    -0.8460 C.2   1 <1>  -0.0100 
 21 C        3.4130     5.6370    -0.6910 C.3   1 <1>  -0.0590 
 22 H        1.3200    -1.4290    -0.5490 H     1 <1>   0.0800 
 23 H       -0.2540    -0.9780    -1.1470 H     1 <1>   0.0800 
 24 H       -0.0970    -2.2870    -0.0040 H     1 <1>   0.0800 
 25 H        0.1530     2.3880     2.0300 H     1 <1>   0.0800 
 26 H        1.8780     3.8560     1.6630 H     1 <1>   0.0800 
 27 H        1.2100     4.2760     0.0880 H     1 <1>   0.0800 
 28 H       -1.4090     1.7990    -1.3890 H     1 <1>   0.1500 
 29 H       -3.6920     5.2620    -0.1400 H     1 <1>   0.1500 
 30 H       -3.4310     3.2370    -1.8920 H     1 <1>   0.1500 
 31 H        4.4090     0.3330     0.2470 H     1 <1>   0.0800 
 32 H        6.0700     0.7470     0.5690 H     1 <1>   0.0800 
 33 H        5.5630     0.3910    -1.0650 H     1 <1>   0.0800 
 34 H        6.2770     5.0650    -1.1260 H     1 <1>   0.1500 
 35 H        2.6080     5.5010    -1.3920 H     1 <1>   0.0800 
 36 H        4.0210     6.4560    -1.0330 H     1 <1>   0.0800 
 37 H        3.0150     5.8940     0.2730 H     1 <1>   0.0800 
@<TRIPOS>BOND
  1   1   2  2   
  2   1   3  2   
  3   1   4  am  
  4   1   5  1   
  5   4   6  1   
  6   4   7  1   
  7   5  22  1   
  8   5  23  1   
  9   5  24  1   
 10   6   8  2   
 11   7   9  1   
 12   7  10  1   
 13   7  25  1   
 14   8  10  1   
 15   8  11  1   
 16   9  12  1   
 17   9  13  2   
 18  10  26  1   
 19  10  27  1   
 20  11  14  2   
 21  11  15  1   
 22  12  16  1   
 23  13  17  1   
 24  13  28  1   
 25  14  18  1   
 26  14  19  1   
 27  15  20  2   
 28  15  21  1   
 29  16  17  2   
 30  16  29  1   
 31  17  30  1   
 32  18  20  1   
 33  19  31  1   
 34  19  32  1   
 35  19  33  1   
 36  20  34  1   
 37  21  35  1   
 38  21  36  1   
 39  21  37  1   
@<TRIPOS>SUBSTRUCTURE
  1 ****   8 GROUP 4 **** **** 0

# MOE 2024.06 (io_trps.svl 2023.06)
