@<TRIPOS>MOLECULE
NONAME
43 45 1 0 0 
SMALL
USER_CHARGES


@<TRIPOS>ATOM
  1 CL       1.8900     1.3580    -3.2100 Cl    1 <1>  -0.1770 
  2 C        2.4300     1.3990    -1.5510 C.ar  1 <1>   0.1770 
  3 C        3.6470     0.8350    -1.2270 C.ar  1 <1>  -0.1500 
  4 C        1.6300     1.9940    -0.5940 C.ar  1 <1>  -0.1500 
  5 C        4.0870     0.8610     0.0920 C.ar  1 <1>   0.1000 
  6 C        2.0640     2.0220     0.7220 C.ar  1 <1>  -0.1500 
  7 N        5.3050     0.3030     0.4610 N.pl3 1 <1>  -0.8380 
  8 C        3.2840     1.4590     1.0560 C.ar  1 <1>  -0.1500 
  9 C        6.5310     0.9640    -0.0790 C.3   1 <1>   0.2090 
 10 C        5.3640    -1.1870     0.4880 C.3   1 <1>   0.2090 
 11 C        7.7910     0.4640     0.6570 C.3   1 <1>   0.3430 
 12 C        6.6340    -1.6720     1.2220 C.3   1 <1>   0.3430 
 13 N        7.8920    -1.0450     0.6770 N.4   1 <1>  -0.9590 
 14 C        9.1060    -1.5030     1.4010 C.3   1 <1>   0.4860 
 15 C       10.3220    -1.0090     0.6420 C.ar  1 <1>  -0.1430 
 16 C       10.7480    -1.6120    -0.5400 C.ar  1 <1>  -0.1430 
 17 C       11.0160     0.0850     1.1440 C.ar  1 <1>  -0.1500 
 18 C       11.8450    -1.0920    -1.2080 C.ar  1 <1>  -0.1500 
 19 C       10.0640    -2.8380    -1.1360 C.3   1 <1>  -0.0970 
 20 C       12.1110     0.5920     0.4710 C.ar  1 <1>  -0.1500 
 21 C       12.5230     0.0050    -0.7090 C.ar  1 <1>  -0.1500 
 22 H        4.2410     0.3810    -1.9950 H     1 <1>   0.1500 
 23 H        0.6860     2.4250    -0.8750 H     1 <1>   0.1500 
 24 H        1.4540     2.4820     1.4800 H     1 <1>   0.1500 
 25 H        3.6240     1.4810     2.0750 H     1 <1>   0.1500 
 26 H        6.4430     2.0300     0.0480 H     1 <1>   0.0800 
 27 H        6.6190     0.7630    -1.1320 H     1 <1>   0.0800 
 28 H        5.3530    -1.5680    -0.5180 H     1 <1>   0.0800 
 29 H        4.4920    -1.5650     0.9950 H     1 <1>   0.0800 
 30 H        7.7560     0.8360     1.6680 H     1 <1>   0.0800 
 31 H        8.6620     0.8850     0.1810 H     1 <1>   0.0800 
 32 H        6.6930    -2.7450     1.1470 H     1 <1>   0.0800 
 33 H        6.5290    -1.4190     2.2640 H     1 <1>   0.0800 
 34 H        8.0180    -1.3380    -0.2990 H     1 <1>   0.4500 
 35 H        9.1300    -2.5790     1.4530 H     1 <1>   0.0800 
 36 H        9.1130    -1.1120     2.4060 H     1 <1>   0.0800 
 37 H       10.7180     0.5570     2.0660 H     1 <1>   0.1500 
 38 H       12.1900    -1.5380    -2.1260 H     1 <1>   0.1500 
 39 H        9.1610    -2.5570    -1.6460 H     1 <1>   0.0800 
 40 H        9.8390    -3.5630    -0.3750 H     1 <1>   0.0800 
 41 H       10.7110    -3.3170    -1.8500 H     1 <1>   0.0800 
 42 H       12.6480     1.4400     0.8620 H     1 <1>   0.1500 
 43 H       13.3760     0.3970    -1.2380 H     1 <1>   0.1500 
@<TRIPOS>BOND
  1   1   2  1   
  2   2   3  ar  
  3   2   4  ar  
  4   3   5  ar  
  5   3  22  1   
  6   4   6  ar  
  7   4  23  1   
  8   5   7  1   
  9   5   8  ar  
 10   6   8  ar  
 11   6  24  1   
 12   7   9  1   
 13   7  10  1   
 14   8  25  1   
 15   9  11  1   
 16   9  26  1   
 17   9  27  1   
 18  10  12  1   
 19  10  28  1   
 20  10  29  1   
 21  11  13  1   
 22  11  30  1   
 23  11  31  1   
 24  12  13  1   
 25  12  32  1   
 26  12  33  1   
 27  13  14  1   
 28  13  34  1   
 29  14  15  1   
 30  14  35  1   
 31  14  36  1   
 32  15  16  ar  
 33  15  17  ar  
 34  16  18  ar  
 35  16  19  1   
 36  17  20  ar  
 37  17  37  1   
 38  18  21  ar  
 39  18  38  1   
 40  19  39  1   
 41  19  40  1   
 42  19  41  1   
 43  20  21  ar  
 44  20  42  1   
 45  21  43  1   
@<TRIPOS>SUBSTRUCTURE
  1 ****   9 GROUP 4 **** **** 0

# MOE 2024.06 (io_trps.svl 2023.06)
