@<TRIPOS>MOLECULE
NONAME
51 53 1 0 0 
SMALL
USER_CHARGES


@<TRIPOS>ATOM
  1 S       -0.2300     2.3070     1.0060 S.o2  1 <1>   1.4470 
  2 O       -1.3300     2.9480     0.3270 O.2   1 <1>  -0.6500 
  3 O        0.5280     2.9920     2.0270 O.2   1 <1>  -0.6500 
  4 N        0.8620     1.8990    -0.2490 N.am  1 <1>  -0.7570 
  5 C       -0.7520     0.6690     1.5830 C.ar  1 <1>  -0.0090 
  6 C        1.8770     0.9720    -0.0600 C.ar  1 <1>   0.1990 
  7 C       -1.5260    -0.1500     0.7760 C.ar  1 <1>  -0.1500 
  8 C       -0.3680     0.1750     2.8220 C.ar  1 <1>  -0.1500 
  9 C        1.8090    -0.2760    -0.6890 C.ar  1 <1>   0.0830 
 10 C        2.9530     1.2590     0.7680 C.ar  1 <1>  -0.1500 
 11 C       -1.9190    -1.4310     1.1560 C.ar  1 <1>   0.0860 
 12 C       -0.7470    -1.0910     3.2330 C.ar  1 <1>  -0.1500 
 13 O        0.7210    -0.5230    -1.4800 O.3   1 <1>  -0.3620 
 14 C        2.8180    -1.2100    -0.4830 C.ar  1 <1>  -0.1500 
 15 C        3.9530     0.3250     0.9730 C.ar  1 <1>  -0.1500 
 16 C       -1.5160    -1.8950     2.4110 C.ar  1 <1>  -0.1430 
 17 C       -2.7180    -2.2220     0.2390 C.2   1 <1>   0.5440 
 18 C        0.3410    -1.8550    -1.7650 C.3   1 <1>   0.0400 
 19 C        3.8850    -0.9080     0.3480 C.ar  1 <1>  -0.1500 
 20 C       -1.9140    -3.2880     2.8820 C.3   1 <1>  -0.0970 
 21 O       -2.2080    -3.1750    -0.3210 O.2   1 <1>  -0.5700 
 22 N       -4.0300    -1.8970    -0.0340 N.am  1 <1>  -0.6600 
 23 C       -4.7970    -0.8490     0.6960 C.3   1 <1>   0.1400 
 24 C       -4.7950    -2.5480    -1.1330 C.3   1 <1>   0.1400 
 25 C       -5.2340     0.2400    -0.2890 C.3   1 <1>  -0.1600 
 26 C       -5.2420    -1.4820    -2.1400 C.3   1 <1>  -0.1600 
 27 C       -6.0300    -0.3510    -1.4620 C.3   1 <1>  -0.1600 
 28 H        0.3250     1.7330    -1.0960 H     1 <1>   0.4200 
 29 H       -1.8330     0.2070    -0.1920 H     1 <1>   0.1500 
 30 H        0.2390     0.7840     3.4720 H     1 <1>   0.1500 
 31 H        3.0020     2.2190     1.2510 H     1 <1>   0.1500 
 32 H       -0.4310    -1.4450     4.2000 H     1 <1>   0.1500 
 33 H        2.7920    -2.1720    -0.9590 H     1 <1>   0.1500 
 34 H        4.7830     0.5590     1.6170 H     1 <1>   0.1500 
 35 H       -0.6340    -1.8380    -2.2200 H     1 <1>   0.0800 
 36 H        0.2970    -2.4140    -0.8460 H     1 <1>   0.0800 
 37 H        1.0520    -2.2870    -2.4440 H     1 <1>   0.0800 
 38 H        4.6650    -1.6340     0.5070 H     1 <1>   0.1500 
 39 H       -2.9830    -3.4000     2.8480 H     1 <1>   0.0800 
 40 H       -1.5850    -3.4680     3.8890 H     1 <1>   0.0800 
 41 H       -1.4720    -4.0310     2.2410 H     1 <1>   0.0800 
 42 H       -4.2120    -0.4140     1.4870 H     1 <1>   0.0800 
 43 H       -5.6650    -1.3030     1.1420 H     1 <1>   0.0800 
 44 H       -5.6530    -3.0460    -0.7160 H     1 <1>   0.0800 
 45 H       -4.1920    -3.2870    -1.6350 H     1 <1>   0.0800 
 46 H       -4.3610     0.7470    -0.6610 H     1 <1>   0.0800 
 47 H       -5.8370     0.9650     0.2280 H     1 <1>   0.0800 
 48 H       -5.8500    -1.9440    -2.8980 H     1 <1>   0.0800 
 49 H       -4.3690    -1.0780    -2.6220 H     1 <1>   0.0800 
 50 H       -6.2490     0.4210    -2.1790 H     1 <1>   0.0800 
 51 H       -6.9660    -0.7400    -1.0970 H     1 <1>   0.0800 
@<TRIPOS>BOND
  1   1   2  2   
  2   1   3  2   
  3   1   4  am  
  4   1   5  1   
  5   4   6  1   
  6   4  28  1   
  7   5   7  ar  
  8   5   8  ar  
  9   6   9  ar  
 10   6  10  ar  
 11   7  11  ar  
 12   7  29  1   
 13   8  12  ar  
 14   8  30  1   
 15   9  13  1   
 16   9  14  ar  
 17  10  15  ar  
 18  10  31  1   
 19  11  16  ar  
 20  11  17  1   
 21  12  16  ar  
 22  12  32  1   
 23  13  18  1   
 24  14  19  ar  
 25  14  33  1   
 26  15  19  ar  
 27  15  34  1   
 28  16  20  1   
 29  17  21  2   
 30  17  22  am  
 31  18  35  1   
 32  18  36  1   
 33  18  37  1   
 34  19  38  1   
 35  20  39  1   
 36  20  40  1   
 37  20  41  1   
 38  22  23  1   
 39  22  24  1   
 40  23  25  1   
 41  23  42  1   
 42  23  43  1   
 43  24  26  1   
 44  24  44  1   
 45  24  45  1   
 46  25  27  1   
 47  25  46  1   
 48  25  47  1   
 49  26  27  1   
 50  26  48  1   
 51  26  49  1   
 52  27  50  1   
 53  27  51  1   
@<TRIPOS>SUBSTRUCTURE
  1 ****   7 GROUP 4 **** **** 0

# MOE 2024.06 (io_trps.svl 2023.06)
