@<TRIPOS>MOLECULE
NONAME
55 57 1 0 0 
SMALL
USER_CHARGES


@<TRIPOS>ATOM
  1 O        0.5580    -1.5750    -2.3200 O.2   1 <1>  -0.5700 
  2 C        0.2670    -1.6270    -1.1390 C.2   1 <1>   0.5440 
  3 N        1.2640    -1.5040    -0.2010 N.am  1 <1>  -0.5470 
  4 C       -1.1230    -1.8070    -0.7380 C.ar  1 <1>   0.0860 
  5 C        2.6430    -1.2570    -0.3010 C.ar  1 <1>   0.1170 
  6 C       -1.5350    -2.2670     0.5300 C.ar  1 <1>   0.0830 
  7 C       -2.1300    -1.5060    -1.6610 C.ar  1 <1>  -0.1500 
  8 C        3.4680    -1.6760     0.7360 C.ar  1 <1>  -0.1500 
  9 C        3.2200    -0.5980    -1.3810 C.ar  1 <1>  -0.1500 
 10 O       -0.5920    -2.5870     1.4570 O.3   1 <1>  -0.3630 
 11 C       -2.8930    -2.3960     0.8250 C.ar  1 <1>  -0.1500 
 12 C       -3.4710    -1.6390    -1.3640 C.ar  1 <1>  -0.1500 
 13 C        4.8330    -1.4470     0.7100 C.ar  1 <1>  -0.1430 
 14 C        4.5820    -0.3580    -1.4350 C.ar  1 <1>  -0.1430 
 15 C       -0.9020    -3.1740     2.7040 C.3   1 <1>   0.0400 
 16 C       -3.8550    -2.0850    -0.1150 C.ar  1 <1>  -0.1500 
 17 C        5.3840    -0.7730    -0.3750 C.ar  1 <1>   0.0830 
 18 C        5.7050    -1.9400     1.8560 C.3   1 <1>  -0.0970 
 19 C        5.1700     0.3440    -2.6520 C.3   1 <1>  -0.0970 
 20 O        6.7150    -0.5260    -0.4060 O.3   1 <1>  -0.3630 
 21 C        7.1090     0.7520     0.0710 C.3   1 <1>   0.1810 
 22 C        8.4820     1.1560    -0.4630 C.2   1 <1>   0.5690 
 23 O        8.5450     2.1980    -1.0750 O.2   1 <1>  -0.5700 
 24 N        9.6040     0.3930    -0.2390 N.am  1 <1>  -0.6600 
 25 C       10.9320     0.7710    -0.8090 C.3   1 <1>   0.1400 
 26 C        9.6270    -0.9170     0.4800 C.3   1 <1>   0.1400 
 27 C       12.0450     0.6030     0.2380 C.3   1 <1>   0.1200 
 28 C       10.8210    -0.9910     1.4480 C.3   1 <1>   0.1200 
 29 O       12.0160    -0.6830     0.7900 O.3   1 <1>  -0.5600 
 30 H        0.9340    -1.7350     0.7390 H     1 <1>   0.3700 
 31 H       -1.8500    -1.1570    -2.6420 H     1 <1>   0.1500 
 32 H        3.0290    -2.1940     1.5680 H     1 <1>   0.1500 
 33 H        2.5930    -0.2690    -2.1890 H     1 <1>   0.1500 
 34 H       -3.2280    -2.7380     1.7850 H     1 <1>   0.1500 
 35 H       -4.2160    -1.3970    -2.1030 H     1 <1>   0.1500 
 36 H        0.0200    -3.3800     3.2170 H     1 <1>   0.0800 
 37 H       -1.4370    -4.0920     2.5360 H     1 <1>   0.0800 
 38 H       -1.4920    -2.4830     3.2800 H     1 <1>   0.0800 
 39 H       -4.9000    -2.1880     0.1220 H     1 <1>   0.1500 
 40 H        5.1570    -2.6080     2.4960 H     1 <1>   0.0800 
 41 H        6.0480    -1.1070     2.4410 H     1 <1>   0.0800 
 42 H        6.5550    -2.4700     1.4660 H     1 <1>   0.0800 
 43 H        4.4970     0.2830    -3.4880 H     1 <1>   0.0800 
 44 H        6.0990    -0.1190    -2.9360 H     1 <1>   0.0800 
 45 H        5.3520     1.3790    -2.4310 H     1 <1>   0.0800 
 46 H        7.1260     0.7220     1.1440 H     1 <1>   0.0800 
 47 H        6.3820     1.4770    -0.2460 H     1 <1>   0.0800 
 48 H       10.9210     1.7910    -1.1500 H     1 <1>   0.0800 
 49 H       11.1450     0.1410    -1.6550 H     1 <1>   0.0800 
 50 H        9.7060    -1.7120    -0.2410 H     1 <1>   0.0800 
 51 H        8.7210    -1.0660     1.0380 H     1 <1>   0.0800 
 52 H       11.9300     1.3230     1.0300 H     1 <1>   0.0800 
 53 H       13.0080     0.7430    -0.2190 H     1 <1>   0.0800 
 54 H       10.9130    -1.9850     1.8470 H     1 <1>   0.0800 
 55 H       10.6900    -0.3010     2.2640 H     1 <1>   0.0800 
@<TRIPOS>BOND
  1   1   2  2   
  2   2   3  am  
  3   2   4  1   
  4   3   5  1   
  5   3  30  1   
  6   4   6  ar  
  7   4   7  ar  
  8   5   8  ar  
  9   5   9  ar  
 10   6  10  1   
 11   6  11  ar  
 12   7  12  ar  
 13   7  31  1   
 14   8  13  ar  
 15   8  32  1   
 16   9  14  ar  
 17   9  33  1   
 18  10  15  1   
 19  11  16  ar  
 20  11  34  1   
 21  12  16  ar  
 22  12  35  1   
 23  13  17  ar  
 24  13  18  1   
 25  14  17  ar  
 26  14  19  1   
 27  15  36  1   
 28  15  37  1   
 29  15  38  1   
 30  16  39  1   
 31  17  20  1   
 32  18  40  1   
 33  18  41  1   
 34  18  42  1   
 35  19  43  1   
 36  19  44  1   
 37  19  45  1   
 38  20  21  1   
 39  21  22  1   
 40  21  46  1   
 41  21  47  1   
 42  22  23  2   
 43  22  24  am  
 44  24  25  1   
 45  24  26  1   
 46  25  27  1   
 47  25  48  1   
 48  25  49  1   
 49  26  28  1   
 50  26  50  1   
 51  26  51  1   
 52  27  29  1   
 53  27  52  1   
 54  27  53  1   
 55  28  29  1   
 56  28  54  1   
 57  28  55  1   
@<TRIPOS>SUBSTRUCTURE
  1 ****   8 GROUP 4 **** **** 0

# MOE 2024.06 (io_trps.svl 2023.06)
