@<TRIPOS>MOLECULE
NONAME
39 40 1 0 0 
SMALL
USER_CHARGES


@<TRIPOS>ATOM
  1 O       -0.8210     0.5120     0.3830 O.2   1 <1>  -0.5700 
  2 C       -1.6670     1.3350     0.1310 C.2   1 <1>   0.4950 
  3 C       -1.3970     2.6590    -0.3640 C.2   1 <1>   0.0290 
  4 C       -3.0930     0.8400     0.3350 C.3   1 <1>  -0.0990 
  5 C       -2.4010     3.1890    -1.2540 C.2   1 <1>   0.4950 
  6 C       -0.2610     3.3870    -0.0310 C.2   1 <1>  -0.0380 
  7 C       -4.1570     1.8830    -0.0100 C.3   1 <1>  -0.1600 
  8 O       -2.2520     4.1490    -1.9780 O.2   1 <1>  -0.5700 
  9 C       -3.7820     2.5560    -1.3290 C.3   1 <1>  -0.0990 
 10 N        0.0260     4.5970    -0.6010 N.pl3 1 <1>  -0.6000 
 11 C        0.7580     2.9070     1.0140 C.3   1 <1>  -0.0220 
 12 C        1.0740     5.5070    -0.3590 C.ar  1 <1>   0.1000 
 13 C        1.9690     2.2380     0.3530 C.3   1 <1>  -0.2400 
 14 C        1.1650     6.3190     0.7850 C.ar  1 <1>   0.0830 
 15 C        2.0780     5.5980    -1.3140 C.ar  1 <1>  -0.1500 
 16 O        0.2280     6.3410     1.7690 O.3   1 <1>  -0.3630 
 17 C        2.2570     7.1530     0.9590 C.ar  1 <1>  -0.1500 
 18 C        3.1590     6.4450    -1.1410 C.ar  1 <1>  -0.1500 
 19 C       -1.1120     6.5900     1.4070 C.3   1 <1>   0.0400 
 20 C        3.2520     7.2210     0.0000 C.ar  1 <1>  -0.1500 
 21 H       -3.2310    -0.0270    -0.2870 H     1 <1>   0.0800 
 22 H       -3.2100     0.5270     1.3570 H     1 <1>   0.0800 
 23 H       -4.2060     2.6250     0.7700 H     1 <1>   0.0800 
 24 H       -5.1240     1.4150    -0.0880 H     1 <1>   0.0800 
 25 H       -4.5060     3.3180    -1.5570 H     1 <1>   0.0800 
 26 H       -3.7920     1.8410    -2.1330 H     1 <1>   0.0800 
 27 H       -0.6150     4.8920    -1.3590 H     1 <1>   0.4000 
 28 H        1.0970     3.7350     1.6090 H     1 <1>   0.0800 
 29 H        0.3100     2.2230     1.7100 H     1 <1>   0.0800 
 30 H        2.4720     2.9320    -0.2940 H     1 <1>   0.0800 
 31 H        1.6540     1.3890    -0.2270 H     1 <1>   0.0800 
 32 H        2.6600     1.9040     1.1050 H     1 <1>   0.0800 
 33 H        2.0120     4.9880    -2.1970 H     1 <1>   0.1500 
 34 H        2.3190     7.7540     1.8480 H     1 <1>   0.1500 
 35 H        3.9280     6.4960    -1.8920 H     1 <1>   0.1500 
 36 H       -1.6240     6.9810     2.2670 H     1 <1>   0.0800 
 37 H       -1.5700     5.6680     1.1020 H     1 <1>   0.0800 
 38 H       -1.1350     7.3080     0.6060 H     1 <1>   0.0800 
 39 H        4.0940     7.8760     0.1420 H     1 <1>   0.1500 
@<TRIPOS>BOND
  1   1   2  2   
  2   2   3  1   
  3   2   4  1   
  4   3   5  1   
  5   3   6  2   
  6   4   7  1   
  7   4  21  1   
  8   4  22  1   
  9   5   8  2   
 10   5   9  1   
 11   6  10  1   
 12   6  11  1   
 13   7   9  1   
 14   7  23  1   
 15   7  24  1   
 16   9  25  1   
 17   9  26  1   
 18  10  12  1   
 19  10  27  1   
 20  11  13  1   
 21  11  28  1   
 22  11  29  1   
 23  12  14  ar  
 24  12  15  ar  
 25  13  30  1   
 26  13  31  1   
 27  13  32  1   
 28  14  16  1   
 29  14  17  ar  
 30  15  18  ar  
 31  15  33  1   
 32  16  19  1   
 33  17  20  ar  
 34  17  34  1   
 35  18  20  ar  
 36  18  35  1   
 37  19  36  1   
 38  19  37  1   
 39  19  38  1   
 40  20  39  1   
@<TRIPOS>SUBSTRUCTURE
  1 ****   6 GROUP 4 **** **** 0

# MOE 2024.06 (io_trps.svl 2023.06)
