@<TRIPOS>MOLECULE
NONAME
42 42 1 0 0 
SMALL
USER_CHARGES


@<TRIPOS>ATOM
  1 O        2.1310    -0.1390    -3.0090 O.2   1 <1>  -0.5700 
  2 C        2.3390     0.1080    -1.8480 C.2   1 <1>   0.6590 
  3 O        3.5430     0.4930    -1.4310 O.3   1 <1>  -0.0500 
  4 C        1.2200    -0.0160    -0.8320 C.3   1 <1>  -0.1790 
  5 N        3.8660     0.8030    -0.0780 N.3   1 <1>  -0.6400 
  6 C        4.8140    -0.2290     0.4960 C.3   1 <1>   0.2700 
  7 C        4.1560     2.2810     0.0790 C.3   1 <1>   0.2700 
  8 C        6.2770     0.1880     0.2870 C.3   1 <1>  -0.1600 
  9 C        4.6140    -1.6070    -0.1680 C.3   1 <1>  -0.2400 
 10 C        4.4920    -0.4320     1.9840 C.3   1 <1>  -0.2400 
 11 C        5.6520     2.5730    -0.1090 C.3   1 <1>  -0.1600 
 12 C        3.6590     2.7450     1.4560 C.3   1 <1>  -0.2400 
 13 C        3.3750     3.1190    -0.9530 C.3   1 <1>  -0.2400 
 14 C        6.5420     1.6330     0.6940 C.3   1 <1>   0.2200 
 15 N        7.9510     1.9540     0.4090 N.am  1 <1>  -0.7300 
 16 C        8.8580     2.3450     1.3340 C.2   1 <1>   0.5690 
 17 O        8.5880     2.4680     2.5020 O.2   1 <1>  -0.5700 
 18 C       10.2600     2.6360     0.8700 C.3   1 <1>  -0.1790 
 19 H        0.3190    -0.3340    -1.3210 H     1 <1>   0.0800 
 20 H        1.4880    -0.7370    -0.0840 H     1 <1>   0.0800 
 21 H        1.0500     0.9330    -0.3620 H     1 <1>   0.0800 
 22 H        6.5230     0.0690    -0.7530 H     1 <1>   0.0800 
 23 H        6.9170    -0.4620     0.8570 H     1 <1>   0.0800 
 24 H        4.8670    -1.5840    -1.2120 H     1 <1>   0.0800 
 25 H        3.5990    -1.9390    -0.0550 H     1 <1>   0.0800 
 26 H        5.2530    -2.3380     0.2940 H     1 <1>   0.0800 
 27 H        4.8100     0.3910     2.5880 H     1 <1>   0.0800 
 28 H        5.0020    -1.2990     2.3620 H     1 <1>   0.0800 
 29 H        3.4360    -0.5790     2.1180 H     1 <1>   0.0800 
 30 H        5.8550     3.5870     0.1840 H     1 <1>   0.0800 
 31 H        5.8930     2.4740    -1.1520 H     1 <1>   0.0800 
 32 H        4.2830     2.4020     2.2540 H     1 <1>   0.0800 
 33 H        2.6540     2.4010     1.6220 H     1 <1>   0.0800 
 34 H        3.6610     3.8180     1.5120 H     1 <1>   0.0800 
 35 H        3.6900     2.9050    -1.9580 H     1 <1>   0.0800 
 36 H        3.5470     4.1670    -0.7870 H     1 <1>   0.0800 
 37 H        2.3190     2.9420    -0.8660 H     1 <1>   0.0800 
 38 H        6.3560     1.7590     1.7470 H     1 <1>   0.0800 
 39 H        8.2290     1.8660    -0.5670 H     1 <1>   0.3700 
 40 H       10.6860     1.7550     0.4270 H     1 <1>   0.0800 
 41 H       10.8640     2.9320     1.7080 H     1 <1>   0.0800 
 42 H       10.2470     3.4330     0.1510 H     1 <1>   0.0800 
@<TRIPOS>BOND
  1   1   2  2   
  2   2   3  1   
  3   2   4  1   
  4   3   5  1   
  5   4  19  1   
  6   4  20  1   
  7   4  21  1   
  8   5   6  1   
  9   5   7  1   
 10   6   8  1   
 11   6   9  1   
 12   6  10  1   
 13   7  11  1   
 14   7  12  1   
 15   7  13  1   
 16   8  14  1   
 17   8  22  1   
 18   8  23  1   
 19   9  24  1   
 20   9  25  1   
 21   9  26  1   
 22  10  27  1   
 23  10  28  1   
 24  10  29  1   
 25  11  14  1   
 26  11  30  1   
 27  11  31  1   
 28  12  32  1   
 29  12  33  1   
 30  12  34  1   
 31  13  35  1   
 32  13  36  1   
 33  13  37  1   
 34  14  15  1   
 35  14  38  1   
 36  15  16  am  
 37  15  39  1   
 38  16  17  2   
 39  16  18  1   
 40  18  40  1   
 41  18  41  1   
 42  18  42  1   
@<TRIPOS>SUBSTRUCTURE
  1 ****   5 GROUP 4 **** **** 0

# MOE 2024.06 (io_trps.svl 2023.06)
