@<TRIPOS>MOLECULE
NONAME
44 45 1 0 0 
SMALL
USER_CHARGES


@<TRIPOS>ATOM
  1 BR       0.7210    -0.1520     2.2500 Br    1 <1>  -0.1110 
  2 C        0.0880    -1.4290     0.9510 C.ar  1 <1>   0.1110 
  3 C        0.6310    -1.4560    -0.3260 C.ar  1 <1>   0.0830 
  4 C       -0.9190    -2.2940     1.3350 C.ar  1 <1>  -0.1500 
  5 O        1.6000    -0.5970    -0.7080 O.3   1 <1>  -0.3630 
  6 C        0.1410    -2.3760    -1.2380 C.ar  1 <1>  -0.1500 
  7 C       -1.4110    -3.2110     0.4130 C.ar  1 <1>  -0.1430 
  8 C        2.9250    -0.9820    -0.4220 C.3   1 <1>   0.0400 
  9 C       -0.8700    -3.2500    -0.8690 C.ar  1 <1>  -0.1500 
 10 C       -2.5350    -4.1530     0.8010 C.3   1 <1>   0.4870 
 11 N       -3.7960    -3.6770     0.1670 N.4   1 <1>  -0.9590 
 12 C       -4.2020    -2.3330     0.6740 C.3   1 <1>   0.3430 
 13 C       -4.8860    -4.6830     0.3020 C.3   1 <1>   0.3430 
 14 C       -5.4040    -1.8290    -0.1210 C.3   1 <1>  -0.1600 
 15 C       -6.1020    -4.2290    -0.5030 C.3   1 <1>  -0.1600 
 16 C       -6.5800    -2.8240    -0.0890 C.3   1 <1>  -0.0190 
 17 C       -7.7200    -2.3490    -0.9860 C.2   1 <1>   0.6590 
 18 O       -7.5690    -2.2320    -2.1730 O.2   1 <1>  -0.5700 
 19 O       -8.8640    -2.0790    -0.3770 O.3   1 <1>  -0.4300 
 20 C       -9.9900    -1.6300    -1.0960 C.3   1 <1>   0.1200 
 21 C      -11.1290    -1.4130    -0.1050 C.3   1 <1>  -0.2400 
 22 H       -1.2980    -2.2340     2.3400 H     1 <1>   0.1500 
 23 H        0.5550    -2.3990    -2.2310 H     1 <1>   0.1500 
 24 H        3.5830    -0.2100    -0.7800 H     1 <1>   0.0800 
 25 H        3.1360    -1.9090    -0.9250 H     1 <1>   0.0800 
 26 H        3.0380    -1.0960     0.6410 H     1 <1>   0.0800 
 27 H       -1.2250    -3.9580    -1.5990 H     1 <1>   0.1500 
 28 H       -2.6420    -4.1790     1.8740 H     1 <1>   0.0800 
 29 H       -2.2980    -5.1460     0.4570 H     1 <1>   0.0800 
 30 H       -3.5910    -3.5590    -0.8340 H     1 <1>   0.4500 
 31 H       -3.3880    -1.6320     0.5640 H     1 <1>   0.0800 
 32 H       -4.4570    -2.3950     1.7200 H     1 <1>   0.0800 
 33 H       -5.1600    -4.7910     1.3400 H     1 <1>   0.0800 
 34 H       -4.5550    -5.6430    -0.0630 H     1 <1>   0.0800 
 35 H       -5.1020    -1.6480    -1.1390 H     1 <1>   0.0800 
 36 H       -5.7250    -0.8860     0.2870 H     1 <1>   0.0800 
 37 H       -6.9030    -4.9340    -0.3580 H     1 <1>   0.0800 
 38 H       -5.8550    -4.2400    -1.5510 H     1 <1>   0.0800 
 39 H       -6.9570    -2.8750     0.9190 H     1 <1>   0.0800 
 40 H      -10.2500    -2.3780    -1.8270 H     1 <1>   0.0800 
 41 H       -9.7330    -0.7110    -1.5970 H     1 <1>   0.0800 
 42 H      -11.3700    -2.3350     0.3930 H     1 <1>   0.0800 
 43 H      -12.0030    -1.0700    -0.6290 H     1 <1>   0.0800 
 44 H      -10.8530    -0.6700     0.6220 H     1 <1>   0.0800 
@<TRIPOS>BOND
  1   1   2  1   
  2   2   3  ar  
  3   2   4  ar  
  4   3   5  1   
  5   3   6  ar  
  6   4   7  ar  
  7   4  22  1   
  8   5   8  1   
  9   6   9  ar  
 10   6  23  1   
 11   7   9  ar  
 12   7  10  1   
 13   8  24  1   
 14   8  25  1   
 15   8  26  1   
 16   9  27  1   
 17  10  11  1   
 18  10  28  1   
 19  10  29  1   
 20  11  12  1   
 21  11  13  1   
 22  11  30  1   
 23  12  14  1   
 24  12  31  1   
 25  12  32  1   
 26  13  15  1   
 27  13  33  1   
 28  13  34  1   
 29  14  16  1   
 30  14  35  1   
 31  14  36  1   
 32  15  16  1   
 33  15  37  1   
 34  15  38  1   
 35  16  17  1   
 36  16  39  1   
 37  17  18  2   
 38  17  19  1   
 39  19  20  1   
 40  20  21  1   
 41  20  40  1   
 42  20  41  1   
 43  21  42  1   
 44  21  43  1   
 45  21  44  1   
@<TRIPOS>SUBSTRUCTURE
  1 ****  12 GROUP 4 **** **** 0

# MOE 2024.06 (io_trps.svl 2023.06)
