@<TRIPOS>MOLECULE
NONAME
52 54 1 0 0 
SMALL
USER_CHARGES


@<TRIPOS>ATOM
  1 O        0.8930    -1.2040    -1.2460 O.2   1 <1>  -0.5700 
  2 C        0.5300    -0.1610    -0.7570 C.2   1 <1>   0.5690 
  3 N        1.0070     0.3380     0.4130 N.am  1 <1>  -0.7300 
  4 C       -0.5160     0.6760    -1.4990 C.3   1 <1>   0.1710 
  5 C        2.1090    -0.1030     1.2890 C.3   1 <1>   0.3640 
  6 N       -1.2880     1.6130    -0.6280 N.3   1 <1>  -0.8100 
  7 C        3.4080     0.5630     0.8490 C.ar  1 <1>  -0.1440 
  8 C        2.2350    -1.6240     1.3710 C.3   1 <1>  -0.2400 
  9 C       -2.2530     0.8700     0.2190 C.3   1 <1>   0.1100 
 10 C       -2.0160     2.6080    -1.4470 C.3   1 <1>   0.1100 
 11 C        3.9370     0.3320    -0.4140 C.ar  1 <1>  -0.1500 
 12 C        4.0810     1.4160     1.7130 C.ar  1 <1>  -0.1500 
 13 C       -3.0780     1.7980     1.1330 C.3   1 <1>   0.2090 
 14 C       -2.8290     3.5990    -0.5900 C.3   1 <1>   0.2090 
 15 C        5.1160     0.9420    -0.8070 C.ar  1 <1>  -0.1500 
 16 C        5.2600     2.0270     1.3220 C.ar  1 <1>  -0.1500 
 17 N       -3.7290     2.9070     0.3770 N.pl3 1 <1>  -0.8380 
 18 C        5.7790     1.7900     0.0620 C.ar  1 <1>  -0.1500 
 19 C       -5.0810     2.7860     0.0530 C.ar  1 <1>   0.1000 
 20 C       -6.0420     3.5660     0.6980 C.ar  1 <1>  -0.1440 
 21 C       -5.4930     1.8830    -0.9210 C.ar  1 <1>  -0.1500 
 22 C       -7.3800     3.4320     0.3630 C.ar  1 <1>  -0.1500 
 23 C       -5.6300     4.5660     1.7690 C.3   1 <1>  -0.0970 
 24 C       -6.8280     1.7520    -1.2520 C.ar  1 <1>  -0.1500 
 25 C       -7.7750     2.5280    -0.6090 C.ar  1 <1>  -0.1500 
 26 H        0.6230     1.2570     0.6520 H     1 <1>   0.3700 
 27 H       -1.1900     0.0120    -2.0120 H     1 <1>   0.0800 
 28 H        0.0140     1.2430    -2.2430 H     1 <1>   0.0800 
 29 H        1.8730     0.2420     2.2810 H     1 <1>   0.0800 
 30 H        2.5750    -2.0350     0.4380 H     1 <1>   0.0800 
 31 H        1.2890    -2.0620     1.6290 H     1 <1>   0.0800 
 32 H        2.9540    -1.8820     2.1260 H     1 <1>   0.0800 
 33 H       -1.7250     0.1680     0.8400 H     1 <1>   0.0800 
 34 H       -2.9300     0.3100    -0.4020 H     1 <1>   0.0800 
 35 H       -2.6860     2.1060    -2.1230 H     1 <1>   0.0800 
 36 H       -1.3110     3.1680    -2.0360 H     1 <1>   0.0800 
 37 H        3.4280    -0.3260    -1.0980 H     1 <1>   0.1500 
 38 H        3.6930     1.6110     2.6970 H     1 <1>   0.1500 
 39 H       -2.4310     2.2230     1.8790 H     1 <1>   0.0800 
 40 H       -3.8330     1.2230     1.6400 H     1 <1>   0.0800 
 41 H       -3.4160     4.2310    -1.2330 H     1 <1>   0.0800 
 42 H       -2.1500     4.2270    -0.0410 H     1 <1>   0.0800 
 43 H        5.5150     0.7540    -1.7880 H     1 <1>   0.1500 
 44 H        5.7760     2.6860     1.9990 H     1 <1>   0.1500 
 45 H        6.6950     2.2650    -0.2430 H     1 <1>   0.1500 
 46 H       -4.7610     1.2820    -1.4200 H     1 <1>   0.1500 
 47 H       -8.1240     4.0300     0.8560 H     1 <1>   0.1500 
 48 H       -5.1260     4.0510     2.5670 H     1 <1>   0.0800 
 49 H       -6.4820     5.0810     2.1720 H     1 <1>   0.0800 
 50 H       -4.9560     5.2880     1.3470 H     1 <1>   0.0800 
 51 H       -7.1310     1.0490    -2.0070 H     1 <1>   0.1500 
 52 H       -8.8160     2.4310    -0.8620 H     1 <1>   0.1500 
@<TRIPOS>BOND
  1   1   2  2   
  2   2   3  am  
  3   2   4  1   
  4   3   5  1   
  5   3  26  1   
  6   4   6  1   
  7   4  27  1   
  8   4  28  1   
  9   5   7  1   
 10   5   8  1   
 11   5  29  1   
 12   6   9  1   
 13   6  10  1   
 14   7  11  ar  
 15   7  12  ar  
 16   8  30  1   
 17   8  31  1   
 18   8  32  1   
 19   9  13  1   
 20   9  33  1   
 21   9  34  1   
 22  10  14  1   
 23  10  35  1   
 24  10  36  1   
 25  11  15  ar  
 26  11  37  1   
 27  12  16  ar  
 28  12  38  1   
 29  13  17  1   
 30  13  39  1   
 31  13  40  1   
 32  14  17  1   
 33  14  41  1   
 34  14  42  1   
 35  15  18  ar  
 36  15  43  1   
 37  16  18  ar  
 38  16  44  1   
 39  17  19  1   
 40  18  45  1   
 41  19  20  ar  
 42  19  21  ar  
 43  20  22  ar  
 44  20  23  1   
 45  21  24  ar  
 46  21  46  1   
 47  22  25  ar  
 48  22  47  1   
 49  23  48  1   
 50  23  49  1   
 51  23  50  1   
 52  24  25  ar  
 53  24  51  1   
 54  25  52  1   
@<TRIPOS>SUBSTRUCTURE
  1 ****   6 GROUP 4 **** **** 0

# MOE 2024.06 (io_trps.svl 2023.06)
