@<TRIPOS>MOLECULE
NONAME
33 35 1 0 0 
SMALL
USER_CHARGES


@<TRIPOS>ATOM
  1 I       -0.5650     0.4980    -2.0220 I     1 <1>  -0.0810 
  2 C       -1.7250    -0.7980    -0.7860 C.ar  1 <1>   0.0810 
  3 C       -1.2210    -2.0320    -0.3680 C.ar  1 <1>   0.0860 
  4 C       -2.9890    -0.3440    -0.4490 C.ar  1 <1>  -0.1500 
  5 C        0.1020    -2.5220    -0.6840 C.2   1 <1>   0.5440 
  6 C       -2.0770    -2.8150     0.4060 C.ar  1 <1>  -0.1500 
  7 C       -3.8030    -1.1450     0.3310 C.ar  1 <1>  -0.1500 
  8 O        0.2410    -3.4880    -1.4070 O.2   1 <1>  -0.5700 
  9 N        1.2040    -1.9370    -0.1320 N.am  1 <1>  -0.7300 
 10 C       -3.3450    -2.3820     0.7540 C.ar  1 <1>  -0.1500 
 11 C        2.6030    -2.3420    -0.3700 C.3   1 <1>   0.2200 
 12 C        3.3300    -2.5330     0.9740 C.3   1 <1>  -0.0800 
 13 C        3.3860    -1.1860    -1.0170 C.3   1 <1>  -0.1600 
 14 C        3.7440    -1.1110     1.3270 C.3   1 <1>  -0.1600 
 15 C        4.6960    -3.1780     0.6850 C.3   1 <1>  -0.1600 
 16 C        4.4800    -0.8720     0.0200 C.3   1 <1>  -0.0800 
 17 C        5.4870    -2.0350     0.0240 C.3   1 <1>  -0.1600 
 18 H       -3.3370     0.6160    -0.7910 H     1 <1>   0.1500 
 19 H       -1.7340    -3.7820     0.7350 H     1 <1>   0.1500 
 20 H       -4.7900    -0.8110     0.6040 H     1 <1>   0.1500 
 21 H        1.0940    -1.1210     0.4690 H     1 <1>   0.3700 
 22 H       -3.9810    -3.0100     1.3550 H     1 <1>   0.1500 
 23 H        2.6440    -3.2360    -0.9710 H     1 <1>   0.0800 
 24 H        2.7520    -3.0590     1.7140 H     1 <1>   0.0800 
 25 H        2.7590    -0.3270    -1.1740 H     1 <1>   0.0800 
 26 H        3.8110    -1.4870    -1.9580 H     1 <1>   0.0800 
 27 H        4.3940    -1.0670     2.1850 H     1 <1>   0.0800 
 28 H        2.9090    -0.4450     1.4630 H     1 <1>   0.0800 
 29 H        4.6070    -4.0350     0.0390 H     1 <1>   0.0800 
 30 H        5.1710    -3.4770     1.6040 H     1 <1>   0.0800 
 31 H        4.9290     0.1010    -0.0900 H     1 <1>   0.0800 
 32 H        5.8120    -2.2900    -0.9700 H     1 <1>   0.0800 
 33 H        6.3460    -1.7830     0.6210 H     1 <1>   0.0800 
@<TRIPOS>BOND
  1   1   2  1   
  2   2   3  ar  
  3   2   4  ar  
  4   3   5  1   
  5   3   6  ar  
  6   4   7  ar  
  7   4  18  1   
  8   5   8  2   
  9   5   9  am  
 10   6  10  ar  
 11   6  19  1   
 12   7  10  ar  
 13   7  20  1   
 14   9  11  1   
 15   9  21  1   
 16  10  22  1   
 17  11  12  1   
 18  11  13  1   
 19  11  23  1   
 20  12  14  1   
 21  12  15  1   
 22  12  24  1   
 23  13  16  1   
 24  13  25  1   
 25  13  26  1   
 26  14  16  1   
 27  14  27  1   
 28  14  28  1   
 29  15  17  1   
 30  15  29  1   
 31  15  30  1   
 32  16  17  1   
 33  16  31  1   
 34  17  32  1   
 35  17  33  1   
@<TRIPOS>SUBSTRUCTURE
  1 ****   9 GROUP 4 **** **** 0

# MOE 2024.06 (io_trps.svl 2023.06)
