@<TRIPOS>MOLECULE
NONAME
36 37 1 0 0 
SMALL
USER_CHARGES


@<TRIPOS>ATOM
  1 F        1.3430    -2.3140     2.1750 F     1 <1>  -0.1900 
  2 C        0.5660    -1.4250     1.6170 C.ar  1 <1>   0.1900 
  3 C        0.3840    -1.4150     0.2300 C.ar  1 <1>   0.0860 
  4 C       -0.0460    -0.5270     2.4730 C.ar  1 <1>  -0.1500 
  5 C        1.0190    -2.3440    -0.6930 C.2   1 <1>   0.5440 
  6 C       -0.4780    -0.4240    -0.2540 C.ar  1 <1>  -0.1500 
  7 C       -0.8880     0.4370     1.9510 C.ar  1 <1>  -0.1500 
  8 O        0.5970    -2.4600    -1.8280 O.2   1 <1>  -0.5700 
  9 N        2.0980    -3.1050    -0.3370 N.am  1 <1>  -0.7300 
 10 C       -1.1020     0.4840     0.5840 C.ar  1 <1>  -0.1500 
 11 C        2.7930    -4.0790    -1.2030 C.3   1 <1>   0.1400 
 12 C        2.3620    -5.4880    -0.8060 C.3   1 <1>  -0.1600 
 13 C        3.0010    -6.5260    -1.7280 C.3   1 <1>   0.1400 
 14 N        2.6320    -7.8840    -1.2760 N.am  1 <1>  -0.6600 
 15 C        3.4410    -8.7260    -0.5950 C.2   1 <1>   0.5690 
 16 C        1.3240    -8.4760    -1.5980 C.3   1 <1>   0.1400 
 17 O        4.5640    -8.4850    -0.2240 O.2   1 <1>  -0.5700 
 18 C        2.7560   -10.0410    -0.3510 C.3   1 <1>  -0.0990 
 19 C        1.3060    -9.7890    -0.8020 C.3   1 <1>  -0.1600 
 20 H        0.1330    -0.5840     3.5320 H     1 <1>   0.1500 
 21 H       -0.6620    -0.3670    -1.3150 H     1 <1>   0.1500 
 22 H       -1.3740     1.1450     2.6010 H     1 <1>   0.1500 
 23 H        2.4000    -3.0880     0.6410 H     1 <1>   0.3700 
 24 H       -1.7580     1.2310     0.1710 H     1 <1>   0.1500 
 25 H        3.8570    -3.9640    -1.0870 H     1 <1>   0.0800 
 26 H        2.5420    -3.8950    -2.2350 H     1 <1>   0.0800 
 27 H        1.2920    -5.5590    -0.8770 H     1 <1>   0.0800 
 28 H        2.6690    -5.6820     0.2070 H     1 <1>   0.0800 
 29 H        4.0730    -6.4260    -1.7000 H     1 <1>   0.0800 
 30 H        2.6720    -6.3830    -2.7430 H     1 <1>   0.0800 
 31 H        1.2670    -8.6650    -2.6570 H     1 <1>   0.0800 
 32 H        0.5220    -7.8240    -1.2960 H     1 <1>   0.0800 
 33 H        2.8140   -10.3080     0.6880 H     1 <1>   0.0800 
 34 H        3.2280   -10.7950    -0.9530 H     1 <1>   0.0800 
 35 H        0.9230   -10.6010    -1.3950 H     1 <1>   0.0800 
 36 H        0.6760    -9.6640     0.0600 H     1 <1>   0.0800 
@<TRIPOS>BOND
  1   1   2  1   
  2   2   3  ar  
  3   2   4  ar  
  4   3   5  1   
  5   3   6  ar  
  6   4   7  ar  
  7   4  20  1   
  8   5   8  2   
  9   5   9  am  
 10   6  10  ar  
 11   6  21  1   
 12   7  10  ar  
 13   7  22  1   
 14   9  11  1   
 15   9  23  1   
 16  10  24  1   
 17  11  12  1   
 18  11  25  1   
 19  11  26  1   
 20  12  13  1   
 21  12  27  1   
 22  12  28  1   
 23  13  14  1   
 24  13  29  1   
 25  13  30  1   
 26  14  15  am  
 27  14  16  1   
 28  15  17  2   
 29  15  18  1   
 30  16  19  1   
 31  16  31  1   
 32  16  32  1   
 33  18  19  1   
 34  18  33  1   
 35  18  34  1   
 36  19  35  1   
 37  19  36  1   
@<TRIPOS>SUBSTRUCTURE
  1 ****   9 GROUP 4 **** **** 0

# MOE 2024.06 (io_trps.svl 2023.06)
