@<TRIPOS>MOLECULE
NONAME
35 36 1 0 0 
SMALL
USER_CHARGES


@<TRIPOS>ATOM
  1 O       -1.1860     2.1200    -1.6330 O.2   1 <1>  -0.5700 
  2 C       -2.0250     1.6720    -0.9060 C.2   1 <1>   0.6590 
  3 O       -3.0690     0.9820    -1.3250 O.3   1 <1>  -0.4300 
  4 C       -2.0850     1.9020     0.5770 C.3   1 <1>  -0.0990 
  5 C       -3.9240     0.6070    -0.2780 C.3   1 <1>   0.2800 
  6 C       -3.5580     1.5870     0.8590 C.3   1 <1>  -0.0190 
  7 C       -3.5650    -0.8390     0.0910 C.3   1 <1>  -0.2400 
  8 C       -5.3680     0.6590    -0.7910 C.3   1 <1>  -0.2400 
  9 C       -4.3880     2.8670     0.8690 C.2   1 <1>   0.5690 
 10 O       -5.0110     3.1100     1.8720 O.2   1 <1>  -0.5700 
 11 N       -4.3650     3.7020    -0.2180 N.am  1 <1>  -0.5470 
 12 C       -4.8880     4.9950    -0.3500 C.ar  1 <1>   0.1170 
 13 C       -6.2450     5.3030    -0.2070 C.ar  1 <1>  -0.1440 
 14 C       -3.9980     6.0140    -0.6670 C.ar  1 <1>  -0.1500 
 15 C       -6.6690     6.6130    -0.3650 C.ar  1 <1>  -0.1500 
 16 C       -7.2950     4.2460     0.1120 C.3   1 <1>  -0.0970 
 17 C       -4.4300     7.3170    -0.8280 C.ar  1 <1>  -0.1500 
 18 C       -5.7700     7.6180    -0.6740 C.ar  1 <1>  -0.1500 
 19 H       -1.8090     2.9090     0.8350 H     1 <1>   0.0800 
 20 H       -1.4330     1.2040     1.0680 H     1 <1>   0.0800 
 21 H       -3.6700     1.1150     1.8190 H     1 <1>   0.0800 
 22 H       -2.5430    -0.9220     0.4130 H     1 <1>   0.0800 
 23 H       -3.7110    -1.4860    -0.7560 H     1 <1>   0.0800 
 24 H       -4.1980    -1.1840     0.8880 H     1 <1>   0.0800 
 25 H       -5.5900     1.5980    -1.2600 H     1 <1>   0.0800 
 26 H       -6.0550     0.5090     0.0230 H     1 <1>   0.0800 
 27 H       -5.5330    -0.1190    -1.5150 H     1 <1>   0.0800 
 28 H       -3.8080     3.3970    -1.0170 H     1 <1>   0.3700 
 29 H       -2.9540     5.7880    -0.7850 H     1 <1>   0.1500 
 30 H       -7.7090     6.8620    -0.2480 H     1 <1>   0.1500 
 31 H       -7.3290     4.0790     1.1730 H     1 <1>   0.0800 
 32 H       -7.0660     3.3200    -0.3800 H     1 <1>   0.0800 
 33 H       -8.2680     4.5640    -0.2150 H     1 <1>   0.0800 
 34 H       -3.7270     8.0950    -1.0690 H     1 <1>   0.1500 
 35 H       -6.1130     8.6310    -0.7940 H     1 <1>   0.1500 
@<TRIPOS>BOND
  1   1   2  2   
  2   2   3  1   
  3   2   4  1   
  4   3   5  1   
  5   4   6  1   
  6   4  19  1   
  7   4  20  1   
  8   5   6  1   
  9   5   7  1   
 10   5   8  1   
 11   6   9  1   
 12   6  21  1   
 13   7  22  1   
 14   7  23  1   
 15   7  24  1   
 16   8  25  1   
 17   8  26  1   
 18   8  27  1   
 19   9  10  2   
 20   9  11  am  
 21  11  12  1   
 22  11  28  1   
 23  12  13  ar  
 24  12  14  ar  
 25  13  15  ar  
 26  13  16  1   
 27  14  17  ar  
 28  14  29  1   
 29  15  18  ar  
 30  15  30  1   
 31  16  31  1   
 32  16  32  1   
 33  16  33  1   
 34  17  18  ar  
 35  17  34  1   
 36  18  35  1   
@<TRIPOS>SUBSTRUCTURE
  1 ****  11 GROUP 4 **** **** 0

# MOE 2024.06 (io_trps.svl 2023.06)
