@<TRIPOS>MOLECULE
NONAME
48 50 1 0 0 
SMALL
USER_CHARGES


@<TRIPOS>ATOM
  1 S       -0.7190    -0.0330     0.4170 S.o2  1 <1>   1.4470 
  2 O       -0.2600     0.0240     1.7890 O.2   1 <1>  -0.6500 
  3 O       -0.1130     0.8330    -0.5700 O.2   1 <1>  -0.6500 
  4 N       -0.5100    -1.6320    -0.1090 N.am  1 <1>  -0.8490 
  5 C       -2.5170     0.1870     0.3610 C.ar  1 <1>  -0.0090 
  6 C        0.8760    -1.8810    -0.5180 C.3   1 <1>   0.1960 
  7 C       -0.9390    -2.6040     0.9030 C.3   1 <1>   0.1960 
  8 C       -3.2450    -0.1750    -0.7670 C.ar  1 <1>  -0.1500 
  9 C       -3.2130     0.7290     1.4370 C.ar  1 <1>  -0.1500 
 10 C        1.0080    -3.2790    -1.1310 C.3   1 <1>  -0.1600 
 11 C       -0.8850    -4.0240     0.3310 C.3   1 <1>  -0.1600 
 12 C       -4.6170    -0.0070    -0.8190 C.ar  1 <1>  -0.1500 
 13 C       -4.5850     0.9020     1.3960 C.ar  1 <1>  -0.1500 
 14 C        0.5230    -4.3670    -0.1670 C.3   1 <1>  -0.1600 
 15 C       -5.2970     0.5320     0.2600 C.ar  1 <1>   0.0820 
 16 O       -6.6370     0.6680     0.1310 O.3   1 <1>  -0.3630 
 17 C       -7.4220     1.2580     1.1610 C.3   1 <1>   0.1810 
 18 C       -8.8880     1.3330     0.7610 C.2   1 <1>   0.5690 
 19 O       -9.6710     1.7640     1.5720 O.2   1 <1>  -0.5700 
 20 N       -9.2340     0.9040    -0.4920 N.am  1 <1>  -0.5470 
 21 C      -10.4600     0.8380    -1.1730 C.ar  1 <1>   0.1170 
 22 C      -10.5130     0.1320    -2.3700 C.ar  1 <1>  -0.1500 
 23 C      -11.6250     1.4490    -0.7180 C.ar  1 <1>  -0.1500 
 24 C      -11.6900     0.0350    -3.0910 C.ar  1 <1>  -0.1500 
 25 C      -12.8050     1.3540    -1.4350 C.ar  1 <1>  -0.1500 
 26 C      -12.8400     0.6460    -2.6230 C.ar  1 <1>  -0.1500 
 27 H        1.5310    -1.7840     0.3330 H     1 <1>   0.0800 
 28 H        1.1750    -1.1540    -1.2560 H     1 <1>   0.0800 
 29 H       -1.9500    -2.3890     1.2100 H     1 <1>   0.0800 
 30 H       -0.3030    -2.5370     1.7720 H     1 <1>   0.0800 
 31 H       -2.7250    -0.5930    -1.6140 H     1 <1>   0.1500 
 32 H       -2.6680     1.0200     2.3200 H     1 <1>   0.1500 
 33 H        2.0360    -3.4580    -1.3920 H     1 <1>   0.0800 
 34 H        0.4290    -3.3120    -2.0380 H     1 <1>   0.0800 
 35 H       -1.5880    -4.0980    -0.4800 H     1 <1>   0.0800 
 36 H       -1.1820    -4.7260     1.0900 H     1 <1>   0.0800 
 37 H       -5.1630    -0.2920    -1.7000 H     1 <1>   0.1500 
 38 H       -5.0730     1.3230     2.2550 H     1 <1>   0.1500 
 39 H        1.1950    -4.4270     0.6720 H     1 <1>   0.0800 
 40 H        0.5170    -5.3230    -0.6620 H     1 <1>   0.0800 
 41 H       -7.0540     2.2510     1.3440 H     1 <1>   0.0800 
 42 H       -7.3270     0.6600     2.0480 H     1 <1>   0.0800 
 43 H       -8.4320     0.5450    -1.0140 H     1 <1>   0.3700 
 44 H       -9.6280    -0.3490    -2.7440 H     1 <1>   0.1500 
 45 H      -11.6210     2.0070     0.1990 H     1 <1>   0.1500 
 46 H      -11.7140    -0.5170    -4.0150 H     1 <1>   0.1500 
 47 H      -13.6960     1.8320    -1.0660 H     1 <1>   0.1500 
 48 H      -13.7570     0.5720    -3.1800 H     1 <1>   0.1500 
@<TRIPOS>BOND
  1   1   2  2   
  2   1   3  2   
  3   1   4  am  
  4   1   5  1   
  5   4   6  1   
  6   4   7  1   
  7   5   8  ar  
  8   5   9  ar  
  9   6  10  1   
 10   6  27  1   
 11   6  28  1   
 12   7  11  1   
 13   7  29  1   
 14   7  30  1   
 15   8  12  ar  
 16   8  31  1   
 17   9  13  ar  
 18   9  32  1   
 19  10  14  1   
 20  10  33  1   
 21  10  34  1   
 22  11  14  1   
 23  11  35  1   
 24  11  36  1   
 25  12  15  ar  
 26  12  37  1   
 27  13  15  ar  
 28  13  38  1   
 29  14  39  1   
 30  14  40  1   
 31  15  16  1   
 32  16  17  1   
 33  17  18  1   
 34  17  41  1   
 35  17  42  1   
 36  18  19  2   
 37  18  20  am  
 38  20  21  1   
 39  20  43  1   
 40  21  22  ar  
 41  21  23  ar  
 42  22  24  ar  
 43  22  44  1   
 44  23  25  ar  
 45  23  45  1   
 46  24  26  ar  
 47  24  46  1   
 48  25  26  ar  
 49  25  47  1   
 50  26  48  1   
@<TRIPOS>SUBSTRUCTURE
  1 ****  15 GROUP 4 **** **** 0

# MOE 2024.06 (io_trps.svl 2023.06)
