@<TRIPOS>MOLECULE
NONAME
38 40 1 0 0 
SMALL
USER_CHARGES


@<TRIPOS>ATOM
  1 F        0.6800    -2.7840     1.0320 F     1 <1>  -0.3400 
  2 C        1.3710    -2.9630    -0.0880 C.3   1 <1>   1.1640 
  3 F        0.5870    -2.5460    -1.0750 F     1 <1>  -0.3400 
  4 F        1.4970    -4.2750    -0.2420 F     1 <1>  -0.3400 
  5 C        2.7360    -2.2540    -0.0700 C.ar  1 <1>  -0.1440 
  6 C        3.3300    -1.8170    -1.2490 C.ar  1 <1>  -0.1500 
  7 C        3.4170    -2.0400     1.1230 C.ar  1 <1>  -0.1500 
  8 C        4.5590    -1.1830    -1.2310 C.ar  1 <1>  -0.1500 
  9 C        4.6450    -1.4050     1.1340 C.ar  1 <1>  -0.1500 
 10 C        5.2510    -0.9570    -0.0400 C.ar  1 <1>   0.0540 
 11 C        6.5420    -0.2880    -0.0130 C.2   1 <1>   0.4620 
 12 N        7.2060     0.0570    -1.1250 N.2   1 <1>  -0.2270 
 13 N        7.1770     0.0440     1.0640 N.2   1 <1>  -0.7070 
 14 N        8.2810     0.6200    -0.7510 N.2   1 <1>  -0.4180 
 15 N        8.2630     0.5950     0.5710 N.pl3 1 <1>   0.5800 
 16 C        9.3200     1.1860     1.3910 C.3   1 <1>   0.1570 
 17 C       10.2900     0.1050     1.8010 C.2   1 <1>   0.5690 
 18 O       10.2310    -0.2670     2.9490 O.2   1 <1>  -0.5700 
 19 N       11.2170    -0.4200     0.9310 N.am  1 <1>  -0.6600 
 20 C       11.4580    -0.0010    -0.4850 C.3   1 <1>   0.1400 
 21 C       12.0040    -1.6400     1.2860 C.3   1 <1>   0.1400 
 22 C       11.2250    -1.1890    -1.4320 C.3   1 <1>   0.1200 
 23 C       11.7650    -2.7470     0.2440 C.3   1 <1>   0.1200 
 24 O       12.0230    -2.2750    -1.0500 O.3   1 <1>  -0.5600 
 25 H        2.8350    -1.9690    -2.1950 H     1 <1>   0.1500 
 26 H        2.9940    -2.3680     2.0600 H     1 <1>   0.1500 
 27 H        4.9880    -0.8560    -2.1630 H     1 <1>   0.1500 
 28 H        5.1490    -1.2510     2.0730 H     1 <1>   0.1500 
 29 H        8.8720     1.6150     2.2660 H     1 <1>   0.0800 
 30 H        9.8190     1.9550     0.8380 H     1 <1>   0.0800 
 31 H       12.4790     0.3250    -0.5860 H     1 <1>   0.0800 
 32 H       10.8290     0.8190    -0.7730 H     1 <1>   0.0800 
 33 H       11.7260    -2.0080     2.2590 H     1 <1>   0.0800 
 34 H       13.0510    -1.3950     1.3130 H     1 <1>   0.0800 
 35 H       11.4930    -0.9230    -2.4390 H     1 <1>   0.0800 
 36 H       10.1920    -1.4930    -1.4180 H     1 <1>   0.0800 
 37 H       10.7470    -3.0930     0.2880 H     1 <1>   0.0800 
 38 H       12.4220    -3.5780     0.4270 H     1 <1>   0.0800 
@<TRIPOS>BOND
  1   1   2  1   
  2   2   3  1   
  3   2   4  1   
  4   2   5  1   
  5   5   6  ar  
  6   5   7  ar  
  7   6   8  ar  
  8   6  25  1   
  9   7   9  ar  
 10   7  26  1   
 11   8  10  ar  
 12   8  27  1   
 13   9  10  ar  
 14   9  28  1   
 15  10  11  1   
 16  11  12  1   
 17  11  13  2   
 18  12  14  2   
 19  13  15  1   
 20  14  15  1   
 21  15  16  1   
 22  16  17  1   
 23  16  29  1   
 24  16  30  1   
 25  17  18  2   
 26  17  19  am  
 27  19  20  1   
 28  19  21  1   
 29  20  22  1   
 30  20  31  1   
 31  20  32  1   
 32  21  23  1   
 33  21  33  1   
 34  21  34  1   
 35  22  24  1   
 36  22  35  1   
 37  22  36  1   
 38  23  24  1   
 39  23  37  1   
 40  23  38  1   
@<TRIPOS>SUBSTRUCTURE
  1 ****  11 GROUP 4 **** **** 0

# MOE 2024.06 (io_trps.svl 2023.06)
