@<TRIPOS>MOLECULE
NONAME
45 50 1 0 0 
SMALL
USER_CHARGES


@<TRIPOS>ATOM
  1 O        0.3750    -0.8810     2.3330 O.2   1 <1>  -0.5700 
  2 C        0.1430    -1.3050     1.2310 C.2   1 <1>   0.5690 
  3 N        1.0410    -1.7470     0.2670 N.am  1 <1>  -0.2370 
  4 C       -1.2340    -1.4070     0.6400 C.3   1 <1>  -0.0190 
  5 C        2.4380    -1.5530     0.2910 C.ar  1 <1>   0.1170 
  6 C        0.3330    -2.4140    -0.7240 C.2   1 <1>   0.5690 
  7 C       -2.6740    -1.3880     1.2040 C.3   1 <1>   0.1530 
  8 C       -1.0370    -2.6860    -0.1780 C.3   1 <1>  -0.0190 
  9 C        3.1240    -1.1380    -0.8460 C.ar  1 <1>  -0.1500 
 10 C        3.1730    -1.7730     1.4520 C.ar  1 <1>  -0.1500 
 11 O        0.7060    -2.7530    -1.8170 O.2   1 <1>  -0.5700 
 12 C       -3.1300    -2.8150     1.5460 C.2   1 <1>  -0.2880 
 13 C       -3.5740    -1.0560    -0.0360 C.3   1 <1>  -0.1950 
 14 C       -2.3910    -3.1940    -0.7440 C.3   1 <1>   0.1530 
 15 C        4.4930    -0.9490    -0.8210 C.ar  1 <1>  -0.1500 
 16 C        4.5410    -1.5840     1.4740 C.ar  1 <1>  -0.1500 
 17 C       -3.0330    -3.7160     0.5520 C.2   1 <1>  -0.2880 
 18 C       -3.4030    -2.0830    -1.1440 C.3   1 <1>  -0.1950 
 19 C       -3.2030    -0.6330    -1.4440 C.3   1 <1>  -0.2000 
 20 C        5.2300    -1.1680     0.3390 C.ar  1 <1>   0.0000 
 21 C        6.6600    -0.9700     0.3640 C.ar  1 <1>   0.0000 
 22 C        7.4950    -1.6620    -0.5090 C.ar  1 <1>  -0.1500 
 23 C        7.2460    -0.0820     1.2610 C.ar  1 <1>  -0.1500 
 24 C        8.8650    -1.4750    -0.4890 C.ar  1 <1>  -0.1500 
 25 C        8.6160     0.1090     1.2880 C.ar  1 <1>  -0.1500 
 26 C        9.4290    -0.5880     0.4110 C.ar  1 <1>  -0.1500 
 27 H       -1.1900    -0.5410     0.0120 H     1 <1>   0.0800 
 28 H       -2.8000    -0.6780     2.0040 H     1 <1>   0.0800 
 29 H       -0.7720    -3.4740     0.5130 H     1 <1>   0.0800 
 30 H        2.5860    -0.9610    -1.7600 H     1 <1>   0.1500 
 31 H        2.6710    -2.0930     2.3490 H     1 <1>   0.1500 
 32 H       -3.5210    -2.9780     2.5370 H     1 <1>   0.1500 
 33 H       -4.5870    -0.8590     0.2710 H     1 <1>   0.1000 
 34 H       -2.2690    -3.9610    -1.4900 H     1 <1>   0.0800 
 35 H        5.0030    -0.6240    -1.7110 H     1 <1>   0.1500 
 36 H        5.0900    -1.7620     2.3820 H     1 <1>   0.1500 
 37 H       -3.3350    -4.7490     0.5730 H     1 <1>   0.1500 
 38 H       -4.3060    -2.5200    -1.5370 H     1 <1>   0.1000 
 39 H       -2.2250    -0.3380    -1.7790 H     1 <1>   0.1000 
 40 H       -3.9610    -0.1310    -2.0200 H     1 <1>   0.1000 
 41 H        7.0630    -2.3560    -1.2080 H     1 <1>   0.1500 
 42 H        6.6190     0.4660     1.9420 H     1 <1>   0.1500 
 43 H        9.4930    -2.0200    -1.1720 H     1 <1>   0.1500 
 44 H        9.0490     0.8010     1.9890 H     1 <1>   0.1500 
 45 H       10.4950    -0.4400     0.4300 H     1 <1>   0.1500 
@<TRIPOS>BOND
  1   1   2  2   
  2   2   3  am  
  3   2   4  1   
  4   3   5  1   
  5   3   6  am  
  6   4   7  1   
  7   4   8  1   
  8   4  27  1   
  9   5   9  ar  
 10   5  10  ar  
 11   6   8  1   
 12   6  11  2   
 13   7  12  1   
 14   7  13  1   
 15   7  28  1   
 16   8  14  1   
 17   8  29  1   
 18   9  15  ar  
 19   9  30  1   
 20  10  16  ar  
 21  10  31  1   
 22  12  17  2   
 23  12  32  1   
 24  13  18  1   
 25  13  19  1   
 26  13  33  1   
 27  14  17  1   
 28  14  18  1   
 29  14  34  1   
 30  15  20  ar  
 31  15  35  1   
 32  16  20  ar  
 33  16  36  1   
 34  17  37  1   
 35  18  19  1   
 36  18  38  1   
 37  19  39  1   
 38  19  40  1   
 39  20  21  1   
 40  21  22  ar  
 41  21  23  ar  
 42  22  24  ar  
 43  22  41  1   
 44  23  25  ar  
 45  23  42  1   
 46  24  26  ar  
 47  24  43  1   
 48  25  26  ar  
 49  25  44  1   
 50  26  45  1   
@<TRIPOS>SUBSTRUCTURE
  1 ****   5 GROUP 4 **** **** 0

# MOE 2024.06 (io_trps.svl 2023.06)
