@<TRIPOS>MOLECULE
NONAME
30 31 1 0 0 
SMALL
USER_CHARGES


@<TRIPOS>ATOM
  1 BR       4.2990    -3.4460    -2.6170 Br    1 <1>  -0.1110 
  2 C        4.7550    -2.5040    -1.0030 C.ar  1 <1>   0.1110 
  3 C        4.8400    -1.1250    -1.0400 C.ar  1 <1>  -0.1500 
  4 C        4.9930    -3.2310     0.1470 C.ar  1 <1>  -0.1500 
  5 C        5.1740    -0.4430     0.1210 C.ar  1 <1>  -0.1440 
  6 C        5.3280    -2.5450     1.3010 C.ar  1 <1>  -0.1500 
  7 C        5.4150    -1.1610     1.2860 C.ar  1 <1>  -0.1500 
  8 C        5.2730     1.0730     0.1090 C.3   1 <1>   0.2140 
  9 S        6.8260     1.5480    -0.7080 S.3   1 <1>  -0.4600 
 10 C        8.1020     1.2420     0.5720 C.3   1 <1>   0.1310 
 11 C        8.4780    -0.2290     0.6760 C.2   1 <1>   0.5690 
 12 O        8.7980    -0.6610     1.7590 O.2   1 <1>  -0.5700 
 13 N        8.4530    -0.9940    -0.4470 N.am  1 <1>  -0.5790 
 14 C        8.7620    -2.4270    -0.5240 C.3   1 <1>   0.0490 
 15 C        9.5860    -2.9060    -1.6730 C.3   1 <1>  -0.2000 
 16 C        8.1220    -3.2200    -1.6140 C.3   1 <1>  -0.2000 
 17 H        4.6510    -0.6010    -1.9590 H     1 <1>   0.1500 
 18 H        4.9210    -4.3030     0.1380 H     1 <1>   0.1500 
 19 H        5.5260    -3.0850     2.2120 H     1 <1>   0.1500 
 20 H        5.6830    -0.6480     2.1950 H     1 <1>   0.1500 
 21 H        5.2820     1.4870     1.1010 H     1 <1>   0.0800 
 22 H        4.4710     1.5080    -0.4600 H     1 <1>   0.0800 
 23 H        7.7150     1.5980     1.5080 H     1 <1>   0.0800 
 24 H        8.9660     1.8170     0.2970 H     1 <1>   0.0800 
 25 H        8.0520    -0.5830    -1.2930 H     1 <1>   0.3700 
 26 H        8.9000    -2.8860     0.4420 H     1 <1>   0.1000 
 27 H       10.2860    -3.7060    -1.5050 H     1 <1>   0.1000 
 28 H        9.9420    -2.1860    -2.3880 H     1 <1>   0.1000 
 29 H        7.4560    -2.7250    -2.2980 H     1 <1>   0.1000 
 30 H        7.8230    -4.2320    -1.4040 H     1 <1>   0.1000 
@<TRIPOS>BOND
  1   1   2  1   
  2   2   3  ar  
  3   2   4  ar  
  4   3   5  ar  
  5   3  17  1   
  6   4   6  ar  
  7   4  18  1   
  8   5   7  ar  
  9   5   8  1   
 10   6   7  ar  
 11   6  19  1   
 12   7  20  1   
 13   8   9  1   
 14   8  21  1   
 15   8  22  1   
 16   9  10  1   
 17  10  11  1   
 18  10  23  1   
 19  10  24  1   
 20  11  12  2   
 21  11  13  am  
 22  13  14  1   
 23  13  25  1   
 24  14  15  1   
 25  14  16  1   
 26  14  26  1   
 27  15  16  1   
 28  15  27  1   
 29  15  28  1   
 30  16  29  1   
 31  16  30  1   
@<TRIPOS>SUBSTRUCTURE
  1 ****   5 GROUP 4 **** **** 0

# MOE 2024.06 (io_trps.svl 2023.06)
