@<TRIPOS>MOLECULE
NONAME
51 53 1 0 0 
SMALL
USER_CHARGES


@<TRIPOS>ATOM
  1 O       -0.7460    -0.2730    -1.6030 O.3   1 <1>  -0.3630 
  2 C       -0.5710    -1.4520    -0.9580 C.ar  1 <1>   0.0830 
  3 C       -0.9270     0.8740    -0.8010 C.3   1 <1>   0.0400 
  4 C       -1.6450    -2.3410    -0.8820 C.ar  1 <1>  -0.1440 
  5 C        0.6770    -1.7690    -0.4200 C.ar  1 <1>  -0.1440 
  6 C       -1.4460    -3.5530    -0.2350 C.ar  1 <1>  -0.1500 
  7 C       -2.9720    -1.9470    -1.5500 C.3   1 <1>   0.2540 
  8 C        0.8400    -2.9770     0.2510 C.ar  1 <1>   0.0830 
  9 C        1.8780    -0.8340    -0.5710 C.3   1 <1>  -0.0960 
 10 C       -0.2260    -3.8650     0.3360 C.ar  1 <1>  -0.1500 
 11 N       -4.2320    -2.4820    -0.9620 N.3   1 <1>  -0.8100 
 12 O        2.0560    -3.2430     0.8020 O.3   1 <1>  -0.3630 
 13 C       -4.4040    -2.3850     0.5100 C.3   1 <1>   0.1900 
 14 C       -4.6370    -3.7840    -1.5270 C.3   1 <1>   0.1100 
 15 C        2.3330    -4.4640     1.4500 C.3   1 <1>   0.0400 
 16 C       -5.8310    -2.8360     0.9620 C.3   1 <1>   0.4230 
 17 C       -4.0990    -0.9620     0.9980 C.3   1 <1>  -0.2400 
 18 C       -6.0840    -4.1350    -1.1410 C.3   1 <1>   0.3430 
 19 N       -6.3110    -4.1160     0.3480 N.4   1 <1>  -0.9590 
 20 C       -6.9680    -1.8600     0.6640 C.3   1 <1>  -0.1600 
 21 C       -7.7630    -4.1740     0.6520 C.3   1 <1>   0.3430 
 22 C       -8.2360    -2.7200     0.6440 C.3   1 <1>  -0.1600 
 23 H       -0.9170     1.7370    -1.4430 H     1 <1>   0.0800 
 24 H       -0.1290     0.9410    -0.0840 H     1 <1>   0.0800 
 25 H       -1.8730     0.8020    -0.2980 H     1 <1>   0.0800 
 26 H       -2.2280    -4.2770    -0.1630 H     1 <1>   0.1500 
 27 H       -2.9160    -2.2220    -2.5890 H     1 <1>   0.0800 
 28 H       -3.0590    -0.8750    -1.5400 H     1 <1>   0.0800 
 29 H        2.0310    -0.2870     0.3420 H     1 <1>   0.0800 
 30 H        1.7410    -0.1390    -1.3790 H     1 <1>   0.0800 
 31 H        2.7670    -1.4000    -0.7840 H     1 <1>   0.0800 
 32 H       -0.1230    -4.8080     0.8360 H     1 <1>   0.1500 
 33 H       -3.7040    -3.0450     0.9890 H     1 <1>   0.0800 
 34 H       -3.9820    -4.5690    -1.2030 H     1 <1>   0.0800 
 35 H       -4.5790    -3.7350    -2.6020 H     1 <1>   0.0800 
 36 H        3.3570    -4.4420     1.7780 H     1 <1>   0.0800 
 37 H        2.1900    -5.2700     0.7530 H     1 <1>   0.0800 
 38 H        1.6810    -4.5650     2.2990 H     1 <1>   0.0800 
 39 H       -5.8020    -2.9660     2.0310 H     1 <1>   0.0800 
 40 H       -4.6370    -0.2310     0.4220 H     1 <1>   0.0800 
 41 H       -3.0460    -0.7620     0.9280 H     1 <1>   0.0800 
 42 H       -4.3700    -0.8550     2.0330 H     1 <1>   0.0800 
 43 H       -6.3320    -5.1060    -1.5370 H     1 <1>   0.0800 
 44 H       -6.7320    -3.4130    -1.6110 H     1 <1>   0.0800 
 45 H       -5.8070    -4.9020     0.7730 H     1 <1>   0.4500 
 46 H       -6.8130    -1.4010    -0.2980 H     1 <1>   0.0800 
 47 H       -7.0210    -1.0840     1.4080 H     1 <1>   0.0800 
 48 H       -7.9120    -4.5900     1.6360 H     1 <1>   0.0800 
 49 H       -8.2990    -4.7710    -0.0680 H     1 <1>   0.0800 
 50 H       -8.8190    -2.5180    -0.2380 H     1 <1>   0.0800 
 51 H       -8.8500    -2.5340     1.5070 H     1 <1>   0.0800 
@<TRIPOS>BOND
  1   1   2  1   
  2   1   3  1   
  3   2   4  ar  
  4   2   5  ar  
  5   3  23  1   
  6   3  24  1   
  7   3  25  1   
  8   4   6  ar  
  9   4   7  1   
 10   5   8  ar  
 11   5   9  1   
 12   6  10  ar  
 13   6  26  1   
 14   7  11  1   
 15   7  27  1   
 16   7  28  1   
 17   8  10  ar  
 18   8  12  1   
 19   9  29  1   
 20   9  30  1   
 21   9  31  1   
 22  10  32  1   
 23  11  13  1   
 24  11  14  1   
 25  12  15  1   
 26  13  16  1   
 27  13  17  1   
 28  13  33  1   
 29  14  18  1   
 30  14  34  1   
 31  14  35  1   
 32  15  36  1   
 33  15  37  1   
 34  15  38  1   
 35  16  19  1   
 36  16  20  1   
 37  16  39  1   
 38  17  40  1   
 39  17  41  1   
 40  17  42  1   
 41  18  19  1   
 42  18  43  1   
 43  18  44  1   
 44  19  21  1   
 45  19  45  1   
 46  20  22  1   
 47  20  46  1   
 48  20  47  1   
 49  21  22  1   
 50  21  48  1   
 51  21  49  1   
 52  22  50  1   
 53  22  51  1   
@<TRIPOS>SUBSTRUCTURE
  1 ****   4 GROUP 4 **** **** 0

# MOE 2024.06 (io_trps.svl 2023.06)
