@<TRIPOS>MOLECULE
NONAME
44 45 1 0 0 
SMALL
USER_CHARGES


@<TRIPOS>ATOM
  1 O        0.4290     0.5210    -0.4020 O.2   1 <1>  -0.5700 
  2 C        0.3020     1.6970    -0.1820 C.2   1 <1>   0.6590 
  3 O       -0.8440     2.2300     0.2090 O.3   1 <1>  -0.4300 
  4 C        1.4600     2.6660    -0.3490 C.3   1 <1>  -0.0190 
  5 C       -1.9980     1.4450     0.4030 C.3   1 <1>   0.1200 
  6 C        2.6280     1.9510    -1.0560 C.3   1 <1>   0.3430 
  7 C        1.9010     3.2870     0.9910 C.3   1 <1>  -0.1600 
  8 C       -3.1250     2.3660     0.8590 C.3   1 <1>  -0.2400 
  9 N        3.9710     2.4980    -0.6660 N.4   1 <1>  -0.9590 
 10 C        3.0680     4.2750     0.7880 C.3   1 <1>  -0.1600 
 11 C        3.9540     3.9690    -0.4280 C.3   1 <1>   0.3430 
 12 C        5.0350     2.0840    -1.6210 C.3   1 <1>   0.4860 
 13 C        6.3780     2.4430    -1.0200 C.ar  1 <1>  -0.1430 
 14 C        6.8420     1.7640     0.0970 C.ar  1 <1>  -0.1500 
 15 C        7.1490     3.4590    -1.5680 C.ar  1 <1>  -0.1500 
 16 C        8.0520     2.1010     0.6780 C.ar  1 <1>   0.0820 
 17 C        8.3630     3.7960    -0.9950 C.ar  1 <1>  -0.1500 
 18 O        8.4110     1.3920     1.7740 O.3   1 <1>  -0.3630 
 19 C        8.8160     3.1240     0.1270 C.ar  1 <1>  -0.1500 
 20 C        9.6540     1.6020     2.4100 C.3   1 <1>   0.0400 
 21 H        1.1110     3.4530    -0.9930 H     1 <1>   0.0800 
 22 H       -1.7850     0.6980     1.1500 H     1 <1>   0.0800 
 23 H       -2.2460     0.9630    -0.5280 H     1 <1>   0.0800 
 24 H        2.4850     2.0370    -2.1220 H     1 <1>   0.0800 
 25 H        2.6050     0.9000    -0.8110 H     1 <1>   0.0800 
 26 H        2.2100     2.4980     1.6580 H     1 <1>   0.0800 
 27 H        1.0740     3.7960     1.4590 H     1 <1>   0.0800 
 28 H       -2.8630     2.8460     1.7840 H     1 <1>   0.0800 
 29 H       -4.0200     1.7920     1.0150 H     1 <1>   0.0800 
 30 H       -3.3240     3.1110     0.1090 H     1 <1>   0.0800 
 31 H        4.2320     2.0810     0.2370 H     1 <1>   0.4500 
 32 H        3.6780     4.2910     1.6760 H     1 <1>   0.0800 
 33 H        2.6770     5.2710     0.6670 H     1 <1>   0.0800 
 34 H        3.5610     4.4690    -1.2980 H     1 <1>   0.0800 
 35 H        4.9510     4.3400    -0.2450 H     1 <1>   0.0800 
 36 H        4.9060     2.5840    -2.5670 H     1 <1>   0.0800 
 37 H        4.9940     1.0190    -1.7850 H     1 <1>   0.0800 
 38 H        6.2820     0.9600     0.5410 H     1 <1>   0.1500 
 39 H        6.8210     3.9960    -2.4420 H     1 <1>   0.1500 
 40 H        8.9620     4.5840    -1.4220 H     1 <1>   0.1500 
 41 H        9.7600     3.4080     0.5530 H     1 <1>   0.1500 
 42 H        9.7300     0.9140     3.2320 H     1 <1>   0.0800 
 43 H        9.6930     2.6130     2.7760 H     1 <1>   0.0800 
 44 H       10.4440     1.4160     1.7040 H     1 <1>   0.0800 
@<TRIPOS>BOND
  1   1   2  2   
  2   2   3  1   
  3   2   4  1   
  4   3   5  1   
  5   4   6  1   
  6   4   7  1   
  7   4  21  1   
  8   5   8  1   
  9   5  22  1   
 10   5  23  1   
 11   6   9  1   
 12   6  24  1   
 13   6  25  1   
 14   7  10  1   
 15   7  26  1   
 16   7  27  1   
 17   8  28  1   
 18   8  29  1   
 19   8  30  1   
 20   9  11  1   
 21   9  12  1   
 22   9  31  1   
 23  10  11  1   
 24  10  32  1   
 25  10  33  1   
 26  11  34  1   
 27  11  35  1   
 28  12  13  1   
 29  12  36  1   
 30  12  37  1   
 31  13  14  ar  
 32  13  15  ar  
 33  14  16  ar  
 34  14  38  1   
 35  15  17  ar  
 36  15  39  1   
 37  16  18  1   
 38  16  19  ar  
 39  17  19  ar  
 40  17  40  1   
 41  18  20  1   
 42  19  41  1   
 43  20  42  1   
 44  20  43  1   
 45  20  44  1   
@<TRIPOS>SUBSTRUCTURE
  1 ****   9 GROUP 4 **** **** 0

# MOE 2024.06 (io_trps.svl 2023.06)
