@<TRIPOS>MOLECULE
NONAME
39 40 1 0 0 
SMALL
USER_CHARGES


@<TRIPOS>ATOM
  1 O       -9.0470     2.2770     0.2770 O.3   1 <1>  -0.3630 
  2 C      -10.2650     2.8660     0.1550 C.ar  1 <1>   0.0830 
  3 C       -7.8660     2.9830    -0.0180 C.3   1 <1>   0.1200 
  4 C      -10.4550     4.1780    -0.2700 C.ar  1 <1>  -0.1500 
  5 C      -11.3660     2.0880     0.4790 C.ar  1 <1>  -0.1500 
  6 C       -6.6860     2.0450     0.2290 C.3   1 <1>  -0.1600 
  7 C      -11.7360     4.6930    -0.3630 C.ar  1 <1>  -0.1500 
  8 C      -12.6470     2.6040     0.3850 C.ar  1 <1>  -0.1500 
  9 C       -5.3560     2.7480    -0.0630 C.3   1 <1>   0.0960 
 10 C      -12.8370     3.9160    -0.0390 C.ar  1 <1>   0.0830 
 11 N       -4.2260     1.8320     0.1780 N.pl3 1 <1>   0.0480 
 12 O      -14.0550     4.5050    -0.1610 O.3   1 <1>  -0.3630 
 13 C       -3.5080     1.6800     1.3130 C.2   1 <1>   0.0360 
 14 C       -3.6780     0.9610    -0.6900 C.2   1 <1>  -0.3020 
 15 C      -15.2360     3.8000     0.1440 C.3   1 <1>   0.1200 
 16 N       -2.5670     0.7970     1.2280 N.2   1 <1>  -0.5650 
 17 C       -2.6720     0.3420    -0.0340 C.2   1 <1>   0.0770 
 18 C      -16.4250     4.7320    -0.0940 C.3   1 <1>  -0.1600 
 19 C      -17.7530     4.0340     0.2170 C.3   1 <1>  -0.2400 
 20 H       -7.8170     3.8420     0.6290 H     1 <1>   0.0800 
 21 H       -7.9050     3.2890    -1.0490 H     1 <1>   0.0800 
 22 H       -9.6290     4.8110    -0.5300 H     1 <1>   0.1500 
 23 H      -11.2100     1.0760     0.8060 H     1 <1>   0.1500 
 24 H       -6.7830     1.1840    -0.4110 H     1 <1>   0.0800 
 25 H       -6.7030     1.7240     1.2560 H     1 <1>   0.0800 
 26 H      -11.8940     5.7050    -0.6900 H     1 <1>   0.1500 
 27 H      -13.4750     1.9730     0.6450 H     1 <1>   0.1500 
 28 H       -5.2420     3.6090     0.5710 H     1 <1>   0.0800 
 29 H       -5.3220     3.0700    -1.0890 H     1 <1>   0.0800 
 30 H       -3.7170     2.2510     2.2010 H     1 <1>   0.1500 
 31 H       -4.0220     0.8300    -1.6990 H     1 <1>   0.1500 
 32 H      -15.1930     3.4950     1.1750 H     1 <1>   0.0800 
 33 H      -15.2930     2.9390    -0.4990 H     1 <1>   0.0800 
 34 H       -2.0080    -0.4190    -0.4090 H     1 <1>   0.1500 
 35 H      -16.4230     5.0500    -1.1220 H     1 <1>   0.0800 
 36 H      -16.3230     5.5990     0.5350 H     1 <1>   0.0800 
 37 H      -17.8830     3.1710    -0.4120 H     1 <1>   0.0800 
 38 H      -18.5720     4.7100     0.0420 H     1 <1>   0.0800 
 39 H      -17.7830     3.7220     1.2470 H     1 <1>   0.0800 
@<TRIPOS>BOND
  1   1   2  1   
  2   1   3  1   
  3   2   4  ar  
  4   2   5  ar  
  5   3   6  1   
  6   3  20  1   
  7   3  21  1   
  8   4   7  ar  
  9   4  22  1   
 10   5   8  ar  
 11   5  23  1   
 12   6   9  1   
 13   6  24  1   
 14   6  25  1   
 15   7  10  ar  
 16   7  26  1   
 17   8  10  ar  
 18   8  27  1   
 19   9  11  1   
 20   9  28  1   
 21   9  29  1   
 22  10  12  1   
 23  11  13  1   
 24  11  14  1   
 25  12  15  1   
 26  13  16  2   
 27  13  30  1   
 28  14  17  2   
 29  14  31  1   
 30  15  18  1   
 31  15  32  1   
 32  15  33  1   
 33  16  17  1   
 34  17  34  1   
 35  18  19  1   
 36  18  35  1   
 37  18  36  1   
 38  19  37  1   
 39  19  38  1   
 40  19  39  1   
@<TRIPOS>SUBSTRUCTURE
  1 ****   1 GROUP 4 **** **** 0

# MOE 2024.06 (io_trps.svl 2023.06)
