@<TRIPOS>MOLECULE
NONAME
46 49 1 0 0 
SMALL
USER_CHARGES


@<TRIPOS>ATOM
  1 CL      -0.4580     1.9160     1.0690 Cl    1 <1>  -0.1770 
  2 C       -0.9200     2.8850    -0.3110 C.ar  1 <1>   0.1770 
  3 C       -2.1360     2.6750    -0.9490 C.ar  1 <1>  -0.1440 
  4 C       -0.0450     3.8710    -0.7310 C.ar  1 <1>  -0.1500 
  5 C       -2.4650     3.4860    -2.0250 C.ar  1 <1>  -0.1500 
  6 C       -3.1050     1.5890    -0.5050 C.3   1 <1>   0.2540 
  7 C       -0.3850     4.6700    -1.8080 C.ar  1 <1>  -0.1500 
  8 C       -1.5960     4.4770    -2.4520 C.ar  1 <1>  -0.1500 
  9 N       -4.2520     2.1780     0.2150 N.3   1 <1>  -0.8100 
 10 C       -5.2920     1.1590     0.4960 C.3   1 <1>   0.1100 
 11 C       -3.8350     2.8530     1.4720 C.3   1 <1>   0.1100 
 12 C       -6.5150     1.7530     1.2380 C.3   1 <1>   0.3430 
 13 C       -5.0310     3.4520     2.2500 C.3   1 <1>   0.3430 
 14 N       -6.3170     3.2150     1.5210 N.4   1 <1>  -0.9590 
 15 C       -7.4960     3.8870     2.1230 C.3   1 <1>   0.4860 
 16 C       -8.6900     3.6890     1.2100 C.ar  1 <1>  -0.1430 
 17 C       -8.7370     4.3370    -0.0220 C.ar  1 <1>  -0.1500 
 18 C       -9.7380     2.8510     1.5990 C.ar  1 <1>  -0.1500 
 19 C       -9.8300     4.1120    -0.8340 C.ar  1 <1>   0.0830 
 20 C      -10.8300     2.6420     0.7660 C.ar  1 <1>  -0.1500 
 21 O      -10.0750     4.6180    -2.0460 O.3   1 <1>  -0.3620 
 22 C      -10.8460     3.2880    -0.4530 C.ar  1 <1>   0.0830 
 23 C      -11.3380     4.0950    -2.4600 C.3   1 <1>   0.4000 
 24 O      -11.7790     3.2370    -1.4080 O.3   1 <1>  -0.3620 
 25 H        0.8910     4.0080    -0.2200 H     1 <1>   0.1500 
 26 H       -3.4040     3.3490    -2.5350 H     1 <1>   0.1500 
 27 H       -2.6150     0.8560     0.1120 H     1 <1>   0.0800 
 28 H       -3.4630     1.0800    -1.3840 H     1 <1>   0.0800 
 29 H        0.2890     5.4400    -2.1450 H     1 <1>   0.1500 
 30 H       -1.8620     5.0990    -3.2900 H     1 <1>   0.1500 
 31 H       -4.8740     0.3620     1.0880 H     1 <1>   0.0800 
 32 H       -5.6300     0.7280    -0.4320 H     1 <1>   0.0800 
 33 H       -3.1520     3.6540     1.2420 H     1 <1>   0.0800 
 34 H       -3.3110     2.1580     2.1070 H     1 <1>   0.0800 
 35 H       -6.6690     1.2140     2.1580 H     1 <1>   0.0800 
 36 H       -7.3910     1.6130     0.6250 H     1 <1>   0.0800 
 37 H       -4.8670     4.5100     2.3760 H     1 <1>   0.0800 
 38 H       -5.0730     3.0070     3.2310 H     1 <1>   0.0800 
 39 H       -6.1530     3.6100     0.5830 H     1 <1>   0.4500 
 40 H       -7.3040     4.9420     2.2350 H     1 <1>   0.0800 
 41 H       -7.7040     3.4720     3.0950 H     1 <1>   0.0800 
 42 H       -7.9620     5.0010    -0.3630 H     1 <1>   0.1500 
 43 H       -9.7200     2.3530     2.5540 H     1 <1>   0.1500 
 44 H      -11.6480     2.0010     1.0470 H     1 <1>   0.1500 
 45 H      -11.2160     3.5260    -3.3650 H     1 <1>   0.0800 
 46 H      -12.0390     4.9010    -2.5860 H     1 <1>   0.0800 
@<TRIPOS>BOND
  1   1   2  1   
  2   2   3  ar  
  3   2   4  ar  
  4   3   5  ar  
  5   3   6  1   
  6   4   7  ar  
  7   4  25  1   
  8   5   8  ar  
  9   5  26  1   
 10   6   9  1   
 11   6  27  1   
 12   6  28  1   
 13   7   8  ar  
 14   7  29  1   
 15   8  30  1   
 16   9  10  1   
 17   9  11  1   
 18  10  12  1   
 19  10  31  1   
 20  10  32  1   
 21  11  13  1   
 22  11  33  1   
 23  11  34  1   
 24  12  14  1   
 25  12  35  1   
 26  12  36  1   
 27  13  14  1   
 28  13  37  1   
 29  13  38  1   
 30  14  15  1   
 31  14  39  1   
 32  15  16  1   
 33  15  40  1   
 34  15  41  1   
 35  16  17  ar  
 36  16  18  ar  
 37  17  19  ar  
 38  17  42  1   
 39  18  20  ar  
 40  18  43  1   
 41  19  21  1   
 42  19  22  ar  
 43  20  22  ar  
 44  20  44  1   
 45  21  23  1   
 46  22  24  1   
 47  23  24  1   
 48  23  45  1   
 49  23  46  1   
@<TRIPOS>SUBSTRUCTURE
  1 ****  14 GROUP 4 **** **** 0

# MOE 2024.06 (io_trps.svl 2023.06)
