@<TRIPOS>MOLECULE
NONAME
43 44 1 0 0 
SMALL
USER_CHARGES


@<TRIPOS>ATOM
  1 S       -1.2430     1.4840     0.7710 S.o2  1 <1>   1.4470 
  2 O       -2.1000     2.6090     1.0860 O.2   1 <1>  -0.6500 
  3 O       -1.2480     0.3380     1.6510 O.2   1 <1>  -0.6500 
  4 N       -1.7070     0.9370    -0.7650 N.am  1 <1>  -0.8490 
  5 C        0.4660     2.0410     0.5190 C.ar  1 <1>  -0.0090 
  6 C       -2.8350    -0.0440    -0.7240 C.3   1 <1>   0.2570 
  7 C       -1.9030     2.0230    -1.7310 C.3   1 <1>   0.1960 
  8 C        0.8780     3.3090     0.9140 C.ar  1 <1>  -0.1500 
  9 C        1.4070     1.2080    -0.0760 C.ar  1 <1>  -0.1500 
 10 C       -4.2730     0.4960    -0.6030 C.2   1 <1>   0.5690 
 11 C       -1.9420     1.4810    -3.1580 C.3   1 <1>  -0.2400 
 12 C        2.1810     3.7340     0.7180 C.ar  1 <1>  -0.1500 
 13 C        2.7120     1.6240    -0.2760 C.ar  1 <1>  -0.1500 
 14 O       -5.1300    -0.0280    -1.2760 O.2   1 <1>  -0.5700 
 15 N       -4.5670     1.5300     0.2270 N.am  1 <1>  -0.7300 
 16 C        3.1000     2.8900     0.1210 C.ar  1 <1>  -0.1500 
 17 C       -5.8950     2.1270     0.4290 C.3   1 <1>   0.2200 
 18 C       -5.8630     3.5660    -0.0700 C.3   1 <1>  -0.1600 
 19 C       -6.1340     2.2800     1.9250 C.3   1 <1>  -0.1600 
 20 C       -5.2200     4.3840     1.0570 C.3   1 <1>  -0.1600 
 21 C       -5.3870     3.5540     2.3370 C.3   1 <1>  -0.1600 
 22 H       -2.6830    -0.7460     0.0750 H     1 <1>   0.0800 
 23 H       -2.7990    -0.6260    -1.6270 H     1 <1>   0.0800 
 24 H       -1.0780     2.7120    -1.6600 H     1 <1>   0.0800 
 25 H       -2.8050     2.5730    -1.5140 H     1 <1>   0.0800 
 26 H        0.1720     3.9750     1.3820 H     1 <1>   0.1500 
 27 H        1.1110     0.2190    -0.3860 H     1 <1>   0.1500 
 28 H       -2.8360     0.9100    -3.3320 H     1 <1>   0.0800 
 29 H       -1.0770     0.8710    -3.3490 H     1 <1>   0.0800 
 30 H       -1.9380     2.3020    -3.8510 H     1 <1>   0.0800 
 31 H        2.4810     4.7200     1.0310 H     1 <1>   0.1500 
 32 H        3.4240     0.9630    -0.7390 H     1 <1>   0.1500 
 33 H       -3.8160     2.0190     0.7330 H     1 <1>   0.3700 
 34 H        4.1140     3.2170    -0.0320 H     1 <1>   0.1500 
 35 H       -6.6580     1.5390    -0.0540 H     1 <1>   0.0800 
 36 H       -6.8770     3.8990    -0.2080 H     1 <1>   0.0800 
 37 H       -5.3400     3.6610    -1.0050 H     1 <1>   0.0800 
 38 H       -5.8160     1.4140     2.4790 H     1 <1>   0.0800 
 39 H       -7.1880     2.4250     2.0880 H     1 <1>   0.0800 
 40 H       -5.6890     5.3480     1.1480 H     1 <1>   0.0800 
 41 H       -4.1720     4.5240     0.8550 H     1 <1>   0.0800 
 42 H       -4.4150     3.2960     2.7250 H     1 <1>   0.0800 
 43 H       -5.9310     4.0940     3.0920 H     1 <1>   0.0800 
@<TRIPOS>BOND
  1   1   2  2   
  2   1   3  2   
  3   1   4  am  
  4   1   5  1   
  5   4   6  1   
  6   4   7  1   
  7   5   8  ar  
  8   5   9  ar  
  9   6  10  1   
 10   6  22  1   
 11   6  23  1   
 12   7  11  1   
 13   7  24  1   
 14   7  25  1   
 15   8  12  ar  
 16   8  26  1   
 17   9  13  ar  
 18   9  27  1   
 19  10  14  2   
 20  10  15  am  
 21  11  28  1   
 22  11  29  1   
 23  11  30  1   
 24  12  16  ar  
 25  12  31  1   
 26  13  16  ar  
 27  13  32  1   
 28  15  17  1   
 29  15  33  1   
 30  16  34  1   
 31  17  18  1   
 32  17  19  1   
 33  17  35  1   
 34  18  20  1   
 35  18  36  1   
 36  18  37  1   
 37  19  21  1   
 38  19  38  1   
 39  19  39  1   
 40  20  21  1   
 41  20  40  1   
 42  20  41  1   
 43  21  42  1   
 44  21  43  1   
@<TRIPOS>SUBSTRUCTURE
  1 ****   2 GROUP 4 **** **** 0

# MOE 2024.06 (io_trps.svl 2023.06)
