@<TRIPOS>MOLECULE
NONAME
45 47 1 0 0 
SMALL
USER_CHARGES


@<TRIPOS>ATOM
  1 O       -0.6330    -0.4380    -0.3310 O.3   1 <1>  -0.3630 
  2 C       -1.8710    -0.9690    -0.4810 C.ar  1 <1>   0.0830 
  3 C        0.3490    -1.0610     0.4650 C.3   1 <1>   0.1200 
  4 C       -2.7180    -0.3260    -1.3670 C.ar  1 <1>  -0.1500 
  5 C       -2.3190    -2.1010     0.1930 C.ar  1 <1>  -0.1500 
  6 C        1.6260    -0.2320     0.3730 C.3   1 <1>  -0.2400 
  7 C       -4.0000    -0.7970    -1.5830 C.ar  1 <1>  -0.1500 
  8 C       -3.6040    -2.5710    -0.0200 C.ar  1 <1>  -0.1500 
  9 C       -4.4540    -1.9190    -0.9030 C.ar  1 <1>  -0.1430 
 10 C       -5.8680    -2.4200    -1.1260 C.3   1 <1>   0.4860 
 11 N       -6.7090    -2.0020     0.0270 N.4   1 <1>  -0.9590 
 12 C       -8.0840    -2.6290    -0.0420 C.3   1 <1>   0.3430 
 13 C       -6.7840    -0.4910     0.1340 C.3   1 <1>   0.3430 
 14 C       -9.0110    -2.1450     1.0910 C.3   1 <1>   0.2090 
 15 C       -7.7350    -0.0100     1.2510 C.3   1 <1>   0.2090 
 16 N       -9.0690    -0.6560     1.0860 N.pl3 1 <1>  -0.8380 
 17 C      -10.0340     0.0020     0.3580 C.ar  1 <1>   0.7200 
 18 N      -10.6460    -0.6980    -0.5960 N.ar  1 <1>  -0.6200 
 19 N      -10.2290     1.2810     0.6520 N.ar  1 <1>  -0.6200 
 20 C      -11.5730    -0.0560    -1.2700 C.ar  1 <1>   0.1600 
 21 C      -11.1600     1.8960    -0.0370 C.ar  1 <1>   0.1600 
 22 C      -11.8750     1.2620    -1.0230 C.ar  1 <1>  -0.1500 
 23 H        0.5130    -2.0560     0.0890 H     1 <1>   0.0800 
 24 H       -0.0070    -1.0970     1.4810 H     1 <1>   0.0800 
 25 H       -2.3580     0.5440    -1.8880 H     1 <1>   0.1500 
 26 H       -1.6800    -2.6230     0.8810 H     1 <1>   0.1500 
 27 H        1.9640    -0.1870    -0.6470 H     1 <1>   0.0800 
 28 H        2.3970    -0.6820     0.9710 H     1 <1>   0.0800 
 29 H        1.4470     0.7640     0.7350 H     1 <1>   0.0800 
 30 H       -4.6290    -0.2770    -2.2860 H     1 <1>   0.1500 
 31 H       -3.9240    -3.4530     0.5090 H     1 <1>   0.1500 
 32 H       -5.8540    -3.4950    -1.2070 H     1 <1>   0.0800 
 33 H       -6.2630    -2.0140    -2.0430 H     1 <1>   0.0800 
 34 H       -6.2390    -2.3330     0.8770 H     1 <1>   0.4500 
 35 H       -8.0040    -3.7030     0.0030 H     1 <1>   0.0800 
 36 H       -8.5530    -2.3710    -0.9780 H     1 <1>   0.0800 
 37 H       -7.1410    -0.0840    -0.7980 H     1 <1>   0.0800 
 38 H       -5.8020    -0.0860     0.3140 H     1 <1>   0.0800 
 39 H       -8.6440    -2.4870     2.0430 H     1 <1>   0.0800 
 40 H       -9.9980    -2.5590     0.9610 H     1 <1>   0.0800 
 41 H       -7.8200     1.0630     1.2070 H     1 <1>   0.0800 
 42 H       -7.3320    -0.2600     2.2160 H     1 <1>   0.0800 
 43 H      -12.1070    -0.5900    -2.0380 H     1 <1>   0.1500 
 44 H      -11.3570     2.9310     0.1900 H     1 <1>   0.1500 
 45 H      -12.6370     1.7750    -1.5790 H     1 <1>   0.1500 
@<TRIPOS>BOND
  1   1   2  1   
  2   1   3  1   
  3   2   4  ar  
  4   2   5  ar  
  5   3   6  1   
  6   3  23  1   
  7   3  24  1   
  8   4   7  ar  
  9   4  25  1   
 10   5   8  ar  
 11   5  26  1   
 12   6  27  1   
 13   6  28  1   
 14   6  29  1   
 15   7   9  ar  
 16   7  30  1   
 17   8   9  ar  
 18   8  31  1   
 19   9  10  1   
 20  10  11  1   
 21  10  32  1   
 22  10  33  1   
 23  11  12  1   
 24  11  13  1   
 25  11  34  1   
 26  12  14  1   
 27  12  35  1   
 28  12  36  1   
 29  13  15  1   
 30  13  37  1   
 31  13  38  1   
 32  14  16  1   
 33  14  39  1   
 34  14  40  1   
 35  15  16  1   
 36  15  41  1   
 37  15  42  1   
 38  16  17  1   
 39  17  18  ar  
 40  17  19  ar  
 41  18  20  ar  
 42  19  21  ar  
 43  20  22  ar  
 44  20  43  1   
 45  21  22  ar  
 46  21  44  1   
 47  22  45  1   
@<TRIPOS>SUBSTRUCTURE
  1 ****  13 GROUP 4 **** **** 0

# MOE 2024.06 (io_trps.svl 2023.06)
