@<TRIPOS>MOLECULE
NONAME
37 38 1 0 0 
SMALL
USER_CHARGES


@<TRIPOS>ATOM
  1 O        0.1530     0.0740    -0.0570 O.2   1 <1>  -0.5700 
  2 C        0.0550     1.2610    -0.3050 C.2   1 <1>   0.6900 
  3 N        1.1730     2.0090    -0.5770 N.am  1 <1>  -0.6600 
  4 N       -1.1570     1.8900    -0.2880 N.am  1 <1>  -0.5470 
  5 C        2.5330     1.5080    -0.2320 C.3   1 <1>   0.1400 
  6 C        1.1720     3.2640    -1.3750 C.3   1 <1>   0.1400 
  7 C       -2.4670     1.4050    -0.1540 C.ar  1 <1>   0.1170 
  8 C        3.3060     2.5870     0.5470 C.3   1 <1>  -0.0800 
  9 C        1.9060     4.3610    -0.5980 C.3   1 <1>  -0.1600 
 10 C       -3.4660     2.2390     0.3570 C.ar  1 <1>  -0.1440 
 11 C       -2.8090     0.1130    -0.5430 C.ar  1 <1>  -0.1500 
 12 C        3.3290     3.9210    -0.2210 C.3   1 <1>  -0.1600 
 13 C        4.7360     2.1190     0.8450 C.3   1 <1>  -0.2400 
 14 C       -4.7660     1.7710     0.4690 C.ar  1 <1>  -0.1500 
 15 C       -3.1540     3.6620     0.8050 C.3   1 <1>  -0.0970 
 16 C       -4.1060    -0.3480    -0.4270 C.ar  1 <1>  -0.1500 
 17 C       -5.0880     0.4830     0.0800 C.ar  1 <1>  -0.1500 
 18 H       -1.0640     2.8940    -0.2180 H     1 <1>   0.3700 
 19 H        3.0540     1.2610    -1.1410 H     1 <1>   0.0800 
 20 H        2.4640     0.6160     0.3670 H     1 <1>   0.0800 
 21 H        0.1710     3.5800    -1.6070 H     1 <1>   0.0800 
 22 H        1.6810     3.0790    -2.3060 H     1 <1>   0.0800 
 23 H        2.8010     2.7360     1.4860 H     1 <1>   0.0800 
 24 H        1.3490     4.5920     0.2930 H     1 <1>   0.0800 
 25 H        1.9530     5.2520    -1.1980 H     1 <1>   0.0800 
 26 H       -2.0540    -0.5400    -0.9420 H     1 <1>   0.1500 
 27 H        3.9120     3.8080    -1.1190 H     1 <1>   0.0800 
 28 H        3.7920     4.6810     0.3840 H     1 <1>   0.0800 
 29 H        5.2790     1.9470    -0.0670 H     1 <1>   0.0800 
 30 H        4.7170     1.2040     1.4110 H     1 <1>   0.0800 
 31 H        5.2580     2.8620     1.4220 H     1 <1>   0.0800 
 32 H       -5.5410     2.4050     0.8620 H     1 <1>   0.1500 
 33 H       -2.8440     4.2530    -0.0370 H     1 <1>   0.0800 
 34 H       -2.3720     3.6520     1.5420 H     1 <1>   0.0800 
 35 H       -4.0200     4.1250     1.2420 H     1 <1>   0.0800 
 36 H       -4.3490    -1.3510    -0.7300 H     1 <1>   0.1500 
 37 H       -6.1000     0.1280     0.1720 H     1 <1>   0.1500 
@<TRIPOS>BOND
  1   1   2  2   
  2   2   3  am  
  3   2   4  am  
  4   3   5  1   
  5   3   6  1   
  6   4   7  1   
  7   4  18  1   
  8   5   8  1   
  9   5  19  1   
 10   5  20  1   
 11   6   9  1   
 12   6  21  1   
 13   6  22  1   
 14   7  10  ar  
 15   7  11  ar  
 16   8  12  1   
 17   8  13  1   
 18   8  23  1   
 19   9  12  1   
 20   9  24  1   
 21   9  25  1   
 22  10  14  ar  
 23  10  15  1   
 24  11  16  ar  
 25  11  26  1   
 26  12  27  1   
 27  12  28  1   
 28  13  29  1   
 29  13  30  1   
 30  13  31  1   
 31  14  17  ar  
 32  14  32  1   
 33  15  33  1   
 34  15  34  1   
 35  15  35  1   
 36  16  17  ar  
 37  16  36  1   
 38  17  37  1   
@<TRIPOS>SUBSTRUCTURE
  1 ****   4 GROUP 4 **** **** 0

# MOE 2024.06 (io_trps.svl 2023.06)
