@<TRIPOS>MOLECULE
NONAME
45 46 1 0 0 
SMALL
USER_CHARGES


@<TRIPOS>ATOM
  1 O        0.0330    -0.0990    -0.8940 O.2   1 <1>  -0.5700 
  2 C        0.0490     0.9220    -0.2360 C.2   1 <1>   0.6900 
  3 N        1.2050     1.5200     0.1600 N.am  1 <1>  -0.5470 
  4 N       -1.1100     1.5210     0.1280 N.am  1 <1>  -0.7300 
  5 C        2.5630     1.1760     0.0280 C.ar  1 <1>   0.1170 
  6 C       -2.4570     1.0350    -0.2090 C.3   1 <1>   0.2200 
  7 C        3.5190     2.1650     0.2910 C.ar  1 <1>   0.0830 
  8 C        2.9970    -0.0930    -0.3340 C.ar  1 <1>  -0.1500 
  9 C       -3.2470     2.1770    -0.8550 C.3   1 <1>  -0.1600 
 10 C       -3.1400     0.5400     1.0700 C.3   1 <1>  -0.1600 
 11 O        3.0550     3.4020     0.6580 O.3   1 <1>  -0.3630 
 12 C        4.8750     1.8720     0.1790 C.ar  1 <1>  -0.1500 
 13 C        4.3450    -0.3870    -0.4450 C.ar  1 <1>   0.0830 
 14 C       -4.7000     1.7590    -1.1300 C.3   1 <1>  -0.1600 
 15 C       -4.5930     0.1220     0.7960 C.3   1 <1>  -0.1600 
 16 C        3.9430     4.4800     0.8620 C.3   1 <1>   0.0400 
 17 C        5.2870     0.6030    -0.1880 C.ar  1 <1>  -0.1500 
 18 O        4.6660    -1.6580    -0.8060 O.3   1 <1>  -0.3630 
 19 C       -5.3930     1.2650     0.1500 C.3   1 <1>  -0.0800 
 20 C        6.0080    -2.0490    -0.9860 C.3   1 <1>   0.0400 
 21 C       -6.8230     0.8080    -0.1580 C.3   1 <1>  -0.2400 
 22 H        1.0900     2.4620     0.5200 H     1 <1>   0.3700 
 23 H       -1.0820     2.3050     0.7730 H     1 <1>   0.3700 
 24 H       -2.3870     0.2180    -0.9090 H     1 <1>   0.0800 
 25 H        2.2880    -0.8750    -0.5330 H     1 <1>   0.1500 
 26 H       -2.7760     2.4520    -1.7820 H     1 <1>   0.0800 
 27 H       -3.2470     3.0320    -0.2020 H     1 <1>   0.0800 
 28 H       -3.1330     1.3210     1.8090 H     1 <1>   0.0800 
 29 H       -2.5950    -0.3030     1.4560 H     1 <1>   0.0800 
 30 H        5.6270     2.6120     0.3740 H     1 <1>   0.1500 
 31 H       -4.7070     0.9760    -1.8680 H     1 <1>   0.0800 
 32 H       -5.2400     2.5980    -1.5350 H     1 <1>   0.0800 
 33 H       -5.0580    -0.1710     1.7220 H     1 <1>   0.0800 
 34 H       -4.5940    -0.7340     0.1420 H     1 <1>   0.0800 
 35 H        3.3610     5.3510     1.1060 H     1 <1>   0.0800 
 36 H        4.4970     4.6530    -0.0430 H     1 <1>   0.0800 
 37 H        4.6010     4.2410     1.6790 H     1 <1>   0.0800 
 38 H        6.3390     0.4050    -0.2670 H     1 <1>   0.1500 
 39 H       -5.4440     2.0830     0.8490 H     1 <1>   0.0800 
 40 H        6.0160    -3.0830    -1.2820 H     1 <1>   0.0800 
 41 H        6.5330    -1.9330    -0.0540 H     1 <1>   0.0800 
 42 H        6.4480    -1.4440    -1.7580 H     1 <1>   0.0800 
 43 H       -6.8180    -0.0110    -0.8550 H     1 <1>   0.0800 
 44 H       -7.3890     1.6180    -0.5840 H     1 <1>   0.0800 
 45 H       -7.3150     0.4890     0.7440 H     1 <1>   0.0800 
@<TRIPOS>BOND
  1   1   2  2   
  2   2   3  am  
  3   2   4  am  
  4   3   5  1   
  5   3  22  1   
  6   4   6  1   
  7   4  23  1   
  8   5   7  ar  
  9   5   8  ar  
 10   6   9  1   
 11   6  10  1   
 12   6  24  1   
 13   7  11  1   
 14   7  12  ar  
 15   8  13  ar  
 16   8  25  1   
 17   9  14  1   
 18   9  26  1   
 19   9  27  1   
 20  10  15  1   
 21  10  28  1   
 22  10  29  1   
 23  11  16  1   
 24  12  17  ar  
 25  12  30  1   
 26  13  17  ar  
 27  13  18  1   
 28  14  19  1   
 29  14  31  1   
 30  14  32  1   
 31  15  19  1   
 32  15  33  1   
 33  15  34  1   
 34  16  35  1   
 35  16  36  1   
 36  16  37  1   
 37  17  38  1   
 38  18  20  1   
 39  19  21  1   
 40  19  39  1   
 41  20  40  1   
 42  20  41  1   
 43  20  42  1   
 44  21  43  1   
 45  21  44  1   
 46  21  45  1   
@<TRIPOS>SUBSTRUCTURE
  1 ****   2 GROUP 4 **** **** 0

# MOE 2024.06 (io_trps.svl 2023.06)
