@<TRIPOS>MOLECULE
NONAME
42 43 1 0 0 
SMALL
USER_CHARGES


@<TRIPOS>ATOM
  1 O        2.3030    -2.2400    -0.3910 O.3   1 <1>  -0.3630 
  2 C        1.2260    -2.8530     0.1630 C.ar  1 <1>   0.0830 
  3 C        2.9170    -1.1360     0.2320 C.3   1 <1>   0.1200 
  4 C        0.6990    -3.9280    -0.5320 C.ar  1 <1>  -0.1500 
  5 C        0.6460    -2.4570     1.3670 C.ar  1 <1>  -0.1500 
  6 C        4.0860    -0.6840    -0.6430 C.3   1 <1>  -0.1600 
  7 C       -0.4050    -4.6150    -0.0360 C.ar  1 <1>   0.0830 
  8 C       -0.4520    -3.1390     1.8620 C.ar  1 <1>  -0.1500 
  9 C        4.8030     0.5240    -0.0250 C.3   1 <1>  -0.1600 
 10 O       -0.9770    -5.6760    -0.6580 O.3   1 <1>  -0.3630 
 11 C       -0.9740    -4.2130     1.1620 C.ar  1 <1>  -0.1500 
 12 C        5.9780     0.9890    -0.8910 C.3   1 <1>   0.0210 
 13 C       -0.4710    -6.1610    -1.8820 C.3   1 <1>   0.0400 
 14 C        6.6550     2.1890    -0.2520 C.2   1 <1>  -0.1810 
 15 C        6.3370     3.5310    -0.4560 C.2   1 <1>   0.1080 
 16 C        7.6810     2.2100     0.6280 C.2   1 <1>  -0.3320 
 17 N        7.0930     4.3260     0.2310 N.2   1 <1>  -0.7070 
 18 C        5.2480     4.0560    -1.3650 C.3   1 <1>  -0.0590 
 19 N        7.9250     3.5090     0.9000 N.pl3 1 <1>   0.3000 
 20 C        8.4690     1.0700     1.2510 C.3   1 <1>  -0.0600 
 21 H        3.2640    -1.4440     1.2030 H     1 <1>   0.0800 
 22 H        2.1870    -0.3510     0.3270 H     1 <1>   0.0800 
 23 H        1.1680    -4.2070    -1.4540 H     1 <1>   0.1500 
 24 H        1.0310    -1.6280     1.9290 H     1 <1>   0.1500 
 25 H        3.7120    -0.4210    -1.6170 H     1 <1>   0.0800 
 26 H        4.7800    -1.5000    -0.7460 H     1 <1>   0.0800 
 27 H       -0.9020    -2.8360     2.7910 H     1 <1>   0.1500 
 28 H        5.1740     0.2660     0.9530 H     1 <1>   0.0800 
 29 H        4.1080     1.3380     0.0910 H     1 <1>   0.0800 
 30 H       -1.8270    -4.7480     1.5400 H     1 <1>   0.1500 
 31 H        5.6340     1.2530    -1.8750 H     1 <1>   0.0800 
 32 H        6.6910     0.1920    -0.9980 H     1 <1>   0.0800 
 33 H       -1.0750    -6.9970    -2.1850 H     1 <1>   0.0800 
 34 H        0.5470    -6.4770    -1.7380 H     1 <1>   0.0800 
 35 H       -0.5320    -5.3790    -2.6190 H     1 <1>   0.0800 
 36 H        5.5550     3.9550    -2.3880 H     1 <1>   0.0800 
 37 H        5.0700     5.0950    -1.1550 H     1 <1>   0.0800 
 38 H        4.3380     3.5100    -1.2060 H     1 <1>   0.0800 
 39 H        8.6460     3.8690     1.5340 H     1 <1>   0.2700 
 40 H        8.0810     0.1210     0.9310 H     1 <1>   0.0800 
 41 H        8.4030     1.1190     2.3240 H     1 <1>   0.0800 
 42 H        9.5020     1.1330     0.9600 H     1 <1>   0.0800 
@<TRIPOS>BOND
  1   1   2  1   
  2   1   3  1   
  3   2   4  ar  
  4   2   5  ar  
  5   3   6  1   
  6   3  21  1   
  7   3  22  1   
  8   4   7  ar  
  9   4  23  1   
 10   5   8  ar  
 11   5  24  1   
 12   6   9  1   
 13   6  25  1   
 14   6  26  1   
 15   7  10  1   
 16   7  11  ar  
 17   8  11  ar  
 18   8  27  1   
 19   9  12  1   
 20   9  28  1   
 21   9  29  1   
 22  10  13  1   
 23  11  30  1   
 24  12  14  1   
 25  12  31  1   
 26  12  32  1   
 27  13  33  1   
 28  13  34  1   
 29  13  35  1   
 30  14  15  1   
 31  14  16  2   
 32  15  17  2   
 33  15  18  1   
 34  16  19  1   
 35  16  20  1   
 36  17  19  1   
 37  18  36  1   
 38  18  37  1   
 39  18  38  1   
 40  19  39  1   
 41  20  40  1   
 42  20  41  1   
 43  20  42  1   
@<TRIPOS>SUBSTRUCTURE
  1 ****   3 GROUP 4 **** **** 0

# MOE 2024.06 (io_trps.svl 2023.06)
