@<TRIPOS>MOLECULE
NONAME
49 49 1 0 0 
SMALL
USER_CHARGES


@<TRIPOS>ATOM
  1 O       -4.4790     7.4350     0.0240 O.3   1 <1>  -0.3630 
  2 C       -5.7190     6.8750     0.0620 C.ar  1 <1>   0.0830 
  3 C       -3.3090     6.6600    -0.0510 C.3   1 <1>   0.1200 
  4 C       -6.8190     7.7260     0.1750 C.ar  1 <1>  -0.1440 
  5 C       -5.9110     5.4970    -0.0030 C.ar  1 <1>  -0.1500 
  6 C       -2.1210     7.6240    -0.0480 C.3   1 <1>  -0.1600 
  7 C       -8.1000     7.1840     0.2410 C.ar  1 <1>  -0.1440 
  8 C       -6.6080     9.2400     0.2340 C.3   1 <1>  -0.0960 
  9 C       -7.1840     4.9610     0.0530 C.ar  1 <1>  -0.1430 
 10 C       -0.7790     6.8820    -0.1260 C.3   1 <1>  -0.1600 
 11 C       -8.2700     5.8090     0.1750 C.ar  1 <1>  -0.1500 
 12 C       -9.3420     8.0530     0.3900 C.3   1 <1>  -0.0970 
 13 C       -7.3940     3.4600    -0.0210 C.3   1 <1>  -0.0970 
 14 C        0.3790     7.8780    -0.1180 C.3   1 <1>   0.3430 
 15 N        1.6620     7.1330    -0.1950 N.4   1 <1>  -0.9060 
 16 C        2.8900     7.9320    -0.2000 C.3   1 <1>   0.5030 
 17 C        4.0450     6.9400    -0.2830 C.3   1 <1>  -0.2400 
 18 C        2.9890     8.7360     1.0960 C.3   1 <1>  -0.2400 
 19 C        2.9050     8.8510    -1.4200 C.3   1 <1>  -0.2400 
 20 H       -3.3430     6.0880    -0.9630 H     1 <1>   0.0800 
 21 H       -3.2820     6.0070     0.8040 H     1 <1>   0.0800 
 22 H       -5.0830     4.8240    -0.0980 H     1 <1>   0.1500 
 23 H       -2.1630     8.2090     0.8560 H     1 <1>   0.0800 
 24 H       -2.2210     8.2880    -0.8900 H     1 <1>   0.0800 
 25 H       -5.7100     9.5300    -0.2780 H     1 <1>   0.0800 
 26 H       -6.5340     9.5520     1.2600 H     1 <1>   0.0800 
 27 H       -7.4180     9.7670    -0.2340 H     1 <1>   0.0800 
 28 H       -0.7560     6.3010    -1.0320 H     1 <1>   0.0800 
 29 H       -0.6980     6.2210     0.7200 H     1 <1>   0.0800 
 30 H       -9.2590     5.3900     0.2190 H     1 <1>   0.1500 
 31 H       -9.2140     8.7470     1.2000 H     1 <1>   0.0800 
 32 H      -10.2100     7.4550     0.5980 H     1 <1>   0.0800 
 33 H       -9.5170     8.5990    -0.5200 H     1 <1>   0.0800 
 34 H       -6.5420     2.9390     0.3770 H     1 <1>   0.0800 
 35 H       -7.5370     3.1630    -1.0440 H     1 <1>   0.0800 
 36 H       -8.2600     3.1740     0.5490 H     1 <1>   0.0800 
 37 H        0.3420     8.4640     0.7860 H     1 <1>   0.0800 
 38 H        0.2840     8.5440    -0.9610 H     1 <1>   0.0800 
 39 H        1.6680     6.5610    -1.0450 H     1 <1>   0.4500 
 40 H        1.7220     6.4850     0.5960 H     1 <1>   0.4500 
 41 H        3.9950     6.3580    -1.1870 H     1 <1>   0.0800 
 42 H        4.0530     6.2780     0.5650 H     1 <1>   0.0800 
 43 H        4.9830     7.4690    -0.2900 H     1 <1>   0.0800 
 44 H        2.9290     8.0940     1.9580 H     1 <1>   0.0800 
 45 H        2.2230     9.4880     1.1570 H     1 <1>   0.0800 
 46 H        3.9360     9.2450     1.1340 H     1 <1>   0.0800 
 47 H        3.8490     9.3650    -1.4740 H     1 <1>   0.0800 
 48 H        2.7870     8.2900    -2.3310 H     1 <1>   0.0800 
 49 H        2.1390     9.6020    -1.3620 H     1 <1>   0.0800 
@<TRIPOS>BOND
  1   1   2  1   
  2   1   3  1   
  3   2   4  ar  
  4   2   5  ar  
  5   3   6  1   
  6   3  20  1   
  7   3  21  1   
  8   4   7  ar  
  9   4   8  1   
 10   5   9  ar  
 11   5  22  1   
 12   6  10  1   
 13   6  23  1   
 14   6  24  1   
 15   7  11  ar  
 16   7  12  1   
 17   8  25  1   
 18   8  26  1   
 19   8  27  1   
 20   9  11  ar  
 21   9  13  1   
 22  10  14  1   
 23  10  28  1   
 24  10  29  1   
 25  11  30  1   
 26  12  31  1   
 27  12  32  1   
 28  12  33  1   
 29  13  34  1   
 30  13  35  1   
 31  13  36  1   
 32  14  15  1   
 33  14  37  1   
 34  14  38  1   
 35  15  16  1   
 36  15  39  1   
 37  15  40  1   
 38  16  17  1   
 39  16  18  1   
 40  16  19  1   
 41  17  41  1   
 42  17  42  1   
 43  17  43  1   
 44  18  44  1   
 45  18  45  1   
 46  18  46  1   
 47  19  47  1   
 48  19  48  1   
 49  19  49  1   
@<TRIPOS>SUBSTRUCTURE
  1 ****   3 GROUP 4 **** **** 0

# MOE 2024.06 (io_trps.svl 2023.06)
