@<TRIPOS>MOLECULE
NONAME
40 41 1 0 0 
SMALL
USER_CHARGES


@<TRIPOS>ATOM
  1 CL      -0.6330     1.1390     3.0940 Cl    1 <1>  -0.1770 
  2 C       -1.3000     2.0040     1.7310 C.ar  1 <1>   0.1770 
  3 C       -2.6680     2.0280     1.5470 C.ar  1 <1>  -0.1500 
  4 C       -0.4430     2.6500     0.8630 C.ar  1 <1>  -0.1500 
  5 C       -3.2090     2.7130     0.4650 C.ar  1 <1>   0.1170 
  6 C       -0.9670     3.3380    -0.2190 C.ar  1 <1>  -0.1500 
  7 N       -4.5910     2.7850     0.2070 N.am  1 <1>  -0.5470 
  8 C       -2.3450     3.3720    -0.4220 C.ar  1 <1>   0.0830 
  9 C       -5.6920     2.2680     0.8300 C.2   1 <1>   0.5690 
 10 O       -2.9210     4.0330    -1.4720 O.3   1 <1>  -0.3630 
 11 O       -5.6350     1.5890     1.8270 O.2   1 <1>  -0.5700 
 12 C       -7.0520     2.5770     0.2040 C.3   1 <1>  -0.0190 
 13 C       -2.1380     4.7340    -2.4150 C.3   1 <1>   0.0400 
 14 C       -8.1990     2.5860     1.2360 C.3   1 <1>  -0.1600 
 15 C       -7.3730     1.5830    -0.9280 C.3   1 <1>  -0.1600 
 16 C       -9.5510     2.8690     0.5760 C.3   1 <1>   0.1400 
 17 C       -8.7360     1.8690    -1.5660 C.3   1 <1>   0.1400 
 18 N       -9.7870     1.8790    -0.5110 N.am  1 <1>  -0.6600 
 19 C      -10.8460     1.0080    -0.5680 C.2   1 <1>   0.5690 
 20 O      -11.0060     0.2460    -1.4910 O.2   1 <1>  -0.5700 
 21 C      -11.8730     0.9680     0.5400 C.3   1 <1>  -0.1790 
 22 H       -3.2910     1.5100     2.2500 H     1 <1>   0.1500 
 23 H        0.6180     2.6130     1.0350 H     1 <1>   0.1500 
 24 H       -0.2860     3.8340    -0.8840 H     1 <1>   0.1500 
 25 H       -4.7770     3.3320    -0.6350 H     1 <1>   0.3700 
 26 H       -6.9960     3.5630    -0.2220 H     1 <1>   0.0800 
 27 H       -2.7990     5.1740    -3.1400 H     1 <1>   0.0800 
 28 H       -1.4730     4.0420    -2.9020 H     1 <1>   0.0800 
 29 H       -1.5870     5.5070    -1.9080 H     1 <1>   0.0800 
 30 H       -8.0040     3.3320     1.9860 H     1 <1>   0.0800 
 31 H       -8.2510     1.6320     1.7330 H     1 <1>   0.0800 
 32 H       -7.3790     0.5800    -0.5380 H     1 <1>   0.0800 
 33 H       -6.6130     1.6320    -1.6880 H     1 <1>   0.0800 
 34 H       -9.5510     3.8580     0.1510 H     1 <1>   0.0800 
 35 H      -10.3250     2.8290     1.3200 H     1 <1>   0.0800 
 36 H       -8.9470     1.1200    -2.3100 H     1 <1>   0.0800 
 37 H       -8.7240     2.8270    -2.0560 H     1 <1>   0.0800 
 38 H      -12.3750     1.9140     0.6060 H     1 <1>   0.0800 
 39 H      -11.3940     0.7380     1.4720 H     1 <1>   0.0800 
 40 H      -12.6010     0.2050     0.3300 H     1 <1>   0.0800 
@<TRIPOS>BOND
  1   1   2  1   
  2   2   3  ar  
  3   2   4  ar  
  4   3   5  ar  
  5   3  22  1   
  6   4   6  ar  
  7   4  23  1   
  8   5   7  1   
  9   5   8  ar  
 10   6   8  ar  
 11   6  24  1   
 12   7   9  am  
 13   7  25  1   
 14   8  10  1   
 15   9  11  2   
 16   9  12  1   
 17  10  13  1   
 18  12  14  1   
 19  12  15  1   
 20  12  26  1   
 21  13  27  1   
 22  13  28  1   
 23  13  29  1   
 24  14  16  1   
 25  14  30  1   
 26  14  31  1   
 27  15  17  1   
 28  15  32  1   
 29  15  33  1   
 30  16  18  1   
 31  16  34  1   
 32  16  35  1   
 33  17  18  1   
 34  17  36  1   
 35  17  37  1   
 36  18  19  am  
 37  19  20  2   
 38  19  21  1   
 39  21  38  1   
 40  21  39  1   
 41  21  40  1   
@<TRIPOS>SUBSTRUCTURE
  1 ****   9 GROUP 4 **** **** 0

# MOE 2024.06 (io_trps.svl 2023.06)
