@<TRIPOS>MOLECULE
NONAME
46 48 1 0 0 
SMALL
USER_CHARGES


@<TRIPOS>ATOM
  1 CL      -1.8260    -0.3530    -2.3860 Cl    1 <1>  -0.1770 
  2 C       -2.4860     0.7970    -1.2550 C.ar  1 <1>   0.1770 
  3 C       -3.5790     0.4340    -0.4900 C.ar  1 <1>  -0.1500 
  4 C       -1.9130     2.0480    -1.1410 C.ar  1 <1>  -0.1500 
  5 C       -4.1210     1.3450     0.4070 C.ar  1 <1>  -0.1440 
  6 C       -2.4450     2.9550    -0.2410 C.ar  1 <1>  -0.1500 
  7 C       -3.5430     2.6040     0.5300 C.ar  1 <1>  -0.1500 
  8 C       -5.3330     0.9740     1.2410 C.3   1 <1>   0.4870 
  9 N       -6.5310     0.9590     0.3600 N.4   1 <1>  -0.9590 
 10 C       -6.8080     2.3180    -0.2410 C.3   1 <1>   0.3430 
 11 C       -7.7490     0.4320     1.0790 C.3   1 <1>   0.3430 
 12 C       -8.0450     2.3280    -1.1640 C.3   1 <1>   0.2090 
 13 C       -8.9920     0.3730     0.1690 C.3   1 <1>   0.2090 
 14 N       -9.2220     1.6740    -0.5200 N.pl3 1 <1>  -0.8380 
 15 C      -10.2640     2.4710    -0.0430 C.ar  1 <1>   0.1000 
 16 C      -11.5660     2.3470    -0.5420 C.ar  1 <1>  -0.1430 
 17 C      -10.0080     3.3940     0.9650 C.ar  1 <1>  -0.1500 
 18 C      -12.5870     3.1290    -0.0080 C.ar  1 <1>  -0.1430 
 19 C      -11.8640     1.3540    -1.6670 C.3   1 <1>  -0.0970 
 20 C      -11.0190     4.1770     1.4820 C.ar  1 <1>  -0.1500 
 21 C      -12.3050     4.0420     0.9970 C.ar  1 <1>  -0.1500 
 22 C      -14.0290     3.0230    -0.4900 C.3   1 <1>  -0.0970 
 23 H       -3.9810    -0.5560    -0.6110 H     1 <1>   0.1500 
 24 H       -1.0610     2.3040    -1.7470 H     1 <1>   0.1500 
 25 H       -2.0000     3.9310    -0.1400 H     1 <1>   0.1500 
 26 H       -3.9330     3.3270     1.2270 H     1 <1>   0.1500 
 27 H       -5.4640     1.6870     2.0380 H     1 <1>   0.0800 
 28 H       -5.1790     0.0000     1.6770 H     1 <1>   0.0800 
 29 H       -6.3280     0.3290    -0.4250 H     1 <1>   0.4500 
 30 H       -5.9530     2.6510    -0.8080 H     1 <1>   0.0800 
 31 H       -6.9740     3.0320     0.5470 H     1 <1>   0.0800 
 32 H       -7.9810     1.0720     1.9140 H     1 <1>   0.0800 
 33 H       -7.5530    -0.5550     1.4630 H     1 <1>   0.0800 
 34 H       -7.8180     1.8130    -2.0810 H     1 <1>   0.0800 
 35 H       -8.2950     3.3440    -1.4180 H     1 <1>   0.0800 
 36 H       -9.8570     0.1250     0.7620 H     1 <1>   0.0800 
 37 H       -8.8730    -0.4000    -0.5700 H     1 <1>   0.0800 
 38 H       -9.0180     3.5020     1.3550 H     1 <1>   0.1500 
 39 H      -10.9900     1.1570    -2.2590 H     1 <1>   0.0800 
 40 H      -12.6110     1.7380    -2.3350 H     1 <1>   0.0800 
 41 H      -12.2130     0.4280    -1.2480 H     1 <1>   0.0800 
 42 H      -10.8140     4.8910     2.2610 H     1 <1>   0.1500 
 43 H      -13.0870     4.6550     1.4100 H     1 <1>   0.1500 
 44 H      -14.3410     1.9940    -0.5070 H     1 <1>   0.0800 
 45 H      -14.1150     3.4340    -1.4800 H     1 <1>   0.0800 
 46 H      -14.6940     3.5610     0.1600 H     1 <1>   0.0800 
@<TRIPOS>BOND
  1   1   2  1   
  2   2   3  ar  
  3   2   4  ar  
  4   3   5  ar  
  5   3  23  1   
  6   4   6  ar  
  7   4  24  1   
  8   5   7  ar  
  9   5   8  1   
 10   6   7  ar  
 11   6  25  1   
 12   7  26  1   
 13   8   9  1   
 14   8  27  1   
 15   8  28  1   
 16   9  10  1   
 17   9  11  1   
 18   9  29  1   
 19  10  12  1   
 20  10  30  1   
 21  10  31  1   
 22  11  13  1   
 23  11  32  1   
 24  11  33  1   
 25  12  14  1   
 26  12  34  1   
 27  12  35  1   
 28  13  14  1   
 29  13  36  1   
 30  13  37  1   
 31  14  15  1   
 32  15  16  ar  
 33  15  17  ar  
 34  16  18  ar  
 35  16  19  1   
 36  17  20  ar  
 37  17  38  1   
 38  18  21  ar  
 39  18  22  1   
 40  19  39  1   
 41  19  40  1   
 42  19  41  1   
 43  20  21  ar  
 44  20  42  1   
 45  21  43  1   
 46  22  44  1   
 47  22  45  1   
 48  22  46  1   
@<TRIPOS>SUBSTRUCTURE
  1 ****  10 GROUP 4 **** **** 0

# MOE 2024.06 (io_trps.svl 2023.06)
