@<TRIPOS>MOLECULE
NONAME
23 25 1 0 0 
SMALL
USER_CHARGES


@<TRIPOS>ATOM
  1 S       -0.4650     0.3040     1.4150 S.3   1 <1>  -0.4600 
  2 C       -0.6560    -1.1000     0.2650 C.3   1 <1>   0.6650 
  3 C       -1.4080     1.6100     0.5760 C.3   1 <1>   0.0700 
  4 S       -1.4460    -0.3730    -1.2000 S.3   1 <1>  -0.4600 
  5 C       -1.4160    -2.3040     0.8590 C.2   1 <1>   0.5690 
  6 C        0.6840    -1.7330    -0.0750 C.ar  1 <1>  -0.1440 
  7 C       -2.3830     0.9370    -0.3880 C.3   1 <1>   0.0700 
  8 O       -2.5520    -2.3190     1.2790 O.2   1 <1>  -0.5700 
  9 N       -0.5980    -3.3890     0.8360 N.am  1 <1>  -0.5470 
 10 C        0.6410    -3.0710     0.2890 C.ar  1 <1>   0.1170 
 11 C        1.8230    -1.1890    -0.6440 C.ar  1 <1>  -0.1500 
 12 C        1.7350    -3.9020     0.0950 C.ar  1 <1>  -0.1500 
 13 C        2.9050    -2.0330    -0.8310 C.ar  1 <1>   0.1900 
 14 C        2.8840    -3.3730    -0.4740 C.ar  1 <1>  -0.1500 
 15 F        3.9940    -1.5460    -1.3670 F     1 <1>  -0.1900 
 16 H       -0.6980     2.2190     0.0440 H     1 <1>   0.0800 
 17 H       -1.9130     2.1940     1.3250 H     1 <1>   0.0800 
 18 H       -2.7520     1.6110    -1.1410 H     1 <1>   0.0800 
 19 H       -3.1990     0.4710     0.1380 H     1 <1>   0.0800 
 20 H       -0.8960    -4.3020     1.1810 H     1 <1>   0.3700 
 21 H        1.8740    -0.1540    -0.9330 H     1 <1>   0.1500 
 22 H        1.6880    -4.9380     0.3820 H     1 <1>   0.1500 
 23 H        3.7530    -3.9840    -0.6420 H     1 <1>   0.1500 
@<TRIPOS>BOND
  1   1   2  1   
  2   1   3  1   
  3   2   4  1   
  4   2   5  1   
  5   2   6  1   
  6   3   7  1   
  7   3  16  1   
  8   3  17  1   
  9   4   7  1   
 10   5   8  2   
 11   5   9  am  
 12   6  10  ar  
 13   6  11  ar  
 14   7  18  1   
 15   7  19  1   
 16   9  10  1   
 17   9  20  1   
 18  10  12  ar  
 19  11  13  ar  
 20  11  21  1   
 21  12  14  ar  
 22  12  22  1   
 23  13  14  ar  
 24  13  15  1   
 25  14  23  1   
@<TRIPOS>SUBSTRUCTURE
  1 ****   6 GROUP 4 **** **** 0

# MOE 2024.06 (io_trps.svl 2023.06)
