@<TRIPOS>MOLECULE
NONAME
38 39 1 0 0 
SMALL
USER_CHARGES


@<TRIPOS>ATOM
  1 CL      -0.1650     0.3140    -0.0580 Cl    1 <1>  -0.1770 
  2 C       -1.6300    -0.6380     0.0530 C.ar  1 <1>   0.1770 
  3 C       -2.8820    -0.0480    -0.0780 C.ar  1 <1>  -0.1440 
  4 C       -1.4780    -1.9940     0.2650 C.ar  1 <1>  -0.1500 
  5 C       -4.0160    -0.8650    -0.0080 C.ar  1 <1>   0.1170 
  6 C       -3.0040     1.4640    -0.2920 C.3   1 <1>  -0.0960 
  7 C       -2.5990    -2.7970     0.3440 C.ar  1 <1>  -0.1500 
  8 N       -5.2960    -0.3060    -0.1860 N.am  1 <1>  -0.5470 
  9 C       -3.8530    -2.2330     0.2040 C.ar  1 <1>  -0.1500 
 10 C       -6.5030    -0.6930     0.3410 C.2   1 <1>   0.5690 
 11 O       -6.6300    -1.6170     1.1090 O.2   1 <1>  -0.5700 
 12 C       -7.7870     0.0660    -0.0430 C.3   1 <1>   0.4040 
 13 N       -9.0510    -0.7210     0.2210 N.4   1 <1>  -0.9590 
 14 C       -9.1820    -1.8870    -0.7030 C.3   1 <1>   0.3430 
 15 C      -10.2730     0.1320     0.2520 C.3   1 <1>   0.3430 
 16 C      -10.3680    -2.7520    -0.2730 C.3   1 <1>  -0.1600 
 17 C      -11.4740    -0.7060     0.6970 C.3   1 <1>  -0.1600 
 18 C      -11.6680    -1.9410    -0.1910 C.3   1 <1>  -0.1600 
 19 H       -0.4930    -2.4130     0.3660 H     1 <1>   0.1500 
 20 H       -2.1550     1.9860     0.1090 H     1 <1>   0.0800 
 21 H       -3.8690     1.8600     0.2070 H     1 <1>   0.0800 
 22 H       -3.0670     1.6810    -1.3440 H     1 <1>   0.0800 
 23 H       -2.4950    -3.8560     0.5120 H     1 <1>   0.1500 
 24 H       -5.2710     0.5470    -0.7440 H     1 <1>   0.3700 
 25 H       -4.7100    -2.8790     0.2590 H     1 <1>   0.1500 
 26 H       -7.7380     0.3330    -1.0850 H     1 <1>   0.0800 
 27 H       -7.8090     0.9730     0.5360 H     1 <1>   0.0800 
 28 H       -8.9190    -1.1390     1.1590 H     1 <1>   0.4500 
 29 H       -8.2830    -2.4830    -0.6790 H     1 <1>   0.0800 
 30 H       -9.3380    -1.5410    -1.7130 H     1 <1>   0.0800 
 31 H      -10.4620     0.5350    -0.7290 H     1 <1>   0.0800 
 32 H      -10.1370     0.9520     0.9390 H     1 <1>   0.0800 
 33 H      -10.1520    -3.1990     0.6820 H     1 <1>   0.0800 
 34 H      -10.4920    -3.5550    -0.9800 H     1 <1>   0.0800 
 35 H      -12.3610    -0.0970     0.6580 H     1 <1>   0.0800 
 36 H      -11.3380    -1.0090     1.7210 H     1 <1>   0.0800 
 37 H      -12.4580    -2.5570     0.2070 H     1 <1>   0.0800 
 38 H      -11.9620    -1.6320    -1.1810 H     1 <1>   0.0800 
@<TRIPOS>BOND
  1   1   2  1   
  2   2   3  ar  
  3   2   4  ar  
  4   3   5  ar  
  5   3   6  1   
  6   4   7  ar  
  7   4  19  1   
  8   5   8  1   
  9   5   9  ar  
 10   6  20  1   
 11   6  21  1   
 12   6  22  1   
 13   7   9  ar  
 14   7  23  1   
 15   8  10  am  
 16   8  24  1   
 17   9  25  1   
 18  10  11  2   
 19  10  12  1   
 20  12  13  1   
 21  12  26  1   
 22  12  27  1   
 23  13  14  1   
 24  13  15  1   
 25  13  28  1   
 26  14  16  1   
 27  14  29  1   
 28  14  30  1   
 29  15  17  1   
 30  15  31  1   
 31  15  32  1   
 32  16  18  1   
 33  16  33  1   
 34  16  34  1   
 35  17  18  1   
 36  17  35  1   
 37  17  36  1   
 38  18  37  1   
 39  18  38  1   
@<TRIPOS>SUBSTRUCTURE
  1 ****  10 GROUP 4 **** **** 0

# MOE 2024.06 (io_trps.svl 2023.06)
