@<TRIPOS>MOLECULE
NONAME
31 33 1 0 0 
SMALL
USER_CHARGES


@<TRIPOS>ATOM
  1 CL       7.0520    -4.9660     1.6320 Cl    1 <1>  -0.1770 
  2 C        6.6850    -3.4230     0.9210 C.ar  1 <1>   0.7970 
  3 N        7.6730    -2.8980     0.1850 N.ar  1 <1>  -0.6200 
  4 N        5.4880    -2.9460     1.1840 N.ar  1 <1>  -0.5670 
  5 C        7.4080    -1.7380    -0.3590 C.ar  1 <1>   0.4100 
  6 C        5.2600    -1.7570     0.6140 C.ar  1 <1>   0.1050 
  7 N        8.4000    -1.1950    -1.1140 N.pl3 1 <1>  -0.9000 
  8 C        6.1710    -1.0950    -0.1650 C.ar  1 <1>   0.2270 
  9 N        4.1560    -0.9800     0.6660 N.pl3 1 <1>   0.0480 
 10 N        5.6510     0.0980    -0.5920 N.2   1 <1>  -0.5650 
 11 C        4.4710     0.1220    -0.0730 C.2   1 <1>   0.0360 
 12 C        2.9050    -1.3030     1.3910 C.3   1 <1>   0.4560 
 13 O        2.0510    -0.1900     1.3140 O.3   1 <1>  -0.5600 
 14 C        2.1520    -2.4680     0.7470 C.3   1 <1>  -0.1600 
 15 C        0.9280    -0.4540     0.5200 C.3   1 <1>   0.2000 
 16 C        1.2470    -1.7510    -0.2210 C.3   1 <1>   0.2000 
 17 C        0.6430     0.7260    -0.4160 C.3   1 <1>   0.1200 
 18 O        0.1090    -2.4930    -0.4900 O.3   1 <1>  -0.6800 
 19 O       -0.5000     0.4610    -1.1600 O.3   1 <1>  -0.6800 
 20 H        9.3310    -1.6120    -1.0920 H     1 <1>   0.4000 
 21 H        8.3190    -0.2290    -1.4430 H     1 <1>   0.4000 
 22 H        3.7730     0.9340    -0.1930 H     1 <1>   0.1500 
 23 H        3.1330    -1.4990     2.4240 H     1 <1>   0.0800 
 24 H        2.8060    -3.1700     0.2620 H     1 <1>   0.0800 
 25 H        1.5840    -2.9700     1.5080 H     1 <1>   0.0800 
 26 H        0.1020    -0.5940     1.1970 H     1 <1>   0.0800 
 27 H        1.7510    -1.5480    -1.1520 H     1 <1>   0.0800 
 28 H        1.4580     0.8780    -1.1020 H     1 <1>   0.0800 
 29 H        0.4680     1.6260     0.1480 H     1 <1>   0.0800 
 30 H       -0.3390    -2.7690     0.3340 H     1 <1>   0.4000 
 31 H       -0.4900    -0.4600    -1.5010 H     1 <1>   0.4000 
@<TRIPOS>BOND
  1   1   2  1   
  2   2   3  ar  
  3   2   4  ar  
  4   3   5  ar  
  5   4   6  ar  
  6   5   7  1   
  7   5   8  ar  
  8   6   8  ar  
  9   6   9  1   
 10   7  20  1   
 11   7  21  1   
 12   8  10  1   
 13   9  11  1   
 14   9  12  1   
 15  10  11  2   
 16  11  22  1   
 17  12  13  1   
 18  12  14  1   
 19  12  23  1   
 20  13  15  1   
 21  14  16  1   
 22  14  24  1   
 23  14  25  1   
 24  15  16  1   
 25  15  17  1   
 26  15  26  1   
 27  16  18  1   
 28  16  27  1   
 29  17  19  1   
 30  17  28  1   
 31  17  29  1   
 32  18  30  1   
 33  19  31  1   
@<TRIPOS>SUBSTRUCTURE
  1 ****   9 GROUP 4 **** **** 0

# MOE 2024.06 (io_trps.svl 2023.06)
