@<TRIPOS>MOLECULE
NONAME
39 40 1 0 0 
SMALL
USER_CHARGES


@<TRIPOS>ATOM
  1 F       -1.9760    -0.0570     1.3820 F     1 <1>  -0.1900 
  2 C       -2.0930    -1.0450     0.5350 C.ar  1 <1>   0.1900 
  3 C       -1.1850    -2.0920     0.5790 C.ar  1 <1>  -0.1440 
  4 C       -3.1270    -0.9960    -0.3820 C.ar  1 <1>  -0.1500 
  5 C       -1.3310    -3.1180    -0.3430 C.ar  1 <1>  -0.1500 
  6 C       -0.0580    -2.1250     1.5930 C.3   1 <1>   0.2840 
  7 C       -3.2600    -2.0300    -1.2920 C.ar  1 <1>  -0.1500 
  8 C       -2.3620    -3.0870    -1.2710 C.ar  1 <1>  -0.1500 
  9 N        1.1100    -1.4420     1.0080 N.am  1 <1>  -0.7300 
 10 C        2.3460    -1.9850     0.8900 C.2   1 <1>   0.5690 
 11 O        2.5970    -3.0860     1.3190 O.2   1 <1>  -0.5700 
 12 C        3.4350    -1.1670     0.1980 C.3   1 <1>  -0.0190 
 13 C        4.3010    -2.0260    -0.7440 C.3   1 <1>  -0.1600 
 14 C        4.3280    -0.4540     1.2290 C.3   1 <1>  -0.1600 
 15 C        5.4050    -1.1970    -1.4060 C.3   1 <1>   0.1400 
 16 C        5.4340     0.3590     0.5520 C.3   1 <1>   0.1400 
 17 N        6.2190    -0.5230    -0.3560 N.am  1 <1>  -0.6600 
 18 C        7.5710    -0.6800    -0.1850 C.2   1 <1>   0.5690 
 19 O        8.1900    -0.0760     0.6580 O.2   1 <1>  -0.5700 
 20 C        8.3550    -1.6310    -1.0600 C.3   1 <1>  -0.1790 
 21 H       -3.8110    -0.1660    -0.3800 H     1 <1>   0.1500 
 22 H       -0.6400    -3.9440    -0.3430 H     1 <1>   0.1500 
 23 H        0.1890    -3.1450     1.8380 H     1 <1>   0.0800 
 24 H       -0.3480    -1.6250     2.5020 H     1 <1>   0.0800 
 25 H       -4.0570    -2.0140    -2.0150 H     1 <1>   0.1500 
 26 H       -2.4660    -3.8900    -1.9810 H     1 <1>   0.1500 
 27 H        0.9070    -0.5210     0.6200 H     1 <1>   0.3700 
 28 H        2.9510    -0.4160    -0.3990 H     1 <1>   0.0800 
 29 H        3.6790    -2.4660    -1.5040 H     1 <1>   0.0800 
 30 H        4.7560    -2.8290    -0.1910 H     1 <1>   0.0800 
 31 H        4.7820    -1.1810     1.8810 H     1 <1>   0.0800 
 32 H        3.7300     0.2010     1.8390 H     1 <1>   0.0800 
 33 H        4.9660    -0.4460    -2.0410 H     1 <1>   0.0800 
 34 H        6.0090    -1.8370    -2.0220 H     1 <1>   0.0800 
 35 H        6.0700     0.7940     1.3050 H     1 <1>   0.0800 
 36 H        5.0060     1.1620    -0.0230 H     1 <1>   0.0800 
 37 H        8.3040    -1.3110    -2.0830 H     1 <1>   0.0800 
 38 H        7.9590    -2.6240    -0.9640 H     1 <1>   0.0800 
 39 H        9.3840    -1.6400    -0.7530 H     1 <1>   0.0800 
@<TRIPOS>BOND
  1   1   2  1   
  2   2   3  ar  
  3   2   4  ar  
  4   3   5  ar  
  5   3   6  1   
  6   4   7  ar  
  7   4  21  1   
  8   5   8  ar  
  9   5  22  1   
 10   6   9  1   
 11   6  23  1   
 12   6  24  1   
 13   7   8  ar  
 14   7  25  1   
 15   8  26  1   
 16   9  10  am  
 17   9  27  1   
 18  10  11  2   
 19  10  12  1   
 20  12  13  1   
 21  12  14  1   
 22  12  28  1   
 23  13  15  1   
 24  13  29  1   
 25  13  30  1   
 26  14  16  1   
 27  14  31  1   
 28  14  32  1   
 29  15  17  1   
 30  15  33  1   
 31  15  34  1   
 32  16  17  1   
 33  16  35  1   
 34  16  36  1   
 35  17  18  am  
 36  18  19  2   
 37  18  20  1   
 38  20  37  1   
 39  20  38  1   
 40  20  39  1   
@<TRIPOS>SUBSTRUCTURE
  1 ****  10 GROUP 4 **** **** 0

# MOE 2024.06 (io_trps.svl 2023.06)
