@<TRIPOS>MOLECULE
NONAME
54 57 1 0 0 
SMALL
USER_CHARGES


@<TRIPOS>ATOM
  1 O        1.4530    -1.5080     0.3170 O.3   1 <1>  -0.3630 
  2 C        2.7020    -1.3280     0.7570 C.ar  1 <1>   0.0830 
  3 C        1.0200    -2.7690     0.8270 C.3   1 <1>   0.4000 
  4 C        3.0960    -2.3970     1.5070 C.ar  1 <1>   0.0830 
  5 C        3.5410    -0.2560     0.5290 C.ar  1 <1>  -0.1500 
  6 O        2.1120    -3.2990     1.5750 O.3   1 <1>  -0.3630 
  7 C        4.3530    -2.4550     2.0740 C.ar  1 <1>  -0.1500 
  8 C        4.8170    -0.2920     1.0820 C.ar  1 <1>  -0.1440 
  9 C        5.2130    -1.3870     1.8520 C.ar  1 <1>  -0.1500 
 10 C        5.7910     0.8500     0.8380 C.3   1 <1>   0.2540 
 11 N        6.8920     0.3890    -0.0280 N.3   1 <1>  -0.8100 
 12 C        6.4210    -0.0290    -1.3750 C.3   1 <1>   0.1100 
 13 C        7.9760     1.3930    -0.1380 C.3   1 <1>   0.1100 
 14 C        7.5760    -0.5400    -2.2690 C.3   1 <1>   0.3430 
 15 C        9.1560     0.8770    -1.0000 C.3   1 <1>   0.3430 
 16 N        8.8740    -0.5020    -1.5250 N.4   1 <1>  -0.9590 
 17 C       10.0140    -1.1420    -2.2260 C.3   1 <1>   0.4860 
 18 C       11.1980    -1.1800    -1.2790 C.ar  1 <1>  -0.1430 
 19 C       11.1550    -1.9800    -0.1440 C.ar  1 <1>  -0.1500 
 20 C       12.3200    -0.4000    -1.5240 C.ar  1 <1>  -0.1500 
 21 C       12.2150    -1.9870     0.7470 C.ar  1 <1>   0.0830 
 22 C       13.3830    -0.4010    -0.6350 C.ar  1 <1>  -0.1500 
 23 O       12.1300    -2.7500     1.8630 O.3   1 <1>  -0.3630 
 24 C       13.3300    -1.1850     0.5050 C.ar  1 <1>   0.0830 
 25 C       12.2990    -4.1440     1.7210 C.3   1 <1>   0.1200 
 26 O       14.3670    -1.1600     1.3670 O.3   1 <1>  -0.5330 
 27 C       13.7860    -4.4730     1.5910 C.3   1 <1>  -0.2400 
 28 H        0.7880    -3.4280     0.0100 H     1 <1>   0.0800 
 29 H        0.1750    -2.6240     1.4760 H     1 <1>   0.0800 
 30 H        3.1950     0.5710    -0.0640 H     1 <1>   0.1500 
 31 H        4.6420    -3.3040     2.6660 H     1 <1>   0.1500 
 32 H        6.2010    -1.4090     2.2780 H     1 <1>   0.1500 
 33 H        6.1870     1.1710     1.7870 H     1 <1>   0.0800 
 34 H        5.2840     1.6850     0.3850 H     1 <1>   0.0800 
 35 H        5.9270     0.7940    -1.8640 H     1 <1>   0.0800 
 36 H        5.6990    -0.8230    -1.2770 H     1 <1>   0.0800 
 37 H        8.3460     1.6290     0.8450 H     1 <1>   0.0800 
 38 H        7.5920     2.3030    -0.5690 H     1 <1>   0.0800 
 39 H        7.6370     0.0700    -3.1550 H     1 <1>   0.0800 
 40 H        7.3560    -1.5490    -2.5760 H     1 <1>   0.0800 
 41 H       10.0460     0.8630    -0.3900 H     1 <1>   0.0800 
 42 H        9.3290     1.5590    -1.8150 H     1 <1>   0.0800 
 43 H        8.6810    -1.0320    -0.6610 H     1 <1>   0.4500 
 44 H       10.2690    -0.5830    -3.1120 H     1 <1>   0.0800 
 45 H        9.7550    -2.1470    -2.5150 H     1 <1>   0.0800 
 46 H       10.3040    -2.5990     0.0740 H     1 <1>   0.1500 
 47 H       12.3830     0.2190    -2.4040 H     1 <1>   0.1500 
 48 H       14.2470     0.2080    -0.8330 H     1 <1>   0.1500 
 49 H       11.7470    -4.4830     0.8620 H     1 <1>   0.0800 
 50 H       11.8950    -4.6060     2.6050 H     1 <1>   0.0800 
 51 H       15.0800    -0.5540     1.1060 H     1 <1>   0.4500 
 52 H       14.1870    -4.0500     0.6870 H     1 <1>   0.0800 
 53 H       13.9230    -5.5380     1.5590 H     1 <1>   0.0800 
 54 H       14.3230    -4.0810     2.4360 H     1 <1>   0.0800 
@<TRIPOS>BOND
  1   1   2  1   
  2   1   3  1   
  3   2   4  ar  
  4   2   5  ar  
  5   3   6  1   
  6   3  28  1   
  7   3  29  1   
  8   4   6  1   
  9   4   7  ar  
 10   5   8  ar  
 11   5  30  1   
 12   7   9  ar  
 13   7  31  1   
 14   8   9  ar  
 15   8  10  1   
 16   9  32  1   
 17  10  11  1   
 18  10  33  1   
 19  10  34  1   
 20  11  12  1   
 21  11  13  1   
 22  12  14  1   
 23  12  35  1   
 24  12  36  1   
 25  13  15  1   
 26  13  37  1   
 27  13  38  1   
 28  14  16  1   
 29  14  39  1   
 30  14  40  1   
 31  15  16  1   
 32  15  41  1   
 33  15  42  1   
 34  16  17  1   
 35  16  43  1   
 36  17  18  1   
 37  17  44  1   
 38  17  45  1   
 39  18  19  ar  
 40  18  20  ar  
 41  19  21  ar  
 42  19  46  1   
 43  20  22  ar  
 44  20  47  1   
 45  21  23  1   
 46  21  24  ar  
 47  22  24  ar  
 48  22  48  1   
 49  23  25  1   
 50  24  26  1   
 51  25  27  1   
 52  25  49  1   
 53  25  50  1   
 54  26  51  1   
 55  27  52  1   
 56  27  53  1   
 57  27  54  1   
@<TRIPOS>SUBSTRUCTURE
  1 ****  11 GROUP 4 **** **** 0

# MOE 2024.06 (io_trps.svl 2023.06)
