@<TRIPOS>MOLECULE
NONAME
25 25 1 0 0 
SMALL
USER_CHARGES


@<TRIPOS>ATOM
  1 I        0.4150    -0.0350     0.5640 I     1 <1>  -0.0810 
  2 C       -1.4880    -0.8610    -0.0110 C.ar  1 <1>   0.0810 
  3 C       -1.6420    -2.2460    -0.0290 C.ar  1 <1>  -0.1440 
  4 C       -2.5230     0.0090    -0.3520 C.ar  1 <1>  -0.1440 
  5 C       -2.8760    -2.7560    -0.3990 C.ar  1 <1>  -0.1500 
  6 C       -0.5280    -3.2210     0.3360 C.3   1 <1>  -0.0960 
  7 C       -3.7390    -0.5430    -0.7170 C.ar  1 <1>  -0.1500 
  8 C       -2.3820     1.5280    -0.3480 C.3   1 <1>  -0.0960 
  9 C       -3.9300    -1.9190    -0.7370 C.ar  1 <1>   0.1170 
 10 N       -5.1600    -2.4740    -1.1060 N.am  1 <1>  -0.5470 
 11 C       -6.4060    -2.2550    -0.6160 C.2   1 <1>   0.5690 
 12 O       -7.3500    -2.8250    -1.0980 O.2   1 <1>  -0.5700 
 13 C       -6.6330    -1.3170     0.5460 C.3   1 <1>  -0.1790 
 14 H       -3.0350    -3.8190    -0.4220 H     1 <1>   0.1500 
 15 H        0.3110    -3.0940    -0.3250 H     1 <1>   0.0800 
 16 H       -0.8630    -4.2390     0.2520 H     1 <1>   0.0800 
 17 H       -0.2080    -3.0600     1.3500 H     1 <1>   0.0800 
 18 H       -4.5560     0.0940    -1.0000 H     1 <1>   0.1500 
 19 H       -1.6140     1.8330    -1.0350 H     1 <1>   0.0800 
 20 H       -2.1340     1.8770     0.6390 H     1 <1>   0.0800 
 21 H       -3.3000     2.0020    -0.6460 H     1 <1>   0.0800 
 22 H       -5.1390    -3.2010    -1.8210 H     1 <1>   0.3700 
 23 H       -5.8430    -1.4160     1.2660 H     1 <1>   0.0800 
 24 H       -7.5670    -1.5550     1.0220 H     1 <1>   0.0800 
 25 H       -6.6730    -0.3050     0.1910 H     1 <1>   0.0800 
@<TRIPOS>BOND
  1   1   2  1   
  2   2   3  ar  
  3   2   4  ar  
  4   3   5  ar  
  5   3   6  1   
  6   4   7  ar  
  7   4   8  1   
  8   5   9  ar  
  9   5  14  1   
 10   6  15  1   
 11   6  16  1   
 12   6  17  1   
 13   7   9  ar  
 14   7  18  1   
 15   8  19  1   
 16   8  20  1   
 17   8  21  1   
 18   9  10  1   
 19  10  11  am  
 20  10  22  1   
 21  11  12  2   
 22  11  13  1   
 23  13  23  1   
 24  13  24  1   
 25  13  25  1   
@<TRIPOS>SUBSTRUCTURE
  1 ****   9 GROUP 4 **** **** 0

# MOE 2024.06 (io_trps.svl 2023.06)
