@<TRIPOS>MOLECULE
NONAME
42 44 1 0 0 
SMALL
USER_CHARGES


@<TRIPOS>ATOM
  1 F        1.7840     3.1360     2.3640 F     1 <1>  -0.3400 
  2 C        1.9610     1.9400     1.8150 C.3   1 <1>   1.1640 
  3 F        2.2960     1.1220     2.8070 F     1 <1>  -0.3400 
  4 F        0.7660     1.5430     1.3950 F     1 <1>  -0.3400 
  5 C        2.9950     1.9760     0.6790 C.ar  1 <1>  -0.1440 
  6 C        4.2300     1.3450     0.7910 C.ar  1 <1>  -0.1500 
  7 C        2.7040     2.6560    -0.5000 C.ar  1 <1>  -0.1500 
  8 C        5.1590     1.3820    -0.2390 C.ar  1 <1>   0.1000 
  9 C        3.6220     2.7010    -1.5350 C.ar  1 <1>  -0.1500 
 10 N        6.3790     0.7350    -0.0840 N.pl3 1 <1>  -0.8380 
 11 C        4.8420     2.0670    -1.4050 C.ar  1 <1>  -0.1500 
 12 C        7.5840     1.6090     0.0150 C.3   1 <1>   0.2090 
 13 C        6.5760    -0.5020    -0.8920 C.3   1 <1>   0.2090 
 14 C        8.8010     0.8030     0.5160 C.3   1 <1>   0.3430 
 15 C        7.8000    -1.2950    -0.3840 C.3   1 <1>   0.3430 
 16 N        9.0500    -0.4500    -0.2990 N.4   1 <1>  -0.9590 
 17 C       10.2030    -1.2340     0.2300 C.3   1 <1>   0.4860 
 18 C       11.4510    -0.3800     0.1750 C.ar  1 <1>  -0.1430 
 19 C       12.0950    -0.1670    -1.0350 C.ar  1 <1>   0.1600 
 20 C       11.9690     0.2020     1.3170 C.ar  1 <1>  -0.1500 
 21 N       13.1670     0.5850    -1.1940 N.ar  1 <1>  -0.6200 
 22 C       13.0980     0.9790     1.1660 C.ar  1 <1>  -0.1500 
 23 C       13.6500     1.1380    -0.0930 C.ar  1 <1>   0.1600 
 24 H        4.4950     0.8110     1.6860 H     1 <1>   0.1500 
 25 H        1.7560     3.1560    -0.6180 H     1 <1>   0.1500 
 26 H        3.3810     3.2310    -2.4410 H     1 <1>   0.1500 
 27 H        5.5490     2.1060    -2.2120 H     1 <1>   0.1500 
 28 H        7.3820     2.4140     0.7010 H     1 <1>   0.0800 
 29 H        7.8010     2.0420    -0.9460 H     1 <1>   0.0800 
 30 H        6.7090    -0.2420    -1.9280 H     1 <1>   0.0800 
 31 H        5.6940    -1.1170    -0.8160 H     1 <1>   0.0800 
 32 H        8.6200     0.5340     1.5430 H     1 <1>   0.0800 
 33 H        9.6710     1.4380     0.4900 H     1 <1>   0.0800 
 34 H        7.9650    -2.1360    -1.0370 H     1 <1>   0.0800 
 35 H        7.5580    -1.6800     0.5940 H     1 <1>   0.0800 
 36 H        9.2910    -0.1390    -1.2470 H     1 <1>   0.4500 
 37 H       10.3520    -2.1220    -0.3630 H     1 <1>   0.0800 
 38 H       10.0120    -1.5340     1.2470 H     1 <1>   0.0800 
 39 H       11.7170    -0.6320    -1.9300 H     1 <1>   0.1500 
 40 H       11.5290     0.0650     2.2920 H     1 <1>   0.1500 
 41 H       13.5550     1.4580     2.0140 H     1 <1>   0.1500 
 42 H       14.5310     1.7490    -0.2010 H     1 <1>   0.1500 
@<TRIPOS>BOND
  1   1   2  1   
  2   2   3  1   
  3   2   4  1   
  4   2   5  1   
  5   5   6  ar  
  6   5   7  ar  
  7   6   8  ar  
  8   6  24  1   
  9   7   9  ar  
 10   7  25  1   
 11   8  10  1   
 12   8  11  ar  
 13   9  11  ar  
 14   9  26  1   
 15  10  12  1   
 16  10  13  1   
 17  11  27  1   
 18  12  14  1   
 19  12  28  1   
 20  12  29  1   
 21  13  15  1   
 22  13  30  1   
 23  13  31  1   
 24  14  16  1   
 25  14  32  1   
 26  14  33  1   
 27  15  16  1   
 28  15  34  1   
 29  15  35  1   
 30  16  17  1   
 31  16  36  1   
 32  17  18  1   
 33  17  37  1   
 34  17  38  1   
 35  18  19  ar  
 36  18  20  ar  
 37  19  21  ar  
 38  19  39  1   
 39  20  22  ar  
 40  20  40  1   
 41  21  23  ar  
 42  22  23  ar  
 43  22  41  1   
 44  23  42  1   
@<TRIPOS>SUBSTRUCTURE
  1 ****  10 GROUP 4 **** **** 0

# MOE 2024.06 (io_trps.svl 2023.06)
