@<TRIPOS>MOLECULE
NONAME
35 35 1 0 0 
SMALL
USER_CHARGES


@<TRIPOS>ATOM
  1 O        3.6620    -6.0410    -0.6370 O.3   1 <1>  -0.3630 
  2 C        2.3750    -6.0290    -0.2130 C.ar  1 <1>   0.0830 
  3 C        4.6900    -5.4170     0.0970 C.3   1 <1>   0.1200 
  4 C        1.4640    -6.7360    -0.9780 C.ar  1 <1>  -0.1500 
  5 C        1.9370    -5.3590     0.9250 C.ar  1 <1>  -0.1500 
  6 C        6.0050    -5.6540    -0.6380 C.3   1 <1>  -0.2400 
  7 C        0.1280    -6.7770    -0.6230 C.ar  1 <1>  -0.1500 
  8 C        0.6000    -5.3980     1.2810 C.ar  1 <1>  -0.1500 
  9 C       -0.3120    -6.1020     0.5070 C.ar  1 <1>  -0.1430 
 10 C       -1.7750    -6.1230     0.8790 C.3   1 <1>   0.4860 
 11 N       -2.3980    -5.0000     0.1510 N.4   1 <1>  -0.9060 
 12 C       -3.8660    -4.8900     0.3910 C.3   1 <1>   0.3430 
 13 C       -4.4820    -3.7210    -0.3820 C.3   1 <1>   0.1200 
 14 O       -5.8350    -3.7170    -0.0890 O.3   1 <1>  -0.5600 
 15 C       -6.5610    -2.7050    -0.7160 C.3   1 <1>   0.0400 
 16 H        4.7200    -5.8520     1.0810 H     1 <1>   0.0800 
 17 H        4.4750    -4.3640     0.1590 H     1 <1>   0.0800 
 18 H        1.8160    -7.2560    -1.8520 H     1 <1>   0.1500 
 19 H        2.6240    -4.8080     1.5410 H     1 <1>   0.1500 
 20 H        6.2030    -6.7090    -0.7090 H     1 <1>   0.0800 
 21 H        6.8120    -5.1880    -0.1020 H     1 <1>   0.0800 
 22 H        5.9580    -5.2310    -1.6250 H     1 <1>   0.0800 
 23 H       -0.5510    -7.3440    -1.2390 H     1 <1>   0.1500 
 24 H        0.2890    -4.8740     2.1700 H     1 <1>   0.1500 
 25 H       -1.8900    -5.9980     1.9440 H     1 <1>   0.0800 
 26 H       -2.2180    -7.0610     0.5860 H     1 <1>   0.0800 
 27 H       -2.1950    -5.1310    -0.8480 H     1 <1>   0.4500 
 28 H       -1.9110    -4.1400     0.4300 H     1 <1>   0.4500 
 29 H       -4.0540    -4.7410     1.4420 H     1 <1>   0.0800 
 30 H       -4.3560    -5.7990     0.0810 H     1 <1>   0.0800 
 31 H       -4.3650    -3.8520    -1.4440 H     1 <1>   0.0800 
 32 H       -4.0630    -2.7810    -0.0630 H     1 <1>   0.0800 
 33 H       -7.5920    -2.7980    -0.4190 H     1 <1>   0.0800 
 34 H       -6.4840    -2.8150    -1.7840 H     1 <1>   0.0800 
 35 H       -6.1840    -1.7460    -0.4050 H     1 <1>   0.0800 
@<TRIPOS>BOND
  1   1   2  1   
  2   1   3  1   
  3   2   4  ar  
  4   2   5  ar  
  5   3   6  1   
  6   3  16  1   
  7   3  17  1   
  8   4   7  ar  
  9   4  18  1   
 10   5   8  ar  
 11   5  19  1   
 12   6  20  1   
 13   6  21  1   
 14   6  22  1   
 15   7   9  ar  
 16   7  23  1   
 17   8   9  ar  
 18   8  24  1   
 19   9  10  1   
 20  10  11  1   
 21  10  25  1   
 22  10  26  1   
 23  11  12  1   
 24  11  27  1   
 25  11  28  1   
 26  12  13  1   
 27  12  29  1   
 28  12  30  1   
 29  13  14  1   
 30  13  31  1   
 31  13  32  1   
 32  14  15  1   
 33  15  33  1   
 34  15  34  1   
 35  15  35  1   
@<TRIPOS>SUBSTRUCTURE
  1 ****   9 GROUP 4 **** **** 0

# MOE 2024.06 (io_trps.svl 2023.06)
