@<TRIPOS>MOLECULE
NONAME
49 50 1 0 0 
SMALL
USER_CHARGES


@<TRIPOS>ATOM
  1 N        0.7520     0.5810     1.0030 N.4   1 <1>  -0.9590 
  2 C        2.1660     0.7970     0.5030 C.3   1 <1>   0.3430 
  3 C       -0.1450     0.1030    -0.1200 C.3   1 <1>   0.3430 
  4 C        0.2470     1.8440     1.6420 C.3   1 <1>   0.2630 
  5 C        3.0620    -0.4590     0.5970 C.3   1 <1>   0.2070 
  6 C       -1.4280    -0.6350     0.3540 C.3   1 <1>   0.3430 
  7 C        4.4450    -0.2300    -0.0140 C.ar  1 <1>  -0.1440 
  8 C        2.3830    -1.6940     0.0010 C.ar  1 <1>  -0.1440 
  9 N       -2.2910    -1.1650    -0.7660 N.4   1 <1>  -0.9590 
 10 C        4.6840     0.6660    -1.0530 C.ar  1 <1>  -0.1500 
 11 C        5.5120    -0.9600     0.4930 C.ar  1 <1>  -0.1500 
 12 C        2.3690    -1.9120    -1.3720 C.ar  1 <1>  -0.1500 
 13 C        1.7770    -2.6260     0.8350 C.ar  1 <1>  -0.1500 
 14 C       -3.5770    -1.7160    -0.2210 C.3   1 <1>   0.2630 
 15 C       -1.6060    -2.2360    -1.5670 C.3   1 <1>   0.2630 
 16 C        5.9630     0.8320    -1.5570 C.ar  1 <1>  -0.1500 
 17 C        6.7890    -0.7930    -0.0120 C.ar  1 <1>  -0.1500 
 18 C        1.7530    -3.0330    -1.9000 C.ar  1 <1>  -0.1500 
 19 C        1.1580    -3.7460     0.3060 C.ar  1 <1>  -0.1500 
 20 C        7.0160     0.1050    -1.0370 C.ar  1 <1>  -0.1500 
 21 C        1.1470    -3.9510    -1.0610 C.ar  1 <1>  -0.1500 
 22 H        0.8200    -0.1500     1.7290 H     1 <1>   0.4500 
 23 H        2.6420     1.5750     1.0790 H     1 <1>   0.0800 
 24 H        2.1330     1.1290    -0.5200 H     1 <1>   0.0800 
 25 H        0.4070    -0.5780    -0.7430 H     1 <1>   0.0800 
 26 H       -0.4260     0.9470    -0.7280 H     1 <1>   0.0800 
 27 H        0.1970     2.6410     0.9170 H     1 <1>   0.0800 
 28 H        0.9080     2.1510     2.4370 H     1 <1>   0.0800 
 29 H       -0.7350     1.6950     2.0600 H     1 <1>   0.0800 
 30 H        3.2240    -0.6380     1.6460 H     1 <1>   0.0800 
 31 H       -2.0140     0.0460     0.9500 H     1 <1>   0.0800 
 32 H       -1.1350    -1.4620     0.9810 H     1 <1>   0.0800 
 33 H       -2.5510    -0.4000    -1.4120 H     1 <1>   0.4500 
 34 H        3.9020     1.2480    -1.5020 H     1 <1>   0.1500 
 35 H        5.3640    -1.6730     1.2860 H     1 <1>   0.1500 
 36 H        2.8590    -1.2270    -2.0450 H     1 <1>   0.1500 
 37 H        1.8010    -2.5110     1.9060 H     1 <1>   0.1500 
 38 H       -3.3840    -2.5400     0.4470 H     1 <1>   0.0800 
 39 H       -4.2040    -2.0690    -1.0250 H     1 <1>   0.0800 
 40 H       -4.1180    -0.9550     0.3180 H     1 <1>   0.0800 
 41 H       -1.3470    -3.0720    -0.9360 H     1 <1>   0.0800 
 42 H       -0.7040    -1.8600    -2.0220 H     1 <1>   0.0800 
 43 H       -2.2560    -2.5920    -2.3510 H     1 <1>   0.0800 
 44 H        6.1440     1.5270    -2.3600 H     1 <1>   0.1500 
 45 H        7.6080    -1.3650     0.3910 H     1 <1>   0.1500 
 46 H        1.7690    -3.2040    -2.9640 H     1 <1>   0.1500 
 47 H        0.7090    -4.4760     0.9600 H     1 <1>   0.1500 
 48 H        8.0100     0.2350    -1.4300 H     1 <1>   0.1500 
 49 H        0.6920    -4.8380    -1.4720 H     1 <1>   0.1500 
@<TRIPOS>BOND
  1   1   2  1   
  2   1   3  1   
  3   1   4  1   
  4   1  22  1   
  5   2   5  1   
  6   2  23  1   
  7   2  24  1   
  8   3   6  1   
  9   3  25  1   
 10   3  26  1   
 11   4  27  1   
 12   4  28  1   
 13   4  29  1   
 14   5   7  1   
 15   5   8  1   
 16   5  30  1   
 17   6   9  1   
 18   6  31  1   
 19   6  32  1   
 20   7  10  ar  
 21   7  11  ar  
 22   8  12  ar  
 23   8  13  ar  
 24   9  14  1   
 25   9  15  1   
 26   9  33  1   
 27  10  16  ar  
 28  10  34  1   
 29  11  17  ar  
 30  11  35  1   
 31  12  18  ar  
 32  12  36  1   
 33  13  19  ar  
 34  13  37  1   
 35  14  38  1   
 36  14  39  1   
 37  14  40  1   
 38  15  41  1   
 39  15  42  1   
 40  15  43  1   
 41  16  20  ar  
 42  16  44  1   
 43  17  20  ar  
 44  17  45  1   
 45  18  21  ar  
 46  18  46  1   
 47  19  21  ar  
 48  19  47  1   
 49  20  48  1   
 50  21  49  1   
@<TRIPOS>SUBSTRUCTURE
  1 ****   8 GROUP 4 **** **** 0

# MOE 2024.06 (io_trps.svl 2023.06)
