@<TRIPOS>MOLECULE
NONAME
39 40 1 0 0 
SMALL
USER_CHARGES


@<TRIPOS>ATOM
  1 O       -9.2220     3.1450     0.1190 O.3   1 <1>  -0.3630 
  2 C       -8.5430     4.3280     0.1630 C.ar  1 <1>   0.0830 
  3 C      -10.6280     3.0940     0.1430 C.3   1 <1>   0.1200 
  4 C       -7.1460     4.2810     0.1280 C.ar  1 <1>   0.0820 
  5 C       -9.1880     5.5600     0.2410 C.ar  1 <1>  -0.1500 
  6 C      -11.0400     1.6270     0.0820 C.3   1 <1>   0.0960 
  7 O       -6.5500     3.0550     0.0510 O.3   1 <1>  -0.3630 
  8 C       -6.4190     5.4670     0.1710 C.ar  1 <1>  -0.1500 
  9 C       -8.4530     6.7310     0.2830 C.ar  1 <1>  -0.1500 
 10 N      -12.5090     1.5240     0.1220 N.pl3 1 <1>   0.0480 
 11 C       -5.1500     2.9140    -0.0040 C.3   1 <1>   0.1200 
 12 C       -7.0710     6.6850     0.2480 C.ar  1 <1>  -0.1500 
 13 C      -13.3000     1.3660     1.2060 C.2   1 <1>   0.0360 
 14 C      -13.3630     1.5970    -0.9150 C.2   1 <1>  -0.3020 
 15 C       -4.8240     1.4230    -0.0930 C.3   1 <1>  -0.1600 
 16 N      -14.5640     1.3350     0.9360 N.2   1 <1>  -0.5650 
 17 C      -14.6070     1.4790    -0.4020 C.2   1 <1>   0.0770 
 18 C       -3.3100     1.1870    -0.1560 C.3   1 <1>  -0.1600 
 19 C       -2.9900    -0.3080    -0.2450 C.3   1 <1>  -0.2400 
 20 H      -11.0000     3.6300    -0.7120 H     1 <1>   0.0800 
 21 H      -10.9670     3.5470     1.0590 H     1 <1>   0.0800 
 22 H      -10.2580     5.6330     0.2700 H     1 <1>   0.1500 
 23 H      -10.6300     1.0960     0.9210 H     1 <1>   0.0800 
 24 H      -10.6850     1.1830    -0.8300 H     1 <1>   0.0800 
 25 H       -5.3460     5.4680     0.1460 H     1 <1>   0.1500 
 26 H       -8.9570     7.6810     0.3430 H     1 <1>   0.1500 
 27 H       -4.7300     3.3420     0.8900 H     1 <1>   0.0800 
 28 H       -4.7900     3.4340    -0.8750 H     1 <1>   0.0800 
 29 H       -6.5030     7.5990     0.2810 H     1 <1>   0.1500 
 30 H      -12.8960     1.2770     2.2000 H     1 <1>   0.1500 
 31 H      -13.0520     1.7240    -1.9360 H     1 <1>   0.1500 
 32 H       -5.2880     1.0170    -0.9750 H     1 <1>   0.0800 
 33 H       -5.2300     0.9250     0.7700 H     1 <1>   0.0800 
 34 H      -15.5450     1.4900    -0.9310 H     1 <1>   0.1500 
 35 H       -2.8420     1.5960     0.7240 H     1 <1>   0.0800 
 36 H       -2.9000     1.6880    -1.0170 H     1 <1>   0.0800 
 37 H       -3.3730    -0.8260     0.6170 H     1 <1>   0.0800 
 38 H       -1.9260    -0.4550    -0.2880 H     1 <1>   0.0800 
 39 H       -3.4310    -0.7340    -1.1290 H     1 <1>   0.0800 
@<TRIPOS>BOND
  1   1   2  1   
  2   1   3  1   
  3   2   4  ar  
  4   2   5  ar  
  5   3   6  1   
  6   3  20  1   
  7   3  21  1   
  8   4   7  1   
  9   4   8  ar  
 10   5   9  ar  
 11   5  22  1   
 12   6  10  1   
 13   6  23  1   
 14   6  24  1   
 15   7  11  1   
 16   8  12  ar  
 17   8  25  1   
 18   9  12  ar  
 19   9  26  1   
 20  10  13  1   
 21  10  14  1   
 22  11  15  1   
 23  11  27  1   
 24  11  28  1   
 25  12  29  1   
 26  13  16  2   
 27  13  30  1   
 28  14  17  2   
 29  14  31  1   
 30  15  18  1   
 31  15  32  1   
 32  15  33  1   
 33  16  17  1   
 34  17  34  1   
 35  18  19  1   
 36  18  35  1   
 37  18  36  1   
 38  19  37  1   
 39  19  38  1   
 40  19  39  1   
@<TRIPOS>SUBSTRUCTURE
  1 ****   1 GROUP 4 **** **** 0

# MOE 2024.06 (io_trps.svl 2023.06)
