@<TRIPOS>MOLECULE
NONAME
46 47 1 0 0 
SMALL
USER_CHARGES


@<TRIPOS>ATOM
  1 S       -0.5070     0.3270     1.7040 S.o2  1 <1>   1.4470 
  2 O       -1.6900     1.1340     1.8790 O.2   1 <1>  -0.6500 
  3 O        0.2650    -0.0700     2.8610 O.2   1 <1>  -0.6500 
  4 N        0.5190     1.2830     0.7820 N.am  1 <1>  -0.9140 
  5 C       -0.8420    -1.0920     0.6250 C.ar  1 <1>  -0.0090 
  6 C        1.8860     0.8010     0.7220 C.3   1 <1>   0.1960 
  7 C       -1.3100    -0.9080    -0.6700 C.ar  1 <1>  -0.1500 
  8 C       -0.6350    -2.3950     1.0610 C.ar  1 <1>  -0.1500 
  9 C        2.6820     1.7140    -0.2060 C.3   1 <1>  -0.1600 
 10 C       -1.5570    -1.9850    -1.5040 C.ar  1 <1>  -0.1500 
 11 C       -0.8800    -3.4760     0.2320 C.ar  1 <1>  -0.1500 
 12 C        4.1120     1.2020    -0.3680 C.3   1 <1>   0.1400 
 13 C       -1.3430    -3.2770    -1.0560 C.ar  1 <1>  -0.1430 
 14 N        4.8580     2.1340    -1.2320 N.am  1 <1>  -0.7300 
 15 C       -1.6130    -4.4590    -1.9690 C.3   1 <1>  -0.0970 
 16 C        5.9060     2.8810    -0.8210 C.2   1 <1>   0.6900 
 17 O        5.9390     4.0390    -1.1820 O.2   1 <1>  -0.5700 
 18 N        6.8840     2.3580    -0.0200 N.am  1 <1>  -0.6600 
 19 C        7.4030     0.9730    -0.2110 C.3   1 <1>   0.1400 
 20 C        7.8490     3.2490     0.6890 C.3   1 <1>   0.1400 
 21 C        8.8270     1.0040    -0.7910 C.3   1 <1>   0.1200 
 22 C        9.2430     3.1520     0.0490 C.3   1 <1>   0.1200 
 23 O        9.6620     1.8170    -0.0150 O.3   1 <1>  -0.5600 
 24 H        0.5080     2.1790     1.2650 H     1 <1>   0.4200 
 25 H        1.8970    -0.2060     0.3370 H     1 <1>   0.0800 
 26 H        2.3260     0.8010     1.7070 H     1 <1>   0.0800 
 27 H       -1.4810     0.0930    -1.0290 H     1 <1>   0.1500 
 28 H       -0.2770    -2.5690     2.0630 H     1 <1>   0.1500 
 29 H        2.7070     2.7070     0.2080 H     1 <1>   0.0800 
 30 H        2.2030     1.7390    -1.1690 H     1 <1>   0.0800 
 31 H       -1.9180    -1.8110    -2.5030 H     1 <1>   0.1500 
 32 H       -0.7080    -4.4750     0.5970 H     1 <1>   0.1500 
 33 H        4.1110     0.2250    -0.8220 H     1 <1>   0.0800 
 34 H        4.5900     1.1360     0.5960 H     1 <1>   0.0800 
 35 H        4.2800     2.6350    -1.9080 H     1 <1>   0.3700 
 36 H       -2.4180    -4.2360    -2.6460 H     1 <1>   0.0800 
 37 H       -1.8870    -5.3250    -1.3930 H     1 <1>   0.0800 
 38 H       -0.7310    -4.6870    -2.5400 H     1 <1>   0.0800 
 39 H        6.7670     0.4210    -0.8800 H     1 <1>   0.0800 
 40 H        7.4150     0.4650     0.7370 H     1 <1>   0.0800 
 41 H        7.9120     2.9520     1.7210 H     1 <1>   0.0800 
 42 H        7.5110     4.2700     0.6610 H     1 <1>   0.0800 
 43 H        8.8160     1.3830    -1.7980 H     1 <1>   0.0800 
 44 H        9.2480     0.0140    -0.7980 H     1 <1>   0.0800 
 45 H        9.9610     3.6950     0.6370 H     1 <1>   0.0800 
 46 H        9.2280     3.5610    -0.9460 H     1 <1>   0.0800 
@<TRIPOS>BOND
  1   1   2  2   
  2   1   3  2   
  3   1   4  am  
  4   1   5  1   
  5   4   6  1   
  6   4  24  1   
  7   5   7  ar  
  8   5   8  ar  
  9   6   9  1   
 10   6  25  1   
 11   6  26  1   
 12   7  10  ar  
 13   7  27  1   
 14   8  11  ar  
 15   8  28  1   
 16   9  12  1   
 17   9  29  1   
 18   9  30  1   
 19  10  13  ar  
 20  10  31  1   
 21  11  13  ar  
 22  11  32  1   
 23  12  14  1   
 24  12  33  1   
 25  12  34  1   
 26  13  15  1   
 27  14  16  am  
 28  14  35  1   
 29  15  36  1   
 30  15  37  1   
 31  15  38  1   
 32  16  17  2   
 33  16  18  am  
 34  18  19  1   
 35  18  20  1   
 36  19  21  1   
 37  19  39  1   
 38  19  40  1   
 39  20  22  1   
 40  20  41  1   
 41  20  42  1   
 42  21  23  1   
 43  21  43  1   
 44  21  44  1   
 45  22  23  1   
 46  22  45  1   
 47  22  46  1   
@<TRIPOS>SUBSTRUCTURE
  1 ****   6 GROUP 4 **** **** 0

# MOE 2024.06 (io_trps.svl 2023.06)
