@<TRIPOS>MOLECULE
NONAME
46 48 1 0 0 
SMALL
USER_CHARGES


@<TRIPOS>ATOM
  1 F       -3.7930     5.0080     1.2710 F     1 <1>  -0.1900 
  2 C       -2.5980     4.5290     1.0230 C.ar  1 <1>   0.1900 
  3 C       -2.4640     3.5050     0.0810 C.ar  1 <1>   0.1170 
  4 C       -1.5330     5.0670     1.7160 C.ar  1 <1>  -0.1500 
  5 N       -3.6030     3.0120    -0.5850 N.am  1 <1>  -0.5470 
  6 C       -1.1780     3.0200    -0.1590 C.ar  1 <1>  -0.1500 
  7 C       -0.2830     4.5490     1.4440 C.ar  1 <1>   0.1900 
  8 C       -3.8440     1.8890    -1.3220 C.2   1 <1>   0.5690 
  9 C       -0.0850     3.5370     0.5210 C.ar  1 <1>  -0.1500 
 10 F        0.7510     5.0320     2.0810 F     1 <1>  -0.1900 
 11 O       -3.0140     1.0490    -1.5730 O.2   1 <1>  -0.5700 
 12 C       -5.2720     1.7080    -1.8400 C.3   1 <1>   0.1710 
 13 N       -6.2890     2.4890    -1.0730 N.3   1 <1>  -0.8100 
 14 C       -7.5480     2.6110    -1.8370 C.3   1 <1>   0.1100 
 15 C       -6.5610     1.8610     0.2440 C.3   1 <1>   0.1100 
 16 C       -8.6000     3.4400    -1.0780 C.3   1 <1>   0.1400 
 17 C       -7.5740     2.6770     1.0630 C.3   1 <1>   0.1400 
 18 N       -8.8360     2.8870     0.2910 N.am  1 <1>  -0.6600 
 19 C      -10.0740     2.6540     0.8490 C.2   1 <1>   0.5690 
 20 O      -10.1630     2.2170     1.9770 O.2   1 <1>  -0.5700 
 21 C      -11.3770     2.9190     0.0480 C.3   1 <1>   0.2610 
 22 O      -11.4640     4.2580    -0.3660 O.3   1 <1>  -0.5600 
 23 C      -12.6840     2.7220     0.8190 C.3   1 <1>  -0.1600 
 24 C      -12.0290     5.0290     0.6470 C.3   1 <1>   0.1200 
 25 C      -12.9300     4.0870     1.4440 C.3   1 <1>  -0.1600 
 26 H       -1.6670     5.8530     2.4350 H     1 <1>   0.1500 
 27 H       -4.4700     3.5420    -0.4270 H     1 <1>   0.3700 
 28 H       -1.0220     2.2360    -0.8790 H     1 <1>   0.1500 
 29 H        0.9070     3.1630     0.3380 H     1 <1>   0.1500 
 30 H       -5.5210     0.6620    -1.8260 H     1 <1>   0.0800 
 31 H       -5.2740     2.0330    -2.8650 H     1 <1>   0.0800 
 32 H       -7.9520     1.6330    -2.0390 H     1 <1>   0.0800 
 33 H       -7.3490     3.0920    -2.7790 H     1 <1>   0.0800 
 34 H       -5.6490     1.7840     0.8100 H     1 <1>   0.0800 
 35 H       -6.9500     0.8660     0.1060 H     1 <1>   0.0800 
 36 H       -9.5060     3.4520    -1.6540 H     1 <1>   0.0800 
 37 H       -8.2540     4.4550    -0.9900 H     1 <1>   0.0800 
 38 H       -7.1470     3.6340     1.3050 H     1 <1>   0.0800 
 39 H       -7.7750     2.1620     1.9860 H     1 <1>   0.0800 
 40 H      -11.3690     2.2990    -0.8290 H     1 <1>   0.0800 
 41 H      -12.6280     1.9330     1.5480 H     1 <1>   0.0800 
 42 H      -13.4660     2.4920     0.1190 H     1 <1>   0.0800 
 43 H      -12.5790     5.8380     0.1980 H     1 <1>   0.0800 
 44 H      -11.2330     5.4160     1.2600 H     1 <1>   0.0800 
 45 H      -12.6330     4.0950     2.4780 H     1 <1>   0.0800 
 46 H      -13.9630     4.3780     1.3710 H     1 <1>   0.0800 
@<TRIPOS>BOND
  1   1   2  1   
  2   2   3  ar  
  3   2   4  ar  
  4   3   5  1   
  5   3   6  ar  
  6   4   7  ar  
  7   4  26  1   
  8   5   8  am  
  9   5  27  1   
 10   6   9  ar  
 11   6  28  1   
 12   7   9  ar  
 13   7  10  1   
 14   8  11  2   
 15   8  12  1   
 16   9  29  1   
 17  12  13  1   
 18  12  30  1   
 19  12  31  1   
 20  13  14  1   
 21  13  15  1   
 22  14  16  1   
 23  14  32  1   
 24  14  33  1   
 25  15  17  1   
 26  15  34  1   
 27  15  35  1   
 28  16  18  1   
 29  16  36  1   
 30  16  37  1   
 31  17  18  1   
 32  17  38  1   
 33  17  39  1   
 34  18  19  am  
 35  19  20  2   
 36  19  21  1   
 37  21  22  1   
 38  21  23  1   
 39  21  40  1   
 40  22  24  1   
 41  23  25  1   
 42  23  41  1   
 43  23  42  1   
 44  24  25  1   
 45  24  43  1   
 46  24  44  1   
 47  25  45  1   
 48  25  46  1   
@<TRIPOS>SUBSTRUCTURE
  1 ****  15 GROUP 4 **** **** 0

# MOE 2024.06 (io_trps.svl 2023.06)
