@<TRIPOS>MOLECULE
NONAME
52 53 1 0 0 
SMALL
USER_CHARGES


@<TRIPOS>ATOM
  1 O        0.4520     0.3700    -0.8180 O.3   1 <1>  -0.3630 
  2 C        1.5580     1.0270    -0.3740 C.ar  1 <1>   0.0830 
  3 C       -0.7350     0.6040    -0.0940 C.3   1 <1>   0.0400 
  4 C        2.5360     0.3700     0.3850 C.ar  1 <1>   0.0830 
  5 C        1.7170     2.3820    -0.6830 C.ar  1 <1>   0.0820 
  6 O        2.5380    -0.9470     0.7350 O.3   1 <1>  -0.3630 
  7 C        3.6300     1.0810     0.8460 C.ar  1 <1>  -0.1500 
  8 O        0.7570     2.9850    -1.4420 O.3   1 <1>  -0.3630 
  9 C        2.8360     3.0710    -0.2220 C.ar  1 <1>  -0.1500 
 10 C        1.8760    -1.9230    -0.0410 C.3   1 <1>   0.0400 
 11 C        3.7950     2.4210     0.5400 C.ar  1 <1>  -0.1430 
 12 C        0.7260     4.3770    -1.6730 C.3   1 <1>   0.0400 
 13 C        5.0300     3.1460     1.0190 C.3   1 <1>   0.4860 
 14 N        6.1080     2.7610     0.0750 N.4   1 <1>  -0.9060 
 15 C        7.4690     3.2380     0.4100 C.3   1 <1>   0.4230 
 16 C        7.5790     4.7520     0.2020 C.3   1 <1>  -0.1600 
 17 C        8.4750     2.5070    -0.4800 C.3   1 <1>  -0.1600 
 18 C        9.0120     5.2400     0.4320 C.3   1 <1>   0.3430 
 19 C        9.8990     3.0120    -0.2390 C.3   1 <1>   0.3430 
 20 N        9.9590     4.4910    -0.4440 N.4   1 <1>  -0.9590 
 21 C       11.3450     5.0110    -0.2410 C.3   1 <1>   0.3430 
 22 C       12.2300     4.5910    -1.4090 C.3   1 <1>  -0.2400 
 23 H       -1.5110    -0.0100    -0.5140 H     1 <1>   0.0800 
 24 H       -1.0040     1.6420    -0.1810 H     1 <1>   0.0800 
 25 H       -0.5720     0.3430     0.9360 H     1 <1>   0.0800 
 26 H        4.3440     0.5470     1.4490 H     1 <1>   0.1500 
 27 H        2.9580     4.1110    -0.4590 H     1 <1>   0.1500 
 28 H        2.2660    -2.8880     0.2260 H     1 <1>   0.0800 
 29 H        2.0560    -1.7280    -1.0840 H     1 <1>   0.0800 
 30 H        0.8240    -1.8860     0.1750 H     1 <1>   0.0800 
 31 H       -0.1640     4.5990    -2.2350 H     1 <1>   0.0800 
 32 H        1.5930     4.6580    -2.2440 H     1 <1>   0.0800 
 33 H        0.6950     4.8890    -0.7280 H     1 <1>   0.0800 
 34 H        5.2680     2.8340     2.0230 H     1 <1>   0.0800 
 35 H        4.8650     4.2110     1.0070 H     1 <1>   0.0800 
 36 H        5.8140     3.0570    -0.8640 H     1 <1>   0.4500 
 37 H        6.0840     1.7320     0.0390 H     1 <1>   0.4500 
 38 H        7.6860     3.0050     1.4420 H     1 <1>   0.0800 
 39 H        6.9400     5.2690     0.8970 H     1 <1>   0.0800 
 40 H        7.2780     5.0230    -0.7960 H     1 <1>   0.0800 
 41 H        8.2340     2.6400    -1.5200 H     1 <1>   0.0800 
 42 H        8.4540     1.4540    -0.2620 H     1 <1>   0.0800 
 43 H        9.2850     5.0960     1.4670 H     1 <1>   0.0800 
 44 H        9.0730     6.2960     0.2180 H     1 <1>   0.0800 
 45 H       10.5730     2.5170    -0.9210 H     1 <1>   0.0800 
 46 H       10.2090     2.7720     0.7660 H     1 <1>   0.0800 
 47 H        9.7340     4.6990    -1.4290 H     1 <1>   0.4500 
 48 H       11.7560     4.6430     0.6870 H     1 <1>   0.0800 
 49 H       11.3280     6.0890    -0.1950 H     1 <1>   0.0800 
 50 H       12.3690     3.5260    -1.4440 H     1 <1>   0.0800 
 51 H       13.2020     5.0370    -1.2880 H     1 <1>   0.0800 
 52 H       11.8270     4.9380    -2.3440 H     1 <1>   0.0800 
@<TRIPOS>BOND
  1   1   2  1   
  2   1   3  1   
  3   2   4  ar  
  4   2   5  ar  
  5   3  23  1   
  6   3  24  1   
  7   3  25  1   
  8   4   6  1   
  9   4   7  ar  
 10   5   8  1   
 11   5   9  ar  
 12   6  10  1   
 13   7  11  ar  
 14   7  26  1   
 15   8  12  1   
 16   9  11  ar  
 17   9  27  1   
 18  10  28  1   
 19  10  29  1   
 20  10  30  1   
 21  11  13  1   
 22  12  31  1   
 23  12  32  1   
 24  12  33  1   
 25  13  14  1   
 26  13  34  1   
 27  13  35  1   
 28  14  15  1   
 29  14  36  1   
 30  14  37  1   
 31  15  16  1   
 32  15  17  1   
 33  15  38  1   
 34  16  18  1   
 35  16  39  1   
 36  16  40  1   
 37  17  19  1   
 38  17  41  1   
 39  17  42  1   
 40  18  20  1   
 41  18  43  1   
 42  18  44  1   
 43  19  20  1   
 44  19  45  1   
 45  19  46  1   
 46  20  21  1   
 47  20  47  1   
 48  21  22  1   
 49  21  48  1   
 50  21  49  1   
 51  22  50  1   
 52  22  51  1   
 53  22  52  1   
@<TRIPOS>SUBSTRUCTURE
  1 ****  14 GROUP 4 **** **** 0

# MOE 2024.06 (io_trps.svl 2023.06)
