@<TRIPOS>MOLECULE
NONAME
34 34 1 0 0 
SMALL
USER_CHARGES


@<TRIPOS>ATOM
  1 S        0.0710    -0.1210     1.0780 S.3   1 <1>  -0.3320 
  2 C       -1.0000     1.0230     0.1810 C.ar  1 <1>   0.1020 
  3 C        1.3020    -0.6580    -0.2050 C.3   1 <1>   0.1310 
  4 C       -1.2450     2.2860     0.7230 C.ar  1 <1>   0.1000 
  5 C       -1.5500     0.6290    -1.0240 C.ar  1 <1>  -0.1500 
  6 C        2.7300    -0.4560     0.2880 C.2   1 <1>   0.5690 
  7 N       -0.6840     2.6840     1.9290 N.pl3 1 <1>  -0.9000 
  8 C       -2.0650     3.1520     0.0120 C.ar  1 <1>  -0.1500 
  9 C       -2.3640     1.5090    -1.7180 C.ar  1 <1>  -0.1500 
 10 O        3.3220    -1.4470     0.6530 O.2   1 <1>  -0.5700 
 11 N        3.3310     0.7840     0.2810 N.am  1 <1>  -0.6600 
 12 C       -2.6190     2.7690    -1.1970 C.ar  1 <1>  -0.1500 
 13 C        2.6190     2.0560    -0.0320 C.3   1 <1>   0.1400 
 14 C        4.7280     0.9330     0.7770 C.3   1 <1>   0.1400 
 15 C        2.7850     2.4080    -1.5080 C.3   1 <1>  -0.2400 
 16 C        5.7190     0.6230    -0.3420 C.3   1 <1>  -0.2400 
 17 H        1.1260    -0.0870    -1.0950 H     1 <1>   0.0800 
 18 H        1.1200    -1.6990    -0.3970 H     1 <1>   0.0800 
 19 H       -1.3560    -0.3530    -1.4160 H     1 <1>   0.1500 
 20 H       -1.2940     3.2380     2.5350 H     1 <1>   0.4000 
 21 H       -0.2640     1.9020     2.4500 H     1 <1>   0.4000 
 22 H       -2.2620     4.1320     0.4080 H     1 <1>   0.1500 
 23 H       -2.8010     1.2160    -2.6570 H     1 <1>   0.1500 
 24 H       -3.2520     3.4520    -1.7370 H     1 <1>   0.1500 
 25 H        3.0050     2.8540     0.5790 H     1 <1>   0.0800 
 26 H        1.5740     1.9690     0.1980 H     1 <1>   0.0800 
 27 H        4.8890     0.2510     1.5950 H     1 <1>   0.0800 
 28 H        4.8890     1.9310     1.1460 H     1 <1>   0.0800 
 29 H        3.8110     2.6350    -1.7280 H     1 <1>   0.0800 
 30 H        2.1930     3.2770    -1.7350 H     1 <1>   0.0800 
 31 H        2.4550     1.5990    -2.1320 H     1 <1>   0.0800 
 32 H        5.5680    -0.3800    -0.7000 H     1 <1>   0.0800 
 33 H        6.7220     0.7000     0.0350 H     1 <1>   0.0800 
 34 H        5.6080     1.3140    -1.1560 H     1 <1>   0.0800 
@<TRIPOS>BOND
  1   1   2  1   
  2   1   3  1   
  3   2   4  ar  
  4   2   5  ar  
  5   3   6  1   
  6   3  17  1   
  7   3  18  1   
  8   4   7  1   
  9   4   8  ar  
 10   5   9  ar  
 11   5  19  1   
 12   6  10  2   
 13   6  11  am  
 14   7  20  1   
 15   7  21  1   
 16   8  12  ar  
 17   8  22  1   
 18   9  12  ar  
 19   9  23  1   
 20  11  13  1   
 21  11  14  1   
 22  12  24  1   
 23  13  15  1   
 24  13  25  1   
 25  13  26  1   
 26  14  16  1   
 27  14  27  1   
 28  14  28  1   
 29  15  29  1   
 30  15  30  1   
 31  15  31  1   
 32  16  32  1   
 33  16  33  1   
 34  16  34  1   
@<TRIPOS>SUBSTRUCTURE
  1 ****   3 GROUP 4 **** **** 0

# MOE 2024.06 (io_trps.svl 2023.06)
