@<TRIPOS>MOLECULE
NONAME
37 39 1 0 0 
SMALL
USER_CHARGES


@<TRIPOS>ATOM
  1 CL       0.6680    -0.3670     2.2090 Cl    1 <1>  -0.1770 
  2 C       -0.7010    -1.0590     1.3640 C.ar  1 <1>   0.1770 
  3 C       -0.4930    -1.9620     0.3230 C.ar  1 <1>   0.0830 
  4 C       -1.9720    -0.6870     1.7570 C.ar  1 <1>  -0.1500 
  5 O        0.7890    -2.2730     0.0010 O.3   1 <1>  -0.3630 
  6 C       -1.5990    -2.5000    -0.3350 C.ar  1 <1>  -0.1500 
  7 C       -3.0510    -1.2330     1.0900 C.ar  1 <1>   0.1770 
  8 C        1.1080    -3.1810    -1.0460 C.3   1 <1>   0.1810 
  9 C       -2.8790    -2.1330     0.0530 C.ar  1 <1>  -0.1500 
 10 CL      -4.6680    -0.7800     1.5670 Cl    1 <1>  -0.1770 
 11 C        2.6160    -3.3450    -1.1940 C.2   1 <1>   0.5690 
 12 O        3.0320    -4.1000    -2.0400 O.2   1 <1>  -0.5700 
 13 N        3.4440    -2.6450    -0.3770 N.am  1 <1>  -0.7300 
 14 C        4.9170    -2.6920    -0.3780 C.3   1 <1>   0.2200 
 15 C        5.4300    -3.0550     1.0270 C.3   1 <1>  -0.0800 
 16 C        5.4880    -1.2800    -0.5940 C.3   1 <1>  -0.1600 
 17 C        5.4120    -1.7080     1.7380 C.3   1 <1>  -0.1600 
 18 C        6.9420    -3.3190     0.9260 C.3   1 <1>  -0.1600 
 19 C        6.2770    -1.0130     0.7010 C.3   1 <1>  -0.0800 
 20 C        7.5240    -1.9120     0.6970 C.3   1 <1>  -0.1600 
 21 H       -2.1180     0.0100     2.5610 H     1 <1>   0.1500 
 22 H       -1.4890    -3.2000    -1.1430 H     1 <1>   0.1500 
 23 H        0.7030    -2.7990    -1.9650 H     1 <1>   0.0800 
 24 H        0.6700    -4.1350    -0.8160 H     1 <1>   0.0800 
 25 H       -3.7430    -2.5390    -0.4440 H     1 <1>   0.1500 
 26 H        3.0230    -2.0310     0.3250 H     1 <1>   0.3700 
 27 H        5.2710    -3.3870    -1.1220 H     1 <1>   0.0800 
 28 H        4.8820    -3.8500     1.5020 H     1 <1>   0.0800 
 29 H        4.7030    -0.5540    -0.7130 H     1 <1>   0.0800 
 30 H        6.1290    -1.2500    -1.4570 H     1 <1>   0.0800 
 31 H        5.8740    -1.7440     2.7110 H     1 <1>   0.0800 
 32 H        4.4270    -1.2800     1.8150 H     1 <1>   0.0800 
 33 H        7.1790    -3.9910     0.1190 H     1 <1>   0.0800 
 34 H        7.3120    -3.7300     1.8490 H     1 <1>   0.0800 
 35 H        6.4810     0.0280     0.8890 H     1 <1>   0.0800 
 36 H        8.0680    -1.8450    -0.2290 H     1 <1>   0.0800 
 37 H        8.1790    -1.6450     1.5100 H     1 <1>   0.0800 
@<TRIPOS>BOND
  1   1   2  1   
  2   2   3  ar  
  3   2   4  ar  
  4   3   5  1   
  5   3   6  ar  
  6   4   7  ar  
  7   4  21  1   
  8   5   8  1   
  9   6   9  ar  
 10   6  22  1   
 11   7   9  ar  
 12   7  10  1   
 13   8  11  1   
 14   8  23  1   
 15   8  24  1   
 16   9  25  1   
 17  11  12  2   
 18  11  13  am  
 19  13  14  1   
 20  13  26  1   
 21  14  15  1   
 22  14  16  1   
 23  14  27  1   
 24  15  17  1   
 25  15  18  1   
 26  15  28  1   
 27  16  19  1   
 28  16  29  1   
 29  16  30  1   
 30  17  19  1   
 31  17  31  1   
 32  17  32  1   
 33  18  20  1   
 34  18  33  1   
 35  18  34  1   
 36  19  20  1   
 37  19  35  1   
 38  20  36  1   
 39  20  37  1   
@<TRIPOS>SUBSTRUCTURE
  1 ****   5 GROUP 4 **** **** 0

# MOE 2024.06 (io_trps.svl 2023.06)
