@<TRIPOS>MOLECULE
NONAME
58 59 1 0 0 
SMALL
USER_CHARGES


@<TRIPOS>ATOM
  1 S        0.3990    -0.0750    -1.6750 S.o2  1 <1>   1.4470 
  2 O        1.8100    -0.3950    -1.7300 O.2   1 <1>  -0.6500 
  3 O       -0.3020     0.2510    -2.8950 O.2   1 <1>  -0.6500 
  4 N        0.2830     1.3240    -0.6610 N.am  1 <1>  -0.6930 
  5 C       -0.4880    -1.3490    -0.7320 C.ar  1 <1>  -0.0090 
  6 C       -0.9250     1.7760    -0.1500 C.ar  1 <1>   0.1990 
  7 C        1.4270     2.2810    -0.6910 C.3   1 <1>   0.2570 
  8 C        0.1930    -2.3230    -0.0100 C.ar  1 <1>  -0.1500 
  9 C       -1.8780    -1.3750    -0.6930 C.ar  1 <1>  -0.1500 
 10 C       -1.0900     1.8830     1.2250 C.ar  1 <1>  -0.1500 
 11 C       -1.9820     2.1330    -0.9790 C.ar  1 <1>  -0.1500 
 12 C        2.4700     2.0230     0.3970 C.2   1 <1>   0.5690 
 13 C       -0.4810    -3.2800     0.7280 C.ar  1 <1>  -0.1500 
 14 C       -2.5630    -2.3280     0.0420 C.ar  1 <1>  -0.1500 
 15 C       -2.2880     2.3190     1.7610 C.ar  1 <1>  -0.1500 
 16 C       -3.1810     2.5690    -0.4450 C.ar  1 <1>  -0.1500 
 17 O        2.5380     2.7870     1.3320 O.2   1 <1>  -0.5700 
 18 N        3.3010     0.9540     0.2810 N.am  1 <1>  -0.7300 
 19 C       -1.8630    -3.2830     0.7550 C.ar  1 <1>  -0.1500 
 20 C       -3.3410     2.6630     0.9290 C.ar  1 <1>  -0.1430 
 21 C        4.3430     0.5620     1.2570 C.3   1 <1>   0.2200 
 22 C       -4.6560     3.1380     1.5190 C.3   1 <1>  -0.0970 
 23 C        5.7430     0.7150     0.6020 C.3   1 <1>  -0.0800 
 24 C        4.0200    -0.8530     1.8090 C.3   1 <1>  -0.0800 
 25 C        6.8840     0.3150     1.5530 C.3   1 <1>  -0.2400 
 26 C        5.9940     2.1610     0.1350 C.3   1 <1>  -0.2400 
 27 C        4.1330    -1.9710     0.7570 C.3   1 <1>  -0.2400 
 28 C        2.6320    -0.8960     2.4720 C.3   1 <1>  -0.2400 
 29 H        1.0510     3.2810    -0.5600 H     1 <1>   0.0800 
 30 H        1.9080     2.2400    -1.6510 H     1 <1>   0.0800 
 31 H        1.2680    -2.3370    -0.0230 H     1 <1>   0.1500 
 32 H       -2.4370    -0.6380    -1.2440 H     1 <1>   0.1500 
 33 H       -0.2730     1.6220     1.8740 H     1 <1>   0.1500 
 34 H       -1.8660     2.0730    -2.0460 H     1 <1>   0.1500 
 35 H        0.0690    -4.0230     1.2800 H     1 <1>   0.1500 
 36 H       -3.6390    -2.3240     0.0580 H     1 <1>   0.1500 
 37 H       -2.3960     2.3910     2.8290 H     1 <1>   0.1500 
 38 H       -3.9890     2.8360    -1.1030 H     1 <1>   0.1500 
 39 H        3.1440     0.2870    -0.4860 H     1 <1>   0.3700 
 40 H       -2.3920    -4.0250     1.3280 H     1 <1>   0.1500 
 41 H        4.3020     1.2460     2.0890 H     1 <1>   0.0800 
 42 H       -5.2750     2.2920     1.7560 H     1 <1>   0.0800 
 43 H       -5.1790     3.7680     0.8220 H     1 <1>   0.0800 
 44 H       -4.4800     3.7020     2.4180 H     1 <1>   0.0800 
 45 H        5.7910     0.0770    -0.2630 H     1 <1>   0.0800 
 46 H        4.7300    -1.0690     2.5890 H     1 <1>   0.0800 
 47 H        6.8340     0.8870     2.4640 H     1 <1>   0.0800 
 48 H        7.8380     0.4960     1.0890 H     1 <1>   0.0800 
 49 H        6.8370    -0.7300     1.7960 H     1 <1>   0.0800 
 50 H        5.9000     2.8450     0.9610 H     1 <1>   0.0800 
 51 H        5.2870     2.4470    -0.6230 H     1 <1>   0.0800 
 52 H        6.9800     2.2590    -0.2830 H     1 <1>   0.0800 
 53 H        3.5080    -1.7680    -0.0920 H     1 <1>   0.0800 
 54 H        3.8390    -2.9150     1.1810 H     1 <1>   0.0800 
 55 H        5.1470    -2.0690     0.4140 H     1 <1>   0.0800 
 56 H        1.8510    -0.7280     1.7530 H     1 <1>   0.0800 
 57 H        2.5600    -0.1330     3.2280 H     1 <1>   0.0800 
 58 H        2.4660    -1.8510     2.9390 H     1 <1>   0.0800 
@<TRIPOS>BOND
  1   1   2  2   
  2   1   3  2   
  3   1   4  am  
  4   1   5  1   
  5   4   6  1   
  6   4   7  1   
  7   5   8  ar  
  8   5   9  ar  
  9   6  10  ar  
 10   6  11  ar  
 11   7  12  1   
 12   7  29  1   
 13   7  30  1   
 14   8  13  ar  
 15   8  31  1   
 16   9  14  ar  
 17   9  32  1   
 18  10  15  ar  
 19  10  33  1   
 20  11  16  ar  
 21  11  34  1   
 22  12  17  2   
 23  12  18  am  
 24  13  19  ar  
 25  13  35  1   
 26  14  19  ar  
 27  14  36  1   
 28  15  20  ar  
 29  15  37  1   
 30  16  20  ar  
 31  16  38  1   
 32  18  21  1   
 33  18  39  1   
 34  19  40  1   
 35  20  22  1   
 36  21  23  1   
 37  21  24  1   
 38  21  41  1   
 39  22  42  1   
 40  22  43  1   
 41  22  44  1   
 42  23  25  1   
 43  23  26  1   
 44  23  45  1   
 45  24  27  1   
 46  24  28  1   
 47  24  46  1   
 48  25  47  1   
 49  25  48  1   
 50  25  49  1   
 51  26  50  1   
 52  26  51  1   
 53  26  52  1   
 54  27  53  1   
 55  27  54  1   
 56  27  55  1   
 57  28  56  1   
 58  28  57  1   
 59  28  58  1   
@<TRIPOS>SUBSTRUCTURE
  1 ****   4 GROUP 4 **** **** 0

# MOE 2024.06 (io_trps.svl 2023.06)
