@<TRIPOS>MOLECULE
NONAME
44 45 1 0 0 
SMALL
USER_CHARGES


@<TRIPOS>ATOM
  1 O        0.0330    -0.6140     0.5040 O.3   1 <1>  -0.3630 
  2 C       -1.1720    -1.0410     0.0660 C.ar  1 <1>   0.0830 
  3 C        1.1450    -1.0590    -0.2340 C.3   1 <1>   0.1200 
  4 C       -1.7040    -2.2300     0.5620 C.ar  1 <1>  -0.1440 
  5 C       -1.8740    -0.2820    -0.8680 C.ar  1 <1>  -0.1440 
  6 C        2.4060    -0.4750     0.4040 C.3   1 <1>  -0.1600 
  7 C       -2.9290    -2.6690     0.0880 C.ar  1 <1>  -0.1500 
  8 C       -0.9700    -3.0490     1.6140 C.3   1 <1>  -0.0960 
  9 C       -3.0970    -0.7410    -1.3280 C.ar  1 <1>  -0.1500 
 10 C       -1.3270     1.0400    -1.3870 C.3   1 <1>  -0.0970 
 11 C        3.6680    -0.9160    -0.3500 C.3   1 <1>  -0.1600 
 12 C       -3.6220    -1.9310    -0.8550 C.ar  1 <1>  -0.1500 
 13 C        4.9290    -0.3290     0.2960 C.3   1 <1>  -0.1600 
 14 C        6.1910    -0.7700    -0.4560 C.3   1 <1>  -0.1600 
 15 C        7.4550    -0.1900     0.1910 C.3   1 <1>   0.0960 
 16 N        8.6570    -0.6260    -0.5440 N.pl3 1 <1>   0.0480 
 17 C        9.3290     0.0430    -1.5080 C.2   1 <1>   0.0360 
 18 C        9.3290    -1.7820    -0.4020 C.2   1 <1>  -0.3020 
 19 N       10.3540    -0.5930    -1.9750 N.2   1 <1>  -0.5650 
 20 C       10.3560    -1.7450    -1.2790 C.2   1 <1>   0.0770 
 21 H        1.0350    -0.7230    -1.2500 H     1 <1>   0.0800 
 22 H        1.1620    -2.1340    -0.2090 H     1 <1>   0.0800 
 23 H        2.4630    -0.8060     1.4260 H     1 <1>   0.0800 
 24 H        2.3360     0.5990     0.3920 H     1 <1>   0.0800 
 25 H       -3.3530    -3.5880     0.4530 H     1 <1>   0.1500 
 26 H       -0.5280    -2.3980     2.3480 H     1 <1>   0.0800 
 27 H       -0.1950    -3.6300     1.1510 H     1 <1>   0.0800 
 28 H       -1.6470    -3.7130     2.1200 H     1 <1>   0.0800 
 29 H       -3.6510    -0.1730    -2.0550 H     1 <1>   0.1500 
 30 H       -0.5850     0.8590    -2.1430 H     1 <1>   0.0800 
 31 H       -0.8780     1.5960    -0.5840 H     1 <1>   0.0800 
 32 H       -2.1130     1.6390    -1.8100 H     1 <1>   0.0800 
 33 H        3.6040    -0.5890    -1.3740 H     1 <1>   0.0800 
 34 H        3.7290    -1.9910    -0.3450 H     1 <1>   0.0800 
 35 H       -4.5720    -2.2800    -1.2180 H     1 <1>   0.1500 
 36 H        4.9880    -0.6560     1.3210 H     1 <1>   0.0800 
 37 H        4.8640     0.7470     0.2910 H     1 <1>   0.0800 
 38 H        6.1320    -0.4380    -1.4790 H     1 <1>   0.0800 
 39 H        6.2520    -1.8450    -0.4500 H     1 <1>   0.0800 
 40 H        7.5380    -0.5230     1.2100 H     1 <1>   0.0800 
 41 H        7.4170     0.8850     0.1840 H     1 <1>   0.0800 
 42 H        9.0230     1.0180    -1.8450 H     1 <1>   0.1500 
 43 H        9.0500    -2.5510     0.2950 H     1 <1>   0.1500 
 44 H       11.1080    -2.4970    -1.4490 H     1 <1>   0.1500 
@<TRIPOS>BOND
  1   1   2  1   
  2   1   3  1   
  3   2   4  ar  
  4   2   5  ar  
  5   3   6  1   
  6   3  21  1   
  7   3  22  1   
  8   4   7  ar  
  9   4   8  1   
 10   5   9  ar  
 11   5  10  1   
 12   6  11  1   
 13   6  23  1   
 14   6  24  1   
 15   7  12  ar  
 16   7  25  1   
 17   8  26  1   
 18   8  27  1   
 19   8  28  1   
 20   9  12  ar  
 21   9  29  1   
 22  10  30  1   
 23  10  31  1   
 24  10  32  1   
 25  11  13  1   
 26  11  33  1   
 27  11  34  1   
 28  12  35  1   
 29  13  14  1   
 30  13  36  1   
 31  13  37  1   
 32  14  15  1   
 33  14  38  1   
 34  14  39  1   
 35  15  16  1   
 36  15  40  1   
 37  15  41  1   
 38  16  17  1   
 39  16  18  1   
 40  17  19  2   
 41  17  42  1   
 42  18  20  2   
 43  18  43  1   
 44  19  20  1   
 45  20  44  1   
@<TRIPOS>SUBSTRUCTURE
  1 ****  11 GROUP 4 **** **** 0

# MOE 2024.06 (io_trps.svl 2023.06)
