@<TRIPOS>MOLECULE
NONAME
43 44 1 0 0 
SMALL
USER_CHARGES


@<TRIPOS>ATOM
  1 CL      -0.0150     0.8150     1.9050 Cl    1 <1>  -0.1770 
  2 C       -1.3490     1.5230     1.0280 C.ar  1 <1>   0.1770 
  3 C       -1.1640     2.5940     0.1510 C.ar  1 <1>   0.0860 
  4 C       -2.5970     0.9750     1.2530 C.ar  1 <1>  -0.1500 
  5 C        0.1210     3.2060    -0.1260 C.2   1 <1>   0.5440 
  6 C       -2.3080     3.0890    -0.4800 C.ar  1 <1>  -0.1500 
  7 C       -3.7030     1.4940     0.6050 C.ar  1 <1>  -0.1500 
  8 O        0.1930     4.4080    -0.2870 O.2   1 <1>  -0.5700 
  9 N        1.2610     2.4730    -0.2650 N.am  1 <1>  -0.7300 
 10 C       -3.5770     2.5650    -0.2710 C.ar  1 <1>  -0.0090 
 11 C        2.5890     3.0280    -0.6120 C.3   1 <1>   0.3200 
 12 S       -5.0350     3.2400    -1.1220 S.o2  1 <1>   1.4470 
 13 C        3.6910     2.3000     0.1400 C.2   1 <1>  -0.0400 
 14 O       -5.5340     2.1900    -1.9840 O.2   1 <1>  -0.6500 
 15 O       -4.7250     4.5280    -1.7040 O.2   1 <1>  -0.6500 
 16 N       -6.1620     3.4880     0.1330 N.am  1 <1>  -0.8490 
 17 O        4.9330     2.4530    -0.2810 O.3   1 <1>  -0.2800 
 18 C        3.6600     1.4820     1.2170 C.2   1 <1>  -0.1500 
 19 C       -6.0090     4.7880     0.8110 C.3   1 <1>   0.1960 
 20 C       -7.5470     3.2980    -0.3240 C.3   1 <1>   0.1960 
 21 C        5.7150     1.7410     0.5070 C.2   1 <1>  -0.0100 
 22 C        4.9900     1.1140     1.4560 C.2   1 <1>  -0.1500 
 23 C       -4.7440     4.8340     1.6650 C.3   1 <1>  -0.2400 
 24 C       -8.4730     2.9810     0.8510 C.3   1 <1>  -0.2400 
 25 H       -2.7030     0.1480     1.9340 H     1 <1>   0.1500 
 26 H       -2.1970     3.9210    -1.1580 H     1 <1>   0.1500 
 27 H       -4.6780     1.0680     0.7790 H     1 <1>   0.1500 
 28 H        1.2570     1.4690    -0.0770 H     1 <1>   0.3700 
 29 H        2.6330     4.0790    -0.3790 H     1 <1>   0.0800 
 30 H        2.7480     2.9100    -1.6690 H     1 <1>   0.0800 
 31 H        2.8180     1.1620     1.8020 H     1 <1>   0.1500 
 32 H       -6.8370     4.9540     1.4760 H     1 <1>   0.0800 
 33 H       -6.0090     5.5940     0.0950 H     1 <1>   0.0800 
 34 H       -7.6080     2.4560    -0.9920 H     1 <1>   0.0800 
 35 H       -7.8880     4.1670    -0.8630 H     1 <1>   0.0800 
 36 H        6.7740     1.7390     0.3200 H     1 <1>   0.1500 
 37 H        5.3280     0.4650     2.2440 H     1 <1>   0.1500 
 38 H       -4.6730     3.9560     2.2820 H     1 <1>   0.0800 
 39 H       -4.7840     5.6950     2.3060 H     1 <1>   0.0800 
 40 H       -3.8670     4.9310     1.0530 H     1 <1>   0.0800 
 41 H       -8.0640     2.1770     1.4360 H     1 <1>   0.0800 
 42 H       -9.4290     2.6710     0.4720 H     1 <1>   0.0800 
 43 H       -8.6350     3.8380     1.4780 H     1 <1>   0.0800 
@<TRIPOS>BOND
  1   1   2  1   
  2   2   3  ar  
  3   2   4  ar  
  4   3   5  1   
  5   3   6  ar  
  6   4   7  ar  
  7   4  25  1   
  8   5   8  2   
  9   5   9  am  
 10   6  10  ar  
 11   6  26  1   
 12   7  10  ar  
 13   7  27  1   
 14   9  11  1   
 15   9  28  1   
 16  10  12  1   
 17  11  13  1   
 18  11  29  1   
 19  11  30  1   
 20  12  14  2   
 21  12  15  2   
 22  12  16  am  
 23  13  17  1   
 24  13  18  2   
 25  16  19  1   
 26  16  20  1   
 27  17  21  1   
 28  18  22  1   
 29  18  31  1   
 30  19  23  1   
 31  19  32  1   
 32  19  33  1   
 33  20  24  1   
 34  20  34  1   
 35  20  35  1   
 36  21  22  2   
 37  21  36  1   
 38  22  37  1   
 39  23  38  1   
 40  23  39  1   
 41  23  40  1   
 42  24  41  1   
 43  24  42  1   
 44  24  43  1   
@<TRIPOS>SUBSTRUCTURE
  1 ****   3 GROUP 4 **** **** 0

# MOE 2024.06 (io_trps.svl 2023.06)
