@<TRIPOS>MOLECULE
NONAME
26 26 1 0 0 
SMALL
USER_CHARGES


@<TRIPOS>ATOM
  1 O       -4.5420    -0.7320    -1.8670 O.co2 1 <1>  -0.9000 
  2 C       -4.2420    -1.3280    -0.8340 C.2   1 <1>   0.9060 
  3 O       -4.8840    -2.3240    -0.4710 O.co2 1 <1>  -0.9000 
  4 C       -3.2630    -0.6890     0.1370 C.3   1 <1>  -0.2660 
  5 C       -3.6830    -0.6920     1.6400 C.3   1 <1>  -0.1600 
  6 C       -5.0020     0.0270     1.9900 C.3   1 <1>   0.3300 
  7 N       -6.0430    -0.5380     1.1370 N.pl3 1 <1>  -0.7940 
  8 C       -6.9180     0.0240     0.3590 C.cat 1 <1>   0.6040 
  9 N       -7.3280    -0.5810    -0.7040 N.pl3 1 <1>  -0.7940 
 10 C       -7.4750     1.4200     0.4370 C.3   1 <1>  -0.0550 
 11 C       -8.1340     0.2210    -1.6120 C.3   1 <1>   0.3290 
 12 C       -8.4280     1.4780    -0.7770 C.3   1 <1>  -0.1600 
 13 H       -3.1010     0.3220    -0.1870 H     1 <1>   0.0800 
 14 H       -2.3340    -1.2160     0.0290 H     1 <1>   0.0800 
 15 H       -2.8930    -0.2410     2.2140 H     1 <1>   0.0800 
 16 H       -3.7590    -1.7150     1.9680 H     1 <1>   0.0800 
 17 H       -4.9080     1.0840     1.8090 H     1 <1>   0.0800 
 18 H       -5.2510    -0.1350     3.0250 H     1 <1>   0.0800 
 19 H       -5.7500    -1.4870     0.8080 H     1 <1>   0.4500 
 20 H       -6.8230    -1.4260    -1.0430 H     1 <1>   0.4500 
 21 H       -6.6750     2.1290     0.3290 H     1 <1>   0.0800 
 22 H       -7.9950     1.5740     1.3640 H     1 <1>   0.0800 
 23 H       -9.0340    -0.3010    -1.8920 H     1 <1>   0.0800 
 24 H       -7.5510     0.4590    -2.4870 H     1 <1>   0.0800 
 25 H       -8.2810     2.3700    -1.3600 H     1 <1>   0.0800 
 26 H       -9.4510     1.4470    -0.4430 H     1 <1>   0.0800 
@<TRIPOS>BOND
  1   1   2  ar  
  2   2   3  ar  
  3   2   4  1   
  4   4   5  1   
  5   4  13  1   
  6   4  14  1   
  7   5   6  1   
  8   5  15  1   
  9   5  16  1   
 10   6   7  1   
 11   6  17  1   
 12   6  18  1   
 13   7   8  ar  
 14   7  19  1   
 15   8   9  ar  
 16   8  10  1   
 17   9  11  1   
 18   9  20  1   
 19  10  12  1   
 20  10  21  1   
 21  10  22  1   
 22  11  12  1   
 23  11  23  1   
 24  11  24  1   
 25  12  25  1   
 26  12  26  1   
@<TRIPOS>SUBSTRUCTURE
  1 ****   8 GROUP 4 **** **** 0

# MOE 2024.06 (io_trps.svl 2023.06)
