@<TRIPOS>MOLECULE
NONAME
39 41 1 0 0 
SMALL
USER_CHARGES


@<TRIPOS>ATOM
  1 CL      -1.2010     0.8600     2.8300 Cl    1 <1>  -0.1230 
  2 C       -1.8920     0.8570     1.2160 C.2   1 <1>   0.1230 
  3 C       -2.0690     1.9690     0.3910 C.2   1 <1>   0.2030 
  4 C       -2.3640    -0.2130     0.5570 C.2   1 <1>  -0.3020 
  5 N       -2.6320     1.5780    -0.7450 N.2   1 <1>  -0.7070 
  6 C       -1.6790     3.3190     0.7500 C.2   1 <1>   0.7160 
  7 N       -2.8060     0.2530    -0.6260 N.pl3 1 <1>   0.3140 
  8 O       -0.5630     3.5600     1.1720 O.2   1 <1>  -0.5700 
  9 N       -2.5010     4.4090     0.6010 N.am  1 <1>  -0.4940 
 10 C       -3.4230    -0.5430    -1.6940 C.3   1 <1>   0.0160 
 11 C       -3.8750     4.5610     0.5180 C.2   1 <1>   0.1040 
 12 S       -4.9210     3.2420     1.0270 S.3   1 <1>  -0.0800 
 13 C       -4.6090     5.6470     0.1150 C.2   1 <1>  -0.0860 
 14 C       -6.3530     4.1780     0.6680 C.2   1 <1>  -0.1400 
 15 C       -6.0340     5.4020     0.2220 C.2   1 <1>  -0.1810 
 16 C       -3.9980     6.8650    -0.3530 C.2   1 <1>   0.8060 
 17 C       -7.7210     3.5690     0.8830 C.3   1 <1>   0.0200 
 18 C       -7.1390     6.3980    -0.1200 C.3   1 <1>   0.0210 
 19 O       -2.8230     7.1290    -0.1640 O.2   1 <1>  -0.5700 
 20 O       -4.7360     7.7490    -1.0380 O.3   1 <1>  -0.4300 
 21 C       -8.7770     4.4530     0.1980 C.3   1 <1>  -0.1600 
 22 C       -8.5060     5.9510     0.4380 C.3   1 <1>  -0.1600 
 23 C       -4.1860     8.9510    -1.5440 C.3   1 <1>   0.0400 
 24 H       -2.4100    -1.2430     0.8560 H     1 <1>   0.1500 
 25 H       -1.9610     5.2790     0.5630 H     1 <1>   0.3700 
 26 H       -2.7700    -1.3540    -1.9540 H     1 <1>   0.0800 
 27 H       -3.5810     0.0830    -2.5530 H     1 <1>   0.0800 
 28 H       -4.3660    -0.9240    -1.3490 H     1 <1>   0.0800 
 29 H       -7.9130     3.5120     1.9400 H     1 <1>   0.0800 
 30 H       -7.7520     2.5750     0.4730 H     1 <1>   0.0800 
 31 H       -7.1990     6.4910    -1.1910 H     1 <1>   0.0800 
 32 H       -6.9050     7.3640     0.2900 H     1 <1>   0.0800 
 33 H       -9.7550     4.1910     0.5610 H     1 <1>   0.0800 
 34 H       -8.7550     4.2630    -0.8610 H     1 <1>   0.0800 
 35 H       -9.2850     6.5400    -0.0160 H     1 <1>   0.0800 
 36 H       -8.5260     6.1400     1.4970 H     1 <1>   0.0800 
 37 H       -4.9620     9.4920    -2.0550 H     1 <1>   0.0800 
 38 H       -3.3910     8.7100    -2.2280 H     1 <1>   0.0800 
 39 H       -3.8070     9.5350    -0.7230 H     1 <1>   0.0800 
@<TRIPOS>BOND
  1   1   2  1   
  2   2   3  1   
  3   2   4  2   
  4   3   5  2   
  5   3   6  1   
  6   4   7  1   
  7   4  24  1   
  8   5   7  1   
  9   6   8  2   
 10   6   9  am  
 11   7  10  1   
 12   9  11  1   
 13   9  25  1   
 14  10  26  1   
 15  10  27  1   
 16  10  28  1   
 17  11  12  1   
 18  11  13  2   
 19  12  14  1   
 20  13  15  1   
 21  13  16  1   
 22  14  15  2   
 23  14  17  1   
 24  15  18  1   
 25  16  19  2   
 26  16  20  1   
 27  17  21  1   
 28  17  29  1   
 29  17  30  1   
 30  18  22  1   
 31  18  31  1   
 32  18  32  1   
 33  20  23  1   
 34  21  22  1   
 35  21  33  1   
 36  21  34  1   
 37  22  35  1   
 38  22  36  1   
 39  23  37  1   
 40  23  38  1   
 41  23  39  1   
@<TRIPOS>SUBSTRUCTURE
  1 ****  11 GROUP 4 **** **** 0

# MOE 2024.06 (io_trps.svl 2023.06)
