@<TRIPOS>MOLECULE
NONAME
51 52 1 0 0 
SMALL
USER_CHARGES


@<TRIPOS>ATOM
  1 S        0.3950    -0.7600     0.6940 S.o2  1 <1>   1.4470 
  2 O        0.3470    -2.0120    -0.0240 O.2   1 <1>  -0.6500 
  3 O        0.2350    -0.7350     2.1300 O.2   1 <1>  -0.6500 
  4 N       -0.8730     0.1190     0.0400 N.am  1 <1>  -0.9140 
  5 C        1.8590     0.1940     0.2120 C.ar  1 <1>  -0.0090 
  6 C       -2.1490    -0.1970     0.6600 C.3   1 <1>   0.1960 
  7 C        2.9170    -0.3980    -0.4670 C.ar  1 <1>  -0.1500 
  8 C        1.9590     1.5450     0.5180 C.ar  1 <1>  -0.1500 
  9 C       -3.2960     0.4690    -0.1170 C.3   1 <1>  -0.0800 
 10 C        4.0370     0.3320    -0.8270 C.ar  1 <1>  -0.1500 
 11 C        3.0750     2.2820     0.1610 C.ar  1 <1>  -0.1500 
 12 C       -4.6320     0.2000     0.5880 C.3   1 <1>  -0.2400 
 13 C       -3.3780    -0.0200    -1.5730 C.3   1 <1>  -0.2400 
 14 C        4.1220     1.6780    -0.5140 C.ar  1 <1>  -0.1430 
 15 C        5.3500     2.4870    -0.8920 C.3   1 <1>  -0.0170 
 16 C        6.3490     2.5070     0.2700 C.3   1 <1>  -0.0990 
 17 C        7.5580     3.3460    -0.0710 C.2   1 <1>   0.5690 
 18 O        7.4540     4.5470    -0.0660 O.2   1 <1>  -0.5700 
 19 N        8.7220     2.7300    -0.3800 N.am  1 <1>  -0.7300 
 20 C        9.9760     3.4400    -0.6800 C.3   1 <1>   0.2840 
 21 C       11.1310     2.5780    -0.2120 C.ar  1 <1>  -0.1430 
 22 C       11.4440     2.5140     1.1380 C.ar  1 <1>   0.1600 
 23 C       11.8840     1.8440    -1.1060 C.ar  1 <1>  -0.1500 
 24 N       12.4260     1.7910     1.6550 N.ar  1 <1>  -0.6200 
 25 C       12.9120     1.0880    -0.5850 C.ar  1 <1>  -0.1500 
 26 C       13.1370     1.0970     0.7810 C.ar  1 <1>   0.1600 
 27 H       -0.9310    -0.2260    -0.9150 H     1 <1>   0.4200 
 28 H       -2.1470     0.1590     1.6780 H     1 <1>   0.0800 
 29 H       -2.2950    -1.2660     0.6760 H     1 <1>   0.0800 
 30 H        2.8660    -1.4450    -0.7170 H     1 <1>   0.1500 
 31 H        1.1520     2.0260     1.0450 H     1 <1>   0.1500 
 32 H       -3.1290     1.5340    -0.1150 H     1 <1>   0.0800 
 33 H        4.8410    -0.1550    -1.3520 H     1 <1>   0.1500 
 34 H        3.1240     3.3270     0.4140 H     1 <1>   0.1500 
 35 H       -4.8460    -0.8550     0.6090 H     1 <1>   0.0800 
 36 H       -5.4330     0.7020     0.0750 H     1 <1>   0.0800 
 37 H       -4.6010     0.5650     1.6000 H     1 <1>   0.0800 
 38 H       -3.4860    -1.0900    -1.6100 H     1 <1>   0.0800 
 39 H       -2.4970     0.2600    -2.1220 H     1 <1>   0.0800 
 40 H       -4.2240     0.4260    -2.0660 H     1 <1>   0.0800 
 41 H        5.0580     3.4950    -1.1340 H     1 <1>   0.0800 
 42 H        5.8150     2.0640    -1.7660 H     1 <1>   0.0800 
 43 H        6.6520     1.5050     0.5100 H     1 <1>   0.0800 
 44 H        5.8790     2.9290     1.1390 H     1 <1>   0.0800 
 45 H        8.8050     1.7130    -0.3510 H     1 <1>   0.3700 
 46 H        9.9920     4.3920    -0.1750 H     1 <1>   0.0800 
 47 H       10.0420     3.6170    -1.7400 H     1 <1>   0.0800 
 48 H       10.8520     3.0870     1.8330 H     1 <1>   0.1500 
 49 H       11.6840     1.8560    -2.1640 H     1 <1>   0.1500 
 50 H       13.5370     0.4950    -1.2280 H     1 <1>   0.1500 
 51 H       13.9430     0.5030     1.1770 H     1 <1>   0.1500 
@<TRIPOS>BOND
  1   1   2  2   
  2   1   3  2   
  3   1   4  am  
  4   1   5  1   
  5   4   6  1   
  6   4  27  1   
  7   5   7  ar  
  8   5   8  ar  
  9   6   9  1   
 10   6  28  1   
 11   6  29  1   
 12   7  10  ar  
 13   7  30  1   
 14   8  11  ar  
 15   8  31  1   
 16   9  12  1   
 17   9  13  1   
 18   9  32  1   
 19  10  14  ar  
 20  10  33  1   
 21  11  14  ar  
 22  11  34  1   
 23  12  35  1   
 24  12  36  1   
 25  12  37  1   
 26  13  38  1   
 27  13  39  1   
 28  13  40  1   
 29  14  15  1   
 30  15  16  1   
 31  15  41  1   
 32  15  42  1   
 33  16  17  1   
 34  16  43  1   
 35  16  44  1   
 36  17  18  2   
 37  17  19  am  
 38  19  20  1   
 39  19  45  1   
 40  20  21  1   
 41  20  46  1   
 42  20  47  1   
 43  21  22  ar  
 44  21  23  ar  
 45  22  24  ar  
 46  22  48  1   
 47  23  25  ar  
 48  23  49  1   
 49  24  26  ar  
 50  25  26  ar  
 51  25  50  1   
 52  26  51  1   
@<TRIPOS>SUBSTRUCTURE
  1 ****  14 GROUP 4 **** **** 0

# MOE 2024.06 (io_trps.svl 2023.06)
