@<TRIPOS>MOLECULE
NONAME
25 25 1 0 0 
SMALL
USER_CHARGES


@<TRIPOS>ATOM
  1 O       -7.1890    -0.3610     0.1770 O.3   1 <1>  -0.5320 
  2 C       -6.0600    -1.0930     0.0730 C.ar  1 <1>   0.0820 
  3 C       -4.8490    -0.4810     0.3420 C.ar  1 <1>  -0.1440 
  4 C       -6.0920    -2.4350    -0.3060 C.ar  1 <1>   0.1660 
  5 C       -3.7060    -1.2560     0.1960 C.ar  1 <1>  -0.1440 
  6 C       -4.8320     0.9760     0.7490 C.3   1 <1>   0.4870 
  7 N       -5.0090    -3.1760    -0.4410 N.ar  1 <1>  -0.6200 
  8 C       -7.4060    -3.1390    -0.5970 C.3   1 <1>  -0.0960 
  9 C       -3.8560    -2.5800    -0.1930 C.ar  1 <1>   0.1600 
 10 C       -2.2890    -0.7450     0.4440 C.3   1 <1>   0.2640 
 11 N       -4.5430     1.7300    -0.4750 N.4   1 <1>  -0.8530 
 12 O       -2.0790     0.4300    -0.2740 O.3   1 <1>  -0.6800 
 13 H       -8.0020    -0.8900     0.0390 H     1 <1>   0.4500 
 14 H       -4.0660     1.1460     1.4880 H     1 <1>   0.0800 
 15 H       -5.7880     1.2630     1.1570 H     1 <1>   0.0800 
 16 H       -7.9360    -2.6310    -1.3820 H     1 <1>   0.0800 
 17 H       -8.0120    -3.1730     0.2900 H     1 <1>   0.0800 
 18 H       -7.2240    -4.1500    -0.9170 H     1 <1>   0.0800 
 19 H       -2.9790    -3.1970    -0.3090 H     1 <1>   0.1500 
 20 H       -1.5600    -1.4680     0.1150 H     1 <1>   0.0800 
 21 H       -2.1300    -0.5430     1.4900 H     1 <1>   0.0800 
 22 H       -3.6120     1.4020    -0.7880 H     1 <1>   0.4500 
 23 H       -4.5280     2.7400    -0.3290 H     1 <1>   0.4500 
 24 H       -5.2260     1.4690    -1.1910 H     1 <1>   0.4500 
 25 H       -1.1110     0.5940    -0.3400 H     1 <1>   0.4000 
@<TRIPOS>BOND
  1   1   2  1   
  2   1  13  1   
  3   2   3  ar  
  4   2   4  ar  
  5   3   5  ar  
  6   3   6  1   
  7   4   7  ar  
  8   4   8  1   
  9   5   9  ar  
 10   5  10  1   
 11   6  11  1   
 12   6  14  1   
 13   6  15  1   
 14   7   9  ar  
 15   8  16  1   
 16   8  17  1   
 17   8  18  1   
 18   9  19  1   
 19  10  12  1   
 20  10  20  1   
 21  10  21  1   
 22  11  22  1   
 23  11  23  1   
 24  11  24  1   
 25  12  25  1   
@<TRIPOS>SUBSTRUCTURE
  1 ****   3 GROUP 4 **** **** 0

# MOE 2024.06 (io_trps.svl 2023.06)
