@<TRIPOS>MOLECULE
NONAME
40 41 1 0 0 
SMALL
USER_CHARGES


@<TRIPOS>ATOM
  1 O        1.7340    -6.5430    -0.5380 O.3   1 <1>  -0.3630 
  2 C        2.9850    -6.0360    -0.3980 C.ar  1 <1>   0.0830 
  3 C        0.6220    -5.9190     0.0620 C.3   1 <1>   0.1200 
  4 C        3.2890    -4.9220     0.3790 C.ar  1 <1>  -0.1500 
  5 C        4.0010    -6.6850    -1.0790 C.ar  1 <1>  -0.1500 
  6 C       -0.6240    -6.7330    -0.2980 C.3   1 <1>   0.1100 
  7 C        4.5950    -4.4710     0.4620 C.ar  1 <1>  -0.1500 
  8 C        5.3050    -6.2320    -0.9930 C.ar  1 <1>  -0.1500 
  9 N       -1.8570    -6.1370     0.2660 N.3   1 <1>  -0.8100 
 10 C        5.6100    -5.1210    -0.2230 C.ar  1 <1>  -0.1430 
 11 C       -2.3020    -4.9500    -0.4970 C.3   1 <1>   0.1100 
 12 C       -2.9260    -7.1520     0.3620 C.3   1 <1>   0.1100 
 13 C        7.0430    -4.6230    -0.1280 C.3   1 <1>  -0.0170 
 14 C       -3.5740    -4.3310     0.1190 C.3   1 <1>   0.3430 
 15 C       -4.2050    -6.5640     0.9930 C.3   1 <1>   0.3430 
 16 C        7.7670    -5.2890     1.0440 C.3   1 <1>  -0.2400 
 17 N       -4.6720    -5.3450     0.2540 N.4   1 <1>  -0.9060 
 18 H        0.5590    -4.9180    -0.3210 H     1 <1>   0.0800 
 19 H        0.7700    -5.9150     1.1280 H     1 <1>   0.0800 
 20 H        2.5310    -4.3950     0.9250 H     1 <1>   0.1500 
 21 H        3.7650    -7.5470    -1.6760 H     1 <1>   0.1500 
 22 H       -0.4850    -7.7220     0.1080 H     1 <1>   0.0800 
 23 H       -0.7060    -6.8150    -1.3690 H     1 <1>   0.0800 
 24 H        4.8230    -3.6110     1.0660 H     1 <1>   0.1500 
 25 H        6.0820    -6.7500    -1.5280 H     1 <1>   0.1500 
 26 H       -2.4880    -5.2190    -1.5230 H     1 <1>   0.0800 
 27 H       -1.5250    -4.2050    -0.4890 H     1 <1>   0.0800 
 28 H       -2.5850    -7.9670     0.9780 H     1 <1>   0.0800 
 29 H       -3.1490    -7.5480    -0.6150 H     1 <1>   0.0800 
 30 H        7.0480    -3.5550     0.0040 H     1 <1>   0.0800 
 31 H        7.5650    -4.8400    -1.0440 H     1 <1>   0.0800 
 32 H       -3.9030    -3.5080    -0.4940 H     1 <1>   0.0800 
 33 H       -3.3210    -3.9410     1.0910 H     1 <1>   0.0800 
 34 H       -3.9860    -6.3070     2.0170 H     1 <1>   0.0800 
 35 H       -4.9790    -7.3150     0.9970 H     1 <1>   0.0800 
 36 H        7.2620    -5.0640     1.9670 H     1 <1>   0.0800 
 37 H        8.7790    -4.9330     1.1060 H     1 <1>   0.0800 
 38 H        7.7810    -6.3560     0.9120 H     1 <1>   0.0800 
 39 H       -4.9820    -5.6250    -0.6840 H     1 <1>   0.4500 
 40 H       -5.4770    -4.9290     0.7370 H     1 <1>   0.4500 
@<TRIPOS>BOND
  1   1   2  1   
  2   1   3  1   
  3   2   4  ar  
  4   2   5  ar  
  5   3   6  1   
  6   3  18  1   
  7   3  19  1   
  8   4   7  ar  
  9   4  20  1   
 10   5   8  ar  
 11   5  21  1   
 12   6   9  1   
 13   6  22  1   
 14   6  23  1   
 15   7  10  ar  
 16   7  24  1   
 17   8  10  ar  
 18   8  25  1   
 19   9  11  1   
 20   9  12  1   
 21  10  13  1   
 22  11  14  1   
 23  11  26  1   
 24  11  27  1   
 25  12  15  1   
 26  12  28  1   
 27  12  29  1   
 28  13  16  1   
 29  13  30  1   
 30  13  31  1   
 31  14  17  1   
 32  14  32  1   
 33  14  33  1   
 34  15  17  1   
 35  15  34  1   
 36  15  35  1   
 37  16  36  1   
 38  16  37  1   
 39  16  38  1   
 40  17  39  1   
 41  17  40  1   
@<TRIPOS>SUBSTRUCTURE
  1 ****   3 GROUP 4 **** **** 0

# MOE 2024.06 (io_trps.svl 2023.06)
