@<TRIPOS>MOLECULE
NONAME
41 42 1 0 0 
SMALL
USER_CHARGES


@<TRIPOS>ATOM
  1 S       -1.2270     1.4020     0.5360 S.3   1 <1>  -0.2860 
  2 C        0.5210     1.7220     0.2740 C.2   1 <1>   0.2420 
  3 C       -1.2690    -0.4440     0.7730 C.3   1 <1>   0.1310 
  4 N        1.4100     0.7960     0.2320 N.2   1 <1>  -0.3380 
  5 N        1.0160     2.9470     0.1000 N.pl3 1 <1>   0.0480 
  6 C       -2.6970    -0.9580     0.8570 C.2   1 <1>   0.5690 
  7 N        2.5720     1.4200     0.0160 N.2   1 <1>  -0.3380 
  8 C        2.3220     2.6860    -0.0590 C.2   1 <1>   0.0060 
  9 C        0.3020     4.2430     0.0940 C.3   1 <1>   0.0960 
 10 O       -2.8970    -1.9790     1.4690 O.2   1 <1>  -0.5700 
 11 N       -3.6820    -0.2390     0.2350 N.am  1 <1>  -0.5470 
 12 C        3.3860     3.7400    -0.3000 C.3   1 <1>  -0.0600 
 13 C       -0.2070     4.5740    -1.3130 C.3   1 <1>  -0.2400 
 14 C       -5.0680    -0.4390     0.1190 C.ar  1 <1>   0.1170 
 15 C       -5.9130     0.6570    -0.1000 C.ar  1 <1>  -0.1430 
 16 C       -5.6180    -1.7150     0.1960 C.ar  1 <1>  -0.1500 
 17 C       -7.2790     0.4390    -0.2370 C.ar  1 <1>  -0.1500 
 18 C       -5.3100     2.0670    -0.1800 C.3   1 <1>  -0.0170 
 19 C       -6.9780    -1.9160     0.0620 C.ar  1 <1>  -0.1500 
 20 C       -7.8100    -0.8360    -0.1560 C.ar  1 <1>  -0.1500 
 21 C       -6.3110     3.2230    -0.2930 C.3   1 <1>  -0.2400 
 22 H       -0.7350    -0.6610     1.6800 H     1 <1>   0.0800 
 23 H       -0.7620    -0.8890    -0.0620 H     1 <1>   0.0800 
 24 H        0.9710     5.0120     0.4340 H     1 <1>   0.0800 
 25 H       -0.5240     4.1890     0.7810 H     1 <1>   0.0800 
 26 H       -3.3580     0.6490    -0.1470 H     1 <1>   0.3700 
 27 H        3.1590     4.3010    -1.1880 H     1 <1>   0.0800 
 28 H        4.3430     3.2670    -0.4280 H     1 <1>   0.0800 
 29 H        3.4440     4.4070     0.5410 H     1 <1>   0.0800 
 30 H        0.6140     4.6390    -2.0050 H     1 <1>   0.0800 
 31 H       -0.7190     5.5190    -1.3010 H     1 <1>   0.0800 
 32 H       -0.8960     3.8190    -1.6500 H     1 <1>   0.0800 
 33 H       -4.9820    -2.5650     0.3580 H     1 <1>   0.1500 
 34 H       -7.9620     1.2500    -0.4080 H     1 <1>   0.1500 
 35 H       -4.6510     2.1100    -1.0300 H     1 <1>   0.0800 
 36 H       -4.7190     2.2330     0.7050 H     1 <1>   0.0800 
 37 H       -7.3850    -2.9100     0.1270 H     1 <1>   0.1500 
 38 H       -8.8700    -0.9870    -0.2620 H     1 <1>   0.1500 
 39 H       -6.8790     3.1430    -1.2030 H     1 <1>   0.0800 
 40 H       -5.7860     4.1620    -0.3050 H     1 <1>   0.0800 
 41 H       -6.9820     3.2210     0.5480 H     1 <1>   0.0800 
@<TRIPOS>BOND
  1   1   2  1   
  2   1   3  1   
  3   2   4  2   
  4   2   5  1   
  5   3   6  1   
  6   3  22  1   
  7   3  23  1   
  8   4   7  1   
  9   5   8  1   
 10   5   9  1   
 11   6  10  2   
 12   6  11  am  
 13   7   8  2   
 14   8  12  1   
 15   9  13  1   
 16   9  24  1   
 17   9  25  1   
 18  11  14  1   
 19  11  26  1   
 20  12  27  1   
 21  12  28  1   
 22  12  29  1   
 23  13  30  1   
 24  13  31  1   
 25  13  32  1   
 26  14  15  ar  
 27  14  16  ar  
 28  15  17  ar  
 29  15  18  1   
 30  16  19  ar  
 31  16  33  1   
 32  17  20  ar  
 33  17  34  1   
 34  18  21  1   
 35  18  35  1   
 36  18  36  1   
 37  19  20  ar  
 38  19  37  1   
 39  20  38  1   
 40  21  39  1   
 41  21  40  1   
 42  21  41  1   
@<TRIPOS>SUBSTRUCTURE
  1 ****   1 GROUP 4 **** **** 0

# MOE 2024.06 (io_trps.svl 2023.06)
