@<TRIPOS>MOLECULE
NONAME
30 33 1 0 0 
SMALL
USER_CHARGES


@<TRIPOS>ATOM
  1 O        0.0210    -0.0970     0.1260 O.2   1 <1>  -0.5700 
  2 C       -0.3370    -1.2140     0.3940 C.2   1 <1>   0.5690 
  3 N        0.4180    -2.3630     0.2750 N.am  1 <1>  -0.2370 
  4 C       -1.7350    -1.4920     0.9260 C.3   1 <1>  -0.0190 
  5 C        1.7500    -2.3900    -0.2090 C.ar  1 <1>   0.1170 
  6 C       -0.2820    -3.4900     0.6540 C.2   1 <1>   0.5690 
  7 C       -1.6940    -3.1670     1.1200 C.3   1 <1>  -0.0190 
  8 C       -2.9870    -1.1540    -0.1060 C.3   1 <1>   0.0580 
  9 C        2.1640    -3.3150    -1.1690 C.ar  1 <1>   0.1600 
 10 C        2.6950    -1.4870     0.2540 C.ar  1 <1>  -0.1500 
 11 O        0.1300    -4.6200     0.6310 O.2   1 <1>  -0.5700 
 12 C       -2.9240    -3.7910     0.2010 C.3   1 <1>   0.0580 
 13 C       -4.2320    -1.9040    -0.8220 C.2   1 <1>  -0.2880 
 14 C       -2.8680    -2.4650     0.1010 C.3   1 <1>  -0.1600 
 15 N        3.3810    -3.4010    -1.6860 N.ar  1 <1>  -0.6200 
 16 C        3.9690    -1.5640    -0.2670 C.ar  1 <1>  -0.1500 
 17 C       -4.1990    -3.2860    -0.6610 C.2   1 <1>  -0.2880 
 18 C        4.2560    -2.5240    -1.2220 C.ar  1 <1>   0.1600 
 19 H       -1.8580    -0.9840     1.8700 H     1 <1>   0.0800 
 20 H       -1.7950    -3.4510     2.1560 H     1 <1>   0.0800 
 21 H       -2.5000    -0.6660    -0.9400 H     1 <1>   0.0800 
 22 H        1.4440    -4.0280    -1.5310 H     1 <1>   0.1500 
 23 H        2.4460    -0.7460     0.9930 H     1 <1>   0.1500 
 24 H       -2.4100    -4.4350    -0.5020 H     1 <1>   0.0800 
 25 H       -4.9590    -1.3050    -1.3470 H     1 <1>   0.1500 
 26 H       -3.5960    -2.3690     1.0710 H     1 <1>   0.0800 
 27 H       -2.2190    -2.5620    -0.8720 H     1 <1>   0.0800 
 28 H        4.7350    -0.8840     0.0590 H     1 <1>   0.1500 
 29 H       -4.8930    -4.0230    -1.0310 H     1 <1>   0.1500 
 30 H        5.2540    -2.5730    -1.6250 H     1 <1>   0.1500 
@<TRIPOS>BOND
  1   1   2  2   
  2   2   3  am  
  3   2   4  1   
  4   3   5  1   
  5   3   6  am  
  6   4   7  1   
  7   4   8  1   
  8   4  19  1   
  9   5   9  ar  
 10   5  10  ar  
 11   6   7  1   
 12   6  11  2   
 13   7  12  1   
 14   7  20  1   
 15   8  13  1   
 16   8  14  1   
 17   8  21  1   
 18   9  15  ar  
 19   9  22  1   
 20  10  16  ar  
 21  10  23  1   
 22  12  14  1   
 23  12  17  1   
 24  12  24  1   
 25  13  17  2   
 26  13  25  1   
 27  14  26  1   
 28  14  27  1   
 29  15  18  ar  
 30  16  18  ar  
 31  16  28  1   
 32  17  29  1   
 33  18  30  1   
@<TRIPOS>SUBSTRUCTURE
  1 ****   3 GROUP 4 **** **** 0

# MOE 2024.06 (io_trps.svl 2023.06)
