@<TRIPOS>MOLECULE
NONAME
31 33 1 0 0 
SMALL
USER_CHARGES


@<TRIPOS>ATOM
  1 O       -0.3680     0.8440    -0.7100 O.2   1 <1>  -0.5200 
  2 N       -1.1170     1.8370    -0.7670 N.pl3 1 <1>   1.0310 
  3 O       -2.4300     1.6190    -0.9690 O.3   1 <1>  -0.2710 
  4 O       -0.6870     2.9860    -0.9540 O.2   1 <1>  -0.5200 
  5 C       -3.2590     1.3590     0.1680 C.3   1 <1>   0.1740 
  6 C       -2.9580     2.4070     1.2780 C.2   1 <1>   0.9060 
  7 C       -4.7330     1.4350    -0.3410 C.3   1 <1>  -0.0800 
  8 C       -3.0210    -0.1100     0.6460 C.3   1 <1>  -0.0800 
  9 O       -3.6300     3.4440     1.3600 O.co2 1 <1>  -0.9000 
 10 O       -2.0110     2.2000     2.0490 O.co2 1 <1>  -0.9000 
 11 C       -4.9690     0.4390    -1.5020 C.3   1 <1>  -0.1600 
 12 C       -5.7170     1.0760     0.7960 C.3   1 <1>  -0.1600 
 13 C       -3.2490    -1.1110    -0.5110 C.3   1 <1>  -0.1600 
 14 C       -4.0020    -0.4640     1.7870 C.3   1 <1>  -0.1600 
 15 C       -4.6970    -1.0020    -1.0270 C.3   1 <1>  -0.0800 
 16 C       -5.4550    -0.3580     1.2910 C.3   1 <1>  -0.0800 
 17 C       -5.6640    -1.3400     0.1230 C.3   1 <1>  -0.1600 
 18 H       -4.9380     2.4390    -0.6710 H     1 <1>   0.0800 
 19 H       -2.0190    -0.2100     1.0270 H     1 <1>   0.0800 
 20 H       -5.9850     0.5210    -1.8460 H     1 <1>   0.0800 
 21 H       -4.3310     0.6760    -2.3350 H     1 <1>   0.0800 
 22 H       -6.7290     1.1620     0.4420 H     1 <1>   0.0800 
 23 H       -5.6080     1.7680     1.6140 H     1 <1>   0.0800 
 24 H       -3.0610    -2.1110    -0.1630 H     1 <1>   0.0800 
 25 H       -2.5580    -0.9190    -1.3130 H     1 <1>   0.0800 
 26 H       -3.8060    -1.4620     2.1370 H     1 <1>   0.0800 
 27 H       -3.8500     0.2020     2.6200 H     1 <1>   0.0800 
 28 H       -4.8460    -1.6890    -1.8410 H     1 <1>   0.0800 
 29 H       -6.1310    -0.5940     2.0950 H     1 <1>   0.0800 
 30 H       -5.4910    -2.3470     0.4610 H     1 <1>   0.0800 
 31 H       -6.6800    -1.2810    -0.2250 H     1 <1>   0.0800 
@<TRIPOS>BOND
  1   1   2  2   
  2   2   3  1   
  3   2   4  2   
  4   3   5  1   
  5   5   6  1   
  6   5   7  1   
  7   5   8  1   
  8   6   9  ar  
  9   6  10  ar  
 10   7  11  1   
 11   7  12  1   
 12   7  18  1   
 13   8  13  1   
 14   8  14  1   
 15   8  19  1   
 16  11  15  1   
 17  11  20  1   
 18  11  21  1   
 19  12  16  1   
 20  12  22  1   
 21  12  23  1   
 22  13  15  1   
 23  13  24  1   
 24  13  25  1   
 25  14  16  1   
 26  14  26  1   
 27  14  27  1   
 28  15  17  1   
 29  15  28  1   
 30  16  17  1   
 31  16  29  1   
 32  17  30  1   
 33  17  31  1   
@<TRIPOS>SUBSTRUCTURE
  1 ****   5 GROUP 4 **** **** 0

# MOE 2024.06 (io_trps.svl 2023.06)
