@<TRIPOS>MOLECULE
NONAME
32 32 1 0 0 
SMALL
USER_CHARGES


@<TRIPOS>ATOM
  1 O        0.9560    -0.8860     2.2510 O.co2 1 <1>  -0.9000 
  2 C        1.3090    -1.1300     1.0840 C.2   1 <1>   0.9790 
  3 O        1.6460    -0.1890     0.3450 O.co2 1 <1>  -0.9000 
  4 C        1.3460    -2.5030     0.5940 C.ar  1 <1>  -0.1790 
  5 C        1.7430    -2.8000    -0.7090 C.ar  1 <1>  -0.1500 
  6 C        0.9880    -3.5750     1.4110 C.ar  1 <1>  -0.1500 
  7 C        1.8030    -4.1000    -1.1710 C.ar  1 <1>  -0.1500 
  8 C        1.0440    -4.8800     0.9610 C.ar  1 <1>  -0.1500 
  9 C        1.4690    -5.1510    -0.3310 C.ar  1 <1>  -0.1430 
 10 C        1.5930    -6.5790    -0.8080 C.3   1 <1>   0.4870 
 11 N        2.7620    -7.1930    -0.1120 N.4   1 <1>  -0.9590 
 12 C        4.0290    -6.5240    -0.5210 C.3   1 <1>   0.3430 
 13 C        2.8090    -8.6690    -0.2730 C.3   1 <1>   0.3430 
 14 C        5.1140    -6.8000     0.5140 C.3   1 <1>  -0.2400 
 15 C        1.7090    -9.3140     0.5640 C.3   1 <1>  -0.2400 
 16 H        2.0070    -1.9790    -1.3580 H     1 <1>   0.1500 
 17 H        0.6620    -3.3600     2.4170 H     1 <1>   0.1500 
 18 H        2.1180    -4.2700    -2.1860 H     1 <1>   0.1500 
 19 H        0.7530    -5.6660     1.6340 H     1 <1>   0.1500 
 20 H        1.7330    -6.6050    -1.8760 H     1 <1>   0.0800 
 21 H        0.6860    -7.1070    -0.5650 H     1 <1>   0.0800 
 22 H        2.6330    -6.9670     0.8830 H     1 <1>   0.4500 
 23 H        3.8810    -5.4560    -0.5740 H     1 <1>   0.0800 
 24 H        4.3410    -6.8700    -1.4940 H     1 <1>   0.0800 
 25 H        3.7600    -9.0450     0.0670 H     1 <1>   0.0800 
 26 H        2.6950    -8.9370    -1.3120 H     1 <1>   0.0800 
 27 H        4.8040    -6.4620     1.4870 H     1 <1>   0.0800 
 28 H        5.9990    -6.2520     0.2450 H     1 <1>   0.0800 
 29 H        5.3740    -7.8420     0.5540 H     1 <1>   0.0800 
 30 H        1.8040    -9.0350     1.5990 H     1 <1>   0.0800 
 31 H        1.8040   -10.3840     0.5010 H     1 <1>   0.0800 
 32 H        0.7300    -9.0540     0.2050 H     1 <1>   0.0800 
@<TRIPOS>BOND
  1   1   2  ar  
  2   2   3  ar  
  3   2   4  1   
  4   4   5  ar  
  5   4   6  ar  
  6   5   7  ar  
  7   5  16  1   
  8   6   8  ar  
  9   6  17  1   
 10   7   9  ar  
 11   7  18  1   
 12   8   9  ar  
 13   8  19  1   
 14   9  10  1   
 15  10  11  1   
 16  10  20  1   
 17  10  21  1   
 18  11  12  1   
 19  11  13  1   
 20  11  22  1   
 21  12  14  1   
 22  12  23  1   
 23  12  24  1   
 24  13  15  1   
 25  13  25  1   
 26  13  26  1   
 27  14  27  1   
 28  14  28  1   
 29  14  29  1   
 30  15  30  1   
 31  15  31  1   
 32  15  32  1   
@<TRIPOS>SUBSTRUCTURE
  1 ****   9 GROUP 4 **** **** 0

# MOE 2024.06 (io_trps.svl 2023.06)
