@<TRIPOS>MOLECULE
NONAME
31 31 1 0 0 
SMALL
USER_CHARGES


@<TRIPOS>ATOM
  1 S        0.7130     1.0520     0.2470 S.o2  1 <1>   1.2040 
  2 O        0.8480     0.1690     1.3900 O.2   1 <1>  -0.6500 
  3 O        1.4730     2.2850     0.2660 O.2   1 <1>  -0.6500 
  4 C       -1.0570     1.3940    -0.0740 C.ar  1 <1>   0.3010 
  5 C        1.2200     0.1500    -1.2140 C.3   1 <1>  -0.0550 
  6 N       -1.5070     1.4520    -1.3340 N.ar  1 <1>  -0.6200 
  7 C       -1.9000     1.6020     1.0130 C.ar  1 <1>  -0.1500 
  8 C        2.5740    -0.5450    -1.0630 C.3   1 <1>   0.2000 
  9 C       -2.7940     1.7180    -1.4990 C.ar  1 <1>   0.1600 
 10 C       -3.2390     1.8760     0.8320 C.ar  1 <1>  -0.1500 
 11 O        2.4130    -1.6120    -0.1890 O.3   1 <1>  -0.6800 
 12 C        3.7110     0.3850    -0.5920 C.3   1 <1>   0.1200 
 13 C       -3.6880     1.9330    -0.4670 C.ar  1 <1>  -0.1500 
 14 O        4.9400    -0.2620    -0.7180 O.3   1 <1>  -0.5600 
 15 C        6.0110     0.4610    -0.2140 C.3   1 <1>   0.1200 
 16 C        7.2700    -0.3660    -0.4450 C.3   1 <1>  -0.2400 
 17 H        1.2730     0.8310    -2.0410 H     1 <1>   0.0800 
 18 H        0.4880    -0.5950    -1.4600 H     1 <1>   0.0800 
 19 H       -1.4970     1.5470     2.0100 H     1 <1>   0.1500 
 20 H        2.8500    -0.9630    -2.0160 H     1 <1>   0.0800 
 21 H       -3.1570     1.7670    -2.5120 H     1 <1>   0.1500 
 22 H       -3.9010     2.0380     1.6670 H     1 <1>   0.1500 
 23 H        2.2230    -1.2910     0.7210 H     1 <1>   0.4000 
 24 H        3.5710     0.6680     0.4370 H     1 <1>   0.0800 
 25 H        3.7410     1.2700    -1.2040 H     1 <1>   0.0800 
 26 H       -4.7210     2.1440    -0.6810 H     1 <1>   0.1500 
 27 H        5.8540     0.6270     0.8390 H     1 <1>   0.0800 
 28 H        6.0730     1.4030    -0.7330 H     1 <1>   0.0800 
 29 H        7.1870    -1.3090     0.0640 H     1 <1>   0.0800 
 30 H        8.1260     0.1590    -0.0640 H     1 <1>   0.0800 
 31 H        7.4090    -0.5380    -1.4970 H     1 <1>   0.0800 
@<TRIPOS>BOND
  1   1   2  2   
  2   1   3  2   
  3   1   4  1   
  4   1   5  1   
  5   4   6  ar  
  6   4   7  ar  
  7   5   8  1   
  8   5  17  1   
  9   5  18  1   
 10   6   9  ar  
 11   7  10  ar  
 12   7  19  1   
 13   8  11  1   
 14   8  12  1   
 15   8  20  1   
 16   9  13  ar  
 17   9  21  1   
 18  10  13  ar  
 19  10  22  1   
 20  11  23  1   
 21  12  14  1   
 22  12  24  1   
 23  12  25  1   
 24  13  26  1   
 25  14  15  1   
 26  15  16  1   
 27  15  27  1   
 28  15  28  1   
 29  16  29  1   
 30  16  30  1   
 31  16  31  1   
@<TRIPOS>SUBSTRUCTURE
  1 ****   1 GROUP 4 **** **** 0

# MOE 2024.06 (io_trps.svl 2023.06)
