@<TRIPOS>MOLECULE
NONAME
50 52 1 0 0 
SMALL
USER_CHARGES


@<TRIPOS>ATOM
  1 O       -0.7270     3.2620    -2.0500 O.2   1 <1>  -0.5700 
  2 C       -0.1670     2.6890    -1.1480 C.2   1 <1>   0.5690 
  3 N       -0.7650     1.6900    -0.4490 N.am  1 <1>  -0.7300 
  4 C        1.2450     3.1110    -0.7740 C.3   1 <1>   0.0440 
  5 C       -2.1500     1.1810    -0.6470 C.3   1 <1>   0.1400 
  6 C        1.7350     2.4500     0.5140 C.ar  1 <1>  -0.1430 
  7 C       -3.1610     1.6800     0.4240 C.3   1 <1>   0.1430 
  8 C        1.4520     3.0230     1.7450 C.ar  1 <1>  -0.1500 
  9 C        2.4440     1.2600     0.4640 C.ar  1 <1>  -0.1500 
 10 C       -4.5520     1.1060     0.0480 C.ar  1 <1>  -0.1430 
 11 C       -2.6620     1.2350     1.8280 C.3   1 <1>  -0.1600 
 12 C       -3.2910     3.2270     0.4020 C.3   1 <1>  -0.1600 
 13 C        1.8670     2.4080     2.9130 C.ar  1 <1>  -0.1500 
 14 C        2.8610     0.6460     1.6320 C.ar  1 <1>  -0.1500 
 15 C       -5.0900     1.4270    -1.1960 C.ar  1 <1>  -0.1500 
 16 C       -5.3160     0.2940     0.8860 C.ar  1 <1>  -0.1500 
 17 C       -3.2400     2.1430     2.9180 C.3   1 <1>   0.1200 
 18 C       -2.4430     3.9110     1.4790 C.3   1 <1>   0.1200 
 19 C        2.5710     1.2190     2.8580 C.ar  1 <1>  -0.1500 
 20 C       -6.3230     0.9450    -1.5960 C.ar  1 <1>  -0.1500 
 21 C       -6.5510    -0.1910     0.4910 C.ar  1 <1>  -0.1500 
 22 O       -2.7820     3.4590     2.7630 O.3   1 <1>  -0.5600 
 23 C       -7.0630     0.1300    -0.7600 C.ar  1 <1>   0.0830 
 24 O       -8.2610    -0.3050    -1.2260 O.3   1 <1>  -0.3620 
 25 C       -9.0910    -1.1360    -0.4470 C.3   1 <1>   0.0400 
 26 H       -0.2410     1.2870     0.3350 H     1 <1>   0.3700 
 27 H        1.2620     4.1790    -0.6620 H     1 <1>   0.0800 
 28 H        1.8990     2.8600    -1.5880 H     1 <1>   0.0800 
 29 H       -2.1260     0.1050    -0.6320 H     1 <1>   0.0800 
 30 H       -2.4780     1.4760    -1.6270 H     1 <1>   0.0800 
 31 H        0.9060     3.9480     1.8040 H     1 <1>   0.1500 
 32 H        2.6740     0.8020    -0.4830 H     1 <1>   0.1500 
 33 H       -1.5940     1.3120     1.9120 H     1 <1>   0.0800 
 34 H       -2.8890     0.2040     2.0170 H     1 <1>   0.0800 
 35 H       -4.3130     3.5150     0.5770 H     1 <1>   0.0800 
 36 H       -3.0190     3.6120    -0.5640 H     1 <1>   0.0800 
 37 H        1.6410     2.8570     3.8650 H     1 <1>   0.1500 
 38 H        3.4130    -0.2780     1.5880 H     1 <1>   0.1500 
 39 H       -4.5560     2.0680    -1.8760 H     1 <1>   0.1500 
 40 H       -4.9830     0.0190     1.8670 H     1 <1>   0.1500 
 41 H       -2.9410     1.8080     3.8960 H     1 <1>   0.0800 
 42 H       -4.3160     2.1620     2.8700 H     1 <1>   0.0800 
 43 H       -2.5900     4.9770     1.4580 H     1 <1>   0.0800 
 44 H       -1.4000     3.7060     1.3220 H     1 <1>   0.0800 
 45 H        2.8950     0.7420     3.7670 H     1 <1>   0.1500 
 46 H       -6.7210     1.2010    -2.5610 H     1 <1>   0.1500 
 47 H       -7.1000    -0.8140     1.1700 H     1 <1>   0.1500 
 48 H       -9.9760    -1.3520    -1.0160 H     1 <1>   0.0800 
 49 H       -9.3550    -0.6170     0.4570 H     1 <1>   0.0800 
 50 H       -8.5640    -2.0490    -0.2290 H     1 <1>   0.0800 
@<TRIPOS>BOND
  1   1   2  2   
  2   2   3  am  
  3   2   4  1   
  4   3   5  1   
  5   3  26  1   
  6   4   6  1   
  7   4  27  1   
  8   4  28  1   
  9   5   7  1   
 10   5  29  1   
 11   5  30  1   
 12   6   8  ar  
 13   6   9  ar  
 14   7  10  1   
 15   7  11  1   
 16   7  12  1   
 17   8  13  ar  
 18   8  31  1   
 19   9  14  ar  
 20   9  32  1   
 21  10  15  ar  
 22  10  16  ar  
 23  11  17  1   
 24  11  33  1   
 25  11  34  1   
 26  12  18  1   
 27  12  35  1   
 28  12  36  1   
 29  13  19  ar  
 30  13  37  1   
 31  14  19  ar  
 32  14  38  1   
 33  15  20  ar  
 34  15  39  1   
 35  16  21  ar  
 36  16  40  1   
 37  17  22  1   
 38  17  41  1   
 39  17  42  1   
 40  18  22  1   
 41  18  43  1   
 42  18  44  1   
 43  19  45  1   
 44  20  23  ar  
 45  20  46  1   
 46  21  23  ar  
 47  21  47  1   
 48  23  24  1   
 49  24  25  1   
 50  25  48  1   
 51  25  49  1   
 52  25  50  1   
@<TRIPOS>SUBSTRUCTURE
  1 ****   7 GROUP 4 **** **** 0

# MOE 2024.06 (io_trps.svl 2023.06)
