@<TRIPOS>MOLECULE
NONAME
47 49 1 0 0 
SMALL
USER_CHARGES


@<TRIPOS>ATOM
  1 CL      -3.9330    -0.4810     1.5800 Cl    1 <1>  -0.1770 
  2 C       -3.6180     1.0180     0.7430 C.ar  1 <1>   0.1770 
  3 C       -3.1030     2.0890     1.4420 C.ar  1 <1>  -0.1500 
  4 C       -3.8870     1.1040    -0.6090 C.ar  1 <1>  -0.1500 
  5 C       -2.8330     3.2980     0.8000 C.ar  1 <1>   0.0860 
  6 C       -3.6400     2.2970    -1.2620 C.ar  1 <1>  -0.1500 
  7 C       -3.1330     3.3880    -0.5700 C.ar  1 <1>   0.0830 
  8 C       -2.2640     4.3820     1.5700 C.2   1 <1>   0.5440 
  9 O       -2.9410     4.5130    -1.2950 O.3   1 <1>  -0.3630 
 10 O       -2.9150     4.8400     2.4910 O.2   1 <1>  -0.5700 
 11 N       -1.0150     4.9140     1.3080 N.am  1 <1>  -0.6600 
 12 C       -3.6090     5.7150    -0.9430 C.3   1 <1>   0.2630 
 13 C       -0.0580     4.3470     0.3190 C.3   1 <1>   0.1400 
 14 C       -0.5170     6.1280     2.0120 C.3   1 <1>   0.1400 
 15 C       -5.1110     5.4750    -0.8730 C.ar  1 <1>  -0.1430 
 16 C        0.2950     5.4080    -0.7270 C.3   1 <1>  -0.1600 
 17 C       -0.1970     7.2120     0.9800 C.3   1 <1>  -0.1600 
 18 C       -5.7530     5.3970     0.3540 C.ar  1 <1>  -0.1500 
 19 C       -5.8490     5.3260    -2.0370 C.ar  1 <1>  -0.1500 
 20 C        0.7990     6.7150    -0.0850 C.3   1 <1>  -0.0190 
 21 C       -7.1170     5.1740     0.4160 C.ar  1 <1>  -0.1500 
 22 C       -7.2140     5.1040    -1.9770 C.ar  1 <1>  -0.1500 
 23 C        1.0480     7.7860    -1.1450 C.2   1 <1>   0.5690 
 24 C       -7.8490     5.0270    -0.7490 C.ar  1 <1>  -0.1500 
 25 O        0.1390     8.2040    -1.8150 O.2   1 <1>  -0.5700 
 26 N        2.2910     8.2640    -1.3330 N.am  1 <1>  -0.8000 
 27 H       -2.9070     1.9930     2.4950 H     1 <1>   0.1500 
 28 H       -4.2860     0.2550    -1.1340 H     1 <1>   0.1500 
 29 H       -3.8490     2.3950    -2.3130 H     1 <1>   0.1500 
 30 H       -3.3850     6.4400    -1.7050 H     1 <1>   0.0800 
 31 H       -3.2250     6.0820    -0.0110 H     1 <1>   0.0800 
 32 H       -0.4700     3.4820    -0.1690 H     1 <1>   0.0800 
 33 H        0.8330     4.0380     0.8390 H     1 <1>   0.0800 
 34 H        0.3670     5.8730     2.5700 H     1 <1>   0.0800 
 35 H       -1.2510     6.5010     2.7060 H     1 <1>   0.0800 
 36 H       -0.5760     5.6150    -1.3230 H     1 <1>   0.0800 
 37 H        1.0480     5.0170    -1.3880 H     1 <1>   0.0800 
 38 H        0.2090     8.0720     1.4830 H     1 <1>   0.0800 
 39 H       -1.1140     7.5180     0.5070 H     1 <1>   0.0800 
 40 H       -5.1920     5.5070     1.2680 H     1 <1>   0.1500 
 41 H       -5.3590     5.3800    -2.9940 H     1 <1>   0.1500 
 42 H        1.7310     6.5050     0.4080 H     1 <1>   0.0800 
 43 H       -7.6060     5.1130     1.3720 H     1 <1>   0.1500 
 44 H       -7.7800     4.9890    -2.8840 H     1 <1>   0.1500 
 45 H       -8.9090     4.8540    -0.7000 H     1 <1>   0.1500 
 46 H        2.4400     8.9800    -2.0460 H     1 <1>   0.3700 
 47 H        3.1120     7.9640    -0.8100 H     1 <1>   0.3700 
@<TRIPOS>BOND
  1   1   2  1   
  2   2   3  ar  
  3   2   4  ar  
  4   3   5  ar  
  5   3  27  1   
  6   4   6  ar  
  7   4  28  1   
  8   5   7  ar  
  9   5   8  1   
 10   6   7  ar  
 11   6  29  1   
 12   7   9  1   
 13   8  10  2   
 14   8  11  am  
 15   9  12  1   
 16  11  13  1   
 17  11  14  1   
 18  12  15  1   
 19  12  30  1   
 20  12  31  1   
 21  13  16  1   
 22  13  32  1   
 23  13  33  1   
 24  14  17  1   
 25  14  34  1   
 26  14  35  1   
 27  15  18  ar  
 28  15  19  ar  
 29  16  20  1   
 30  16  36  1   
 31  16  37  1   
 32  17  20  1   
 33  17  38  1   
 34  17  39  1   
 35  18  21  ar  
 36  18  40  1   
 37  19  22  ar  
 38  19  41  1   
 39  20  23  1   
 40  20  42  1   
 41  21  24  ar  
 42  21  43  1   
 43  22  24  ar  
 44  22  44  1   
 45  23  25  2   
 46  23  26  am  
 47  24  45  1   
 48  26  46  1   
 49  26  47  1   
@<TRIPOS>SUBSTRUCTURE
  1 ****   9 GROUP 4 **** **** 0

# MOE 2024.06 (io_trps.svl 2023.06)
