@<TRIPOS>MOLECULE
NONAME
40 41 1 0 0 
SMALL
USER_CHARGES


@<TRIPOS>ATOM
  1 O       -0.2980     0.6550    -1.4320 O.2   1 <1>  -0.5700 
  2 C       -0.0930     1.7850    -1.0610 C.2   1 <1>   0.5820 
  3 C       -1.1680     2.6470    -0.6220 C.2   1 <1>   0.2770 
  4 C        1.3500     2.2460    -1.0760 C.3   1 <1>  -0.1790 
  5 N       -2.4730     2.1980    -0.5800 N.pl3 1 <1>  -0.7000 
  6 C       -1.2160     3.9420    -0.1900 C.2   1 <1>   0.1820 
  7 C       -3.2920     3.1720    -0.1380 C.cat 1 <1>   0.7830 
  8 N       -2.5140     4.2440     0.1010 N.pl3 1 <1>  -0.8080 
  9 C       -0.1700     5.0260     0.0100 C.3   1 <1>  -0.0720 
 10 C       -4.7170     3.0340     0.0160 C.ar  1 <1>   0.0170 
 11 O       -2.8830     5.3950     0.5730 O.3   1 <1>  -0.4420 
 12 C       -5.3070     1.7870     0.2520 C.ar  1 <1>  -0.1500 
 13 C       -5.5790     4.1310    -0.0730 C.ar  1 <1>  -0.1500 
 14 C       -6.6740     1.6310     0.3790 C.ar  1 <1>   0.0830 
 15 C       -6.9560     4.0050     0.0560 C.ar  1 <1>   0.0830 
 16 O       -7.1030     0.3600     0.6100 O.3   1 <1>  -0.3630 
 17 C       -7.5170     2.7420     0.2600 C.ar  1 <1>   0.0830 
 18 O       -7.7860     5.0870    -0.0090 O.3   1 <1>  -0.3630 
 19 C       -8.0960     0.1370     1.5890 C.3   1 <1>   0.0400 
 20 O       -8.8680     2.6010     0.3380 O.3   1 <1>  -0.3630 
 21 C       -7.2850     6.3900     0.2060 C.3   1 <1>   0.0400 
 22 C       -9.5650     2.6770    -0.8830 C.3   1 <1>   0.0400 
 23 H        1.9860     1.4370    -1.3870 H     1 <1>   0.0800 
 24 H        1.4700     3.0560    -1.7710 H     1 <1>   0.0800 
 25 H        1.6500     2.5530    -0.0920 H     1 <1>   0.0800 
 26 H       -2.7700     1.2690    -0.8720 H     1 <1>   0.4500 
 27 H       -0.4490     5.8880    -0.5680 H     1 <1>   0.0800 
 28 H       -0.1600     5.3130     1.0460 H     1 <1>   0.0800 
 29 H        0.8150     4.7250    -0.2770 H     1 <1>   0.0800 
 30 H       -4.6940     0.9120     0.3520 H     1 <1>   0.1500 
 31 H       -5.1340     5.0920    -0.2520 H     1 <1>   0.1500 
 32 H       -8.0030    -0.8750     1.9370 H     1 <1>   0.0800 
 33 H       -9.0630     0.2800     1.1440 H     1 <1>   0.0800 
 34 H       -7.9500     0.8230     2.4050 H     1 <1>   0.0800 
 35 H       -8.1200     7.0600     0.2940 H     1 <1>   0.0800 
 36 H       -6.6750     6.6740    -0.6320 H     1 <1>   0.0800 
 37 H       -6.7110     6.3990     1.1170 H     1 <1>   0.0800 
 38 H      -10.6070     2.5010    -0.6870 H     1 <1>   0.0800 
 39 H       -9.1800     1.9250    -1.5490 H     1 <1>   0.0800 
 40 H       -9.4330     3.6570    -1.3060 H     1 <1>   0.0800 
@<TRIPOS>BOND
  1   1   2  2   
  2   2   3  1   
  3   2   4  1   
  4   3   5  1   
  5   3   6  2   
  6   4  23  1   
  7   4  24  1   
  8   4  25  1   
  9   5   7  ar  
 10   5  26  1   
 11   6   8  1   
 12   6   9  1   
 13   7   8  ar  
 14   7  10  1   
 15   8  11  1   
 16   9  27  1   
 17   9  28  1   
 18   9  29  1   
 19  10  12  ar  
 20  10  13  ar  
 21  12  14  ar  
 22  12  30  1   
 23  13  15  ar  
 24  13  31  1   
 25  14  16  1   
 26  14  17  ar  
 27  15  17  ar  
 28  15  18  1   
 29  16  19  1   
 30  17  20  1   
 31  18  21  1   
 32  19  32  1   
 33  19  33  1   
 34  19  34  1   
 35  20  22  1   
 36  21  35  1   
 37  21  36  1   
 38  21  37  1   
 39  22  38  1   
 40  22  39  1   
 41  22  40  1   
@<TRIPOS>SUBSTRUCTURE
  1 ****  10 GROUP 4 **** **** 0

# MOE 2024.06 (io_trps.svl 2023.06)
