@<TRIPOS>MOLECULE
NONAME
29 30 1 0 0 
SMALL
USER_CHARGES


@<TRIPOS>ATOM
  1 F        1.0630    -1.3910     1.4470 F     1 <1>  -0.1900 
  2 C        0.5030    -2.1310     0.5240 C.ar  1 <1>   0.1900 
  3 C       -0.7170    -2.7290     0.7890 C.ar  1 <1>   0.1900 
  4 C        1.1450    -2.3000    -0.6990 C.ar  1 <1>   0.0860 
  5 F       -1.2810    -2.5520     1.9580 F     1 <1>  -0.1900 
  6 C       -1.3590    -3.5160    -0.1560 C.ar  1 <1>  -0.1440 
  7 C        2.4220    -1.6960    -0.9990 C.2   1 <1>   0.5440 
  8 C        0.4860    -3.0850    -1.6480 C.ar  1 <1>  -0.1500 
  9 C       -0.7370    -3.6830    -1.3860 C.ar  1 <1>  -0.1500 
 10 C       -2.7020    -4.1720     0.1350 C.3   1 <1>  -0.0960 
 11 O        2.4860    -0.8400    -1.8600 O.2   1 <1>  -0.5700 
 12 N        3.5780    -2.0960    -0.3710 N.am  1 <1>  -0.6600 
 13 C        4.9010    -1.5160    -0.6840 C.3   1 <1>   0.1400 
 14 C        3.7000    -3.2220     0.5810 C.3   1 <1>   0.1400 
 15 C        5.9040    -2.5160    -0.1220 C.3   1 <1>  -0.1600 
 16 C        5.1610    -3.2060     1.0190 C.3   1 <1>  -0.1600 
 17 H        0.9500    -3.2200    -2.6110 H     1 <1>   0.1500 
 18 H       -1.2060    -4.2810    -2.1500 H     1 <1>   0.1500 
 19 H       -3.4370    -3.4190     0.3570 H     1 <1>   0.0800 
 20 H       -2.6140    -4.8280     0.9830 H     1 <1>   0.0800 
 21 H       -3.0430    -4.7460    -0.7080 H     1 <1>   0.0800 
 22 H        4.9900    -0.5650    -0.1870 H     1 <1>   0.0800 
 23 H        5.0230    -1.3810    -1.7460 H     1 <1>   0.0800 
 24 H        3.4710    -4.1430     0.0710 H     1 <1>   0.0800 
 25 H        3.0430    -3.0950     1.4240 H     1 <1>   0.0800 
 26 H        6.8070    -2.0340     0.2060 H     1 <1>   0.0800 
 27 H        6.1460    -3.2330    -0.8880 H     1 <1>   0.0800 
 28 H        5.5330    -4.1960     1.2130 H     1 <1>   0.0800 
 29 H        5.2480    -2.6180     1.9160 H     1 <1>   0.0800 
@<TRIPOS>BOND
  1   1   2  1   
  2   2   3  ar  
  3   2   4  ar  
  4   3   5  1   
  5   3   6  ar  
  6   4   7  1   
  7   4   8  ar  
  8   6   9  ar  
  9   6  10  1   
 10   7  11  2   
 11   7  12  am  
 12   8   9  ar  
 13   8  17  1   
 14   9  18  1   
 15  10  19  1   
 16  10  20  1   
 17  10  21  1   
 18  12  13  1   
 19  12  14  1   
 20  13  15  1   
 21  13  22  1   
 22  13  23  1   
 23  14  16  1   
 24  14  24  1   
 25  14  25  1   
 26  15  16  1   
 27  15  26  1   
 28  15  27  1   
 29  16  28  1   
 30  16  29  1   
@<TRIPOS>SUBSTRUCTURE
  1 ****   4 GROUP 4 **** **** 0

# MOE 2024.06 (io_trps.svl 2023.06)
