@<TRIPOS>MOLECULE
NONAME
47 48 1 0 0 
SMALL
USER_CHARGES


@<TRIPOS>ATOM
  1 O        3.5970    -2.4670    -0.2030 O.3   1 <1>  -0.3630 
  2 C        4.8290    -1.9270    -0.3940 C.ar  1 <1>   0.0830 
  3 C        2.4880    -1.6780     0.1840 C.3   1 <1>   0.1200 
  4 C        5.8680    -2.7940    -0.7220 C.ar  1 <1>  -0.1440 
  5 C        5.0820    -0.5610    -0.2750 C.ar  1 <1>  -0.1500 
  6 C        1.2610    -2.5850     0.3320 C.3   1 <1>   0.2000 
  7 C        7.1430    -2.2890    -0.9240 C.ar  1 <1>  -0.1500 
  8 C        5.6190    -4.2890    -0.8600 C.3   1 <1>  -0.0960 
  9 C        6.3590    -0.0700    -0.4790 C.ar  1 <1>  -0.1500 
 10 O        1.1230    -3.3290    -0.8350 O.3   1 <1>  -0.6800 
 11 C       -0.0260    -1.7780     0.6320 C.3   1 <1>   0.1100 
 12 C        7.3900    -0.9330    -0.8040 C.ar  1 <1>  -0.1500 
 13 N       -1.2820    -2.5470     0.4700 N.3   1 <1>  -0.8100 
 14 C       -1.3890    -3.7430     1.3400 C.3   1 <1>   0.1100 
 15 C       -2.5000    -1.7120     0.5490 C.3   1 <1>   0.1100 
 16 C       -2.6810    -4.5480     1.0540 C.3   1 <1>   0.3430 
 17 C       -3.7670    -2.5230     0.1760 C.3   1 <1>   0.3430 
 18 N       -3.4250    -3.9590    -0.1060 N.4   1 <1>  -0.9590 
 19 C       -4.5480    -4.8030    -0.5760 C.3   1 <1>   0.3430 
 20 C       -4.9910    -4.3460    -1.9600 C.3   1 <1>  -0.2400 
 21 H        2.3160    -0.9370    -0.5770 H     1 <1>   0.0800 
 22 H        2.7200    -1.2010     1.1190 H     1 <1>   0.0800 
 23 H        4.3050     0.1350    -0.0270 H     1 <1>   0.1500 
 24 H        1.4460    -3.2750     1.1370 H     1 <1>   0.0800 
 25 H        7.9540    -2.9490    -1.1780 H     1 <1>   0.1500 
 26 H        4.9130    -4.4680    -1.6520 H     1 <1>   0.0800 
 27 H        5.2160    -4.6770     0.0580 H     1 <1>   0.0800 
 28 H        6.5280    -4.8160    -1.0850 H     1 <1>   0.0800 
 29 H        6.5520     0.9850    -0.3870 H     1 <1>   0.1500 
 30 H        2.0220    -3.5740    -1.1440 H     1 <1>   0.4000 
 31 H       -0.0520    -0.9410    -0.0450 H     1 <1>   0.0800 
 32 H        0.0310    -1.3840     1.6320 H     1 <1>   0.0800 
 33 H        8.3830    -0.5500    -0.9630 H     1 <1>   0.1500 
 34 H       -1.3660    -3.4520     2.3760 H     1 <1>   0.0800 
 35 H       -0.5480    -4.3910     1.1620 H     1 <1>   0.0800 
 36 H       -2.4100    -0.8820    -0.1320 H     1 <1>   0.0800 
 37 H       -2.6070    -1.3110     1.5420 H     1 <1>   0.0800 
 38 H       -3.3050    -4.5460     1.9320 H     1 <1>   0.0800 
 39 H       -2.4120    -5.5700     0.8410 H     1 <1>   0.0800 
 40 H       -4.2160    -2.0760    -0.6950 H     1 <1>   0.0800 
 41 H       -4.4800    -2.4620     0.9810 H     1 <1>   0.0800 
 42 H       -2.6950    -3.8920    -0.8370 H     1 <1>   0.4500 
 43 H       -5.3720    -4.7470     0.1170 H     1 <1>   0.0800 
 44 H       -4.2240    -5.8310    -0.6360 H     1 <1>   0.0800 
 45 H       -5.4200    -3.3620    -1.9310 H     1 <1>   0.0800 
 46 H       -5.7440    -5.0200    -2.3290 H     1 <1>   0.0800 
 47 H       -4.1650    -4.3640    -2.6500 H     1 <1>   0.0800 
@<TRIPOS>BOND
  1   1   2  1   
  2   1   3  1   
  3   2   4  ar  
  4   2   5  ar  
  5   3   6  1   
  6   3  21  1   
  7   3  22  1   
  8   4   7  ar  
  9   4   8  1   
 10   5   9  ar  
 11   5  23  1   
 12   6  10  1   
 13   6  11  1   
 14   6  24  1   
 15   7  12  ar  
 16   7  25  1   
 17   8  26  1   
 18   8  27  1   
 19   8  28  1   
 20   9  12  ar  
 21   9  29  1   
 22  10  30  1   
 23  11  13  1   
 24  11  31  1   
 25  11  32  1   
 26  12  33  1   
 27  13  14  1   
 28  13  15  1   
 29  14  16  1   
 30  14  34  1   
 31  14  35  1   
 32  15  17  1   
 33  15  36  1   
 34  15  37  1   
 35  16  18  1   
 36  16  38  1   
 37  16  39  1   
 38  17  18  1   
 39  17  40  1   
 40  17  41  1   
 41  18  19  1   
 42  18  42  1   
 43  19  20  1   
 44  19  43  1   
 45  19  44  1   
 46  20  45  1   
 47  20  46  1   
 48  20  47  1   
@<TRIPOS>SUBSTRUCTURE
  1 ****   6 GROUP 4 **** **** 0

# MOE 2024.06 (io_trps.svl 2023.06)
