@<TRIPOS>MOLECULE
NONAME
43 44 1 0 0 
SMALL
USER_CHARGES


@<TRIPOS>ATOM
  1 O        0.0590    -0.8720    -0.3920 O.3   1 <1>  -0.6800 
  2 C        1.2880    -1.3520     0.0320 C.3   1 <1>   0.1200 
  3 C        2.3770    -0.4140    -0.4990 C.3   1 <1>   0.1100 
  4 N        3.7330    -0.8550    -0.0980 N.3   1 <1>  -0.8100 
  5 C        4.1990    -2.0190    -0.8960 C.3   1 <1>   0.1100 
  6 C        4.6960     0.2660    -0.2280 C.3   1 <1>   0.1100 
  7 C        5.6330    -2.4630    -0.5130 C.3   1 <1>   0.3430 
  8 C        6.1430    -0.1440     0.1420 C.3   1 <1>   0.3430 
  9 N        6.2040    -1.5810     0.5600 N.4   1 <1>  -0.9590 
 10 C        7.5170    -2.0470     1.1030 C.3   1 <1>   0.3430 
 11 C        8.6840    -1.9300     0.1020 C.3   1 <1>  -0.0800 
 12 C        9.6550    -3.1070     0.3120 C.3   1 <1>  -0.1600 
 13 C        9.4440    -0.5950     0.2560 C.3   1 <1>  -0.1600 
 14 C       10.8450    -3.0340    -0.6530 C.3   1 <1>  -0.1600 
 15 C       10.6330    -0.5140    -0.7110 C.3   1 <1>  -0.1600 
 16 C       11.5860    -1.6990    -0.5180 C.3   1 <1>  -0.1600 
 17 H       -0.6720    -1.4120    -0.0300 H     1 <1>   0.4000 
 18 H        1.4040    -2.3480    -0.3530 H     1 <1>   0.0800 
 19 H        1.2940    -1.3630     1.1080 H     1 <1>   0.0800 
 20 H        2.1860     0.5640    -0.0890 H     1 <1>   0.0800 
 21 H        2.3090    -0.3500    -1.5720 H     1 <1>   0.0800 
 22 H        4.1780    -1.7750    -1.9460 H     1 <1>   0.0800 
 23 H        3.5340    -2.8520    -0.7480 H     1 <1>   0.0800 
 24 H        4.3910     1.0720     0.4190 H     1 <1>   0.0800 
 25 H        4.6860     0.6440    -1.2370 H     1 <1>   0.0800 
 26 H        6.2580    -2.4340    -1.3900 H     1 <1>   0.0800 
 27 H        5.6010    -3.4840    -0.1680 H     1 <1>   0.0800 
 28 H        6.4930     0.4870     0.9430 H     1 <1>   0.0800 
 29 H        6.7830     0.0190    -0.7090 H     1 <1>   0.0800 
 30 H        5.4870    -1.6330     1.3020 H     1 <1>   0.4500 
 31 H        7.4180    -3.0810     1.3910 H     1 <1>   0.0800 
 32 H        7.7630    -1.4910     1.9930 H     1 <1>   0.0800 
 33 H        8.3110    -2.0030    -0.9040 H     1 <1>   0.0800 
 34 H        9.1430    -4.0420     0.1590 H     1 <1>   0.0800 
 35 H       10.0290    -3.0980     1.3230 H     1 <1>   0.0800 
 36 H        9.8130    -0.5030     1.2630 H     1 <1>   0.0800 
 37 H        8.8000     0.2430     0.0670 H     1 <1>   0.0800 
 38 H       10.4980    -3.1480    -1.6660 H     1 <1>   0.0800 
 39 H       11.5260    -3.8430    -0.4490 H     1 <1>   0.0800 
 40 H       11.1710     0.4040    -0.5470 H     1 <1>   0.0800 
 41 H       10.2760    -0.5070    -1.7270 H     1 <1>   0.0800 
 42 H       12.3760    -1.6500    -1.2490 H     1 <1>   0.0800 
 43 H       12.0390    -1.6390     0.4570 H     1 <1>   0.0800 
@<TRIPOS>BOND
  1   1   2  1   
  2   1  17  1   
  3   2   3  1   
  4   2  18  1   
  5   2  19  1   
  6   3   4  1   
  7   3  20  1   
  8   3  21  1   
  9   4   5  1   
 10   4   6  1   
 11   5   7  1   
 12   5  22  1   
 13   5  23  1   
 14   6   8  1   
 15   6  24  1   
 16   6  25  1   
 17   7   9  1   
 18   7  26  1   
 19   7  27  1   
 20   8   9  1   
 21   8  28  1   
 22   8  29  1   
 23   9  10  1   
 24   9  30  1   
 25  10  11  1   
 26  10  31  1   
 27  10  32  1   
 28  11  12  1   
 29  11  13  1   
 30  11  33  1   
 31  12  14  1   
 32  12  34  1   
 33  12  35  1   
 34  13  15  1   
 35  13  36  1   
 36  13  37  1   
 37  14  16  1   
 38  14  38  1   
 39  14  39  1   
 40  15  16  1   
 41  15  40  1   
 42  15  41  1   
 43  16  42  1   
 44  16  43  1   
@<TRIPOS>SUBSTRUCTURE
  1 ****   9 GROUP 4 **** **** 0

# MOE 2024.06 (io_trps.svl 2023.06)
