@<TRIPOS>MOLECULE
NONAME
50 51 1 0 0 
SMALL
USER_CHARGES


@<TRIPOS>ATOM
  1 CL      -1.1610    -1.5040     2.5090 Cl    1 <1>  -0.1770 
  2 C       -1.7160    -1.5680     0.8510 C.ar  1 <1>   0.1770 
  3 C       -1.1370    -2.4740    -0.0400 C.ar  1 <1>   0.1000 
  4 C       -2.7250    -0.7070     0.4650 C.ar  1 <1>  -0.1500 
  5 N       -0.1060    -3.3390     0.3720 N.pl3 1 <1>  -0.6000 
  6 C       -1.5910    -2.4820    -1.3560 C.ar  1 <1>  -0.1500 
  7 C       -3.1610    -0.7490    -0.8450 C.ar  1 <1>   0.1770 
  8 C        0.0730    -4.6840     0.2120 C.2   1 <1>  -0.0380 
  9 C       -2.6030    -1.6250    -1.7600 C.ar  1 <1>  -0.1500 
 10 CL      -4.4360     0.3260    -1.3580 Cl    1 <1>  -0.1770 
 11 C        1.2490    -5.3280     0.5430 C.2   1 <1>   0.0290 
 12 C       -1.1050    -5.4860    -0.3370 C.3   1 <1>  -0.0220 
 13 C        1.3840    -6.7450     0.3750 C.2   1 <1>   0.4950 
 14 C        2.3650    -4.5850     1.0610 C.2   1 <1>   0.4950 
 15 C       -1.1950    -6.8690     0.3330 C.3   1 <1>   0.0000 
 16 O        2.4480    -7.3200     0.3530 O.2   1 <1>  -0.5700 
 17 C        0.1590    -7.6050     0.1080 C.3   1 <1>   0.0420 
 18 O        2.2180    -3.7160     1.8920 O.2   1 <1>  -0.5700 
 19 C        3.7890    -4.7990     0.5440 C.3   1 <1>  -0.0990 
 20 C       -2.3400    -7.6670    -0.3170 C.3   1 <1>  -0.2400 
 21 C       -1.5540    -6.6640     1.8230 C.3   1 <1>  -0.2400 
 22 C        0.3090    -8.9190     0.8750 C.2   1 <1>   0.6590 
 23 C        4.5730    -3.4890     0.3450 C.3   1 <1>  -0.1600 
 24 O        0.2940    -8.9540     2.0760 O.2   1 <1>  -0.5700 
 25 O        0.4130   -10.0590     0.1950 O.3   1 <1>  -0.4300 
 26 C        5.9690    -3.7560    -0.2270 C.3   1 <1>  -0.2400 
 27 C        1.1770   -10.2270    -0.9800 C.3   1 <1>   0.0400 
 28 H       -3.1610    -0.0200     1.1660 H     1 <1>   0.1500 
 29 H        0.5800    -2.8870     1.0080 H     1 <1>   0.4000 
 30 H       -1.1430    -3.1540    -2.0640 H     1 <1>   0.1500 
 31 H       -2.9580    -1.6300    -2.7750 H     1 <1>   0.1500 
 32 H       -0.9910    -5.5890    -1.4020 H     1 <1>   0.0800 
 33 H       -2.0280    -4.9640    -0.1600 H     1 <1>   0.0800 
 34 H        0.2060    -7.8250    -0.9390 H     1 <1>   0.0800 
 35 H        3.7520    -5.3120    -0.4000 H     1 <1>   0.0800 
 36 H        4.3090    -5.4260     1.2450 H     1 <1>   0.0800 
 37 H       -2.1720    -7.8030    -1.3710 H     1 <1>   0.0800 
 38 H       -3.2770    -7.1530    -0.1910 H     1 <1>   0.0800 
 39 H       -2.4340    -8.6390     0.1380 H     1 <1>   0.0800 
 40 H       -0.7380    -6.2260     2.3720 H     1 <1>   0.0800 
 41 H       -1.8080    -7.5960     2.2960 H     1 <1>   0.0800 
 42 H       -2.4060    -6.0150     1.9240 H     1 <1>   0.0800 
 43 H        4.6700    -2.9820     1.2910 H     1 <1>   0.0800 
 44 H        4.0300    -2.8420    -0.3220 H     1 <1>   0.0800 
 45 H        6.5340    -4.3850     0.4390 H     1 <1>   0.0800 
 46 H        6.4990    -2.8270    -0.3490 H     1 <1>   0.0800 
 47 H        5.9000    -4.2380    -1.1860 H     1 <1>   0.0800 
 48 H        1.3680   -11.2790    -1.1050 H     1 <1>   0.0800 
 49 H        2.1110    -9.7010    -0.8740 H     1 <1>   0.0800 
 50 H        0.6200    -9.8590    -1.8230 H     1 <1>   0.0800 
@<TRIPOS>BOND
  1   1   2  1   
  2   2   3  ar  
  3   2   4  ar  
  4   3   5  1   
  5   3   6  ar  
  6   4   7  ar  
  7   4  28  1   
  8   5   8  1   
  9   5  29  1   
 10   6   9  ar  
 11   6  30  1   
 12   7   9  ar  
 13   7  10  1   
 14   8  11  2   
 15   8  12  1   
 16   9  31  1   
 17  11  13  1   
 18  11  14  1   
 19  12  15  1   
 20  12  32  1   
 21  12  33  1   
 22  13  16  2   
 23  13  17  1   
 24  14  18  2   
 25  14  19  1   
 26  15  17  1   
 27  15  20  1   
 28  15  21  1   
 29  17  22  1   
 30  17  34  1   
 31  19  23  1   
 32  19  35  1   
 33  19  36  1   
 34  20  37  1   
 35  20  38  1   
 36  20  39  1   
 37  21  40  1   
 38  21  41  1   
 39  21  42  1   
 40  22  24  2   
 41  22  25  1   
 42  23  26  1   
 43  23  43  1   
 44  23  44  1   
 45  25  27  1   
 46  26  45  1   
 47  26  46  1   
 48  26  47  1   
 49  27  48  1   
 50  27  49  1   
 51  27  50  1   
@<TRIPOS>SUBSTRUCTURE
  1 ****   8 GROUP 4 **** **** 0

# MOE 2024.06 (io_trps.svl 2023.06)
