@<TRIPOS>MOLECULE
NONAME
43 44 1 0 0 
SMALL
USER_CHARGES


@<TRIPOS>ATOM
  1 S        0.1220     0.0420    -0.6080 S.o2  1 <1>   1.4970 
  2 O        0.5540    -0.0110    -1.9950 O.2   1 <1>  -0.6500 
  3 O       -0.0020     1.3530    -0.0020 O.2   1 <1>  -0.6500 
  4 N        1.2020    -0.8250     0.3320 N.2   1 <1>  -0.6380 
  5 C       -1.4480    -0.8420    -0.3980 C.ar  1 <1>  -0.0090 
  6 C        2.4420    -0.6080     0.1290 C.2   1 <1>   0.4860 
  7 C       -1.5910    -2.1610    -0.8210 C.ar  1 <1>   0.0830 
  8 C       -2.5410    -0.2190     0.1910 C.ar  1 <1>  -0.1500 
  9 N        3.0430     0.1980    -0.7920 N.pl3 1 <1>  -0.4710 
 10 C        3.5200    -1.2300     0.8010 C.2   1 <1>  -0.1360 
 11 O       -0.5120    -2.7570    -1.3930 O.3   1 <1>  -0.3630 
 12 C       -2.8040    -2.8270    -0.6540 C.ar  1 <1>  -0.1500 
 13 C       -3.7490    -0.8720     0.3610 C.ar  1 <1>   0.0830 
 14 O        4.4110     0.0530    -0.7370 O.3   1 <1>  -0.0560 
 15 C        4.6700    -0.8100     0.2380 C.2   1 <1>  -0.0620 
 16 C       -0.5640    -4.0640    -1.9200 C.3   1 <1>   0.0400 
 17 C       -3.8790    -2.1870    -0.0670 C.ar  1 <1>  -0.1500 
 18 O       -4.7480    -0.1640     0.9470 O.3   1 <1>  -0.3630 
 19 C        6.1290    -1.1510     0.5380 C.3   1 <1>   0.1380 
 20 C       -6.0190    -0.7360     1.1670 C.3   1 <1>   0.0400 
 21 C        6.8830     0.1260     0.9330 C.3   1 <1>  -0.2400 
 22 C        6.2210    -2.1590     1.6930 C.3   1 <1>  -0.2400 
 23 C        6.7780    -1.7660    -0.7090 C.3   1 <1>  -0.2400 
 24 H       -2.4610     0.8000     0.5300 H     1 <1>   0.1500 
 25 H        2.6120     0.3580    -1.7130 H     1 <1>   0.4000 
 26 H        3.3660    -1.9170     1.6090 H     1 <1>   0.1500 
 27 H       -2.9310    -3.8440    -0.9730 H     1 <1>   0.1500 
 28 H        0.4000    -4.2920    -2.3400 H     1 <1>   0.0800 
 29 H       -1.3140    -4.1010    -2.6910 H     1 <1>   0.0800 
 30 H       -0.7870    -4.7540    -1.1260 H     1 <1>   0.0800 
 31 H       -4.8010    -2.7240     0.0500 H     1 <1>   0.1500 
 32 H       -6.6400     0.0040     1.6390 H     1 <1>   0.0800 
 33 H       -5.9110    -1.5880     1.8140 H     1 <1>   0.0800 
 34 H       -6.4440    -1.0190     0.2210 H     1 <1>   0.0800 
 35 H        6.4240     0.5760     1.7950 H     1 <1>   0.0800 
 36 H        6.8600     0.8390     0.1280 H     1 <1>   0.0800 
 37 H        7.9090    -0.0940     1.1640 H     1 <1>   0.0800 
 38 H        7.2480    -2.3990     1.9040 H     1 <1>   0.0800 
 39 H        5.7800    -1.7490     2.5850 H     1 <1>   0.0800 
 40 H        5.7060    -3.0680     1.4410 H     1 <1>   0.0800 
 41 H        6.7560    -1.0680    -1.5270 H     1 <1>   0.0800 
 42 H        6.2450    -2.6510    -1.0060 H     1 <1>   0.0800 
 43 H        7.8020    -2.0290    -0.5140 H     1 <1>   0.0800 
@<TRIPOS>BOND
  1   1   2  2   
  2   1   3  2   
  3   1   4  1   
  4   1   5  1   
  5   4   6  2   
  6   5   7  ar  
  7   5   8  ar  
  8   6   9  1   
  9   6  10  1   
 10   7  11  1   
 11   7  12  ar  
 12   8  13  ar  
 13   8  24  1   
 14   9  14  1   
 15   9  25  1   
 16  10  15  2   
 17  10  26  1   
 18  11  16  1   
 19  12  17  ar  
 20  12  27  1   
 21  13  17  ar  
 22  13  18  1   
 23  14  15  1   
 24  15  19  1   
 25  16  28  1   
 26  16  29  1   
 27  16  30  1   
 28  17  31  1   
 29  18  20  1   
 30  19  21  1   
 31  19  22  1   
 32  19  23  1   
 33  20  32  1   
 34  20  33  1   
 35  20  34  1   
 36  21  35  1   
 37  21  36  1   
 38  21  37  1   
 39  22  38  1   
 40  22  39  1   
 41  22  40  1   
 42  23  41  1   
 43  23  42  1   
 44  23  43  1   
@<TRIPOS>SUBSTRUCTURE
  1 ****   4 GROUP 4 **** **** 0

# MOE 2024.06 (io_trps.svl 2023.06)
