@<TRIPOS>MOLECULE
NONAME
43 44 1 0 0 
SMALL
USER_CHARGES


@<TRIPOS>ATOM
  1 S        0.0690     0.1850     0.7170 S.o2  1 <1>   1.3330 
  2 O       -0.0570     0.1930     2.1580 O.2   1 <1>  -0.6500 
  3 O       -0.4630    -0.9220    -0.0460 O.2   1 <1>  -0.6500 
  4 N        1.7170     0.3120     0.3450 N.am  1 <1>  -0.8490 
  5 C       -0.6030     1.7310     0.0880 C.3   1 <1>  -0.0550 
  6 C        2.5400    -0.4420     1.3050 C.3   1 <1>   0.1960 
  7 C        2.0280    -0.0800    -1.0310 C.3   1 <1>   0.1960 
  8 C       -2.1190     1.9000     0.3010 C.3   1 <1>  -0.2400 
  9 C        4.0060    -0.5780     0.8580 C.3   1 <1>  -0.1600 
 10 C        3.4450     0.3860    -1.4020 C.3   1 <1>  -0.1600 
 11 C        4.3950     0.4810    -0.1870 C.3   1 <1>  -0.0190 
 12 C        5.8610     0.3680    -0.5980 C.2   1 <1>   0.5690 
 13 O        6.2650    -0.6540    -1.0990 O.2   1 <1>  -0.5700 
 14 N        6.6840     1.4220    -0.3880 N.am  1 <1>  -0.7300 
 15 C        8.1200     1.4240    -0.7060 C.3   1 <1>   0.2840 
 16 C        8.7400     2.6430    -0.0480 C.ar  1 <1>  -0.1440 
 17 C        8.8230     3.8440    -0.7360 C.ar  1 <1>  -0.1500 
 18 C        9.2240     2.5670     1.2490 C.ar  1 <1>  -0.1500 
 19 C        9.3860     4.9570    -0.1340 C.ar  1 <1>  -0.1500 
 20 C        9.7870     3.6780     1.8520 C.ar  1 <1>  -0.1500 
 21 C        9.8680     4.8740     1.1600 C.ar  1 <1>  -0.1500 
 22 H       -0.3980     1.7990    -0.9620 H     1 <1>   0.0800 
 23 H       -0.0970     2.5450     0.5700 H     1 <1>   0.0800 
 24 H        2.1230    -1.4260     1.4520 H     1 <1>   0.0800 
 25 H        2.5070     0.0700     2.2530 H     1 <1>   0.0800 
 26 H        1.3210     0.3540    -1.7180 H     1 <1>   0.0800 
 27 H        1.9580    -1.1530    -1.1190 H     1 <1>   0.0800 
 28 H       -2.6530     1.1070    -0.1940 H     1 <1>   0.0800 
 29 H       -2.4490     2.8430    -0.0960 H     1 <1>   0.0800 
 30 H       -2.3500     1.8650     1.3520 H     1 <1>   0.0800 
 31 H        4.1500    -1.5580     0.4350 H     1 <1>   0.0800 
 32 H        4.6480    -0.5070     1.7170 H     1 <1>   0.0800 
 33 H        3.3910     1.3480    -1.8800 H     1 <1>   0.0800 
 34 H        3.8390    -0.3060    -2.1250 H     1 <1>   0.0800 
 35 H        4.2480     1.4440     0.2690 H     1 <1>   0.0800 
 36 H        6.3540     2.2770     0.0600 H     1 <1>   0.3700 
 37 H        8.2520     1.4620    -1.7740 H     1 <1>   0.0800 
 38 H        8.5760     0.5200    -0.3380 H     1 <1>   0.0800 
 39 H        8.4500     3.9190    -1.7430 H     1 <1>   0.1500 
 40 H        9.1620     1.6410     1.7950 H     1 <1>   0.1500 
 41 H        9.4490     5.8860    -0.6730 H     1 <1>   0.1500 
 42 H       10.1620     3.6130     2.8590 H     1 <1>   0.1500 
 43 H       10.3060     5.7380     1.6280 H     1 <1>   0.1500 
@<TRIPOS>BOND
  1   1   2  2   
  2   1   3  2   
  3   1   4  am  
  4   1   5  1   
  5   4   6  1   
  6   4   7  1   
  7   5   8  1   
  8   5  22  1   
  9   5  23  1   
 10   6   9  1   
 11   6  24  1   
 12   6  25  1   
 13   7  10  1   
 14   7  26  1   
 15   7  27  1   
 16   8  28  1   
 17   8  29  1   
 18   8  30  1   
 19   9  11  1   
 20   9  31  1   
 21   9  32  1   
 22  10  11  1   
 23  10  33  1   
 24  10  34  1   
 25  11  12  1   
 26  11  35  1   
 27  12  13  2   
 28  12  14  am  
 29  14  15  1   
 30  14  36  1   
 31  15  16  1   
 32  15  37  1   
 33  15  38  1   
 34  16  17  ar  
 35  16  18  ar  
 36  17  19  ar  
 37  17  39  1   
 38  18  20  ar  
 39  18  40  1   
 40  19  21  ar  
 41  19  41  1   
 42  20  21  ar  
 43  20  42  1   
 44  21  43  1   
@<TRIPOS>SUBSTRUCTURE
  1 ****  11 GROUP 4 **** **** 0

# MOE 2024.06 (io_trps.svl 2023.06)
