@<TRIPOS>MOLECULE
NONAME
44 46 1 0 0 
SMALL
USER_CHARGES


@<TRIPOS>ATOM
  1 O        1.0510    -1.7370    -0.0930 O.2   1 <1>  -0.5700 
  2 C       -0.1440    -1.8670     0.0080 C.2   1 <1>   0.5690 
  3 N       -0.7850    -3.0390     0.2660 N.am  1 <1>  -0.4200 
  4 C       -1.1280    -0.7200    -0.1070 C.3   1 <1>  -0.0190 
  5 C       -2.1300    -2.8560     0.3700 C.2   1 <1>   0.5690 
  6 C       -0.1210    -4.3630     0.3740 C.3   1 <1>   0.1400 
  7 C       -2.4990    -1.4020     0.1500 C.3   1 <1>  -0.0190 
  8 C       -0.9790     0.0410    -1.4390 C.3   1 <1>  -0.0220 
  9 O       -2.9360    -3.7160     0.6110 O.2   1 <1>  -0.5700 
 10 C        0.7390    -4.4560     1.6400 C.3   1 <1>  -0.0990 
 11 C       -3.5670    -1.2330    -0.9480 C.3   1 <1>  -0.0220 
 12 C       -2.2820     0.7100    -1.8280 C.2   1 <1>  -0.2880 
 13 C        2.1850    -4.7310     1.2920 C.2   1 <1>   0.5690 
 14 C       -3.4600     0.1290    -1.6050 C.2   1 <1>  -0.2880 
 15 O        2.6170    -5.8350     1.5100 O.2   1 <1>  -0.5700 
 16 N        2.9070    -3.7180     0.7300 N.am  1 <1>  -0.5470 
 17 C        4.2420    -3.6410     0.3030 C.ar  1 <1>   0.1170 
 18 C        4.6040    -2.5850    -0.5250 C.ar  1 <1>  -0.1500 
 19 C        5.2220    -4.5560     0.6740 C.ar  1 <1>  -0.1500 
 20 C        5.9040    -2.4420    -0.9780 C.ar  1 <1>  -0.1500 
 21 C        6.5230    -4.4190     0.2230 C.ar  1 <1>  -0.1500 
 22 C        6.8750    -3.3660    -0.6040 C.ar  1 <1>   0.0820 
 23 O        8.1740    -3.3050    -1.0010 O.3   1 <1>  -0.3620 
 24 C        8.6250    -2.2740    -1.8500 C.3   1 <1>   0.0400 
 25 H       -0.9360    -0.0320     0.6970 H     1 <1>   0.0800 
 26 H        0.4810    -4.5210    -0.5060 H     1 <1>   0.0800 
 27 H       -0.8690    -5.1390     0.3940 H     1 <1>   0.0800 
 28 H       -2.9020    -1.0180     1.0710 H     1 <1>   0.0800 
 29 H       -0.6920    -0.6310    -2.2300 H     1 <1>   0.0800 
 30 H       -0.2010     0.7790    -1.3360 H     1 <1>   0.0800 
 31 H        0.3790    -5.2670     2.2470 H     1 <1>   0.0800 
 32 H        0.6830    -3.5580     2.2280 H     1 <1>   0.0800 
 33 H       -4.5430    -1.3570    -0.5100 H     1 <1>   0.0800 
 34 H       -3.4510    -1.9870    -1.7080 H     1 <1>   0.0800 
 35 H       -2.1660     1.6650    -2.3140 H     1 <1>   0.1500 
 36 H       -4.4070     0.5610    -1.8890 H     1 <1>   0.1500 
 37 H        2.3580    -2.8770     0.5070 H     1 <1>   0.3700 
 38 H        3.8590    -1.8670    -0.8190 H     1 <1>   0.1500 
 39 H        4.9790    -5.3790     1.3190 H     1 <1>   0.1500 
 40 H        6.1400    -1.6120    -1.6160 H     1 <1>   0.1500 
 41 H        7.2740    -5.1310     0.5130 H     1 <1>   0.1500 
 42 H        9.6740    -2.4270    -2.0320 H     1 <1>   0.0800 
 43 H        8.4740    -1.3280    -1.3600 H     1 <1>   0.0800 
 44 H        8.0820    -2.3220    -2.7770 H     1 <1>   0.0800 
@<TRIPOS>BOND
  1   1   2  2   
  2   2   3  am  
  3   2   4  1   
  4   3   5  am  
  5   3   6  1   
  6   4   7  1   
  7   4   8  1   
  8   4  25  1   
  9   5   7  1   
 10   5   9  2   
 11   6  10  1   
 12   6  26  1   
 13   6  27  1   
 14   7  11  1   
 15   7  28  1   
 16   8  12  1   
 17   8  29  1   
 18   8  30  1   
 19  10  13  1   
 20  10  31  1   
 21  10  32  1   
 22  11  14  1   
 23  11  33  1   
 24  11  34  1   
 25  12  14  2   
 26  12  35  1   
 27  13  15  2   
 28  13  16  am  
 29  14  36  1   
 30  16  17  1   
 31  16  37  1   
 32  17  18  ar  
 33  17  19  ar  
 34  18  20  ar  
 35  18  38  1   
 36  19  21  ar  
 37  19  39  1   
 38  20  22  ar  
 39  20  40  1   
 40  21  22  ar  
 41  21  41  1   
 42  22  23  1   
 43  23  24  1   
 44  24  42  1   
 45  24  43  1   
 46  24  44  1   
@<TRIPOS>SUBSTRUCTURE
  1 ****   1 GROUP 4 **** **** 0

# MOE 2024.06 (io_trps.svl 2023.06)
