@<TRIPOS>MOLECULE
NONAME
45 47 1 0 0 
SMALL
USER_CHARGES


@<TRIPOS>ATOM
  1 S        0.2470    -0.2750     0.6670 S.3   1 <1>  -0.2430 
  2 C        0.9580    -0.9620    -0.8300 C.ar  1 <1>   0.1020 
  3 C       -0.5720     1.2360     0.0800 C.2   1 <1>   0.4840 
  4 C        1.5520    -0.1340    -1.7670 C.ar  1 <1>  -0.1500 
  5 C        0.8820    -2.3290    -1.0300 C.ar  1 <1>  -0.1500 
  6 P       -2.2900     1.0200    -0.4950 P.3   1 <1>   1.3430 
  7 N        0.1960     2.2770     0.0190 N.2   1 <1>  -0.8000 
  8 C        2.0590    -0.6830    -2.9330 C.ar  1 <1>  -0.1500 
  9 C        1.3910    -2.8730    -2.1980 C.ar  1 <1>  -0.1500 
 10 O       -2.9340    -0.2470    -0.1330 O.2   1 <1>  -0.7000 
 11 N       -3.2770     2.2970     0.0140 N.3   1 <1>  -0.8080 
 12 N       -2.2820     1.1700    -2.1800 N.3   1 <1>  -0.8080 
 13 O        0.9430     3.2590    -0.0540 O.3   1 <1>  -0.6500 
 14 C        1.9740    -2.0500    -3.1490 C.ar  1 <1>  -0.1500 
 15 C       -4.4560     2.5540    -0.8210 C.3   1 <1>   0.1100 
 16 C       -2.6110     3.5680     0.3690 C.3   1 <1>   0.1100 
 17 C       -2.0480    -0.1090    -2.8840 C.3   1 <1>   0.1100 
 18 C       -1.3920     2.2110    -2.7270 C.3   1 <1>   0.1100 
 19 C       -5.3950     3.5740    -0.1570 C.3   1 <1>   0.1200 
 20 C       -3.6050     4.5830     0.9610 C.3   1 <1>   0.1200 
 21 C       -1.4720     0.0380    -4.3090 C.3   1 <1>   0.1200 
 22 C       -1.5900     2.3920    -4.2480 C.3   1 <1>   0.1200 
 23 O       -4.7120     4.7630     0.1200 O.3   1 <1>  -0.5600 
 24 O       -1.9360     1.2050    -4.9190 O.3   1 <1>  -0.5600 
 25 H        1.6300     0.9260    -1.5810 H     1 <1>   0.1500 
 26 H        0.4240    -2.9510    -0.2820 H     1 <1>   0.1500 
 27 H        2.5210    -0.0420    -3.6630 H     1 <1>   0.1500 
 28 H        1.3330    -3.9350    -2.3650 H     1 <1>   0.1500 
 29 H        2.3700    -2.4730    -4.0560 H     1 <1>   0.1500 
 30 H       -4.1540     2.9310    -1.7830 H     1 <1>   0.0800 
 31 H       -4.9880     1.6300    -0.9760 H     1 <1>   0.0800 
 32 H       -2.1330     4.0060    -0.4880 H     1 <1>   0.0800 
 33 H       -1.8440     3.3870     1.1030 H     1 <1>   0.0800 
 34 H       -1.3700    -0.7250    -2.3190 H     1 <1>   0.0800 
 35 H       -2.9840    -0.6380    -2.9360 H     1 <1>   0.0800 
 36 H       -0.3630     1.9530    -2.5400 H     1 <1>   0.0800 
 37 H       -1.5670     3.1540    -2.2450 H     1 <1>   0.0800 
 38 H       -6.2120     3.8100    -0.8140 H     1 <1>   0.0800 
 39 H       -5.7880     3.1780     0.7630 H     1 <1>   0.0800 
 40 H       -3.1240     5.5360     1.0850 H     1 <1>   0.0800 
 41 H       -3.9540     4.2420     1.9190 H     1 <1>   0.0800 
 42 H       -0.3970     0.0800    -4.2750 H     1 <1>   0.0800 
 43 H       -1.7620    -0.7990    -4.9180 H     1 <1>   0.0800 
 44 H       -0.6880     2.7780    -4.6880 H     1 <1>   0.0800 
 45 H       -2.3820     3.0970    -4.4240 H     1 <1>   0.0800 
@<TRIPOS>BOND
  1   1   2  1   
  2   1   3  1   
  3   2   4  ar  
  4   2   5  ar  
  5   3   6  1   
  6   3   7  2   
  7   4   8  ar  
  8   4  25  1   
  9   5   9  ar  
 10   5  26  1   
 11   6  10  2   
 12   6  11  1   
 13   6  12  1   
 14   7  13  1   
 15   8  14  ar  
 16   8  27  1   
 17   9  14  ar  
 18   9  28  1   
 19  11  15  1   
 20  11  16  1   
 21  12  17  1   
 22  12  18  1   
 23  14  29  1   
 24  15  19  1   
 25  15  30  1   
 26  15  31  1   
 27  16  20  1   
 28  16  32  1   
 29  16  33  1   
 30  17  21  1   
 31  17  34  1   
 32  17  35  1   
 33  18  22  1   
 34  18  36  1   
 35  18  37  1   
 36  19  23  1   
 37  19  38  1   
 38  19  39  1   
 39  20  23  1   
 40  20  40  1   
 41  20  41  1   
 42  21  24  1   
 43  21  42  1   
 44  21  43  1   
 45  22  24  1   
 46  22  44  1   
 47  22  45  1   
@<TRIPOS>SUBSTRUCTURE
  1 ****  12 GROUP 4 **** **** 0

# MOE 2024.06 (io_trps.svl 2023.06)
