@<TRIPOS>MOLECULE
NONAME
37 37 1 0 0 
SMALL
USER_CHARGES


@<TRIPOS>ATOM
  1 O        0.4660    -0.3930    -0.3100 O.3   1 <1>  -0.5600 
  2 C        1.8340    -0.1950    -0.1330 C.3   1 <1>   0.2000 
  3 C       -0.0200    -1.6380     0.0850 C.3   1 <1>   0.1200 
  4 C        2.0430     1.3120     0.0640 C.3   1 <1>   0.0400 
  5 C        2.5600    -0.7390    -1.3690 C.3   1 <1>  -0.2400 
  6 C       -1.5180    -1.6690    -0.1990 C.3   1 <1>   0.0400 
  7 C        3.4620     1.6520     0.3970 C.1   1 <1>  -0.2000 
  8 C       -2.0850    -2.9800     0.2110 C.1   1 <1>   0.3570 
  9 C        4.5880     1.9220     0.6640 C.1   1 <1>  -0.2000 
 10 N       -2.5010    -3.9880     0.5310 N.1   1 <1>  -0.5570 
 11 C        5.9930     2.2880     0.9820 C.3   1 <1>   0.5430 
 12 N        6.3650     3.4250     0.1070 N.4   1 <1>  -0.9590 
 13 C        7.8070     3.7570     0.1260 C.3   1 <1>   0.3430 
 14 C        5.6390     4.6780     0.4250 C.3   1 <1>   0.3430 
 15 C        7.8710     5.1740    -0.4280 C.3   1 <1>  -0.1600 
 16 C        6.4720     5.7700    -0.2330 C.3   1 <1>  -0.1600 
 17 H        2.1520    -0.7140     0.7570 H     1 <1>   0.0800 
 18 H        0.1690    -1.7660     1.1380 H     1 <1>   0.0800 
 19 H        0.4840    -2.4090    -0.4740 H     1 <1>   0.0800 
 20 H        1.4150     1.6480     0.8690 H     1 <1>   0.0800 
 21 H        1.7540     1.8330    -0.8310 H     1 <1>   0.0800 
 22 H        2.2040    -0.2460    -2.2570 H     1 <1>   0.0800 
 23 H        2.4080    -1.7970    -1.4680 H     1 <1>   0.0800 
 24 H        3.6180    -0.5690    -1.2850 H     1 <1>   0.0800 
 25 H       -1.6940    -1.5290    -1.2490 H     1 <1>   0.0800 
 26 H       -2.0110    -0.8900     0.3530 H     1 <1>   0.0800 
 27 H        6.6340     1.4430     0.7890 H     1 <1>   0.0800 
 28 H        6.0800     2.5640     2.0200 H     1 <1>   0.0800 
 29 H        6.1010     3.1600    -0.8510 H     1 <1>   0.4500 
 30 H        8.3870     3.0690    -0.4680 H     1 <1>   0.0800 
 31 H        8.1710     3.7540     1.1420 H     1 <1>   0.0800 
 32 H        5.6200     4.8320     1.4920 H     1 <1>   0.0800 
 33 H        4.6280     4.6600     0.0480 H     1 <1>   0.0800 
 34 H        8.1230     5.1450    -1.4750 H     1 <1>   0.0800 
 35 H        8.6240     5.7460     0.0870 H     1 <1>   0.0800 
 36 H        6.4950     6.6500     0.3880 H     1 <1>   0.0800 
 37 H        6.0400     6.0350    -1.1830 H     1 <1>   0.0800 
@<TRIPOS>BOND
  1   1   2  1   
  2   1   3  1   
  3   2   4  1   
  4   2   5  1   
  5   2  17  1   
  6   3   6  1   
  7   3  18  1   
  8   3  19  1   
  9   4   7  1   
 10   4  20  1   
 11   4  21  1   
 12   5  22  1   
 13   5  23  1   
 14   5  24  1   
 15   6   8  1   
 16   6  25  1   
 17   6  26  1   
 18   7   9  3   
 19   8  10  3   
 20   9  11  1   
 21  11  12  1   
 22  11  27  1   
 23  11  28  1   
 24  12  13  1   
 25  12  14  1   
 26  12  29  1   
 27  13  15  1   
 28  13  30  1   
 29  13  31  1   
 30  14  16  1   
 31  14  32  1   
 32  14  33  1   
 33  15  16  1   
 34  15  34  1   
 35  15  35  1   
 36  16  36  1   
 37  16  37  1   
@<TRIPOS>SUBSTRUCTURE
  1 ****   7 GROUP 4 **** **** 0

# MOE 2024.06 (io_trps.svl 2023.06)
