@<TRIPOS>MOLECULE
NONAME
50 51 1 0 0 
SMALL
USER_CHARGES


@<TRIPOS>ATOM
  1 O       -5.5790     3.6060     0.5880 O.3   1 <1>  -0.3630 
  2 C       -6.2380     4.7450     0.2560 C.ar  1 <1>   0.0830 
  3 C       -5.4230     2.6250    -0.4150 C.3   1 <1>   0.2000 
  4 C       -7.5980     4.7590    -0.0740 C.ar  1 <1>   0.0830 
  5 C       -5.5220     5.9300     0.2600 C.ar  1 <1>  -0.1500 
  6 C       -5.3050     1.2690     0.2960 C.3   1 <1>  -0.1600 
  7 C       -4.1820     2.9810    -1.2380 C.3   1 <1>  -0.2400 
  8 O       -8.3570     3.6370    -0.0520 O.3   1 <1>  -0.3630 
  9 C       -8.2060     5.9490    -0.4370 C.ar  1 <1>  -0.1500 
 10 C       -6.1390     7.1190    -0.0930 C.ar  1 <1>  -0.1500 
 11 C       -5.3390     0.0760    -0.6700 C.3   1 <1>  -0.2400 
 12 C       -8.6450     3.1100     1.2290 C.3   1 <1>   0.1200 
 13 C       -7.4790     7.1270    -0.4460 C.ar  1 <1>  -0.1500 
 14 C       -9.2920     1.7220     1.1050 C.3   1 <1>   0.1100 
 15 N      -10.7260     1.7420     0.7210 N.3   1 <1>  -0.8100 
 16 C      -11.3170     0.4000     0.8900 C.3   1 <1>   0.1100 
 17 C      -10.9480     2.2610    -0.6490 C.3   1 <1>   0.1100 
 18 C      -12.8160     0.3820     0.5260 C.3   1 <1>   0.3430 
 19 C      -12.4390     2.2440    -1.0400 C.3   1 <1>   0.3430 
 20 N      -13.0510     0.8800    -0.8730 N.4   1 <1>  -0.9590 
 21 C      -14.5050     0.8910    -1.2110 C.3   1 <1>   0.2630 
 22 H       -6.2970     2.6290    -1.0440 H     1 <1>   0.0800 
 23 H       -4.4830     5.9150     0.5340 H     1 <1>   0.1500 
 24 H       -6.1260     1.1710     0.9820 H     1 <1>   0.0800 
 25 H       -4.3910     1.2420     0.8630 H     1 <1>   0.0800 
 26 H       -3.3070     2.9820    -0.6140 H     1 <1>   0.0800 
 27 H       -4.3020     3.9510    -1.6850 H     1 <1>   0.0800 
 28 H       -4.0410     2.2690    -2.0300 H     1 <1>   0.0800 
 29 H       -9.2460     5.9520    -0.7060 H     1 <1>   0.1500 
 30 H       -5.5760     8.0370    -0.0930 H     1 <1>   0.1500 
 31 H       -6.2310     0.1030    -1.2710 H     1 <1>   0.0800 
 32 H       -5.3290    -0.8450    -0.1130 H     1 <1>   0.0800 
 33 H       -4.4820     0.0830    -1.3190 H     1 <1>   0.0800 
 34 H       -9.2950     3.7930     1.7470 H     1 <1>   0.0800 
 35 H       -7.7210     3.0260     1.7740 H     1 <1>   0.0800 
 36 H       -7.9550     8.0510    -0.7260 H     1 <1>   0.1500 
 37 H       -9.2120     1.2580     2.0730 H     1 <1>   0.0800 
 38 H       -8.7220     1.1260     0.4130 H     1 <1>   0.0800 
 39 H      -11.2130     0.0970     1.9180 H     1 <1>   0.0800 
 40 H      -10.7900    -0.3150     0.2810 H     1 <1>   0.0800 
 41 H      -10.3740     1.6900    -1.3590 H     1 <1>   0.0800 
 42 H      -10.6190     3.2830    -0.7040 H     1 <1>   0.0800 
 43 H      -13.3410     1.0090     1.2270 H     1 <1>   0.0800 
 44 H      -13.1930    -0.6220     0.6270 H     1 <1>   0.0800 
 45 H      -12.5390     2.5700    -2.0620 H     1 <1>   0.0800 
 46 H      -12.9570     2.9510    -0.4130 H     1 <1>   0.0800 
 47 H      -12.5540     0.2450    -1.5130 H     1 <1>   0.4500 
 48 H      -15.0370     1.5550    -0.5490 H     1 <1>   0.0800 
 49 H      -14.9200    -0.0990    -1.1130 H     1 <1>   0.0800 
 50 H      -14.6510     1.2260    -2.2250 H     1 <1>   0.0800 
@<TRIPOS>BOND
  1   1   2  1   
  2   1   3  1   
  3   2   4  ar  
  4   2   5  ar  
  5   3   6  1   
  6   3   7  1   
  7   3  22  1   
  8   4   8  1   
  9   4   9  ar  
 10   5  10  ar  
 11   5  23  1   
 12   6  11  1   
 13   6  24  1   
 14   6  25  1   
 15   7  26  1   
 16   7  27  1   
 17   7  28  1   
 18   8  12  1   
 19   9  13  ar  
 20   9  29  1   
 21  10  13  ar  
 22  10  30  1   
 23  11  31  1   
 24  11  32  1   
 25  11  33  1   
 26  12  14  1   
 27  12  34  1   
 28  12  35  1   
 29  13  36  1   
 30  14  15  1   
 31  14  37  1   
 32  14  38  1   
 33  15  16  1   
 34  15  17  1   
 35  16  18  1   
 36  16  39  1   
 37  16  40  1   
 38  17  19  1   
 39  17  41  1   
 40  17  42  1   
 41  18  20  1   
 42  18  43  1   
 43  18  44  1   
 44  19  20  1   
 45  19  45  1   
 46  19  46  1   
 47  20  21  1   
 48  20  47  1   
 49  21  48  1   
 50  21  49  1   
 51  21  50  1   
@<TRIPOS>SUBSTRUCTURE
  1 ****   8 GROUP 4 **** **** 0

# MOE 2024.06 (io_trps.svl 2023.06)
