@<TRIPOS>MOLECULE
NONAME
45 46 1 0 0 
SMALL
USER_CHARGES


@<TRIPOS>ATOM
  1 O        0.2620     0.0310    -0.4710 O.2   1 <1>  -0.5700 
  2 C        0.7020     1.1420    -0.2350 C.2   1 <1>   0.6900 
  3 N        2.0580     1.3430    -0.1620 N.am  1 <1>  -0.6600 
  4 N       -0.1280     2.2020    -0.0200 N.am  1 <1>  -0.5470 
  5 C        2.9810     0.1680    -0.1490 C.3   1 <1>   0.1400 
  6 C        2.6850     2.7010    -0.1950 C.3   1 <1>   0.1400 
  7 C       -1.5230     2.3840    -0.0570 C.ar  1 <1>   0.1170 
  8 C        4.2930     0.5160     0.5710 C.3   1 <1>  -0.0800 
  9 C        4.0730     2.6490    -0.8520 C.3   1 <1>  -0.0800 
 10 C       -2.0440     3.5820     0.4460 C.ar  1 <1>   0.0820 
 11 C       -2.4010     1.4390    -0.5780 C.ar  1 <1>  -0.1500 
 12 C        5.0260     1.6920    -0.1070 C.3   1 <1>  -0.1600 
 13 C        5.2110    -0.7100     0.6730 C.3   1 <1>  -0.2400 
 14 C        4.6890     4.0510    -0.9590 C.3   1 <1>  -0.2400 
 15 O       -1.1510     4.4940     0.9390 O.3   1 <1>  -0.3630 
 16 C       -3.4160     3.8060     0.4280 C.ar  1 <1>  -0.1500 
 17 C       -3.7660     1.6650    -0.5930 C.ar  1 <1>  -0.1500 
 18 C       -1.5930     5.7030     1.5180 C.3   1 <1>   0.0400 
 19 C       -4.2790     2.8540    -0.0870 C.ar  1 <1>   0.0820 
 20 O       -5.6050     3.1570    -0.0630 O.3   1 <1>  -0.3620 
 21 C       -6.5630     2.2440    -0.5490 C.3   1 <1>   0.0400 
 22 H        0.3500     3.0170     0.3510 H     1 <1>   0.3700 
 23 H        3.1820    -0.1300    -1.1630 H     1 <1>   0.0800 
 24 H        2.5030    -0.6570     0.3530 H     1 <1>   0.0800 
 25 H        2.7750     3.0700     0.8120 H     1 <1>   0.0800 
 26 H        2.0610     3.3760    -0.7550 H     1 <1>   0.0800 
 27 H        4.0310     0.8100     1.5740 H     1 <1>   0.0800 
 28 H        3.9330     2.2780    -1.8540 H     1 <1>   0.0800 
 29 H       -2.0230     0.5170    -0.9770 H     1 <1>   0.1500 
 30 H        5.7450     1.3220    -0.8180 H     1 <1>   0.0800 
 31 H        5.5710     2.2250     0.6520 H     1 <1>   0.0800 
 32 H        5.4770    -1.0670    -0.3060 H     1 <1>   0.0800 
 33 H        4.7140    -1.5030     1.2040 H     1 <1>   0.0800 
 34 H        6.1100    -0.4580     1.2060 H     1 <1>   0.0800 
 35 H        4.8240     4.4830     0.0170 H     1 <1>   0.0800 
 36 H        4.0510     4.6960    -1.5360 H     1 <1>   0.0800 
 37 H        5.6470     3.9990    -1.4470 H     1 <1>   0.0800 
 38 H       -3.8500     4.7110     0.8050 H     1 <1>   0.1500 
 39 H       -4.4040     0.9060    -1.0030 H     1 <1>   0.1500 
 40 H       -0.7310     6.2490     1.8560 H     1 <1>   0.0800 
 41 H       -2.2330     5.4780     2.3530 H     1 <1>   0.0800 
 42 H       -2.1180     6.2760     0.7730 H     1 <1>   0.0800 
 43 H       -7.5370     2.6830    -0.4250 H     1 <1>   0.0800 
 44 H       -6.4980     1.3330     0.0210 H     1 <1>   0.0800 
 45 H       -6.3750     2.0610    -1.5920 H     1 <1>   0.0800 
@<TRIPOS>BOND
  1   1   2  2   
  2   2   3  am  
  3   2   4  am  
  4   3   5  1   
  5   3   6  1   
  6   4   7  1   
  7   4  22  1   
  8   5   8  1   
  9   5  23  1   
 10   5  24  1   
 11   6   9  1   
 12   6  25  1   
 13   6  26  1   
 14   7  10  ar  
 15   7  11  ar  
 16   8  12  1   
 17   8  13  1   
 18   8  27  1   
 19   9  12  1   
 20   9  14  1   
 21   9  28  1   
 22  10  15  1   
 23  10  16  ar  
 24  11  17  ar  
 25  11  29  1   
 26  12  30  1   
 27  12  31  1   
 28  13  32  1   
 29  13  33  1   
 30  13  34  1   
 31  14  35  1   
 32  14  36  1   
 33  14  37  1   
 34  15  18  1   
 35  16  19  ar  
 36  16  38  1   
 37  17  19  ar  
 38  17  39  1   
 39  18  40  1   
 40  18  41  1   
 41  18  42  1   
 42  19  20  1   
 43  20  21  1   
 44  21  43  1   
 45  21  44  1   
 46  21  45  1   
@<TRIPOS>SUBSTRUCTURE
  1 ****   4 GROUP 4 **** **** 0

# MOE 2024.06 (io_trps.svl 2023.06)
