@<TRIPOS>MOLECULE
NONAME
59 62 1 0 0 
SMALL
USER_CHARGES


@<TRIPOS>ATOM
  1 O        1.2490     1.1120     0.2870 O.3   1 <1>  -0.5600 
  2 C        1.9060     2.0430     1.1000 C.3   1 <1>   0.1200 
  3 C        1.9160     0.8650    -0.9170 C.3   1 <1>   0.1200 
  4 C        3.3080     1.5360     1.4890 C.3   1 <1>   0.2090 
  5 C        3.3080     0.2630    -0.6500 C.3   1 <1>   0.2090 
  6 N        4.1020     1.1150     0.2880 N.pl3 1 <1>  -0.8380 
  7 C        4.9690     2.0090    -0.2800 C.ar  1 <1>   0.7200 
  8 N        4.6190     3.2650    -0.3390 N.ar  1 <1>  -0.6200 
  9 N        6.0830     1.4970    -0.7210 N.ar  1 <1>  -0.6200 
 10 C        5.5030     4.0210    -0.9250 C.ar  1 <1>   0.7200 
 11 C        6.8820     2.3770    -1.2500 C.ar  1 <1>   0.7200 
 12 N        6.6620     3.6460    -1.4010 N.ar  1 <1>  -0.6200 
 13 N        5.1570     5.3190    -1.0350 N.pl3 1 <1>  -0.8690 
 14 N        8.0900     1.9410    -1.6830 N.pl3 1 <1>  -0.8690 
 15 C        6.1180     6.4250    -1.1720 C.3   1 <1>   0.3530 
 16 C        8.5180     0.5190    -1.7590 C.3   1 <1>   0.2090 
 17 C        5.5850     7.6110    -0.3890 C.ar  1 <1>  -0.1430 
 18 C        8.9650     0.0220    -0.3650 C.3   1 <1>   0.3430 
 19 C        5.7860     7.6860     0.9810 C.ar  1 <1>  -0.1500 
 20 C        4.8920     8.6270    -1.0300 C.ar  1 <1>  -0.1500 
 21 N        8.3080    -1.2520     0.0920 N.4   1 <1>  -0.9590 
 22 C        5.3060     8.7670     1.7010 C.ar  1 <1>  -0.1500 
 23 C        4.4130     9.7090    -0.3120 C.ar  1 <1>  -0.1500 
 24 C        6.8250    -1.1060     0.3260 C.3   1 <1>   0.3430 
 25 C        8.9530    -1.8090     1.3270 C.3   1 <1>   0.3430 
 26 C        4.6210     9.7800     1.0540 C.ar  1 <1>  -0.1500 
 27 C        6.2070    -2.3720     0.9560 C.3   1 <1>   0.1200 
 28 C        8.2800    -3.1310     1.7700 C.3   1 <1>   0.1200 
 29 O        7.1420    -3.4160     1.0000 O.3   1 <1>  -0.5600 
 30 H        1.3070     2.1920     1.9800 H     1 <1>   0.0800 
 31 H        1.9760     2.9770     0.5690 H     1 <1>   0.0800 
 32 H        2.0020     1.7900    -1.4610 H     1 <1>   0.0800 
 33 H        1.3170     0.1800    -1.4900 H     1 <1>   0.0800 
 34 H        3.2010     0.6970     2.1530 H     1 <1>   0.0800 
 35 H        3.8300     2.3110     2.0230 H     1 <1>   0.0800 
 36 H        3.8300     0.1580    -1.5850 H     1 <1>   0.0800 
 37 H        3.1870    -0.7180    -0.2240 H     1 <1>   0.0800 
 38 H        4.3160     5.5760    -0.5190 H     1 <1>   0.4000 
 39 H        8.5600     2.6190    -2.2890 H     1 <1>   0.4000 
 40 H        6.2250     6.6760    -2.2130 H     1 <1>   0.0800 
 41 H        7.0820     6.1370    -0.7890 H     1 <1>   0.0800 
 42 H        9.3420     0.4420    -2.4470 H     1 <1>   0.0800 
 43 H        7.7060    -0.0770    -2.1380 H     1 <1>   0.0800 
 44 H        8.7520     0.8010     0.3490 H     1 <1>   0.0800 
 45 H       10.0320    -0.1180    -0.3890 H     1 <1>   0.0800 
 46 H        6.3160     6.9000     1.4930 H     1 <1>   0.1500 
 47 H        4.7210     8.5790    -2.0920 H     1 <1>   0.1500 
 48 H        8.3980    -1.9910    -0.6210 H     1 <1>   0.4500 
 49 H        5.4670     8.8190     2.7640 H     1 <1>   0.1500 
 50 H        3.8780    10.4970    -0.8150 H     1 <1>   0.1500 
 51 H        6.3250    -0.9070    -0.6070 H     1 <1>   0.0800 
 52 H        6.6290    -0.2640     0.9700 H     1 <1>   0.0800 
 53 H        8.8760    -1.0950     2.1300 H     1 <1>   0.0800 
 54 H       10.0010    -1.9890     1.1530 H     1 <1>   0.0800 
 55 H        4.2490    10.6220     1.6130 H     1 <1>   0.1500 
 56 H        5.3650    -2.7030     0.3720 H     1 <1>   0.0800 
 57 H        5.8640    -2.1700     1.9560 H     1 <1>   0.0800 
 58 H        7.9920    -3.0820     2.8060 H     1 <1>   0.0800 
 59 H        8.9650    -3.9530     1.6510 H     1 <1>   0.0800 
@<TRIPOS>BOND
  1   1   2  1   
  2   1   3  1   
  3   2   4  1   
  4   2  30  1   
  5   2  31  1   
  6   3   5  1   
  7   3  32  1   
  8   3  33  1   
  9   4   6  1   
 10   4  34  1   
 11   4  35  1   
 12   5   6  1   
 13   5  36  1   
 14   5  37  1   
 15   6   7  1   
 16   7   8  ar  
 17   7   9  ar  
 18   8  10  ar  
 19   9  11  ar  
 20  10  12  ar  
 21  10  13  1   
 22  11  12  ar  
 23  11  14  1   
 24  13  15  1   
 25  13  38  1   
 26  14  16  1   
 27  14  39  1   
 28  15  17  1   
 29  15  40  1   
 30  15  41  1   
 31  16  18  1   
 32  16  42  1   
 33  16  43  1   
 34  17  19  ar  
 35  17  20  ar  
 36  18  21  1   
 37  18  44  1   
 38  18  45  1   
 39  19  22  ar  
 40  19  46  1   
 41  20  23  ar  
 42  20  47  1   
 43  21  24  1   
 44  21  25  1   
 45  21  48  1   
 46  22  26  ar  
 47  22  49  1   
 48  23  26  ar  
 49  23  50  1   
 50  24  27  1   
 51  24  51  1   
 52  24  52  1   
 53  25  28  1   
 54  25  53  1   
 55  25  54  1   
 56  26  55  1   
 57  27  29  1   
 58  27  56  1   
 59  27  57  1   
 60  28  29  1   
 61  28  58  1   
 62  28  59  1   
@<TRIPOS>SUBSTRUCTURE
  1 ****   7 GROUP 4 **** **** 0

# MOE 2024.06 (io_trps.svl 2023.06)
