@<TRIPOS>MOLECULE
NONAME
40 40 1 0 0 
SMALL
USER_CHARGES


@<TRIPOS>ATOM
  1 S       -0.1740    -0.1130     1.0070 S.3   1 <1>  -0.4600 
  2 C       -1.4470    -0.7660    -0.0910 C.3   1 <1>   0.0700 
  3 C        1.3440    -0.9240     0.4350 C.3   1 <1>  -0.0100 
  4 C       -2.7590    -0.1080     0.3380 C.3   1 <1>  -0.1600 
  5 C       -3.9290    -0.6040    -0.5100 C.3   1 <1>   0.3430 
  6 N       -5.2160    -0.0130    -0.0090 N.4   1 <1>  -0.9590 
  7 C       -6.4290    -0.8200    -0.3900 C.3   1 <1>   0.4230 
  8 C       -5.2840     1.4260    -0.4580 C.3   1 <1>   0.2630 
  9 C       -7.7230    -0.1100     0.0450 C.3   1 <1>  -0.1600 
 10 C       -6.3680    -2.2110     0.2640 C.3   1 <1>  -0.1600 
 11 C       -8.9660    -0.9590    -0.2260 C.3   1 <1>   0.3430 
 12 C       -7.6290    -3.0320    -0.0100 C.3   1 <1>   0.3430 
 13 N       -8.8340    -2.2840     0.4410 N.4   1 <1>  -0.9590 
 14 C      -10.0700    -3.1040     0.2110 C.3   1 <1>   0.2630 
 15 H       -1.4600    -1.8350     0.0360 H     1 <1>   0.0800 
 16 H       -1.1660    -0.5070    -1.0980 H     1 <1>   0.0800 
 17 H        2.1530    -0.5730     1.0510 H     1 <1>   0.0800 
 18 H        1.5030    -0.6520    -0.5930 H     1 <1>   0.0800 
 19 H        1.2180    -1.9860     0.5420 H     1 <1>   0.0800 
 20 H       -2.6400     0.9560     0.2400 H     1 <1>   0.0800 
 21 H       -2.9320    -0.3470     1.3730 H     1 <1>   0.0800 
 22 H       -3.9530    -1.6770    -0.4420 H     1 <1>   0.0800 
 23 H       -3.7730    -0.3380    -1.5440 H     1 <1>   0.0800 
 24 H       -5.1480    -0.0040     1.0200 H     1 <1>   0.4500 
 25 H       -6.4480    -0.9390    -1.4630 H     1 <1>   0.0800 
 26 H       -5.3770     1.4830    -1.5310 H     1 <1>   0.0800 
 27 H       -4.3930     1.9580    -0.1660 H     1 <1>   0.0800 
 28 H       -6.1260     1.9270    -0.0090 H     1 <1>   0.0800 
 29 H       -7.8500     0.8040    -0.5060 H     1 <1>   0.0800 
 30 H       -7.6870     0.1300     1.0940 H     1 <1>   0.0800 
 31 H       -6.2390    -2.1210     1.3290 H     1 <1>   0.0800 
 32 H       -5.5430    -2.7770    -0.1260 H     1 <1>   0.0800 
 33 H       -9.0890    -1.0970    -1.2890 H     1 <1>   0.0800 
 34 H       -9.8410    -0.4470     0.1460 H     1 <1>   0.0800 
 35 H       -7.5670    -3.9740     0.5130 H     1 <1>   0.0800 
 36 H       -7.7060    -3.2430    -1.0660 H     1 <1>   0.0800 
 37 H       -8.7670    -2.1330     1.4610 H     1 <1>   0.4500 
 38 H      -10.2060    -3.3000    -0.8410 H     1 <1>   0.0800 
 39 H      -10.9410    -2.5830     0.5770 H     1 <1>   0.0800 
 40 H       -9.9980    -4.0470     0.7290 H     1 <1>   0.0800 
@<TRIPOS>BOND
  1   1   2  1   
  2   1   3  1   
  3   2   4  1   
  4   2  15  1   
  5   2  16  1   
  6   3  17  1   
  7   3  18  1   
  8   3  19  1   
  9   4   5  1   
 10   4  20  1   
 11   4  21  1   
 12   5   6  1   
 13   5  22  1   
 14   5  23  1   
 15   6   7  1   
 16   6   8  1   
 17   6  24  1   
 18   7   9  1   
 19   7  10  1   
 20   7  25  1   
 21   8  26  1   
 22   8  27  1   
 23   8  28  1   
 24   9  11  1   
 25   9  29  1   
 26   9  30  1   
 27  10  12  1   
 28  10  31  1   
 29  10  32  1   
 30  11  13  1   
 31  11  33  1   
 32  11  34  1   
 33  12  13  1   
 34  12  35  1   
 35  12  36  1   
 36  13  14  1   
 37  13  37  1   
 38  14  38  1   
 39  14  39  1   
 40  14  40  1   
@<TRIPOS>SUBSTRUCTURE
  1 ****   6 GROUP 4 **** **** 0

# MOE 2024.06 (io_trps.svl 2023.06)
