@<TRIPOS>MOLECULE
NONAME
40 42 1 0 0 
SMALL
USER_CHARGES


@<TRIPOS>ATOM
  1 S       -1.4730     1.1270     1.6380 S.3   1 <1>  -0.0800 
  2 C       -2.0780     0.6310     0.0630 C.2   1 <1>  -0.1400 
  3 C        0.0450     1.6560     0.9370 C.2   1 <1>  -0.1100 
  4 C       -1.1580     0.8690    -0.8920 C.2   1 <1>  -0.1500 
  5 C       -3.4720     0.0460     0.0200 C.3   1 <1>   0.5230 
  6 C        0.0500     1.4530    -0.3930 C.2   1 <1>  -0.1500 
  7 N       -4.4210     1.0660     0.5370 N.4   1 <1>  -0.9590 
  8 C       -5.8050     0.5080     0.7460 C.3   1 <1>   0.3430 
  9 C       -4.4530     2.2970    -0.3370 C.3   1 <1>   0.3430 
 10 C       -6.7860     1.5550     1.3160 C.3   1 <1>   0.2090 
 11 C       -5.4070     3.3840     0.2010 C.3   1 <1>   0.2090 
 12 N       -6.7500     2.8250     0.5350 N.pl3 1 <1>  -0.8380 
 13 C       -7.8010     3.0730    -0.3460 C.ar  1 <1>   0.1000 
 14 C       -8.8230     3.9610    -0.0070 C.ar  1 <1>  -0.1430 
 15 C       -7.8470     2.4330    -1.5800 C.ar  1 <1>  -0.1500 
 16 C       -9.8600     4.1900    -0.8960 C.ar  1 <1>  -0.1500 
 17 C       -8.8120     4.6870     1.3310 C.3   1 <1>  -0.0970 
 18 C       -8.8840     2.6650    -2.4630 C.ar  1 <1>  -0.1500 
 19 C       -9.8940     3.5460    -2.1210 C.ar  1 <1>  -0.1500 
 20 H        0.7860     2.0660     1.6020 H     1 <1>   0.1500 
 21 H       -1.2580     0.6600    -1.9440 H     1 <1>   0.1500 
 22 H       -3.5030    -0.8380     0.6360 H     1 <1>   0.0800 
 23 H       -3.7270    -0.2270    -0.9910 H     1 <1>   0.0800 
 24 H        0.8660     1.6900    -1.0550 H     1 <1>   0.1500 
 25 H       -4.0520     1.3650     1.4500 H     1 <1>   0.4500 
 26 H       -5.7680    -0.3330     1.4180 H     1 <1>   0.0800 
 27 H       -6.2010     0.1620    -0.1940 H     1 <1>   0.0800 
 28 H       -4.7800     2.0290    -1.3280 H     1 <1>   0.0800 
 29 H       -3.4640     2.7170    -0.4200 H     1 <1>   0.0800 
 30 H       -6.5390     1.7680     2.3410 H     1 <1>   0.0800 
 31 H       -7.7860     1.1550     1.3000 H     1 <1>   0.0800 
 32 H       -5.5170     4.1610    -0.5370 H     1 <1>   0.0800 
 33 H       -4.9860     3.8330     1.0830 H     1 <1>   0.0800 
 34 H       -7.0710     1.7480    -1.8560 H     1 <1>   0.1500 
 35 H      -10.6520     4.8730    -0.6430 H     1 <1>   0.1500 
 36 H       -8.8490     3.9720     2.1330 H     1 <1>   0.0800 
 37 H       -9.6530     5.3490     1.4220 H     1 <1>   0.0800 
 38 H       -7.9100     5.2640     1.4240 H     1 <1>   0.0800 
 39 H       -8.9120     2.1660    -3.4160 H     1 <1>   0.1500 
 40 H      -10.7050     3.7310    -2.8040 H     1 <1>   0.1500 
@<TRIPOS>BOND
  1   1   2  1   
  2   1   3  1   
  3   2   4  2   
  4   2   5  1   
  5   3   6  2   
  6   3  20  1   
  7   4   6  1   
  8   4  21  1   
  9   5   7  1   
 10   5  22  1   
 11   5  23  1   
 12   6  24  1   
 13   7   8  1   
 14   7   9  1   
 15   7  25  1   
 16   8  10  1   
 17   8  26  1   
 18   8  27  1   
 19   9  11  1   
 20   9  28  1   
 21   9  29  1   
 22  10  12  1   
 23  10  30  1   
 24  10  31  1   
 25  11  12  1   
 26  11  32  1   
 27  11  33  1   
 28  12  13  1   
 29  13  14  ar  
 30  13  15  ar  
 31  14  16  ar  
 32  14  17  1   
 33  15  18  ar  
 34  15  34  1   
 35  16  19  ar  
 36  16  35  1   
 37  17  36  1   
 38  17  37  1   
 39  17  38  1   
 40  18  19  ar  
 41  18  39  1   
 42  19  40  1   
@<TRIPOS>SUBSTRUCTURE
  1 ****   9 GROUP 4 **** **** 0

# MOE 2024.06 (io_trps.svl 2023.06)
