@<TRIPOS>MOLECULE
NONAME
51 53 1 0 0 
SMALL
USER_CHARGES


@<TRIPOS>ATOM
  1 F        0.5470     1.7170    -0.0640 F     1 <1>  -0.3400 
  2 C        1.5520     1.2550    -0.8000 C.3   1 <1>   1.1640 
  3 F        1.4260    -0.0670    -0.8080 F     1 <1>  -0.3400 
  4 F        1.3210     1.6590    -2.0430 F     1 <1>  -0.3400 
  5 C        2.9290     1.7120    -0.2920 C.ar  1 <1>  -0.1440 
  6 C        4.0650     0.9590    -0.5610 C.ar  1 <1>  -0.1500 
  7 C        3.0710     2.8900     0.4360 C.ar  1 <1>  -0.1500 
  8 C        5.3220     1.3490    -0.1170 C.ar  1 <1>   0.1000 
  9 C        4.3170     3.2950     0.8820 C.ar  1 <1>  -0.1500 
 10 N        6.4280     0.5520    -0.4030 N.pl3 1 <1>  -0.8380 
 11 C        5.4340     2.5300     0.6080 C.ar  1 <1>  -0.1500 
 12 C        7.7050     1.1620    -0.8870 C.3   1 <1>   0.2090 
 13 C        6.5310    -0.7890     0.2450 C.3   1 <1>   0.2090 
 14 C        8.8150     1.0820     0.1830 C.3   1 <1>   0.3430 
 15 C        7.6570    -0.8180     1.3000 C.3   1 <1>   0.3430 
 16 N        8.9690    -0.3050     0.7630 N.4   1 <1>  -0.9590 
 17 C       10.0500    -0.3610     1.7850 C.3   1 <1>   0.4860 
 18 C       11.3570     0.0250     1.1210 C.ar  1 <1>  -0.1430 
 19 C       11.9140    -0.7940     0.1530 C.ar  1 <1>  -0.1500 
 20 C       12.0030     1.2030     1.4610 C.ar  1 <1>  -0.1500 
 21 C       13.0890    -0.4530    -0.4940 C.ar  1 <1>   0.0830 
 22 C       13.1800     1.5590     0.8270 C.ar  1 <1>  -0.1500 
 23 O       13.4870    -1.3670    -1.4240 O.3   1 <1>  -0.3630 
 24 C       13.7390     0.7490    -0.1600 C.ar  1 <1>   0.0830 
 25 C       14.8040    -1.4250    -1.9280 C.3   1 <1>   0.0400 
 26 O       14.8840     1.1150    -0.8040 O.3   1 <1>  -0.3630 
 27 C       15.6400     2.2490    -0.4340 C.3   1 <1>   0.0400 
 28 H        3.9900     0.0510    -1.1340 H     1 <1>   0.1500 
 29 H        2.2130     3.5040     0.6590 H     1 <1>   0.1500 
 30 H        4.4120     4.2090     1.4430 H     1 <1>   0.1500 
 31 H        6.3910     2.8550     0.9640 H     1 <1>   0.1500 
 32 H        7.5380     2.1900    -1.1590 H     1 <1>   0.0800 
 33 H        8.0240     0.6450    -1.7760 H     1 <1>   0.0800 
 34 H        6.7170    -1.5320    -0.5110 H     1 <1>   0.0800 
 35 H        5.5950    -1.0350     0.7190 H     1 <1>   0.0800 
 36 H        8.5710     1.7750     0.9700 H     1 <1>   0.0800 
 37 H        9.7450     1.4010    -0.2590 H     1 <1>   0.0800 
 38 H        7.7730    -1.8280     1.6560 H     1 <1>   0.0800 
 39 H        7.3460    -0.2080     2.1320 H     1 <1>   0.0800 
 40 H        9.2620    -0.9120    -0.0130 H     1 <1>   0.4500 
 41 H       10.1360    -1.3600     2.1830 H     1 <1>   0.0800 
 42 H        9.8340     0.3140     2.5960 H     1 <1>   0.0800 
 43 H       11.4520    -1.7250    -0.1220 H     1 <1>   0.1500 
 44 H       11.6040     1.8560     2.2190 H     1 <1>   0.1500 
 45 H       13.6480     2.4810     1.1180 H     1 <1>   0.1500 
 46 H       14.9170    -2.3480    -2.4670 H     1 <1>   0.0800 
 47 H       15.4970    -1.3930    -1.1050 H     1 <1>   0.0800 
 48 H       14.9590    -0.5940    -2.5930 H     1 <1>   0.0800 
 49 H       16.5150     2.2830    -1.0580 H     1 <1>   0.0800 
 50 H       15.9310     2.1550     0.5970 H     1 <1>   0.0800 
 51 H       15.0470     3.1320    -0.5920 H     1 <1>   0.0800 
@<TRIPOS>BOND
  1   1   2  1   
  2   2   3  1   
  3   2   4  1   
  4   2   5  1   
  5   5   6  ar  
  6   5   7  ar  
  7   6   8  ar  
  8   6  28  1   
  9   7   9  ar  
 10   7  29  1   
 11   8  10  1   
 12   8  11  ar  
 13   9  11  ar  
 14   9  30  1   
 15  10  12  1   
 16  10  13  1   
 17  11  31  1   
 18  12  14  1   
 19  12  32  1   
 20  12  33  1   
 21  13  15  1   
 22  13  34  1   
 23  13  35  1   
 24  14  16  1   
 25  14  36  1   
 26  14  37  1   
 27  15  16  1   
 28  15  38  1   
 29  15  39  1   
 30  16  17  1   
 31  16  40  1   
 32  17  18  1   
 33  17  41  1   
 34  17  42  1   
 35  18  19  ar  
 36  18  20  ar  
 37  19  21  ar  
 38  19  43  1   
 39  20  22  ar  
 40  20  44  1   
 41  21  23  1   
 42  21  24  ar  
 43  22  24  ar  
 44  22  45  1   
 45  23  25  1   
 46  24  26  1   
 47  25  46  1   
 48  25  47  1   
 49  25  48  1   
 50  26  27  1   
 51  27  49  1   
 52  27  50  1   
 53  27  51  1   
@<TRIPOS>SUBSTRUCTURE
  1 ****  14 GROUP 4 **** **** 0

# MOE 2024.06 (io_trps.svl 2023.06)
