@<TRIPOS>MOLECULE
NONAME
43 44 1 0 0 
SMALL
USER_CHARGES


@<TRIPOS>ATOM
  1 O       -0.0190    -0.1340     2.2790 O.2   1 <1>  -0.5700 
  2 C       -0.0870    -1.1550     1.6390 C.2   1 <1>   0.5690 
  3 N        1.0590    -1.8090     1.3190 N.am  1 <1>  -0.7300 
  4 C       -1.4640    -1.6840     1.2460 C.3   1 <1>   0.1810 
  5 C        1.2170    -3.0280     0.5080 C.3   1 <1>   0.2200 
  6 O       -1.5840    -1.8240    -0.1620 O.3   1 <1>  -0.3630 
  7 C        2.0820    -4.0310     1.2760 C.3   1 <1>  -0.1600 
  8 C        1.8550    -2.6540    -0.8320 C.3   1 <1>  -0.1600 
  9 C       -2.7080    -2.4270    -0.6180 C.ar  1 <1>   0.0830 
 10 C        2.3460    -5.2870     0.4330 C.3   1 <1>  -0.1600 
 11 C        2.1220    -3.9030    -1.6840 C.3   1 <1>  -0.1600 
 12 C       -2.9480    -3.7930    -0.4330 C.ar  1 <1>   0.0830 
 13 C       -3.6180    -1.6420    -1.3040 C.ar  1 <1>  -0.1500 
 14 C        2.9750    -4.9260    -0.9200 C.3   1 <1>  -0.1600 
 15 O       -2.0090    -4.5360     0.2250 O.3   1 <1>  -0.3630 
 16 C       -4.1290    -4.3400    -0.9290 C.ar  1 <1>  -0.1500 
 17 C       -4.7850    -2.1980    -1.7970 C.ar  1 <1>  -0.1500 
 18 C       -1.9810    -5.9480     0.2020 C.3   1 <1>   0.1200 
 19 C       -5.0400    -3.5450    -1.6060 C.ar  1 <1>  -0.1500 
 20 C       -1.5050    -6.4300    -1.1700 C.3   1 <1>  -0.2400 
 21 H        1.9250    -1.3540     1.6060 H     1 <1>   0.3700 
 22 H       -2.2220    -0.9980     1.5760 H     1 <1>   0.0800 
 23 H       -1.6210    -2.6360     1.7140 H     1 <1>   0.0800 
 24 H        0.2590    -3.4760     0.3210 H     1 <1>   0.0800 
 25 H        1.5810    -4.3110     2.1850 H     1 <1>   0.0800 
 26 H        3.0230    -3.5750     1.5300 H     1 <1>   0.0800 
 27 H        2.7830    -2.1380    -0.6610 H     1 <1>   0.0800 
 28 H        1.1910    -1.9960    -1.3670 H     1 <1>   0.0800 
 29 H        1.4160    -5.8040     0.2660 H     1 <1>   0.0800 
 30 H        3.0000    -5.9520     0.9700 H     1 <1>   0.0800 
 31 H        2.6240    -3.6200    -2.5920 H     1 <1>   0.0800 
 32 H        1.1820    -4.3520    -1.9550 H     1 <1>   0.0800 
 33 H       -3.4080    -0.5980    -1.4500 H     1 <1>   0.1500 
 34 H        3.0880    -5.8160    -1.5140 H     1 <1>   0.0800 
 35 H        3.9570    -4.5150    -0.7550 H     1 <1>   0.0800 
 36 H       -4.3610    -5.3790    -0.8030 H     1 <1>   0.1500 
 37 H       -5.4920    -1.5840    -2.3280 H     1 <1>   0.1500 
 38 H       -2.9510    -6.3320     0.4600 H     1 <1>   0.0800 
 39 H       -1.2820    -6.2600     0.9580 H     1 <1>   0.0800 
 40 H       -5.9490    -3.9770    -1.9880 H     1 <1>   0.1500 
 41 H       -2.1930    -6.1340    -1.9410 H     1 <1>   0.0800 
 42 H       -1.4350    -7.5020    -1.1720 H     1 <1>   0.0800 
 43 H       -0.5340    -6.0240    -1.3860 H     1 <1>   0.0800 
@<TRIPOS>BOND
  1   1   2  2   
  2   2   3  am  
  3   2   4  1   
  4   3   5  1   
  5   3  21  1   
  6   4   6  1   
  7   4  22  1   
  8   4  23  1   
  9   5   7  1   
 10   5   8  1   
 11   5  24  1   
 12   6   9  1   
 13   7  10  1   
 14   7  25  1   
 15   7  26  1   
 16   8  11  1   
 17   8  27  1   
 18   8  28  1   
 19   9  12  ar  
 20   9  13  ar  
 21  10  14  1   
 22  10  29  1   
 23  10  30  1   
 24  11  14  1   
 25  11  31  1   
 26  11  32  1   
 27  12  15  1   
 28  12  16  ar  
 29  13  17  ar  
 30  13  33  1   
 31  14  34  1   
 32  14  35  1   
 33  15  18  1   
 34  16  19  ar  
 35  16  36  1   
 36  17  19  ar  
 37  17  37  1   
 38  18  20  1   
 39  18  38  1   
 40  18  39  1   
 41  19  40  1   
 42  20  41  1   
 43  20  42  1   
 44  20  43  1   
@<TRIPOS>SUBSTRUCTURE
  1 ****   6 GROUP 4 **** **** 0

# MOE 2024.06 (io_trps.svl 2023.06)
