@<TRIPOS>MOLECULE
NONAME
46 49 1 0 0 
SMALL
USER_CHARGES


@<TRIPOS>ATOM
  1 O        0.2520     0.7220    -0.4970 O.2   1 <1>  -0.5700 
  2 C       -0.0310     1.8740    -0.2730 C.2   1 <1>   0.5690 
  3 N        1.0280     2.7000    -0.0690 N.am  1 <1>  -0.7300 
  4 C       -1.5430     2.2450    -0.2190 C.3   1 <1>   0.0610 
  5 C        1.2310     4.1120     0.2650 C.3   1 <1>   0.3640 
  6 C       -2.3050     1.4520    -1.3210 C.3   1 <1>  -0.1600 
  7 C       -1.8770     3.7480    -0.4330 C.3   1 <1>  -0.1600 
  8 C       -2.1250     1.8200     1.1520 C.3   1 <1>  -0.1600 
  9 C        2.6430     4.4950    -0.1660 C.ar  1 <1>  -0.1440 
 10 C        1.0500     4.3080     1.7690 C.3   1 <1>  -0.2400 
 11 C       -3.8220     1.6980    -1.2630 C.3   1 <1>  -0.0800 
 12 C       -3.3930     4.0100    -0.3780 C.3   1 <1>  -0.0800 
 13 C       -3.6440     2.0770     1.2230 C.3   1 <1>  -0.0800 
 14 C        2.8290     5.5220    -1.0820 C.ar  1 <1>  -0.1500 
 15 C        3.7570     3.8350     0.3380 C.ar  1 <1>  -0.1500 
 16 C       -4.0960     3.1950    -1.4750 C.3   1 <1>  -0.1600 
 17 C       -4.3470     1.2680     0.1190 C.3   1 <1>  -0.1600 
 18 C       -3.9220     3.5750     1.0020 C.3   1 <1>  -0.1600 
 19 C        4.1030     5.8830    -1.4850 C.ar  1 <1>  -0.1500 
 20 C        5.0310     4.1950    -0.0650 C.ar  1 <1>  -0.1500 
 21 C        5.2050     5.2200    -0.9770 C.ar  1 <1>  -0.1500 
 22 H        1.9220     2.2300    -0.2150 H     1 <1>   0.3700 
 23 H        0.5370     4.7230    -0.2800 H     1 <1>   0.0800 
 24 H       -1.9280     1.7290    -2.2890 H     1 <1>   0.0800 
 25 H       -2.1280     0.3960    -1.2020 H     1 <1>   0.0800 
 26 H       -1.4850     4.0770    -1.3800 H     1 <1>   0.0800 
 27 H       -1.4370     4.3390     0.3440 H     1 <1>   0.0800 
 28 H       -1.6310     2.3580     1.9400 H     1 <1>   0.0800 
 29 H       -1.9330     0.7730     1.3110 H     1 <1>   0.0800 
 30 H        1.2510     5.3330     2.0230 H     1 <1>   0.0800 
 31 H        1.7270     3.6830     2.3200 H     1 <1>   0.0800 
 32 H        0.0450     4.0780     2.0670 H     1 <1>   0.0800 
 33 H       -4.3130     1.1250    -2.0330 H     1 <1>   0.0800 
 34 H       -3.5880     5.0580    -0.5260 H     1 <1>   0.0800 
 35 H       -4.0180     1.7760     2.1870 H     1 <1>   0.0800 
 36 H        1.9840     6.0480    -1.4900 H     1 <1>   0.1500 
 37 H        3.6420     3.0350     1.0480 H     1 <1>   0.1500 
 38 H       -5.1560     3.3790    -1.4440 H     1 <1>   0.0800 
 39 H       -3.7390     3.4990    -2.4430 H     1 <1>   0.0800 
 40 H       -5.4100     1.4280     0.1700 H     1 <1>   0.0800 
 41 H       -4.1670     0.2170     0.2660 H     1 <1>   0.0800 
 42 H       -4.9810     3.7600     1.0600 H     1 <1>   0.0800 
 43 H       -3.4480     4.1520     1.7760 H     1 <1>   0.0800 
 44 H        4.2370     6.6800    -2.1960 H     1 <1>   0.1500 
 45 H        5.8880     3.6770     0.3310 H     1 <1>   0.1500 
 46 H        6.1960     5.5010    -1.2910 H     1 <1>   0.1500 
@<TRIPOS>BOND
  1   1   2  2   
  2   2   3  am  
  3   2   4  1   
  4   3   5  1   
  5   3  22  1   
  6   4   6  1   
  7   4   7  1   
  8   4   8  1   
  9   5   9  1   
 10   5  10  1   
 11   5  23  1   
 12   6  11  1   
 13   6  24  1   
 14   6  25  1   
 15   7  12  1   
 16   7  26  1   
 17   7  27  1   
 18   8  13  1   
 19   8  28  1   
 20   8  29  1   
 21   9  14  ar  
 22   9  15  ar  
 23  10  30  1   
 24  10  31  1   
 25  10  32  1   
 26  11  16  1   
 27  11  17  1   
 28  11  33  1   
 29  12  16  1   
 30  12  18  1   
 31  12  34  1   
 32  13  17  1   
 33  13  18  1   
 34  13  35  1   
 35  14  19  ar  
 36  14  36  1   
 37  15  20  ar  
 38  15  37  1   
 39  16  38  1   
 40  16  39  1   
 41  17  40  1   
 42  17  41  1   
 43  18  42  1   
 44  18  43  1   
 45  19  21  ar  
 46  19  44  1   
 47  20  21  ar  
 48  20  45  1   
 49  21  46  1   
@<TRIPOS>SUBSTRUCTURE
  1 ****   3 GROUP 4 **** **** 0

# MOE 2024.06 (io_trps.svl 2023.06)
