@<TRIPOS>MOLECULE
NONAME
44 46 1 0 0 
SMALL
USER_CHARGES


@<TRIPOS>ATOM
  1 CL      -1.8370     0.9540    -0.0730 Cl    1 <1>  -0.1770 
  2 C       -1.1180     2.5410    -0.2050 C.ar  1 <1>   0.1770 
  3 C       -1.7230     3.6230     0.4200 C.ar  1 <1>  -0.1440 
  4 C        0.0400     2.6820    -0.9460 C.ar  1 <1>  -0.1500 
  5 C       -1.1430     4.8810     0.2970 C.ar  1 <1>  -0.1500 
  6 C       -2.9920     3.4310     1.2300 C.3   1 <1>   0.4870 
  7 C        0.5960     3.9410    -1.0570 C.ar  1 <1>   0.1770 
  8 C        0.0180     5.0390    -0.4440 C.ar  1 <1>  -0.1500 
  9 N       -4.1170     3.0980     0.3190 N.4   1 <1>  -0.9590 
 10 CL       2.0540     4.1510    -1.9880 Cl    1 <1>  -0.1770 
 11 C       -4.4120     4.2110    -0.6570 C.3   1 <1>   0.3430 
 12 C       -5.3610     2.7370     1.0880 C.3   1 <1>   0.3430 
 13 C       -5.5630     3.8680    -1.6240 C.3   1 <1>   0.2090 
 14 C       -6.5400     2.3510     0.1700 C.3   1 <1>   0.2090 
 15 N       -6.7700     3.3530    -0.9120 N.pl3 1 <1>  -0.8380 
 16 C       -7.8280     4.2530    -0.7270 C.ar  1 <1>   0.1000 
 17 C       -7.8070     5.3230     0.1880 C.ar  1 <1>   0.0830 
 18 C       -8.9600     4.0610    -1.5060 C.ar  1 <1>  -0.1500 
 19 O       -6.6860     5.5100     0.9570 O.3   1 <1>  -0.3620 
 20 C       -8.9180     6.1580     0.2890 C.ar  1 <1>  -0.1500 
 21 C      -10.0570     4.8940    -1.3980 C.ar  1 <1>  -0.1500 
 22 C       -6.6250     6.5640     1.8970 C.3   1 <1>   0.0400 
 23 C      -10.0360     5.9440    -0.5000 C.ar  1 <1>  -0.1500 
 24 H        0.5010     1.8370    -1.4250 H     1 <1>   0.1500 
 25 H       -1.5780     5.7450     0.7740 H     1 <1>   0.1500 
 26 H       -3.2180     4.3290     1.7810 H     1 <1>   0.0800 
 27 H       -2.8420     2.6290     1.9350 H     1 <1>   0.0800 
 28 H        0.4820     6.0060    -0.5490 H     1 <1>   0.1500 
 29 H       -3.8370     2.2720    -0.2280 H     1 <1>   0.4500 
 30 H       -3.5320     4.4370    -1.2360 H     1 <1>   0.0800 
 31 H       -4.6850     5.1010    -0.1170 H     1 <1>   0.0800 
 32 H       -5.6690     3.5740     1.6900 H     1 <1>   0.0800 
 33 H       -5.1570     1.9130     1.7520 H     1 <1>   0.0800 
 34 H       -5.2330     3.1270    -2.3310 H     1 <1>   0.0800 
 35 H       -5.8290     4.7500    -2.1820 H     1 <1>   0.0800 
 36 H       -7.4330     2.2590     0.7650 H     1 <1>   0.0800 
 37 H       -6.3510     1.3910    -0.2780 H     1 <1>   0.0800 
 38 H       -8.9750     3.2440    -2.2040 H     1 <1>   0.1500 
 39 H       -8.9480     6.9850     0.9710 H     1 <1>   0.1500 
 40 H      -10.9250     4.7260    -2.0130 H     1 <1>   0.1500 
 41 H       -5.6710     6.5270     2.3900 H     1 <1>   0.0800 
 42 H       -7.4120     6.4360     2.6190 H     1 <1>   0.0800 
 43 H       -6.7300     7.5020     1.3800 H     1 <1>   0.0800 
 44 H      -10.8900     6.5940    -0.4150 H     1 <1>   0.1500 
@<TRIPOS>BOND
  1   1   2  1   
  2   2   3  ar  
  3   2   4  ar  
  4   3   5  ar  
  5   3   6  1   
  6   4   7  ar  
  7   4  24  1   
  8   5   8  ar  
  9   5  25  1   
 10   6   9  1   
 11   6  26  1   
 12   6  27  1   
 13   7   8  ar  
 14   7  10  1   
 15   8  28  1   
 16   9  11  1   
 17   9  12  1   
 18   9  29  1   
 19  11  13  1   
 20  11  30  1   
 21  11  31  1   
 22  12  14  1   
 23  12  32  1   
 24  12  33  1   
 25  13  15  1   
 26  13  34  1   
 27  13  35  1   
 28  14  15  1   
 29  14  36  1   
 30  14  37  1   
 31  15  16  1   
 32  16  17  ar  
 33  16  18  ar  
 34  17  19  1   
 35  17  20  ar  
 36  18  21  ar  
 37  18  38  1   
 38  19  22  1   
 39  20  23  ar  
 40  20  39  1   
 41  21  23  ar  
 42  21  40  1   
 43  22  41  1   
 44  22  42  1   
 45  22  43  1   
 46  23  44  1   
@<TRIPOS>SUBSTRUCTURE
  1 ****  11 GROUP 4 **** **** 0

# MOE 2024.06 (io_trps.svl 2023.06)
