@<TRIPOS>MOLECULE
NONAME
41 41 1 0 0 
SMALL
USER_CHARGES


@<TRIPOS>ATOM
  1 O        0.6700     0.1910    -0.2960 O.2   1 <1>  -0.5700 
  2 C        0.2160    -0.8910    -0.5620 C.2   1 <1>   0.6590 
  3 O       -1.0860    -1.1090    -0.6580 O.3   1 <1>  -0.4300 
  4 C        1.1050    -2.0940    -0.8090 C.3   1 <1>  -0.0990 
  5 C       -2.0070    -0.0730    -0.4240 C.3   1 <1>   0.2580 
  6 C        0.9680    -3.1490     0.3020 C.3   1 <1>  -0.1600 
  7 C       -3.4000    -0.6470    -0.5930 C.2   1 <1>  -0.2880 
  8 C        1.7950    -4.4100    -0.0050 C.3   1 <1>  -0.0990 
  9 C       -4.3510    -0.6650     0.3460 C.2   1 <1>  -0.3000 
 10 C        1.6570    -5.4640     1.0800 C.2   1 <1>   0.5690 
 11 O        2.5490    -5.5910     1.8790 O.2   1 <1>  -0.5700 
 12 N        0.5640    -6.2570     1.1700 N.am  1 <1>  -0.7300 
 13 C       -0.6560    -6.2800     0.3460 C.3   1 <1>   0.2200 
 14 C       -1.8550    -5.9130     1.2260 C.3   1 <1>  -0.1600 
 15 C       -0.8210    -7.6780    -0.2570 C.3   1 <1>  -0.1600 
 16 C       -3.1690    -6.0120     0.4380 C.3   1 <1>  -0.1600 
 17 C       -2.1330    -7.7870    -1.0490 C.3   1 <1>  -0.1600 
 18 C       -3.3400    -7.4070    -0.1800 C.3   1 <1>  -0.1600 
 19 H        2.1250    -1.7610    -0.8700 H     1 <1>   0.0800 
 20 H        0.8330    -2.5200    -1.7570 H     1 <1>   0.0800 
 21 H       -1.8260     0.7150    -1.1350 H     1 <1>   0.0800 
 22 H       -1.8570     0.2990     0.5750 H     1 <1>   0.0800 
 23 H       -0.0690    -3.4160     0.4120 H     1 <1>   0.0800 
 24 H        1.2980    -2.7280     1.2370 H     1 <1>   0.0800 
 25 H       -3.5520    -1.0530    -1.5790 H     1 <1>   0.1500 
 26 H        2.8340    -4.1430    -0.0800 H     1 <1>   0.0800 
 27 H        1.5020    -4.8350    -0.9460 H     1 <1>   0.0800 
 28 H       -5.3340    -1.0790     0.1980 H     1 <1>   0.1500 
 29 H       -4.2310    -0.2690     1.3410 H     1 <1>   0.1500 
 30 H        0.5790    -6.9260     1.9400 H     1 <1>   0.3700 
 31 H       -0.5810    -5.5650    -0.4540 H     1 <1>   0.0800 
 32 H       -1.7370    -4.9090     1.5950 H     1 <1>   0.0800 
 33 H       -1.9010    -6.5800     2.0690 H     1 <1>   0.0800 
 34 H       -0.8260    -8.4120     0.5300 H     1 <1>   0.0800 
 35 H        0.0080    -7.8860    -0.9110 H     1 <1>   0.0800 
 36 H       -3.1740    -5.2710    -0.3430 H     1 <1>   0.0800 
 37 H       -3.9990    -5.8040     1.0930 H     1 <1>   0.0800 
 38 H       -2.2530    -8.7940    -1.4110 H     1 <1>   0.0800 
 39 H       -2.0900    -7.1330    -1.9040 H     1 <1>   0.0800 
 40 H       -4.2350    -7.4290    -0.7770 H     1 <1>   0.0800 
 41 H       -3.4530    -8.1330     0.6070 H     1 <1>   0.0800 
@<TRIPOS>BOND
  1   1   2  2   
  2   2   3  1   
  3   2   4  1   
  4   3   5  1   
  5   4   6  1   
  6   4  19  1   
  7   4  20  1   
  8   5   7  1   
  9   5  21  1   
 10   5  22  1   
 11   6   8  1   
 12   6  23  1   
 13   6  24  1   
 14   7   9  2   
 15   7  25  1   
 16   8  10  1   
 17   8  26  1   
 18   8  27  1   
 19   9  28  1   
 20   9  29  1   
 21  10  11  2   
 22  10  12  am  
 23  12  13  1   
 24  12  30  1   
 25  13  14  1   
 26  13  15  1   
 27  13  31  1   
 28  14  16  1   
 29  14  32  1   
 30  14  33  1   
 31  15  17  1   
 32  15  34  1   
 33  15  35  1   
 34  16  18  1   
 35  16  36  1   
 36  16  37  1   
 37  17  18  1   
 38  17  38  1   
 39  17  39  1   
 40  18  40  1   
 41  18  41  1   
@<TRIPOS>SUBSTRUCTURE
  1 ****   6 GROUP 4 **** **** 0

# MOE 2024.06 (io_trps.svl 2023.06)
