@<TRIPOS>MOLECULE
NONAME
47 49 1 0 0 
SMALL
USER_CHARGES


@<TRIPOS>ATOM
  1 O       -1.1090     0.5020    -0.4580 O.2   1 <1>  -0.5700 
  2 C       -0.9630     1.5960     0.0360 C.2   1 <1>   0.5690 
  3 N       -2.0280     2.3160     0.5120 N.am  1 <1>  -0.6600 
  4 C        0.4460     2.1680     0.1180 C.3   1 <1>  -0.0990 
  5 C       -1.9630     3.6990     1.0930 C.3   1 <1>   0.1400 
  6 C       -3.4250     1.7740     0.4550 C.3   1 <1>   0.1400 
  7 C        1.5470     1.2010    -0.3640 C.3   1 <1>  -0.0990 
  8 C       -2.9390     4.6570     0.3860 C.3   1 <1>   0.2090 
  9 C       -4.3820     2.7480    -0.2530 C.3   1 <1>   0.2090 
 10 C        2.9490     1.7840    -0.2840 C.2   1 <1>   0.5690 
 11 N       -4.3270     4.1040     0.3680 N.pl3 1 <1>  -0.8380 
 12 O        3.1170     2.8920     0.1590 O.2   1 <1>  -0.5700 
 13 N        4.0180     1.0740    -0.7020 N.am  1 <1>  -0.7300 
 14 C       -5.3620     4.9650     0.0580 C.ar  1 <1>   0.4100 
 15 C        4.0830    -0.3220    -1.1910 C.3   1 <1>   0.3200 
 16 N       -5.1000     5.9600    -0.7820 N.ar  1 <1>  -0.6200 
 17 C       -6.6180     4.7540     0.6220 C.ar  1 <1>  -0.1500 
 18 C        4.8450    -1.1930    -0.2080 C.2   1 <1>  -0.0400 
 19 C       -6.1150     6.7570    -1.0680 C.ar  1 <1>   0.1600 
 20 C       -7.6660     5.5910     0.3160 C.ar  1 <1>  -0.1500 
 21 O        5.1220    -2.4350    -0.5600 O.3   1 <1>  -0.2800 
 22 C        5.3260    -0.9390     1.0300 C.2   1 <1>  -0.1500 
 23 C       -7.3950     6.6230    -0.5600 C.ar  1 <1>  -0.1500 
 24 C        5.7790    -2.9960     0.4340 C.2   1 <1>  -0.0100 
 25 C        5.9410    -2.1250     1.4520 C.2   1 <1>  -0.1500 
 26 H        0.6450     2.4330     1.1400 H     1 <1>   0.0800 
 27 H        0.4830     3.0610    -0.4780 H     1 <1>   0.0800 
 28 H       -0.9720     4.1060     1.0230 H     1 <1>   0.0800 
 29 H       -2.2260     3.6510     2.1350 H     1 <1>   0.0800 
 30 H       -3.7760     1.6070     1.4580 H     1 <1>   0.0800 
 31 H       -3.4450     0.8300    -0.0610 H     1 <1>   0.0800 
 32 H        1.3500     0.9310    -1.3860 H     1 <1>   0.0800 
 33 H        1.5150     0.3080     0.2330 H     1 <1>   0.0800 
 34 H       -2.6080     4.8230    -0.6250 H     1 <1>   0.0800 
 35 H       -2.9410     5.6060     0.8940 H     1 <1>   0.0800 
 36 H       -5.3850     2.3640    -0.2000 H     1 <1>   0.0800 
 37 H       -4.1080     2.8220    -1.2920 H     1 <1>   0.0800 
 38 H        4.9250     1.5290    -0.5830 H     1 <1>   0.3700 
 39 H        4.5890    -0.3370    -2.1400 H     1 <1>   0.0800 
 40 H        3.0970    -0.7280    -1.3300 H     1 <1>   0.0800 
 41 H       -6.7480     3.9340     1.3000 H     1 <1>   0.1500 
 42 H       -5.9150     7.5660    -1.7490 H     1 <1>   0.1500 
 43 H       -8.6460     5.4510     0.7370 H     1 <1>   0.1500 
 44 H        5.2650    -0.0310     1.6040 H     1 <1>   0.1500 
 45 H       -8.1670     7.3150    -0.8430 H     1 <1>   0.1500 
 46 H        6.0950    -4.0200     0.3350 H     1 <1>   0.1500 
 47 H        6.4300    -2.2740     2.3980 H     1 <1>   0.1500 
@<TRIPOS>BOND
  1   1   2  2   
  2   2   3  am  
  3   2   4  1   
  4   3   5  1   
  5   3   6  1   
  6   4   7  1   
  7   4  26  1   
  8   4  27  1   
  9   5   8  1   
 10   5  28  1   
 11   5  29  1   
 12   6   9  1   
 13   6  30  1   
 14   6  31  1   
 15   7  10  1   
 16   7  32  1   
 17   7  33  1   
 18   8  11  1   
 19   8  34  1   
 20   8  35  1   
 21   9  11  1   
 22   9  36  1   
 23   9  37  1   
 24  10  12  2   
 25  10  13  am  
 26  11  14  1   
 27  13  15  1   
 28  13  38  1   
 29  14  16  ar  
 30  14  17  ar  
 31  15  18  1   
 32  15  39  1   
 33  15  40  1   
 34  16  19  ar  
 35  17  20  ar  
 36  17  41  1   
 37  18  21  1   
 38  18  22  2   
 39  19  23  ar  
 40  19  42  1   
 41  20  23  ar  
 42  20  43  1   
 43  21  24  1   
 44  22  25  1   
 45  22  44  1   
 46  23  45  1   
 47  24  25  2   
 48  24  46  1   
 49  25  47  1   
@<TRIPOS>SUBSTRUCTURE
  1 ****   2 GROUP 4 **** **** 0

# MOE 2024.06 (io_trps.svl 2023.06)
