@<TRIPOS>MOLECULE
NONAME
56 58 1 0 0 
SMALL
USER_CHARGES


@<TRIPOS>ATOM
  1 O        8.8100     0.8630    -1.0530 O.2   1 <1>  -0.5700 
  2 C        7.8560     1.5280    -1.3750 C.2   1 <1>   0.7800 
  3 O        6.8550     0.9290    -2.0160 O.3   1 <1>  -0.4300 
  4 N        7.7920     2.8460    -1.0390 N.am  1 <1>  -0.5470 
  5 C        6.3010     1.5010    -3.1820 C.3   1 <1>   0.1200 
  6 C        6.7220     3.6060    -0.5440 C.ar  1 <1>   0.1170 
  7 C        5.0270     0.7340    -3.5210 C.3   1 <1>  -0.2400 
  8 C        5.4590     3.0740    -0.3440 C.ar  1 <1>  -0.1500 
  9 C        6.9260     4.9320    -0.1970 C.ar  1 <1>  -0.1500 
 10 C        4.4230     3.8000     0.2260 C.ar  1 <1>   0.1170 
 11 C        5.8980     5.6860     0.3380 C.ar  1 <1>  -0.1500 
 12 N        3.2090     3.1170     0.4420 N.am  1 <1>  -0.2940 
 13 C        4.6390     5.1440     0.5570 C.ar  1 <1>  -0.1430 
 14 C        2.0380     3.6690    -0.1040 C.ar  1 <1>   0.1170 
 15 C        3.1790     1.9150     1.1230 C.2   1 <1>   0.5690 
 16 C        3.5930     6.1130     1.1260 C.3   1 <1>  -0.0160 
 17 C        1.5300     4.8540     0.4180 C.ar  1 <1>  -0.1430 
 18 C        1.3800     3.0550    -1.1640 C.ar  1 <1>  -0.1500 
 19 O        2.3770     1.0340     0.9110 O.2   1 <1>  -0.5700 
 20 C        4.2360     1.6110     2.1950 C.3   1 <1>   0.4040 
 21 C        2.2470     5.5310     1.5760 C.3   1 <1>  -0.0170 
 22 C        0.3830     5.4120    -0.1220 C.ar  1 <1>  -0.1500 
 23 C        0.2350     3.6130    -1.7000 C.ar  1 <1>  -0.1500 
 24 N        4.6120     0.1490     2.2100 N.4   1 <1>  -0.9060 
 25 C       -0.2640     4.7930    -1.1780 C.ar  1 <1>  -0.1500 
 26 C        5.6850    -0.2260     1.2780 C.3   1 <1>   0.4230 
 27 C        5.6600    -1.7400     1.1390 C.3   1 <1>  -0.2400 
 28 C        7.0190     0.2460     1.8480 C.3   1 <1>  -0.2400 
 29 H        8.7220     3.2140    -0.8400 H     1 <1>   0.3700 
 30 H        7.0250     1.4120    -3.9750 H     1 <1>   0.0800 
 31 H        6.0820     2.5410    -3.0120 H     1 <1>   0.0800 
 32 H        5.2520    -0.3050    -3.6840 H     1 <1>   0.0800 
 33 H        4.5960     1.1320    -4.4220 H     1 <1>   0.0800 
 34 H        4.3070     0.8290    -2.7300 H     1 <1>   0.0800 
 35 H        5.2580     2.0660    -0.6390 H     1 <1>   0.1500 
 36 H        7.8910     5.3850    -0.3480 H     1 <1>   0.1500 
 37 H        6.0870     6.7180     0.5810 H     1 <1>   0.1500 
 38 H        3.3930     6.8560     0.3730 H     1 <1>   0.0800 
 39 H        4.0260     6.6270     1.9670 H     1 <1>   0.0800 
 40 H        1.7640     2.1370    -1.5700 H     1 <1>   0.1500 
 41 H        3.8080     1.8760     3.1460 H     1 <1>   0.0800 
 42 H        5.1080     2.2220     2.0420 H     1 <1>   0.0800 
 43 H        1.6370     6.3280     1.9620 H     1 <1>   0.0800 
 44 H        2.3970     4.8310     2.3780 H     1 <1>   0.0800 
 45 H       -0.0180     6.3300     0.2710 H     1 <1>   0.1500 
 46 H       -0.2700     3.1320    -2.5190 H     1 <1>   0.1500 
 47 H        3.7560    -0.3570     1.9250 H     1 <1>   0.4500 
 48 H        4.8570    -0.1680     3.1530 H     1 <1>   0.4500 
 49 H       -1.1560     5.2300    -1.5930 H     1 <1>   0.1500 
 50 H        5.5180     0.2160     0.3080 H     1 <1>   0.0800 
 51 H        5.8340    -2.2260     2.0830 H     1 <1>   0.0800 
 52 H        6.4350    -2.0480     0.4580 H     1 <1>   0.0800 
 53 H        4.7210    -2.0690     0.7300 H     1 <1>   0.0800 
 54 H        7.0780     1.3190     1.8680 H     1 <1>   0.0800 
 55 H        7.8190    -0.1060     1.2210 H     1 <1>   0.0800 
 56 H        7.1840    -0.1450     2.8360 H     1 <1>   0.0800 
@<TRIPOS>BOND
  1   1   2  2   
  2   2   3  1   
  3   2   4  am  
  4   3   5  1   
  5   4   6  1   
  6   4  29  1   
  7   5   7  1   
  8   5  30  1   
  9   5  31  1   
 10   6   8  ar  
 11   6   9  ar  
 12   7  32  1   
 13   7  33  1   
 14   7  34  1   
 15   8  10  ar  
 16   8  35  1   
 17   9  11  ar  
 18   9  36  1   
 19  10  12  1   
 20  10  13  ar  
 21  11  13  ar  
 22  11  37  1   
 23  12  14  1   
 24  12  15  am  
 25  13  16  1   
 26  14  17  ar  
 27  14  18  ar  
 28  15  19  2   
 29  15  20  1   
 30  16  21  1   
 31  16  38  1   
 32  16  39  1   
 33  17  21  1   
 34  17  22  ar  
 35  18  23  ar  
 36  18  40  1   
 37  20  24  1   
 38  20  41  1   
 39  20  42  1   
 40  21  43  1   
 41  21  44  1   
 42  22  25  ar  
 43  22  45  1   
 44  23  25  ar  
 45  23  46  1   
 46  24  26  1   
 47  24  47  1   
 48  24  48  1   
 49  25  49  1   
 50  26  27  1   
 51  26  28  1   
 52  26  50  1   
 53  27  51  1   
 54  27  52  1   
 55  27  53  1   
 56  28  54  1   
 57  28  55  1   
 58  28  56  1   
@<TRIPOS>SUBSTRUCTURE
  1 ****  10 GROUP 4 **** **** 0

# MOE 2024.06 (io_trps.svl 2023.06)
