@<TRIPOS>MOLECULE
NONAME
41 44 1 0 0 
SMALL
USER_CHARGES


@<TRIPOS>ATOM
  1 S        0.1960     0.2050     1.8830 S.o2  1 <1>   1.4470 
  2 O        0.1590     1.3970     2.7030 O.2   1 <1>  -0.6500 
  3 O        0.8030    -0.9980     2.4110 O.2   1 <1>  -0.6500 
  4 N        1.0420     0.5960     0.4660 N.am  1 <1>  -0.8490 
  5 C       -1.4780    -0.1500     1.2780 C.ar  1 <1>  -0.0090 
  6 C        2.3200     1.2440     0.7750 C.3   1 <1>   0.1960 
  7 C        1.2430    -0.5760    -0.3920 C.3   1 <1>   0.1960 
  8 C       -2.1490     0.7660     0.4730 C.ar  1 <1>  -0.1500 
  9 C       -2.1270    -1.3420     1.6010 C.ar  1 <1>  -0.1500 
 10 C        2.9990     1.7250    -0.5120 C.3   1 <1>  -0.1600 
 11 C        1.8690    -0.1550    -1.7260 C.3   1 <1>  -0.1600 
 12 C       -3.4190     0.4850     0.0100 C.ar  1 <1>  -0.1440 
 13 C       -3.4010    -1.6230     1.1350 C.ar  1 <1>  -0.1500 
 14 C        3.1980     0.5760    -1.5080 C.3   1 <1>  -0.1600 
 15 C       -4.0520    -0.7010     0.3310 C.ar  1 <1>   0.0000 
 16 C       -4.3170     1.3400    -0.8730 C.3   1 <1>   0.1270 
 17 C       -5.3480    -0.7280    -0.2830 C.ar  1 <1>   0.0000 
 18 C       -5.5390     0.4430    -0.9940 C.ar  1 <1>  -0.1440 
 19 C       -6.3480    -1.6910    -0.2610 C.ar  1 <1>  -0.1500 
 20 C       -6.7110     0.6770    -1.6880 C.ar  1 <1>  -0.1500 
 21 C       -7.5260    -1.4650    -0.9530 C.ar  1 <1>  -0.1500 
 22 C       -7.7080    -0.2860    -1.6640 C.ar  1 <1>  -0.1500 
 23 H        2.9630     0.5540     1.2990 H     1 <1>   0.0800 
 24 H        2.1530     2.0960     1.4130 H     1 <1>   0.0800 
 25 H        0.2970    -1.0530    -0.5880 H     1 <1>   0.0800 
 26 H        1.8840    -1.2900     0.1010 H     1 <1>   0.0800 
 27 H       -1.6680     1.6950     0.2140 H     1 <1>   0.1500 
 28 H       -1.6240    -2.0600     2.2270 H     1 <1>   0.1500 
 29 H        3.9500     2.1640    -0.2700 H     1 <1>   0.0800 
 30 H        2.3870     2.4900    -0.9570 H     1 <1>   0.0800 
 31 H        1.1780     0.4880    -2.2440 H     1 <1>   0.0800 
 32 H        2.0300    -1.0250    -2.3360 H     1 <1>   0.0800 
 33 H       -3.8880    -2.5470     1.3920 H     1 <1>   0.1500 
 34 H        3.9260    -0.1140    -1.1160 H     1 <1>   0.0800 
 35 H        3.5670     0.9590    -2.4440 H     1 <1>   0.0800 
 36 H       -3.8660     1.5140    -1.8340 H     1 <1>   0.0800 
 37 H       -4.5640     2.2690    -0.3910 H     1 <1>   0.0800 
 38 H       -6.2030    -2.6010     0.2900 H     1 <1>   0.1500 
 39 H       -6.8510     1.5910    -2.2380 H     1 <1>   0.1500 
 40 H       -8.3060    -2.2060    -0.9400 H     1 <1>   0.1500 
 41 H       -8.6270    -0.1200    -2.1980 H     1 <1>   0.1500 
@<TRIPOS>BOND
  1   1   2  2   
  2   1   3  2   
  3   1   4  am  
  4   1   5  1   
  5   4   6  1   
  6   4   7  1   
  7   5   8  ar  
  8   5   9  ar  
  9   6  10  1   
 10   6  23  1   
 11   6  24  1   
 12   7  11  1   
 13   7  25  1   
 14   7  26  1   
 15   8  12  ar  
 16   8  27  1   
 17   9  13  ar  
 18   9  28  1   
 19  10  14  1   
 20  10  29  1   
 21  10  30  1   
 22  11  14  1   
 23  11  31  1   
 24  11  32  1   
 25  12  15  ar  
 26  12  16  1   
 27  13  15  ar  
 28  13  33  1   
 29  14  34  1   
 30  14  35  1   
 31  15  17  1   
 32  16  18  1   
 33  16  36  1   
 34  16  37  1   
 35  17  18  ar  
 36  17  19  ar  
 37  18  20  ar  
 38  19  21  ar  
 39  19  38  1   
 40  20  22  ar  
 41  20  39  1   
 42  21  22  ar  
 43  21  40  1   
 44  22  41  1   
@<TRIPOS>SUBSTRUCTURE
  1 ****   8 GROUP 4 **** **** 0

# MOE 2024.06 (io_trps.svl 2023.06)
