@<TRIPOS>MOLECULE
NONAME
31 33 1 0 0 
SMALL
USER_CHARGES


@<TRIPOS>ATOM
  1 O        0.7000    -0.5820    -1.2460 O.2   1 <1>  -0.5700 
  2 C        0.3780    -1.4590    -0.4980 C.2   1 <1>   0.4480 
  3 C        1.2730    -1.9790     0.6360 C.3   1 <1>   0.2810 
  4 C       -1.0030    -2.0870    -0.5950 C.3   1 <1>  -0.0990 
  5 N        2.6710    -1.4810     0.5240 N.am  1 <1>  -0.4200 
  6 C        1.2490    -3.5150     0.7540 C.3   1 <1>  -0.1600 
  7 C       -0.9570    -3.6180    -0.4750 C.3   1 <1>  -0.1600 
  8 C        3.1300    -0.4030     1.2320 C.2   1 <1>   0.5440 
  9 C        3.5160    -1.6860    -0.5400 C.2   1 <1>   0.5440 
 10 C       -0.1870    -4.0590     0.7770 C.3   1 <1>  -0.1600 
 11 O        2.5810     0.0410     2.2190 O.2   1 <1>  -0.5700 
 12 C        4.3320     0.0850     0.6180 C.ar  1 <1>   0.0860 
 13 O        3.3850    -2.5650    -1.3660 O.2   1 <1>  -0.5700 
 14 C        4.5710    -0.7140    -0.4880 C.ar  1 <1>   0.0860 
 15 C        5.1960     1.1260     0.9320 C.ar  1 <1>  -0.1500 
 16 C        5.6780    -0.4810    -1.2960 C.ar  1 <1>  -0.1500 
 17 C        6.3000     1.3570     0.1280 C.ar  1 <1>  -0.1500 
 18 C        6.5400     0.5560    -0.9820 C.ar  1 <1>  -0.1500 
 19 H        0.8560    -1.5880     1.5470 H     1 <1>   0.0800 
 20 H       -1.4480    -1.8110    -1.5350 H     1 <1>   0.0800 
 21 H       -1.6140    -1.6820     0.1910 H     1 <1>   0.0800 
 22 H        1.7600    -3.8110     1.6530 H     1 <1>   0.0800 
 23 H        1.7600    -3.9570    -0.0840 H     1 <1>   0.0800 
 24 H       -0.4760    -4.0260    -1.3500 H     1 <1>   0.0800 
 25 H       -1.9600    -4.0070    -0.4410 H     1 <1>   0.0800 
 26 H       -0.6960    -3.7100     1.6600 H     1 <1>   0.0800 
 27 H       -0.1590    -5.1350     0.8180 H     1 <1>   0.0800 
 28 H        4.9970     1.7400     1.7950 H     1 <1>   0.1500 
 29 H        5.8490    -1.1090    -2.1540 H     1 <1>   0.1500 
 30 H        6.9770     2.1620     0.3620 H     1 <1>   0.1500 
 31 H        7.4000     0.7460    -1.6020 H     1 <1>   0.1500 
@<TRIPOS>BOND
  1   1   2  2   
  2   2   3  1   
  3   2   4  1   
  4   3   5  1   
  5   3   6  1   
  6   3  19  1   
  7   4   7  1   
  8   4  20  1   
  9   4  21  1   
 10   5   8  am  
 11   5   9  am  
 12   6  10  1   
 13   6  22  1   
 14   6  23  1   
 15   7  10  1   
 16   7  24  1   
 17   7  25  1   
 18   8  11  2   
 19   8  12  1   
 20   9  13  2   
 21   9  14  1   
 22  10  26  1   
 23  10  27  1   
 24  12  14  ar  
 25  12  15  ar  
 26  14  16  ar  
 27  15  17  ar  
 28  15  28  1   
 29  16  18  ar  
 30  16  29  1   
 31  17  18  ar  
 32  17  30  1   
 33  18  31  1   
@<TRIPOS>SUBSTRUCTURE
  1 ****   5 GROUP 4 **** **** 0

# MOE 2024.06 (io_trps.svl 2023.06)
