@<TRIPOS>MOLECULE
NONAME
38 39 1 0 0 
SMALL
USER_CHARGES


@<TRIPOS>ATOM
  1 S       -0.0180     0.3650    -0.0660 S.o2  1 <1>   1.3830 
  2 O       -0.0010     1.7060    -0.6120 O.2   1 <1>  -0.6500 
  3 O       -0.1300     0.1350     1.3580 O.2   1 <1>  -0.6500 
  4 N       -1.2650    -0.4660    -0.8100 N.2   1 <1>  -0.6380 
  5 C        1.4190    -0.5240    -0.6840 C.3   1 <1>   0.0890 
  6 C       -2.4430    -0.0800    -0.5800 C.2   1 <1>   0.6410 
  7 C        2.7520     0.0120    -0.1770 C.ar  1 <1>  -0.1440 
  8 S       -2.9820     1.2530     0.4460 S.3   1 <1>  -0.2820 
  9 N       -3.5820    -0.6410    -1.1020 N.pl3 1 <1>  -0.4650 
 10 C        3.2860     1.1720    -0.7170 C.ar  1 <1>  -0.1500 
 11 C        3.4390    -0.6510     0.8290 C.ar  1 <1>  -0.1500 
 12 C       -4.6540     0.8790     0.0380 C.2   1 <1>   0.7320 
 13 N       -4.8200    -0.1010    -0.7540 N.2   1 <1>  -0.4920 
 14 C        4.4990     1.6600    -0.2620 C.ar  1 <1>  -0.1500 
 15 C        4.6520    -0.1630     1.2840 C.ar  1 <1>  -0.1500 
 16 S       -5.8880     1.9340     0.7960 S.3   1 <1>  -0.3710 
 17 C        5.1830     0.9920     0.7380 C.ar  1 <1>  -0.1500 
 18 C       -7.4880     1.2420     0.1930 C.3   1 <1>   0.1500 
 19 C       -8.5090     2.3880     0.2300 C.3   1 <1>  -0.1600 
 20 C       -7.8440     0.0660     1.1070 C.3   1 <1>  -0.2400 
 21 C       -9.8720     2.0000    -0.3600 C.3   1 <1>  -0.2400 
 22 H        1.4230    -0.4770    -1.7550 H     1 <1>   0.0800 
 23 H        1.3330    -1.5560    -0.4090 H     1 <1>   0.0800 
 24 H       -3.4970    -1.4430    -1.7350 H     1 <1>   0.4570 
 25 H        2.7600     1.7080    -1.4890 H     1 <1>   0.1500 
 26 H        3.0370    -1.5470     1.2690 H     1 <1>   0.1500 
 27 H        4.9070     2.5620    -0.6840 H     1 <1>   0.1500 
 28 H        5.1810    -0.6800     2.0650 H     1 <1>   0.1500 
 29 H        6.1260     1.3720     1.0920 H     1 <1>   0.1500 
 30 H       -7.3290     0.9110    -0.8190 H     1 <1>   0.0800 
 31 H       -8.1160     3.2140    -0.3360 H     1 <1>   0.0800 
 32 H       -8.6400     2.7190     1.2460 H     1 <1>   0.0800 
 33 H       -7.9870     0.4070     2.1170 H     1 <1>   0.0800 
 34 H       -7.0580    -0.6660     1.0940 H     1 <1>   0.0800 
 35 H       -8.7470    -0.4100     0.7710 H     1 <1>   0.0800 
 36 H       -9.7580     1.6370    -1.3660 H     1 <1>   0.0800 
 37 H      -10.5190     2.8590    -0.3790 H     1 <1>   0.0800 
 38 H      -10.3450     1.2380     0.2340 H     1 <1>   0.0800 
@<TRIPOS>BOND
  1   1   2  2   
  2   1   3  2   
  3   1   4  1   
  4   1   5  1   
  5   4   6  2   
  6   5   7  1   
  7   5  22  1   
  8   5  23  1   
  9   6   8  1   
 10   6   9  1   
 11   7  10  ar  
 12   7  11  ar  
 13   8  12  1   
 14   9  13  1   
 15   9  24  1   
 16  10  14  ar  
 17  10  25  1   
 18  11  15  ar  
 19  11  26  1   
 20  12  13  2   
 21  12  16  1   
 22  14  17  ar  
 23  14  27  1   
 24  15  17  ar  
 25  15  28  1   
 26  16  18  1   
 27  17  29  1   
 28  18  19  1   
 29  18  20  1   
 30  18  30  1   
 31  19  21  1   
 32  19  31  1   
 33  19  32  1   
 34  20  33  1   
 35  20  34  1   
 36  20  35  1   
 37  21  36  1   
 38  21  37  1   
 39  21  38  1   
@<TRIPOS>SUBSTRUCTURE
  1 ****   6 GROUP 4 **** **** 0

# MOE 2024.06 (io_trps.svl 2023.06)
