@<TRIPOS>MOLECULE
NONAME
30 30 1 0 0 
SMALL
USER_CHARGES


@<TRIPOS>ATOM
  1 O       -3.6390     2.1990     2.3460 O.2   1 <1>  -0.5700 
  2 C       -3.9480     2.2580     1.1790 C.2   1 <1>   0.4230 
  3 C       -5.3000     2.5310     0.7630 C.ar  1 <1>   0.0860 
  4 C       -2.8610     1.9940     0.1130 C.3   1 <1>   0.3170 
  5 C       -5.6950     3.7960     0.3210 C.ar  1 <1>  -0.1500 
  6 C       -6.2720     1.5290     0.7990 C.ar  1 <1>  -0.1500 
  7 N       -1.6130     1.5820     0.8240 N.4   1 <1>  -0.2260 
  8 C       -3.2900     0.8570    -0.8330 C.3   1 <1>  -0.2400 
  9 C       -2.5630     3.2650    -0.7040 C.3   1 <1>  -0.2400 
 10 C       -6.9910     4.0370    -0.0920 C.ar  1 <1>  -0.1500 
 11 C       -7.5710     1.7650     0.3890 C.ar  1 <1>  -0.1500 
 12 O       -0.5710     1.3020    -0.0170 O.2   1 <1>  -0.7500 
 13 C       -7.9390     3.0280    -0.0660 C.ar  1 <1>   0.0830 
 14 O       -9.1820     3.3430    -0.4890 O.3   1 <1>  -0.3620 
 15 C      -10.2390     2.4110    -0.4690 C.3   1 <1>   0.0400 
 16 H       -4.9820     4.6010     0.3070 H     1 <1>   0.1500 
 17 H       -6.0010     0.5520     1.1590 H     1 <1>   0.1500 
 18 H       -1.8060     0.7570     1.4020 H     1 <1>   0.3600 
 19 H       -1.3330     2.3270     1.4710 H     1 <1>   0.3600 
 20 H       -2.5130     0.6560    -1.5510 H     1 <1>   0.0800 
 21 H       -4.1770     1.1270    -1.3780 H     1 <1>   0.0800 
 22 H       -3.4880    -0.0430    -0.2790 H     1 <1>   0.0800 
 23 H       -1.7540     3.0850    -1.3920 H     1 <1>   0.0800 
 24 H       -2.2910     4.0770    -0.0550 H     1 <1>   0.0800 
 25 H       -3.4200     3.5550    -1.2840 H     1 <1>   0.0800 
 26 H       -7.2840     5.0140    -0.4350 H     1 <1>   0.1500 
 27 H       -8.2840     0.9630     0.4310 H     1 <1>   0.1500 
 28 H      -11.1230     2.9000    -0.8380 H     1 <1>   0.0800 
 29 H      -10.3980     2.0840     0.5430 H     1 <1>   0.0800 
 30 H       -9.9870     1.5820    -1.1080 H     1 <1>   0.0800 
@<TRIPOS>BOND
  1   1   2  2   
  2   2   3  1   
  3   2   4  1   
  4   3   5  ar  
  5   3   6  ar  
  6   4   7  1   
  7   4   8  1   
  8   4   9  1   
  9   5  10  ar  
 10   5  16  1   
 11   6  11  ar  
 12   6  17  1   
 13   7  12  2   
 14   7  18  1   
 15   7  19  1   
 16   8  20  1   
 17   8  21  1   
 18   8  22  1   
 19   9  23  1   
 20   9  24  1   
 21   9  25  1   
 22  10  13  ar  
 23  10  26  1   
 24  11  13  ar  
 25  11  27  1   
 26  13  14  1   
 27  14  15  1   
 28  15  28  1   
 29  15  29  1   
 30  15  30  1   
@<TRIPOS>SUBSTRUCTURE
  1 ****   3 GROUP 4 **** **** 0

# MOE 2024.06 (io_trps.svl 2023.06)
