@<TRIPOS>MOLECULE
NONAME
50 52 1 0 0 
SMALL
USER_CHARGES


@<TRIPOS>ATOM
  1 O       -0.4640    -0.3580     1.1290 O.2   1 <1>  -0.5700 
  2 C       -0.8690    -1.1710     0.3230 C.2   1 <1>   0.5440 
  3 N        0.0140    -2.0290    -0.2930 N.am  1 <1>  -0.5470 
  4 C       -2.2920    -1.2620     0.0390 C.ar  1 <1>   0.0860 
  5 C        1.4180    -2.0550    -0.2820 C.ar  1 <1>   0.1170 
  6 C       -3.2320    -0.8470     0.9820 C.ar  1 <1>  -0.1500 
  7 C       -2.7860    -1.7500    -1.1730 C.ar  1 <1>  -0.1500 
  8 C        2.0690    -3.2640    -0.4870 C.ar  1 <1>  -0.1500 
  9 C        2.1890    -0.9120    -0.0940 C.ar  1 <1>  -0.1500 
 10 C       -4.5910    -0.9230     0.7420 C.ar  1 <1>  -0.1500 
 11 C       -4.1450    -1.8350    -1.4210 C.ar  1 <1>  -0.1500 
 12 C        3.4540    -3.3480    -0.4970 C.ar  1 <1>   0.1170 
 13 C        3.5700    -0.9780    -0.1070 C.ar  1 <1>  -0.1500 
 14 C       -5.0600    -1.4270    -0.4620 C.ar  1 <1>  -0.1430 
 15 N        4.0740    -4.5840    -0.7040 N.am  1 <1>  -0.5470 
 16 C        4.2010    -2.1920    -0.3110 C.ar  1 <1>  -0.1500 
 17 C       -6.5520    -1.5240    -0.7270 C.3   1 <1>   0.4860 
 18 C        4.9840    -5.2460     0.0550 C.2   1 <1>   0.5690 
 19 N       -7.1170    -2.6150     0.1110 N.4   1 <1>  -0.9590 
 20 O        5.4200    -6.3030    -0.3180 O.2   1 <1>  -0.5700 
 21 C        5.4500    -4.6850     1.3780 C.3   1 <1>  -0.1790 
 22 C       -6.5150    -3.9530    -0.2290 C.3   1 <1>   0.3430 
 23 C       -8.6170    -2.6690     0.0240 C.3   1 <1>   0.3430 
 24 C       -7.1820    -5.0910     0.5670 C.3   1 <1>   0.1200 
 25 C       -9.1860    -3.8700     0.8040 C.3   1 <1>   0.1200 
 26 O       -8.5670    -5.0530     0.3870 O.3   1 <1>  -0.5600 
 27 H       -0.4170    -2.8180    -0.7650 H     1 <1>   0.3700 
 28 H       -2.8790    -0.4490     1.9210 H     1 <1>   0.1500 
 29 H       -2.0980    -2.0540    -1.9430 H     1 <1>   0.1500 
 30 H        1.4960    -4.1590    -0.6310 H     1 <1>   0.1500 
 31 H        1.7110     0.0390     0.0620 H     1 <1>   0.1500 
 32 H       -5.2690    -0.5760     1.5040 H     1 <1>   0.1500 
 33 H       -4.4760    -2.2140    -2.3740 H     1 <1>   0.1500 
 34 H        4.1510    -0.0840     0.0390 H     1 <1>   0.1500 
 35 H        3.7880    -5.1150    -1.5270 H     1 <1>   0.3700 
 36 H        5.2740    -2.2400    -0.3320 H     1 <1>   0.1500 
 37 H       -6.7280    -1.7260    -1.7710 H     1 <1>   0.0800 
 38 H       -7.0180    -0.5840    -0.4780 H     1 <1>   0.0800 
 39 H       -6.8570    -2.4120     1.0840 H     1 <1>   0.4500 
 40 H        5.8590    -5.4760     1.9790 H     1 <1>   0.0800 
 41 H        6.2110    -3.9480     1.2100 H     1 <1>   0.0800 
 42 H        4.6270    -4.2400     1.9050 H     1 <1>   0.0800 
 43 H       -5.4570    -3.9470    -0.0190 H     1 <1>   0.0800 
 44 H       -6.6430    -4.1560    -1.2790 H     1 <1>   0.0800 
 45 H       -8.9210    -2.7650    -1.0060 H     1 <1>   0.0800 
 46 H       -9.0450    -1.7590     0.4120 H     1 <1>   0.0800 
 47 H       -6.9640    -5.0140     1.6180 H     1 <1>   0.0800 
 48 H       -6.8320    -6.0460     0.2130 H     1 <1>   0.0800 
 49 H      -10.2410    -3.9700     0.6140 H     1 <1>   0.0800 
 50 H       -9.0390    -3.7560     1.8640 H     1 <1>   0.0800 
@<TRIPOS>BOND
  1   1   2  2   
  2   2   3  am  
  3   2   4  1   
  4   3   5  1   
  5   3  27  1   
  6   4   6  ar  
  7   4   7  ar  
  8   5   8  ar  
  9   5   9  ar  
 10   6  10  ar  
 11   6  28  1   
 12   7  11  ar  
 13   7  29  1   
 14   8  12  ar  
 15   8  30  1   
 16   9  13  ar  
 17   9  31  1   
 18  10  14  ar  
 19  10  32  1   
 20  11  14  ar  
 21  11  33  1   
 22  12  15  1   
 23  12  16  ar  
 24  13  16  ar  
 25  13  34  1   
 26  14  17  1   
 27  15  18  am  
 28  15  35  1   
 29  16  36  1   
 30  17  19  1   
 31  17  37  1   
 32  17  38  1   
 33  18  20  2   
 34  18  21  1   
 35  19  22  1   
 36  19  23  1   
 37  19  39  1   
 38  21  40  1   
 39  21  41  1   
 40  21  42  1   
 41  22  24  1   
 42  22  43  1   
 43  22  44  1   
 44  23  25  1   
 45  23  45  1   
 46  23  46  1   
 47  24  26  1   
 48  24  47  1   
 49  24  48  1   
 50  25  26  1   
 51  25  49  1   
 52  25  50  1   
@<TRIPOS>SUBSTRUCTURE
  1 ****   4 GROUP 4 **** **** 0

# MOE 2024.06 (io_trps.svl 2023.06)
