@<TRIPOS>MOLECULE
NONAME
48 50 1 0 0 
SMALL
USER_CHARGES


@<TRIPOS>ATOM
  1 O       -2.0880     2.6630    -0.4030 O.2   1 <1>  -0.5700 
  2 C       -1.2810     3.0940     0.4000 C.2   1 <1>   0.7060 
  3 O       -0.0490     3.3440    -0.0430 O.3   1 <1>  -0.2330 
  4 C       -1.5980     3.3970     1.7660 C.2   1 <1>   0.0290 
  5 C        0.9300     3.8870     0.7230 C.ar  1 <1>   0.0820 
  6 C       -2.9230     3.0860     2.2270 C.2   1 <1>   0.6160 
  7 C       -0.6370     3.9240     2.5710 C.2   1 <1>  -0.1780 
  8 C        2.1850     4.1340     0.1670 C.ar  1 <1>   0.0830 
  9 C        0.6650     4.1930     2.0620 C.ar  1 <1>   0.0280 
 10 O       -3.0380     2.2880     3.1350 O.2   1 <1>  -0.5700 
 11 N       -4.0780     3.6500     1.7080 N.am  1 <1>  -0.6600 
 12 O        2.3650     3.8150    -1.1440 O.3   1 <1>  -0.3630 
 13 C        3.1830     4.6870     0.9590 C.ar  1 <1>  -0.1500 
 14 C        1.6860     4.7460     2.8350 C.ar  1 <1>  -0.1500 
 15 C       -4.1260     4.6740     0.6190 C.3   1 <1>   0.1400 
 16 C       -5.4220     3.0770     2.0280 C.3   1 <1>   0.1400 
 17 C        3.6120     3.9690    -1.7790 C.3   1 <1>   0.1200 
 18 C        2.9290     4.9900     2.2890 C.ar  1 <1>  -0.1500 
 19 C       -4.7740     4.0810    -0.6530 C.3   1 <1>   0.3430 
 20 C       -6.0370     2.4550     0.7620 C.3   1 <1>   0.3430 
 21 C        3.4660     3.4890    -3.2190 C.3   1 <1>  -0.2400 
 22 N       -6.1110     3.4410    -0.3790 N.4   1 <1>  -0.9590 
 23 C       -6.6440     2.8140    -1.6070 C.3   1 <1>   0.4810 
 24 C       -8.1250     2.6070    -1.3930 C.2   1 <1>  -0.2880 
 25 C       -9.0930     3.3580    -1.9300 C.2   1 <1>  -0.3000 
 26 H       -0.8300     4.1400     3.6090 H     1 <1>   0.1500 
 27 H        4.1620     4.8920     0.5680 H     1 <1>   0.1500 
 28 H        1.5000     4.9830     3.8680 H     1 <1>   0.1500 
 29 H       -3.1410     5.0350     0.3860 H     1 <1>   0.0800 
 30 H       -4.7030     5.5190     0.9560 H     1 <1>   0.0800 
 31 H       -6.0630     3.8530     2.4090 H     1 <1>   0.0800 
 32 H       -5.3510     2.3180     2.7890 H     1 <1>   0.0800 
 33 H        4.3400     3.3760    -1.2520 H     1 <1>   0.0800 
 34 H        3.8840     5.0100    -1.7510 H     1 <1>   0.0800 
 35 H        3.7100     5.4180     2.8960 H     1 <1>   0.1500 
 36 H       -4.1060     3.3450    -1.0660 H     1 <1>   0.0800 
 37 H       -4.8860     4.8630    -1.3860 H     1 <1>   0.0800 
 38 H       -7.0230     2.0890     0.9960 H     1 <1>   0.0800 
 39 H       -5.4310     1.6110     0.4740 H     1 <1>   0.0800 
 40 H        3.1780     2.4530    -3.2360 H     1 <1>   0.0800 
 41 H        4.4030     3.5930    -3.7360 H     1 <1>   0.0800 
 42 H        2.7250     4.0760    -3.7310 H     1 <1>   0.0800 
 43 H       -6.7850     4.1730    -0.1210 H     1 <1>   0.4500 
 44 H       -6.1470     1.8790    -1.8160 H     1 <1>   0.0800 
 45 H       -6.5010     3.4760    -2.4460 H     1 <1>   0.0800 
 46 H       -8.3470     1.7690    -0.7540 H     1 <1>   0.1500 
 47 H      -10.1450     3.1840    -1.7660 H     1 <1>   0.1500 
 48 H       -8.9360     4.2020    -2.5820 H     1 <1>   0.1500 
@<TRIPOS>BOND
  1   1   2  2   
  2   2   3  1   
  3   2   4  1   
  4   3   5  1   
  5   4   6  1   
  6   4   7  2   
  7   5   8  ar  
  8   5   9  ar  
  9   6  10  2   
 10   6  11  am  
 11   7   9  1   
 12   7  26  1   
 13   8  12  1   
 14   8  13  ar  
 15   9  14  ar  
 16  11  15  1   
 17  11  16  1   
 18  12  17  1   
 19  13  18  ar  
 20  13  27  1   
 21  14  18  ar  
 22  14  28  1   
 23  15  19  1   
 24  15  29  1   
 25  15  30  1   
 26  16  20  1   
 27  16  31  1   
 28  16  32  1   
 29  17  21  1   
 30  17  33  1   
 31  17  34  1   
 32  18  35  1   
 33  19  22  1   
 34  19  36  1   
 35  19  37  1   
 36  20  22  1   
 37  20  38  1   
 38  20  39  1   
 39  21  40  1   
 40  21  41  1   
 41  21  42  1   
 42  22  23  1   
 43  22  43  1   
 44  23  24  1   
 45  23  44  1   
 46  23  45  1   
 47  24  25  2   
 48  24  46  1   
 49  25  47  1   
 50  25  48  1   
@<TRIPOS>SUBSTRUCTURE
  1 ****   2 GROUP 4 **** **** 0

# MOE 2024.06 (io_trps.svl 2023.06)
