@<TRIPOS>MOLECULE
NONAME
42 43 1 0 0 
SMALL
USER_CHARGES


@<TRIPOS>ATOM
  1 S       -0.1000    -0.7230    -1.4040 S.o2  1 <1>   1.4470 
  2 O        0.2500    -1.7930    -2.3140 O.2   1 <1>  -0.6500 
  3 O        0.1670     0.6490    -1.7750 O.2   1 <1>  -0.6500 
  4 N        0.7370    -1.0090     0.0410 N.am  1 <1>  -0.8490 
  5 C       -1.8380    -0.8680    -0.9050 C.ar  1 <1>  -0.0090 
  6 C        2.1460    -0.5980    -0.0670 C.3   1 <1>   0.1960 
  7 C        0.6770    -2.4180     0.4650 C.3   1 <1>   0.1960 
  8 C       -2.3330    -0.1190     0.1530 C.ar  1 <1>  -0.1500 
  9 C       -2.7130    -1.7250    -1.5610 C.ar  1 <1>  -0.1500 
 10 C        2.9080    -0.8680     1.2430 C.3   1 <1>   0.1200 
 11 C        1.4650    -2.6360     1.7700 C.3   1 <1>   0.1200 
 12 C       -3.6610    -0.1940     0.5540 C.ar  1 <1>   0.1170 
 13 C       -4.0360    -1.8380    -1.1690 C.ar  1 <1>  -0.1500 
 14 O        2.7900    -2.2110     1.6170 O.3   1 <1>  -0.5600 
 15 N       -4.1560     0.5750     1.6200 N.am  1 <1>  -0.5470 
 16 C       -4.5160    -1.0810    -0.1070 C.ar  1 <1>   0.0830 
 17 C       -3.9540     1.8590     2.0170 C.2   1 <1>   0.5690 
 18 O       -5.8030    -1.1580     0.3380 O.3   1 <1>  -0.3630 
 19 O       -4.5240     2.2810     2.9880 O.2   1 <1>  -0.5700 
 20 C       -3.0500     2.7960     1.2510 C.3   1 <1>  -0.1790 
 21 C       -6.7780    -1.9160    -0.3410 C.3   1 <1>   0.1200 
 22 C       -8.1100    -1.7190     0.3760 C.3   1 <1>  -0.2400 
 23 H        2.2000     0.4550    -0.2880 H     1 <1>   0.0800 
 24 H        2.6260    -1.1310    -0.8720 H     1 <1>   0.0800 
 25 H        1.0920    -3.0580    -0.2970 H     1 <1>   0.0800 
 26 H       -0.3470    -2.7080     0.6240 H     1 <1>   0.0800 
 27 H       -1.6560     0.5300     0.6770 H     1 <1>   0.1500 
 28 H       -2.3540    -2.3140    -2.3900 H     1 <1>   0.1500 
 29 H        2.5200    -0.2540     2.0370 H     1 <1>   0.0800 
 30 H        3.9540    -0.6520     1.1170 H     1 <1>   0.0800 
 31 H        1.4830    -3.6800     2.0270 H     1 <1>   0.0800 
 32 H        1.0180    -2.0850     2.5790 H     1 <1>   0.0800 
 33 H       -4.6710    -2.5210    -1.7020 H     1 <1>   0.1500 
 34 H       -4.9540     0.1500     2.0970 H     1 <1>   0.3700 
 35 H       -2.0340     2.6630     1.5710 H     1 <1>   0.0800 
 36 H       -3.3410     3.8110     1.4470 H     1 <1>   0.0800 
 37 H       -3.1290     2.6170     0.1950 H     1 <1>   0.0800 
 38 H       -6.4840    -2.9510    -0.3190 H     1 <1>   0.0800 
 39 H       -6.8380    -1.5640    -1.3570 H     1 <1>   0.0800 
 40 H       -8.0380    -2.0600     1.3930 H     1 <1>   0.0800 
 41 H       -8.8780    -2.2840    -0.1210 H     1 <1>   0.0800 
 42 H       -8.3870    -0.6800     0.3650 H     1 <1>   0.0800 
@<TRIPOS>BOND
  1   1   2  2   
  2   1   3  2   
  3   1   4  am  
  4   1   5  1   
  5   4   6  1   
  6   4   7  1   
  7   5   8  ar  
  8   5   9  ar  
  9   6  10  1   
 10   6  23  1   
 11   6  24  1   
 12   7  11  1   
 13   7  25  1   
 14   7  26  1   
 15   8  12  ar  
 16   8  27  1   
 17   9  13  ar  
 18   9  28  1   
 19  10  14  1   
 20  10  29  1   
 21  10  30  1   
 22  11  14  1   
 23  11  31  1   
 24  11  32  1   
 25  12  15  1   
 26  12  16  ar  
 27  13  16  ar  
 28  13  33  1   
 29  15  17  am  
 30  15  34  1   
 31  16  18  1   
 32  17  19  2   
 33  17  20  1   
 34  18  21  1   
 35  20  35  1   
 36  20  36  1   
 37  20  37  1   
 38  21  22  1   
 39  21  38  1   
 40  21  39  1   
 41  22  40  1   
 42  22  41  1   
 43  22  42  1   
@<TRIPOS>SUBSTRUCTURE
  1 ****   8 GROUP 4 **** **** 0

# MOE 2024.06 (io_trps.svl 2023.06)
