@<TRIPOS>MOLECULE
NONAME
52 53 1 0 0 
SMALL
USER_CHARGES


@<TRIPOS>ATOM
  1 O        1.0130     3.0940     0.5040 O.3   1 <1>  -0.5600 
  2 C        0.5920     4.3400     0.9890 C.3   1 <1>   0.2000 
  3 C        0.8070     2.8080    -0.8570 C.3   1 <1>   0.2000 
  4 C       -0.9360     4.5230     0.7800 C.3   1 <1>   0.3430 
  5 C        1.4400     5.4500     0.3550 C.3   1 <1>  -0.2400 
  6 C       -0.5270     3.3960    -1.3870 C.3   1 <1>   0.3430 
  7 C        0.8340     1.2850    -0.9720 C.3   1 <1>  -0.2400 
  8 N       -1.5000     3.6090    -0.2730 N.4   1 <1>  -0.9590 
  9 C       -2.8950     3.9360    -0.7000 C.3   1 <1>   0.3430 
 10 C       -3.9090     3.4820     0.3720 C.3   1 <1>   0.2000 
 11 O       -3.4650     2.2850     0.9360 O.3   1 <1>  -0.6800 
 12 C       -5.3170     3.2730    -0.1970 C.3   1 <1>   0.1200 
 13 O       -6.1250     2.7100     0.8140 O.3   1 <1>  -0.3630 
 14 C       -7.4300     2.4140     0.5900 C.ar  1 <1>   0.0820 
 15 C       -8.1460     1.8990     1.6580 C.ar  1 <1>  -0.1500 
 16 C       -8.0680     2.5990    -0.6340 C.ar  1 <1>  -0.1500 
 17 C       -9.4820     1.5710     1.5130 C.ar  1 <1>  -0.1500 
 18 C       -9.4050     2.2690    -0.7740 C.ar  1 <1>  -0.1500 
 19 C      -10.1200     1.7550     0.2960 C.ar  1 <1>  -0.1430 
 20 C      -11.5880     1.3920     0.1370 C.3   1 <1>  -0.0170 
 21 C      -11.7350    -0.0640    -0.3180 C.3   1 <1>  -0.1600 
 22 C      -13.2060    -0.4570    -0.4860 C.3   1 <1>  -0.2400 
 23 H        0.7900     4.3380     2.0480 H     1 <1>   0.0800 
 24 H        1.6340     3.2170    -1.4140 H     1 <1>   0.0800 
 25 H       -1.1220     5.5510     0.5170 H     1 <1>   0.0800 
 26 H       -1.4350     4.3340     1.7160 H     1 <1>   0.0800 
 27 H        1.2450     5.5620    -0.6950 H     1 <1>   0.0800 
 28 H        2.4840     5.2360     0.5030 H     1 <1>   0.0800 
 29 H        1.2260     6.3890     0.8350 H     1 <1>   0.0800 
 30 H       -0.9370     2.7280    -2.1250 H     1 <1>   0.0800 
 31 H       -0.3240     4.3360    -1.8730 H     1 <1>   0.0800 
 32 H        0.0360     0.8450    -0.3990 H     1 <1>   0.0800 
 33 H        1.7740     0.9100    -0.6060 H     1 <1>   0.0800 
 34 H        0.7300     0.9830    -1.9980 H     1 <1>   0.0800 
 35 H       -1.5960     2.6910     0.2080 H     1 <1>   0.4500 
 36 H       -3.1170     3.4070    -1.6110 H     1 <1>   0.0800 
 37 H       -3.0000     4.9910    -0.8950 H     1 <1>   0.0800 
 38 H       -3.9570     4.2160     1.1580 H     1 <1>   0.0800 
 39 H       -4.2140     1.8790     1.4330 H     1 <1>   0.4000 
 40 H       -5.2950     2.5930    -1.0310 H     1 <1>   0.0800 
 41 H       -5.7530     4.2100    -0.4960 H     1 <1>   0.0800 
 42 H       -7.6570     1.7560     2.6030 H     1 <1>   0.1500 
 43 H       -7.5520     2.9920    -1.4880 H     1 <1>   0.1500 
 44 H      -10.0250     1.1700     2.3520 H     1 <1>   0.1500 
 45 H       -9.8910     2.4110    -1.7230 H     1 <1>   0.1500 
 46 H      -12.0440     2.0470    -0.5850 H     1 <1>   0.0800 
 47 H      -12.0970     1.5340     1.0740 H     1 <1>   0.0800 
 48 H      -11.2730    -0.7120     0.4080 H     1 <1>   0.0800 
 49 H      -11.2200    -0.1990    -1.2540 H     1 <1>   0.0800 
 50 H      -13.7330    -0.3510     0.4460 H     1 <1>   0.0800 
 51 H      -13.2780    -1.4820    -0.8050 H     1 <1>   0.0800 
 52 H      -13.6800     0.1650    -1.2260 H     1 <1>   0.0800 
@<TRIPOS>BOND
  1   1   2  1   
  2   1   3  1   
  3   2   4  1   
  4   2   5  1   
  5   2  23  1   
  6   3   6  1   
  7   3   7  1   
  8   3  24  1   
  9   4   8  1   
 10   4  25  1   
 11   4  26  1   
 12   5  27  1   
 13   5  28  1   
 14   5  29  1   
 15   6   8  1   
 16   6  30  1   
 17   6  31  1   
 18   7  32  1   
 19   7  33  1   
 20   7  34  1   
 21   8   9  1   
 22   8  35  1   
 23   9  10  1   
 24   9  36  1   
 25   9  37  1   
 26  10  11  1   
 27  10  12  1   
 28  10  38  1   
 29  11  39  1   
 30  12  13  1   
 31  12  40  1   
 32  12  41  1   
 33  13  14  1   
 34  14  15  ar  
 35  14  16  ar  
 36  15  17  ar  
 37  15  42  1   
 38  16  18  ar  
 39  16  43  1   
 40  17  19  ar  
 41  17  44  1   
 42  18  19  ar  
 43  18  45  1   
 44  19  20  1   
 45  20  21  1   
 46  20  46  1   
 47  20  47  1   
 48  21  22  1   
 49  21  48  1   
 50  21  49  1   
 51  22  50  1   
 52  22  51  1   
 53  22  52  1   
@<TRIPOS>SUBSTRUCTURE
  1 ****  12 GROUP 4 **** **** 0

# MOE 2024.06 (io_trps.svl 2023.06)
