@<TRIPOS>MOLECULE
NONAME
29 30 1 0 0 
SMALL
USER_CHARGES


@<TRIPOS>ATOM
  1 CL      -1.8450     1.2890    -2.3600 Cl    1 <1>  -0.1770 
  2 C       -0.9060     2.3260    -1.3130 C.ar  1 <1>   0.1770 
  3 C       -1.2550     2.4480     0.0260 C.ar  1 <1>  -0.1440 
  4 C        0.1630     3.0150    -1.8520 C.ar  1 <1>  -0.1500 
  5 C       -0.5020     3.2840     0.8430 C.ar  1 <1>  -0.1500 
  6 C       -2.4330     1.6740     0.5880 C.3   1 <1>   0.4870 
  7 C        0.8940     3.8430    -1.0230 C.ar  1 <1>   0.1770 
  8 C        0.5730     3.9840     0.3150 C.ar  1 <1>  -0.1500 
  9 N       -3.7000     2.1860    -0.0070 N.4   1 <1>  -0.9590 
 10 CL       2.2450     4.7290    -1.6760 Cl    1 <1>  -0.1770 
 11 C       -3.9420     3.6290     0.3570 C.3   1 <1>   0.3430 
 12 C       -4.8530     1.2870     0.3490 C.3   1 <1>   0.3430 
 13 C       -5.0980     4.2510    -0.4370 C.3   1 <1>   0.0700 
 14 C       -6.1230     1.6150    -0.4480 C.3   1 <1>   0.0700 
 15 S       -6.6140     3.3220    -0.0940 S.3   1 <1>  -0.4600 
 16 H        0.4260     2.9130    -2.8900 H     1 <1>   0.1500 
 17 H       -0.7330     3.4000     1.8900 H     1 <1>   0.1500 
 18 H       -2.4610     1.7720     1.6610 H     1 <1>   0.0800 
 19 H       -2.3110     0.6290     0.3480 H     1 <1>   0.0800 
 20 H        1.1680     4.6350     0.9340 H     1 <1>   0.1500 
 21 H       -3.5700     2.1390    -1.0290 H     1 <1>   0.4500 
 22 H       -3.0520     4.2060     0.1640 H     1 <1>   0.0800 
 23 H       -4.1640     3.7070     1.4090 H     1 <1>   0.0800 
 24 H       -5.0730     1.3750     1.4010 H     1 <1>   0.0800 
 25 H       -4.5850     0.2610     0.1500 H     1 <1>   0.0800 
 26 H       -4.9210     4.2190    -1.4980 H     1 <1>   0.0800 
 27 H       -5.2760     5.2670    -0.1320 H     1 <1>   0.0800 
 28 H       -6.9430     0.9850    -0.1500 H     1 <1>   0.0800 
 29 H       -5.9680     1.5270    -1.5090 H     1 <1>   0.0800 
@<TRIPOS>BOND
  1   1   2  1   
  2   2   3  ar  
  3   2   4  ar  
  4   3   5  ar  
  5   3   6  1   
  6   4   7  ar  
  7   4  16  1   
  8   5   8  ar  
  9   5  17  1   
 10   6   9  1   
 11   6  18  1   
 12   6  19  1   
 13   7   8  ar  
 14   7  10  1   
 15   8  20  1   
 16   9  11  1   
 17   9  12  1   
 18   9  21  1   
 19  11  13  1   
 20  11  22  1   
 21  11  23  1   
 22  12  14  1   
 23  12  24  1   
 24  12  25  1   
 25  13  15  1   
 26  13  26  1   
 27  13  27  1   
 28  14  15  1   
 29  14  28  1   
 30  14  29  1   
@<TRIPOS>SUBSTRUCTURE
  1 ****   3 GROUP 4 **** **** 0

# MOE 2024.06 (io_trps.svl 2023.06)
