@<TRIPOS>MOLECULE
NONAME
45 46 1 0 0 
SMALL
USER_CHARGES


@<TRIPOS>ATOM
  1 O        1.2600     0.5310     2.2390 O.2   1 <1>  -0.5700 
  2 C        1.4720     1.1620     1.2230 C.2   1 <1>   0.6340 
  3 O        0.4440     1.4420     0.4140 O.3   1 <1>  -0.4300 
  4 C        2.7890     1.6320     0.8400 C.ar  1 <1>   0.0860 
  5 C       -0.8730     1.0220     0.7120 C.3   1 <1>   0.0400 
  6 C        3.9060     1.3740     1.6400 C.ar  1 <1>  -0.1500 
  7 C        3.0070     2.3580    -0.3360 C.ar  1 <1>  -0.1500 
  8 C        5.1670     1.8140     1.2880 C.ar  1 <1>  -0.1500 
  9 C        4.2650     2.8020    -0.6960 C.ar  1 <1>  -0.1500 
 10 C        5.3600     2.5310     0.1190 C.ar  1 <1>   0.0830 
 11 O        6.6210     2.9260    -0.1560 O.3   1 <1>  -0.3620 
 12 C        6.9300     3.6650    -1.3320 C.3   1 <1>   0.1810 
 13 C        8.4160     3.9890    -1.4150 C.2   1 <1>   0.5690 
 14 O        8.8140     4.6130    -2.3690 O.2   1 <1>  -0.5700 
 15 N        9.2480     3.5730    -0.4240 N.am  1 <1>  -0.7300 
 16 C       10.7000     3.7990    -0.3550 C.3   1 <1>   0.2200 
 17 C       11.3900     2.4290    -0.3190 C.3   1 <1>  -0.1600 
 18 C       10.9720     4.6910     0.8610 C.3   1 <1>  -0.1600 
 19 C       12.9020     2.5270    -0.5750 C.3   1 <1>  -0.1600 
 20 C       12.4570     4.9690     1.1460 C.3   1 <1>  -0.1600 
 21 C       13.7560     2.7780     0.6770 C.3   1 <1>  -0.1600 
 22 C       13.1830     3.7460     1.7240 C.3   1 <1>  -0.1600 
 23 H       -1.5250     1.3590    -0.0740 H     1 <1>   0.0800 
 24 H       -1.1710     1.4540     1.6530 H     1 <1>   0.0800 
 25 H       -0.8900    -0.0520     0.7750 H     1 <1>   0.0800 
 26 H        3.7760     0.8170     2.5530 H     1 <1>   0.1500 
 27 H        2.1730     2.5780    -0.9810 H     1 <1>   0.1500 
 28 H        6.0110     1.6030     1.9200 H     1 <1>   0.1500 
 29 H        4.3720     3.3550    -1.6110 H     1 <1>   0.1500 
 30 H        6.3720     4.5830    -1.3150 H     1 <1>   0.0800 
 31 H        6.6500     3.0780    -2.1870 H     1 <1>   0.0800 
 32 H        8.8380     3.0500     0.3530 H     1 <1>   0.3700 
 33 H       11.0120     4.3220    -1.2440 H     1 <1>   0.0800 
 34 H       10.9700     1.8340    -1.1120 H     1 <1>   0.0800 
 35 H       11.1960     1.9250     0.6110 H     1 <1>   0.0800 
 36 H       10.5220     4.2560     1.7360 H     1 <1>   0.0800 
 37 H       10.4880     5.6360     0.6830 H     1 <1>   0.0800 
 38 H       13.0900     3.3030    -1.2980 H     1 <1>   0.0800 
 39 H       13.2360     1.6060    -1.0200 H     1 <1>   0.0800 
 40 H       12.5040     5.7560     1.8800 H     1 <1>   0.0800 
 41 H       12.9570     5.3290     0.2630 H     1 <1>   0.0800 
 42 H       14.7130     3.1500     0.3520 H     1 <1>   0.0800 
 43 H       13.9390     1.8360     1.1640 H     1 <1>   0.0800 
 44 H       12.5170     3.2100     2.3780 H     1 <1>   0.0800 
 45 H       14.0010     4.0880     2.3340 H     1 <1>   0.0800 
@<TRIPOS>BOND
  1   1   2  2   
  2   2   3  1   
  3   2   4  1   
  4   3   5  1   
  5   4   6  ar  
  6   4   7  ar  
  7   5  23  1   
  8   5  24  1   
  9   5  25  1   
 10   6   8  ar  
 11   6  26  1   
 12   7   9  ar  
 13   7  27  1   
 14   8  10  ar  
 15   8  28  1   
 16   9  10  ar  
 17   9  29  1   
 18  10  11  1   
 19  11  12  1   
 20  12  13  1   
 21  12  30  1   
 22  12  31  1   
 23  13  14  2   
 24  13  15  am  
 25  15  16  1   
 26  15  32  1   
 27  16  17  1   
 28  16  18  1   
 29  16  33  1   
 30  17  19  1   
 31  17  34  1   
 32  17  35  1   
 33  18  20  1   
 34  18  36  1   
 35  18  37  1   
 36  19  21  1   
 37  19  38  1   
 38  19  39  1   
 39  20  22  1   
 40  20  40  1   
 41  20  41  1   
 42  21  22  1   
 43  21  42  1   
 44  21  43  1   
 45  22  44  1   
 46  22  45  1   
@<TRIPOS>SUBSTRUCTURE
  1 ****  11 GROUP 4 **** **** 0

# MOE 2024.06 (io_trps.svl 2023.06)
