@<TRIPOS>MOLECULE
NONAME
46 47 1 0 0 
SMALL
USER_CHARGES


@<TRIPOS>ATOM
  1 N        0.0190     0.0280     0.1090 N.4   1 <1>  -0.9590 
  2 C        1.2430     0.7420     0.6040 C.3   1 <1>   0.4230 
  3 C       -1.2670     0.7630     0.4030 C.3   1 <1>   0.3430 
  4 C       -0.1150    -1.3810     0.6020 C.3   1 <1>   0.3430 
  5 C        1.2850     2.1810     0.0650 C.3   1 <1>  -0.1600 
  6 C        2.5140    -0.0040     0.1680 C.3   1 <1>  -0.1600 
  7 C       -2.5280    -0.0540     0.0480 C.3   1 <1>  -0.0800 
  8 C       -1.1260    -2.1350    -0.2720 C.3   1 <1>  -0.1600 
  9 C        2.5740     2.9030     0.4590 C.3   1 <1>   0.3430 
 10 C        3.7860     0.7510     0.5570 C.3   1 <1>   0.3430 
 11 C       -2.2160    -1.2370    -0.8820 C.3   1 <1>  -0.1600 
 12 C       -3.5960     0.8490    -0.5830 C.3   1 <1>  -0.2400 
 13 N        3.7570     2.1300    -0.0070 N.4   1 <1>  -0.9590 
 14 C        5.0080     2.8810     0.3200 C.3   1 <1>   0.3430 
 15 C        6.1880     2.3360    -0.4880 C.3   1 <1>  -0.1600 
 16 C        7.4460     3.1780    -0.2460 C.3   1 <1>  -0.2400 
 17 H        0.0670    -0.0480    -0.9160 H     1 <1>   0.4500 
 18 H        1.2140     0.7780     1.6830 H     1 <1>   0.0800 
 19 H       -1.2890     1.6770    -0.1680 H     1 <1>   0.0800 
 20 H       -1.3130     1.0270     1.4470 H     1 <1>   0.0800 
 21 H       -0.4610    -1.3710     1.6230 H     1 <1>   0.0800 
 22 H        0.8240    -1.9050     0.5690 H     1 <1>   0.0800 
 23 H        0.4720     2.7560     0.4710 H     1 <1>   0.0800 
 24 H        1.1980     2.1850    -1.0080 H     1 <1>   0.0800 
 25 H        2.5140    -0.1590    -0.8960 H     1 <1>   0.0800 
 26 H        2.5680    -0.9640     0.6480 H     1 <1>   0.0800 
 27 H       -2.9360    -0.4460     0.9650 H     1 <1>   0.0800 
 28 H       -1.5880    -2.8910     0.3390 H     1 <1>   0.0800 
 29 H       -0.6080    -2.6510    -1.0610 H     1 <1>   0.0800 
 30 H        2.6150     3.0200     1.5310 H     1 <1>   0.0800 
 31 H        2.5830     3.8890     0.0170 H     1 <1>   0.0800 
 32 H        4.6440     0.2160     0.1820 H     1 <1>   0.0800 
 33 H        3.8690     0.7990     1.6320 H     1 <1>   0.0800 
 34 H       -1.8840    -0.8660    -1.8370 H     1 <1>   0.0800 
 35 H       -3.1060    -1.8200    -1.0580 H     1 <1>   0.0800 
 36 H       -3.2530     1.2670    -1.5130 H     1 <1>   0.0800 
 37 H       -3.8560     1.6540     0.0830 H     1 <1>   0.0800 
 38 H       -4.4920     0.2830    -0.7800 H     1 <1>   0.0800 
 39 H        3.7270     2.0700    -1.0360 H     1 <1>   0.4500 
 40 H        5.2240     2.8140     1.3750 H     1 <1>   0.0800 
 41 H        4.8810     3.9230     0.0720 H     1 <1>   0.0800 
 42 H        5.9590     2.3640    -1.5390 H     1 <1>   0.0800 
 43 H        6.4070     1.3220    -0.2060 H     1 <1>   0.0800 
 44 H        7.2890     4.2010    -0.5440 H     1 <1>   0.0800 
 45 H        8.2670     2.7860    -0.8220 H     1 <1>   0.0800 
 46 H        7.7280     3.1600     0.7930 H     1 <1>   0.0800 
@<TRIPOS>BOND
  1   1   2  1   
  2   1   3  1   
  3   1   4  1   
  4   1  17  1   
  5   2   5  1   
  6   2   6  1   
  7   2  18  1   
  8   3   7  1   
  9   3  19  1   
 10   3  20  1   
 11   4   8  1   
 12   4  21  1   
 13   4  22  1   
 14   5   9  1   
 15   5  23  1   
 16   5  24  1   
 17   6  10  1   
 18   6  25  1   
 19   6  26  1   
 20   7  11  1   
 21   7  12  1   
 22   7  27  1   
 23   8  11  1   
 24   8  28  1   
 25   8  29  1   
 26   9  13  1   
 27   9  30  1   
 28   9  31  1   
 29  10  13  1   
 30  10  32  1   
 31  10  33  1   
 32  11  34  1   
 33  11  35  1   
 34  12  36  1   
 35  12  37  1   
 36  12  38  1   
 37  13  14  1   
 38  13  39  1   
 39  14  15  1   
 40  14  40  1   
 41  14  41  1   
 42  15  16  1   
 43  15  42  1   
 44  15  43  1   
 45  16  44  1   
 46  16  45  1   
 47  16  46  1   
@<TRIPOS>SUBSTRUCTURE
  1 ****   2 GROUP 4 **** **** 0

# MOE 2024.06 (io_trps.svl 2023.06)
