@<TRIPOS>MOLECULE
NONAME
55 57 1 0 0 
SMALL
USER_CHARGES


@<TRIPOS>ATOM
  1 O       -0.0770    -0.5080     1.1150 O.2   1 <1>  -0.5700 
  2 C       -0.2060    -1.1060     0.0640 C.2   1 <1>   0.6900 
  3 N        0.8580    -1.5090    -0.6780 N.am  1 <1>  -0.5470 
  4 N       -1.4450    -1.3940    -0.4030 N.am  1 <1>  -0.7300 
  5 C        2.1860    -1.0600    -0.5910 C.ar  1 <1>   0.1170 
  6 C       -2.6680    -0.9660     0.2850 C.3   1 <1>   0.2200 
  7 C        2.5340     0.2920    -0.6990 C.ar  1 <1>   0.0820 
  8 C        3.1970    -1.9930    -0.4140 C.ar  1 <1>  -0.1500 
  9 C       -3.8200    -1.9000    -0.0730 C.3   1 <1>  -0.1600 
 10 C       -2.9910     0.4730    -0.1120 C.3   1 <1>  -0.1600 
 11 O        1.5730     1.2320    -0.9050 O.3   1 <1>  -0.3630 
 12 C        3.8630     0.6820    -0.6310 C.ar  1 <1>  -0.1500 
 13 C        4.5250    -1.6090    -0.3400 C.ar  1 <1>   0.0820 
 14 C       -5.1110    -1.4200     0.5860 C.3   1 <1>   0.3430 
 15 C       -4.2840     0.9270     0.5550 C.3   1 <1>   0.3430 
 16 C        1.4190     2.1890     0.1200 C.3   1 <1>   0.0400 
 17 C        4.8600    -0.2620    -0.4490 C.ar  1 <1>  -0.1500 
 18 O        5.4360    -2.6020    -0.1630 O.3   1 <1>  -0.3630 
 19 N       -5.3910    -0.0050     0.1930 N.4   1 <1>  -0.9590 
 20 C        6.8080    -2.3110    -0.0150 C.3   1 <1>   0.0400 
 21 C       -6.6920     0.4650     0.7450 C.3   1 <1>   0.4860 
 22 C       -7.8000    -0.3660     0.1290 C.ar  1 <1>  -0.1430 
 23 C       -8.4430    -1.3400     0.8810 C.ar  1 <1>  -0.1500 
 24 C       -8.1750    -0.1660    -1.1920 C.ar  1 <1>  -0.1500 
 25 C       -9.4390    -2.1130     0.3130 C.ar  1 <1>  -0.1500 
 26 C       -9.1710    -0.9410    -1.7580 C.ar  1 <1>  -0.1500 
 27 C       -9.8020    -1.9160    -1.0070 C.ar  1 <1>  -0.1500 
 28 H        0.6990    -2.3090    -1.2790 H     1 <1>   0.3700 
 29 H       -1.5270    -1.6480    -1.3850 H     1 <1>   0.3700 
 30 H       -2.4980    -1.0100     1.3500 H     1 <1>   0.0800 
 31 H        2.9560    -3.0350    -0.3250 H     1 <1>   0.1500 
 32 H       -3.5960    -2.8910     0.2810 H     1 <1>   0.0800 
 33 H       -3.9570    -1.9440    -1.1390 H     1 <1>   0.0800 
 34 H       -3.0810     0.5620    -1.1800 H     1 <1>   0.0800 
 35 H       -2.1910     1.1160     0.2110 H     1 <1>   0.0800 
 36 H        4.1210     1.7200    -0.7300 H     1 <1>   0.1500 
 37 H       -5.0130    -1.4900     1.6580 H     1 <1>   0.0800 
 38 H       -5.9250    -2.0590     0.2790 H     1 <1>   0.0800 
 39 H       -4.5190     1.9290     0.2340 H     1 <1>   0.0800 
 40 H       -4.1470     0.9370     1.6260 H     1 <1>   0.0800 
 41 H        0.5260     2.7520    -0.0790 H     1 <1>   0.0800 
 42 H        2.2730     2.8420     0.1250 H     1 <1>   0.0800 
 43 H        1.3300     1.6780     1.0630 H     1 <1>   0.0800 
 44 H        5.8790     0.0680    -0.3990 H     1 <1>   0.1500 
 45 H       -5.5020     0.0010    -0.8290 H     1 <1>   0.4500 
 46 H        7.3310    -3.2380     0.1360 H     1 <1>   0.0800 
 47 H        6.9390    -1.6740     0.8420 H     1 <1>   0.0800 
 48 H        7.1620    -1.8340    -0.9110 H     1 <1>   0.0800 
 49 H       -6.8500     1.5020     0.4960 H     1 <1>   0.0800 
 50 H       -6.7050     0.3630     1.8170 H     1 <1>   0.0800 
 51 H       -8.1840    -1.5090     1.9130 H     1 <1>   0.1500 
 52 H       -7.7070     0.5920    -1.7970 H     1 <1>   0.1500 
 53 H       -9.9390    -2.8690     0.8960 H     1 <1>   0.1500 
 54 H       -9.4630    -0.7870    -2.7840 H     1 <1>   0.1500 
 55 H      -10.5790    -2.5170    -1.4480 H     1 <1>   0.1500 
@<TRIPOS>BOND
  1   1   2  2   
  2   2   3  am  
  3   2   4  am  
  4   3   5  1   
  5   3  28  1   
  6   4   6  1   
  7   4  29  1   
  8   5   7  ar  
  9   5   8  ar  
 10   6   9  1   
 11   6  10  1   
 12   6  30  1   
 13   7  11  1   
 14   7  12  ar  
 15   8  13  ar  
 16   8  31  1   
 17   9  14  1   
 18   9  32  1   
 19   9  33  1   
 20  10  15  1   
 21  10  34  1   
 22  10  35  1   
 23  11  16  1   
 24  12  17  ar  
 25  12  36  1   
 26  13  17  ar  
 27  13  18  1   
 28  14  19  1   
 29  14  37  1   
 30  14  38  1   
 31  15  19  1   
 32  15  39  1   
 33  15  40  1   
 34  16  41  1   
 35  16  42  1   
 36  16  43  1   
 37  17  44  1   
 38  18  20  1   
 39  19  21  1   
 40  19  45  1   
 41  20  46  1   
 42  20  47  1   
 43  20  48  1   
 44  21  22  1   
 45  21  49  1   
 46  21  50  1   
 47  22  23  ar  
 48  22  24  ar  
 49  23  25  ar  
 50  23  51  1   
 51  24  26  ar  
 52  24  52  1   
 53  25  27  ar  
 54  25  53  1   
 55  26  27  ar  
 56  26  54  1   
 57  27  55  1   
@<TRIPOS>SUBSTRUCTURE
  1 ****   4 GROUP 4 **** **** 0

# MOE 2024.06 (io_trps.svl 2023.06)
