@<TRIPOS>MOLECULE
NONAME
36 37 1 0 0 
SMALL
USER_CHARGES


@<TRIPOS>ATOM
  1 F        0.8790    -0.0960     0.9340 F     1 <1>  -0.1900 
  2 C        0.6500    -1.3160     0.5120 C.ar  1 <1>   0.1900 
  3 C        1.7230    -2.1360     0.1730 C.ar  1 <1>   0.0820 
  4 C       -0.6630    -1.7340     0.4220 C.ar  1 <1>  -0.1500 
  5 O        2.9860    -1.6410     0.2910 O.3   1 <1>  -0.3630 
  6 C        1.4410    -3.4260    -0.2730 C.ar  1 <1>  -0.1500 
  7 C       -0.9240    -3.0200    -0.0220 C.ar  1 <1>  -0.1500 
  8 C        4.1160    -2.3940    -0.0630 C.3   1 <1>   0.1200 
  9 C        0.1260    -3.8580    -0.3670 C.ar  1 <1>  -0.1500 
 10 C        5.3320    -1.5020     0.1850 C.3   1 <1>  -0.1600 
 11 C        6.6270    -2.2160    -0.1950 C.3   1 <1>   0.3430 
 12 N        7.8040    -1.3690     0.1500 N.4   1 <1>  -0.9590 
 13 C        7.9100    -0.1410    -0.7200 C.3   1 <1>   0.3430 
 14 C        9.0810    -2.1650     0.0770 C.3   1 <1>   0.3430 
 15 C        9.2010     0.6500    -0.4340 C.3   1 <1>   0.1200 
 16 C       10.3170    -1.2810     0.3290 C.3   1 <1>   0.1200 
 17 O       10.3150    -0.1880    -0.5420 O.3   1 <1>  -0.5600 
 18 H       -1.4610    -1.0670     0.6950 H     1 <1>   0.1500 
 19 H        2.2210    -4.1090    -0.5490 H     1 <1>   0.1500 
 20 H       -1.9400    -3.3670    -0.1000 H     1 <1>   0.1500 
 21 H        4.0300    -2.6620    -1.1020 H     1 <1>   0.0800 
 22 H        4.1410    -3.2760     0.5550 H     1 <1>   0.0800 
 23 H       -0.0850    -4.8570    -0.7120 H     1 <1>   0.1500 
 24 H        5.3520    -1.2420     1.2290 H     1 <1>   0.0800 
 25 H        5.2120    -0.6100    -0.4040 H     1 <1>   0.0800 
 26 H        6.6290    -2.4400    -1.2500 H     1 <1>   0.0800 
 27 H        6.6830    -3.1460     0.3480 H     1 <1>   0.0800 
 28 H        7.6960    -1.0490     1.1220 H     1 <1>   0.4500 
 29 H        7.0610     0.5030    -0.5590 H     1 <1>   0.0800 
 30 H        7.9140    -0.4290    -1.7590 H     1 <1>   0.0800 
 31 H        9.1790    -2.6080    -0.9010 H     1 <1>   0.0800 
 32 H        9.0620    -2.9630     0.8010 H     1 <1>   0.0800 
 33 H        9.1850     1.0830     0.5510 H     1 <1>   0.0800 
 34 H        9.3180     1.4420    -1.1540 H     1 <1>   0.0800 
 35 H       11.2180    -1.8420     0.1460 H     1 <1>   0.0800 
 36 H       10.3410    -0.9180     1.3420 H     1 <1>   0.0800 
@<TRIPOS>BOND
  1   1   2  1   
  2   2   3  ar  
  3   2   4  ar  
  4   3   5  1   
  5   3   6  ar  
  6   4   7  ar  
  7   4  18  1   
  8   5   8  1   
  9   6   9  ar  
 10   6  19  1   
 11   7   9  ar  
 12   7  20  1   
 13   8  10  1   
 14   8  21  1   
 15   8  22  1   
 16   9  23  1   
 17  10  11  1   
 18  10  24  1   
 19  10  25  1   
 20  11  12  1   
 21  11  26  1   
 22  11  27  1   
 23  12  13  1   
 24  12  14  1   
 25  12  28  1   
 26  13  15  1   
 27  13  29  1   
 28  13  30  1   
 29  14  16  1   
 30  14  31  1   
 31  14  32  1   
 32  15  17  1   
 33  15  33  1   
 34  15  34  1   
 35  16  17  1   
 36  16  35  1   
 37  16  36  1   
@<TRIPOS>SUBSTRUCTURE
  1 ****  10 GROUP 4 **** **** 0

# MOE 2024.06 (io_trps.svl 2023.06)
