@<TRIPOS>MOLECULE
NONAME
35 37 1 0 0 
SMALL
USER_CHARGES


@<TRIPOS>ATOM
  1 CL      -1.0410     0.6960    -2.4200 Cl    1 <1>  -0.1770 
  2 C       -2.3500     1.4680    -1.5650 C.ar  1 <1>   0.1770 
  3 C       -3.2670     2.2270    -2.2660 C.ar  1 <1>  -0.1500 
  4 C       -2.4570     1.3110    -0.1970 C.ar  1 <1>  -0.1500 
  5 C       -4.3040     2.8370    -1.5810 C.ar  1 <1>  -0.1500 
  6 C       -3.4990     1.9250     0.4760 C.ar  1 <1>  -0.1500 
  7 C       -4.4490     2.7030    -0.1960 C.ar  1 <1>   0.0540 
  8 C       -5.5470     3.3460     0.5090 C.2   1 <1>   0.4620 
  9 N       -5.6560     3.3360     1.8430 N.2   1 <1>  -0.2270 
 10 N       -6.5170     3.9850    -0.0620 N.2   1 <1>  -0.7070 
 11 N       -6.7140     3.9760     2.1320 N.2   1 <1>  -0.4180 
 12 N       -7.2330     4.3560     0.9800 N.pl3 1 <1>   0.5800 
 13 C       -8.4530     5.1530     0.8590 C.3   1 <1>   0.1570 
 14 C       -9.6500     4.3020     1.2070 C.2   1 <1>   0.5690 
 15 O      -10.2690     4.6230     2.1930 O.2   1 <1>  -0.5700 
 16 N      -10.0450     3.2370     0.4320 N.am  1 <1>  -0.6600 
 17 C      -11.1310     2.3140     0.8880 C.3   1 <1>   0.1400 
 18 C       -9.4300     2.8130    -0.8670 C.3   1 <1>   0.1400 
 19 C      -12.1120     2.0080    -0.2550 C.3   1 <1>   0.1200 
 20 C      -10.5100     2.4630    -1.9040 C.3   1 <1>   0.1200 
 21 O      -11.4240     1.5440    -1.3820 O.3   1 <1>  -0.5600 
 22 H       -3.1650     2.3370    -3.3300 H     1 <1>   0.1500 
 23 H       -1.7330     0.7160     0.3290 H     1 <1>   0.1500 
 24 H       -5.0160     3.4290    -2.1290 H     1 <1>   0.1500 
 25 H       -3.5760     1.7970     1.5420 H     1 <1>   0.1500 
 26 H       -8.5380     5.5280    -0.1400 H     1 <1>   0.0800 
 27 H       -8.3870     5.9780     1.5420 H     1 <1>   0.0800 
 28 H      -11.6750     2.7420     1.7110 H     1 <1>   0.0800 
 29 H      -10.6900     1.3940     1.2290 H     1 <1>   0.0800 
 30 H       -8.8090     1.9490    -0.6980 H     1 <1>   0.0800 
 31 H       -8.8120     3.5910    -1.2740 H     1 <1>   0.0800 
 32 H      -12.6670     2.8890    -0.5240 H     1 <1>   0.0800 
 33 H      -12.8030     1.2410     0.0470 H     1 <1>   0.0800 
 34 H      -10.0590     2.0170    -2.7730 H     1 <1>   0.0800 
 35 H      -11.0460     3.3450    -2.2080 H     1 <1>   0.0800 
@<TRIPOS>BOND
  1   1   2  1   
  2   2   3  ar  
  3   2   4  ar  
  4   3   5  ar  
  5   3  22  1   
  6   4   6  ar  
  7   4  23  1   
  8   5   7  ar  
  9   5  24  1   
 10   6   7  ar  
 11   6  25  1   
 12   7   8  1   
 13   8   9  1   
 14   8  10  2   
 15   9  11  2   
 16  10  12  1   
 17  11  12  1   
 18  12  13  1   
 19  13  14  1   
 20  13  26  1   
 21  13  27  1   
 22  14  15  2   
 23  14  16  am  
 24  16  17  1   
 25  16  18  1   
 26  17  19  1   
 27  17  28  1   
 28  17  29  1   
 29  18  20  1   
 30  18  30  1   
 31  18  31  1   
 32  19  21  1   
 33  19  32  1   
 34  19  33  1   
 35  20  21  1   
 36  20  34  1   
 37  20  35  1   
@<TRIPOS>SUBSTRUCTURE
  1 ****  10 GROUP 4 **** **** 0

# MOE 2024.06 (io_trps.svl 2023.06)
