@<TRIPOS>MOLECULE
NONAME
30 31 1 0 0 
SMALL
USER_CHARGES


@<TRIPOS>ATOM
  1 S       -0.1710    -0.2550     0.1950 S.o2  1 <1>   1.4470 
  2 O       -0.2450    -0.6410     1.5850 O.2   1 <1>  -0.6500 
  3 O       -0.2690    -1.2450    -0.8510 O.2   1 <1>  -0.6500 
  4 N       -1.4350     0.8010    -0.1150 N.am  1 <1>  -0.9140 
  5 C        1.2970     0.7810    -0.0680 C.ar  1 <1>  -0.0090 
  6 C       -2.6290     0.5840     0.6740 C.3   1 <1>   0.2760 
  7 C        2.2880     0.4060    -0.9730 C.ar  1 <1>  -0.1500 
  8 C        1.4610     1.9740     0.6400 C.ar  1 <1>  -0.1500 
  9 C       -3.3800    -0.6590     0.1970 C.3   1 <1>  -0.1600 
 10 C       -3.6060     1.7040     0.3380 C.3   1 <1>  -0.1600 
 11 C        3.3970     1.2110    -1.1520 C.ar  1 <1>   0.1900 
 12 C        2.5750     2.7840     0.4620 C.ar  1 <1>  -0.1500 
 13 C       -4.1260    -0.2330    -1.0720 C.3   1 <1>  -0.1600 
 14 C       -4.2920     1.2880    -0.9700 C.3   1 <1>  -0.1600 
 15 F        4.3130     0.8380    -2.0090 F     1 <1>  -0.1900 
 16 C        3.5410     2.3900    -0.4430 C.ar  1 <1>   0.1900 
 17 F        4.5930     3.1480    -0.6170 F     1 <1>  -0.1900 
 18 H       -1.7030     0.5890    -1.0740 H     1 <1>   0.4200 
 19 H       -2.4020     0.5600     1.7290 H     1 <1>   0.0800 
 20 H        2.1980    -0.5080    -1.5370 H     1 <1>   0.1500 
 21 H        0.7000     2.2700     1.3440 H     1 <1>   0.1500 
 22 H       -4.1040    -0.9180     0.9500 H     1 <1>   0.0800 
 23 H       -2.7490    -1.5160     0.0410 H     1 <1>   0.0800 
 24 H       -3.1200     2.6620     0.2670 H     1 <1>   0.0800 
 25 H       -4.3450     1.7540     1.1180 H     1 <1>   0.0800 
 26 H        2.6920     3.7020     1.0120 H     1 <1>   0.1500 
 27 H       -5.0790    -0.7310    -1.1420 H     1 <1>   0.0800 
 28 H       -3.5420    -0.4800    -1.9420 H     1 <1>   0.0800 
 29 H       -3.8090     1.7640    -1.8060 H     1 <1>   0.0800 
 30 H       -5.3310     1.5710    -0.9630 H     1 <1>   0.0800 
@<TRIPOS>BOND
  1   1   2  2   
  2   1   3  2   
  3   1   4  am  
  4   1   5  1   
  5   4   6  1   
  6   4  18  1   
  7   5   7  ar  
  8   5   8  ar  
  9   6   9  1   
 10   6  10  1   
 11   6  19  1   
 12   7  11  ar  
 13   7  20  1   
 14   8  12  ar  
 15   8  21  1   
 16   9  13  1   
 17   9  22  1   
 18   9  23  1   
 19  10  14  1   
 20  10  24  1   
 21  10  25  1   
 22  11  15  1   
 23  11  16  ar  
 24  12  16  ar  
 25  12  26  1   
 26  13  14  1   
 27  13  27  1   
 28  13  28  1   
 29  14  29  1   
 30  14  30  1   
 31  16  17  1   
@<TRIPOS>SUBSTRUCTURE
  1 ****   5 GROUP 4 **** **** 0

# MOE 2024.06 (io_trps.svl 2023.06)
