@<TRIPOS>MOLECULE
NONAME
49 51 1 0 0 
SMALL
USER_CHARGES


@<TRIPOS>ATOM
  1 O       -0.0260    -0.0570     0.4680 O.2   1 <1>  -0.5700 
  2 C        0.0090    -1.2350     0.1730 C.2   1 <1>   0.5440 
  3 N        1.1610    -1.7810    -0.3480 N.am  1 <1>  -0.5470 
  4 C       -1.1670    -2.0710     0.3320 C.ar  1 <1>   0.0860 
  5 C        2.4370    -1.2280    -0.5310 C.ar  1 <1>   0.1170 
  6 C       -2.4470    -1.5510     0.1480 C.ar  1 <1>  -0.1500 
  7 C       -1.0710    -3.4220     0.6670 C.ar  1 <1>  -0.1500 
  8 C        3.2630    -1.7500    -1.5190 C.ar  1 <1>  -0.1500 
  9 C        2.9240    -0.1810     0.2440 C.ar  1 <1>  -0.1500 
 10 C       -3.5850    -2.3310     0.2720 C.ar  1 <1>  -0.1440 
 11 C       -2.1980    -4.2110     0.7930 C.ar  1 <1>  -0.1500 
 12 C        4.5310    -1.2390    -1.7350 C.ar  1 <1>  -0.1500 
 13 C        4.1870     0.3380     0.0310 C.ar  1 <1>  -0.1500 
 14 C       -3.4610    -3.6770     0.5940 C.ar  1 <1>  -0.1430 
 15 C       -4.9480    -1.6880     0.0520 C.3   1 <1>  -0.0970 
 16 C        5.0030    -0.1900    -0.9580 C.ar  1 <1>  -0.1430 
 17 C       -4.6790    -4.5770     0.7410 C.3   1 <1>  -0.0970 
 18 C        6.3920     0.3740    -1.1850 C.3   1 <1>   0.4860 
 19 N        7.2610    -0.0470    -0.0540 N.4   1 <1>  -0.9590 
 20 C        8.5930     0.6490    -0.0790 C.3   1 <1>   0.3430 
 21 C        7.4350    -1.5420    -0.0100 C.3   1 <1>   0.3430 
 22 C        9.5240     0.1220     1.0300 C.3   1 <1>   0.1200 
 23 C        8.4260    -1.9630     1.0920 C.3   1 <1>   0.1200 
 24 O        9.6320    -1.2690     0.9500 O.3   1 <1>  -0.5600 
 25 H        1.0230    -2.7000    -0.7640 H     1 <1>   0.3700 
 26 H       -2.5360    -0.5070    -0.0980 H     1 <1>   0.1500 
 27 H       -0.1060    -3.8620     0.8440 H     1 <1>   0.1500 
 28 H        2.9050    -2.5570    -2.1330 H     1 <1>   0.1500 
 29 H        2.3070     0.2380     1.0190 H     1 <1>   0.1500 
 30 H       -2.0870    -5.2500     1.0520 H     1 <1>   0.1500 
 31 H        5.1350    -1.6650    -2.5180 H     1 <1>   0.1500 
 32 H        4.5110     1.1610     0.6450 H     1 <1>   0.1500 
 33 H       -4.8490    -0.6430    -0.1810 H     1 <1>   0.0800 
 34 H       -5.5450    -1.7790     0.9420 H     1 <1>   0.0800 
 35 H       -5.4560    -2.1700    -0.7630 H     1 <1>   0.0800 
 36 H       -5.3160    -4.2110     1.5270 H     1 <1>   0.0800 
 37 H       -4.3900    -5.5840     0.9850 H     1 <1>   0.0800 
 38 H       -5.2350    -4.6000    -0.1790 H     1 <1>   0.0800 
 39 H        6.3330     1.4500    -1.2300 H     1 <1>   0.0800 
 40 H        6.7910     0.0140    -2.1190 H     1 <1>   0.0800 
 41 H        6.7690     0.2180     0.8080 H     1 <1>   0.4500 
 42 H        8.4600     1.7110     0.0440 H     1 <1>   0.0800 
 43 H        9.0750     0.4810    -1.0280 H     1 <1>   0.0800 
 44 H        7.8140    -1.8930    -0.9560 H     1 <1>   0.0800 
 45 H        6.4840    -2.0200     0.1640 H     1 <1>   0.0800 
 46 H        9.1590     0.3870     2.0080 H     1 <1>   0.0800 
 47 H       10.5120     0.5330     0.9120 H     1 <1>   0.0800 
 48 H        8.6420    -3.0150     1.0140 H     1 <1>   0.0800 
 49 H        8.0250    -1.7680     2.0720 H     1 <1>   0.0800 
@<TRIPOS>BOND
  1   1   2  2   
  2   2   3  am  
  3   2   4  1   
  4   3   5  1   
  5   3  25  1   
  6   4   6  ar  
  7   4   7  ar  
  8   5   8  ar  
  9   5   9  ar  
 10   6  10  ar  
 11   6  26  1   
 12   7  11  ar  
 13   7  27  1   
 14   8  12  ar  
 15   8  28  1   
 16   9  13  ar  
 17   9  29  1   
 18  10  14  ar  
 19  10  15  1   
 20  11  14  ar  
 21  11  30  1   
 22  12  16  ar  
 23  12  31  1   
 24  13  16  ar  
 25  13  32  1   
 26  14  17  1   
 27  15  33  1   
 28  15  34  1   
 29  15  35  1   
 30  16  18  1   
 31  17  36  1   
 32  17  37  1   
 33  17  38  1   
 34  18  19  1   
 35  18  39  1   
 36  18  40  1   
 37  19  20  1   
 38  19  21  1   
 39  19  41  1   
 40  20  22  1   
 41  20  42  1   
 42  20  43  1   
 43  21  23  1   
 44  21  44  1   
 45  21  45  1   
 46  22  24  1   
 47  22  46  1   
 48  22  47  1   
 49  23  24  1   
 50  23  48  1   
 51  23  49  1   
@<TRIPOS>SUBSTRUCTURE
  1 ****   5 GROUP 4 **** **** 0

# MOE 2024.06 (io_trps.svl 2023.06)
