@<TRIPOS>MOLECULE
NONAME
44 44 1 0 0 
SMALL
USER_CHARGES


@<TRIPOS>ATOM
  1 O        1.4370     1.6990     1.4020 O.2   1 <1>  -0.5700 
  2 C        0.5320     1.8690     0.6190 C.2   1 <1>   0.5690 
  3 N        0.7150     1.6540    -0.7130 N.am  1 <1>  -0.7300 
  4 C       -0.8230     2.3560     1.1230 C.3   1 <1>   0.1810 
  5 C        1.8440     0.9380    -1.3760 C.3   1 <1>   0.1400 
  6 O       -1.7040     2.5830     0.0330 O.3   1 <1>  -0.3620 
  7 C        3.1160     1.8040    -1.4880 C.3   1 <1>   0.3430 
  8 C       -2.9760     2.9070     0.3490 C.ar  1 <1>   0.0830 
  9 N        3.6860     2.1320    -0.1450 N.4   1 <1>  -0.9590 
 10 C       -4.0200     2.0350     0.0450 C.ar  1 <1>  -0.1430 
 11 C       -3.2240     4.1230     0.9700 C.ar  1 <1>  -0.1500 
 12 C        4.4190     3.4300    -0.1400 C.3   1 <1>   0.2630 
 13 C        4.5160     1.0250     0.4170 C.3   1 <1>   0.2630 
 14 C       -5.3180     2.3940     0.3970 C.ar  1 <1>  -0.1430 
 15 C       -3.7550     0.7030    -0.6550 C.3   1 <1>  -0.0970 
 16 C       -4.5140     4.4760     1.3170 C.ar  1 <1>  -0.1430 
 17 C       -5.5510     3.6070     1.0280 C.ar  1 <1>  -0.1500 
 18 C       -6.5060     1.4860     0.1050 C.3   1 <1>  -0.0970 
 19 C       -4.8010     5.8010     1.9990 C.3   1 <1>  -0.0970 
 20 H       -0.1120     1.8370    -1.2990 H     1 <1>   0.3700 
 21 H       -0.7000     3.2740     1.6660 H     1 <1>   0.0800 
 22 H       -1.2620     1.6130     1.7630 H     1 <1>   0.0800 
 23 H        1.5300     0.6530    -2.3660 H     1 <1>   0.0800 
 24 H        2.0630     0.0340    -0.8330 H     1 <1>   0.0800 
 25 H        2.8550     2.7120    -2.0060 H     1 <1>   0.0800 
 26 H        3.8550     1.2880    -2.0790 H     1 <1>   0.0800 
 27 H        2.8590     2.2160     0.4910 H     1 <1>   0.4500 
 28 H       -2.4110     4.7930     1.1740 H     1 <1>   0.1500 
 29 H        5.2790     3.3780    -0.7870 H     1 <1>   0.0800 
 30 H        4.7500     3.6650     0.8590 H     1 <1>   0.0800 
 31 H        3.7740     4.2230    -0.4810 H     1 <1>   0.0800 
 32 H        5.3780     0.8460    -0.2050 H     1 <1>   0.0800 
 33 H        3.9350     0.1200     0.4810 H     1 <1>   0.0800 
 34 H        4.8500     1.2820     1.4090 H     1 <1>   0.0800 
 35 H       -2.7300     0.5960    -0.9530 H     1 <1>   0.0800 
 36 H       -4.3600     0.6270    -1.5400 H     1 <1>   0.0800 
 37 H       -3.9990    -0.1100     0.0050 H     1 <1>   0.0800 
 38 H       -6.5550     3.8850     1.2980 H     1 <1>   0.1500 
 39 H       -6.3540     0.5210     0.5530 H     1 <1>   0.0800 
 40 H       -6.6260     1.3680    -0.9560 H     1 <1>   0.0800 
 41 H       -7.4150     1.9000     0.5020 H     1 <1>   0.0800 
 42 H       -3.8970     6.2410     2.3780 H     1 <1>   0.0800 
 43 H       -5.4780     5.6540     2.8210 H     1 <1>   0.0800 
 44 H       -5.2490     6.4810     1.2970 H     1 <1>   0.0800 
@<TRIPOS>BOND
  1   1   2  2   
  2   2   3  am  
  3   2   4  1   
  4   3   5  1   
  5   3  20  1   
  6   4   6  1   
  7   4  21  1   
  8   4  22  1   
  9   5   7  1   
 10   5  23  1   
 11   5  24  1   
 12   6   8  1   
 13   7   9  1   
 14   7  25  1   
 15   7  26  1   
 16   8  10  ar  
 17   8  11  ar  
 18   9  12  1   
 19   9  13  1   
 20   9  27  1   
 21  10  14  ar  
 22  10  15  1   
 23  11  16  ar  
 24  11  28  1   
 25  12  29  1   
 26  12  30  1   
 27  12  31  1   
 28  13  32  1   
 29  13  33  1   
 30  13  34  1   
 31  14  17  ar  
 32  14  18  1   
 33  15  35  1   
 34  15  36  1   
 35  15  37  1   
 36  16  17  ar  
 37  16  19  1   
 38  17  38  1   
 39  18  39  1   
 40  18  40  1   
 41  18  41  1   
 42  19  42  1   
 43  19  43  1   
 44  19  44  1   
@<TRIPOS>SUBSTRUCTURE
  1 ****   6 GROUP 4 **** **** 0

# MOE 2024.06 (io_trps.svl 2023.06)
