@<TRIPOS>MOLECULE
NONAME
35 36 1 0 0 
SMALL
USER_CHARGES


@<TRIPOS>ATOM
  1 O       -7.8050     2.1130     2.6750 O.2   1 <1>  -0.5700 
  2 C       -6.7300     1.8340     2.1630 C.2   1 <1>   0.4240 
  3 C       -6.5650     0.9480     1.0640 C.ar  1 <1>   0.0860 
  4 C       -5.2790     0.6320     0.5650 C.ar  1 <1>  -0.1710 
  5 C       -7.6780     0.3430     0.4630 C.ar  1 <1>  -0.1500 
  6 O       -4.2940     1.1070     1.1770 O.3   1 <1>  -0.8290 
  7 C       -5.1650    -0.2240    -0.5760 C.ar  1 <1>   0.0830 
  8 C       -7.5540    -0.5240    -0.5940 C.ar  1 <1>  -0.1440 
  9 O       -3.9990    -0.5730    -1.2020 O.3   1 <1>  -0.3630 
 10 C       -6.2880    -0.7790    -1.1250 C.ar  1 <1>  -0.1500 
 11 C       -8.7510    -1.2540    -1.1500 C.3   1 <1>   0.4870 
 12 C       -2.7970     0.0910    -0.8840 C.3   1 <1>   0.0400 
 13 N       -9.1110    -2.3320    -0.1870 N.4   1 <1>  -0.9590 
 14 C       -7.9460    -3.2020     0.2070 C.3   1 <1>   0.3430 
 15 C      -10.2950    -3.1500    -0.6080 C.3   1 <1>   0.3430 
 16 C       -8.3560    -4.2250     1.2910 C.3   1 <1>   0.1200 
 17 C      -10.4800    -4.4030     0.2790 C.3   1 <1>   0.1200 
 18 O       -9.7500    -4.2820     1.4670 O.3   1 <1>  -0.5600 
 19 H       -5.8530     2.2940     2.5830 H     1 <1>   0.0600 
 20 H       -8.6430     0.5780     0.8770 H     1 <1>   0.1500 
 21 H       -6.1690    -1.4250    -1.9750 H     1 <1>   0.1500 
 22 H       -8.5060    -1.6730    -2.1120 H     1 <1>   0.0800 
 23 H       -9.5720    -0.5650    -1.2670 H     1 <1>   0.0800 
 24 H       -2.0400    -0.2190    -1.5780 H     1 <1>   0.0800 
 25 H       -2.5150    -0.1730     0.1200 H     1 <1>   0.0800 
 26 H       -2.9600     1.1530    -0.9530 H     1 <1>   0.0800 
 27 H       -9.3710    -1.8700     0.6970 H     1 <1>   0.4500 
 28 H       -7.1350    -2.6010     0.5900 H     1 <1>   0.0800 
 29 H       -7.5750    -3.7300    -0.6550 H     1 <1>   0.0800 
 30 H      -10.1840    -3.4660    -1.6320 H     1 <1>   0.0800 
 31 H      -11.1870    -2.5480    -0.5500 H     1 <1>   0.0800 
 32 H       -7.9230    -3.9470     2.2370 H     1 <1>   0.0800 
 33 H       -8.0000    -5.2080     1.0370 H     1 <1>   0.0800 
 34 H      -10.1500    -5.2890    -0.2370 H     1 <1>   0.0800 
 35 H      -11.5180    -4.5290     0.5350 H     1 <1>   0.0800 
@<TRIPOS>BOND
  1   1   2  2   
  2   2   3  1   
  3   2  19  1   
  4   3   4  ar  
  5   3   5  ar  
  6   4   6  1   
  7   4   7  ar  
  8   5   8  ar  
  9   5  20  1   
 10   7   9  1   
 11   7  10  ar  
 12   8  10  ar  
 13   8  11  1   
 14   9  12  1   
 15  10  21  1   
 16  11  13  1   
 17  11  22  1   
 18  11  23  1   
 19  12  24  1   
 20  12  25  1   
 21  12  26  1   
 22  13  14  1   
 23  13  15  1   
 24  13  27  1   
 25  14  16  1   
 26  14  28  1   
 27  14  29  1   
 28  15  17  1   
 29  15  30  1   
 30  15  31  1   
 31  16  18  1   
 32  16  32  1   
 33  16  33  1   
 34  17  18  1   
 35  17  34  1   
 36  17  35  1   
@<TRIPOS>SUBSTRUCTURE
  1 ****   8 GROUP 4 **** **** 0

# MOE 2024.06 (io_trps.svl 2023.06)
