@<TRIPOS>MOLECULE
NONAME
31 31 1 0 0 
SMALL
USER_CHARGES


@<TRIPOS>ATOM
  1 O       -0.3860    -0.0850     1.5410 O.2   1 <1>  -0.5700 
  2 C       -0.7820     0.7440     0.7480 C.2   1 <1>   0.7060 
  3 O        0.0540     1.6750     0.2810 O.3   1 <1>  -0.4300 
  4 C       -2.1290     0.7890     0.2650 C.2   1 <1>  -0.1360 
  5 C        1.4220     1.7520     0.6430 C.3   1 <1>   0.1200 
  6 C       -3.1450    -0.0440     0.5940 C.2   1 <1>  -0.1780 
  7 C        2.3040     1.2590    -0.5170 C.3   1 <1>  -0.0800 
  8 C       -4.5110    -0.0360     0.1330 C.ar  1 <1>   0.0280 
  9 C        2.0330    -0.2110    -0.8700 C.3   1 <1>  -0.2400 
 10 C        3.7850     1.4330    -0.1570 C.3   1 <1>  -0.2400 
 11 C       -5.4120    -0.9790     0.6250 C.ar  1 <1>  -0.1500 
 12 C       -4.9930     0.8850    -0.7980 C.ar  1 <1>  -0.1500 
 13 C       -6.7310    -1.0060     0.2100 C.ar  1 <1>  -0.1500 
 14 C       -6.3100     0.8640    -1.2180 C.ar  1 <1>  -0.1500 
 15 C       -7.1840    -0.0830    -0.7150 C.ar  1 <1>  -0.1500 
 16 H       -2.2860     1.5910    -0.4270 H     1 <1>   0.1500 
 17 H        1.6360     2.7850     0.8530 H     1 <1>   0.0800 
 18 H        1.6030     1.1800     1.5370 H     1 <1>   0.0800 
 19 H       -2.9310    -0.8330     1.2960 H     1 <1>   0.1500 
 20 H        2.0970     1.8690    -1.3800 H     1 <1>   0.0800 
 21 H        2.1740    -0.8390    -0.0080 H     1 <1>   0.0800 
 22 H        2.6970    -0.5400    -1.6490 H     1 <1>   0.0800 
 23 H        1.0240    -0.3350    -1.2200 H     1 <1>   0.0800 
 24 H        4.0390     0.8370     0.7030 H     1 <1>   0.0800 
 25 H        3.9990     2.4640     0.0640 H     1 <1>   0.0800 
 26 H        4.4080     1.1300    -0.9800 H     1 <1>   0.0800 
 27 H       -5.0770    -1.7050     1.3440 H     1 <1>   0.1500 
 28 H       -4.3380     1.6300    -1.2070 H     1 <1>   0.1500 
 29 H       -7.4060    -1.7450     0.6050 H     1 <1>   0.1500 
 30 H       -6.6590     1.5840    -1.9380 H     1 <1>   0.1500 
 31 H       -8.2100    -0.1000    -1.0400 H     1 <1>   0.1500 
@<TRIPOS>BOND
  1   1   2  2   
  2   2   3  1   
  3   2   4  1   
  4   3   5  1   
  5   4   6  2   
  6   4  16  1   
  7   5   7  1   
  8   5  17  1   
  9   5  18  1   
 10   6   8  1   
 11   6  19  1   
 12   7   9  1   
 13   7  10  1   
 14   7  20  1   
 15   8  11  ar  
 16   8  12  ar  
 17   9  21  1   
 18   9  22  1   
 19   9  23  1   
 20  10  24  1   
 21  10  25  1   
 22  10  26  1   
 23  11  13  ar  
 24  11  27  1   
 25  12  14  ar  
 26  12  28  1   
 27  13  15  ar  
 28  13  29  1   
 29  14  15  ar  
 30  14  30  1   
 31  15  31  1   
@<TRIPOS>SUBSTRUCTURE
  1 ****   4 GROUP 4 **** **** 0

# MOE 2024.06 (io_trps.svl 2023.06)
