@<TRIPOS>MOLECULE
NONAME
32 32 1 0 0 
SMALL
USER_CHARGES


@<TRIPOS>ATOM
  1 CL      -2.6840     1.5400    -1.5790 Cl    1 <1>  -0.1770 
  2 C       -1.4780     2.5010    -0.7610 C.ar  1 <1>   0.1770 
  3 C       -0.3550     2.9080    -1.4500 C.ar  1 <1>  -0.1500 
  4 C       -1.6680     2.8330     0.5670 C.ar  1 <1>  -0.1500 
  5 C        0.6300     3.6690    -0.8200 C.ar  1 <1>   0.0860 
  6 C       -0.7120     3.6000     1.2040 C.ar  1 <1>  -0.1500 
  7 C        0.4170     4.0320     0.5220 C.ar  1 <1>   0.0830 
  8 C        1.8180     4.0180    -1.5640 C.2   1 <1>   0.5440 
  9 O        1.2760     4.8010     1.2270 O.3   1 <1>  -0.3620 
 10 O        1.7640     4.8150    -2.4760 O.2   1 <1>  -0.5700 
 11 N        3.0360     3.4720    -1.3070 N.am  1 <1>  -0.7300 
 12 C        1.7030     6.0410     0.6980 C.3   1 <1>   0.0400 
 13 C        3.3890     2.4830    -0.2790 C.3   1 <1>   0.2200 
 14 C        4.4560     3.1010     0.6340 C.3   1 <1>  -0.1600 
 15 C        3.8730     1.2270    -0.9990 C.3   1 <1>  -0.2400 
 16 C        4.8100     2.2170     1.8380 C.3   1 <1>  -0.2400 
 17 H       -0.2340     2.6320    -2.4820 H     1 <1>   0.1500 
 18 H       -2.5490     2.4970     1.0840 H     1 <1>   0.1500 
 19 H       -0.8380     3.8770     2.2360 H     1 <1>   0.1500 
 20 H        3.7960     3.7730    -1.9180 H     1 <1>   0.3700 
 21 H        1.9410     6.6910     1.5200 H     1 <1>   0.0800 
 22 H        0.9110     6.4700     0.1090 H     1 <1>   0.0800 
 23 H        2.5800     5.8870     0.0960 H     1 <1>   0.0800 
 24 H        2.5190     2.2410     0.3090 H     1 <1>   0.0800 
 25 H        4.0810     4.0370     1.0100 H     1 <1>   0.0800 
 26 H        5.3490     3.3010     0.0670 H     1 <1>   0.0800 
 27 H        4.7760     1.4270    -1.5480 H     1 <1>   0.0800 
 28 H        3.1150     0.8770    -1.6770 H     1 <1>   0.0800 
 29 H        4.0690     0.4430    -0.2910 H     1 <1>   0.0800 
 30 H        3.9250     1.9830     2.4050 H     1 <1>   0.0800 
 31 H        5.4970     2.7370     2.4820 H     1 <1>   0.0800 
 32 H        5.2760     1.3010     1.5220 H     1 <1>   0.0800 
@<TRIPOS>BOND
  1   1   2  1   
  2   2   3  ar  
  3   2   4  ar  
  4   3   5  ar  
  5   3  17  1   
  6   4   6  ar  
  7   4  18  1   
  8   5   7  ar  
  9   5   8  1   
 10   6   7  ar  
 11   6  19  1   
 12   7   9  1   
 13   8  10  2   
 14   8  11  am  
 15   9  12  1   
 16  11  13  1   
 17  11  20  1   
 18  12  21  1   
 19  12  22  1   
 20  12  23  1   
 21  13  14  1   
 22  13  15  1   
 23  13  24  1   
 24  14  16  1   
 25  14  25  1   
 26  14  26  1   
 27  15  27  1   
 28  15  28  1   
 29  15  29  1   
 30  16  30  1   
 31  16  31  1   
 32  16  32  1   
@<TRIPOS>SUBSTRUCTURE
  1 ****   5 GROUP 4 **** **** 0

# MOE 2024.06 (io_trps.svl 2023.06)
