@<TRIPOS>MOLECULE
NONAME
44 44 1 0 0 
SMALL
USER_CHARGES


@<TRIPOS>ATOM
  1 O       -7.5990    -4.0510     0.3780 O.3   1 <1>  -0.3630 
  2 C       -8.9200    -4.2170     0.1190 C.ar  1 <1>   0.0830 
  3 C       -6.7310    -5.1580     0.4960 C.3   1 <1>   0.1200 
  4 C       -9.5220    -5.4570    -0.0810 C.ar  1 <1>  -0.1500 
  5 C       -9.6930    -3.0690     0.0570 C.ar  1 <1>  -0.1500 
  6 C       -5.3190    -4.6330     0.7870 C.3   1 <1>   0.2000 
  7 C      -10.8800    -5.5320    -0.3410 C.ar  1 <1>  -0.1500 
  8 C      -11.0490    -3.1490    -0.2020 C.ar  1 <1>  -0.1500 
  9 O       -4.9930    -3.6570    -0.1570 O.3   1 <1>  -0.6800 
 10 C       -4.2490    -5.7410     0.7380 C.3   1 <1>   0.3430 
 11 C      -11.6510    -4.3810    -0.4040 C.ar  1 <1>  -0.1440 
 12 N       -2.9130    -5.1340     0.4520 N.4   1 <1>  -0.9060 
 13 C      -13.1410    -4.4700    -0.6890 C.3   1 <1>  -0.0170 
 14 C       -1.8700    -5.9770    -0.1240 C.3   1 <1>   0.5030 
 15 C      -13.9300    -4.6030     0.6150 C.3   1 <1>  -0.2400 
 16 C       -0.6360    -5.0930    -0.2700 C.3   1 <1>  -0.2400 
 17 C       -2.3160    -6.4780    -1.4960 C.3   1 <1>  -0.2400 
 18 C       -1.5740    -7.1400     0.8210 C.3   1 <1>  -0.2400 
 19 H       -6.7530    -5.7050    -0.4310 H     1 <1>   0.0800 
 20 H       -7.0830    -5.7800     1.3010 H     1 <1>   0.0800 
 21 H       -8.9640    -6.3710    -0.0420 H     1 <1>   0.1500 
 22 H       -9.2310    -2.1110     0.2140 H     1 <1>   0.1500 
 23 H       -5.3140    -4.1660     1.7570 H     1 <1>   0.0800 
 24 H      -11.3400    -6.4930    -0.4930 H     1 <1>   0.1500 
 25 H      -11.6360    -2.2490    -0.2450 H     1 <1>   0.1500 
 26 H       -5.7870    -3.0850    -0.2950 H     1 <1>   0.4000 
 27 H       -4.5120    -6.4240    -0.0520 H     1 <1>   0.0800 
 28 H       -4.2320    -6.2920     1.6640 H     1 <1>   0.0800 
 29 H       -2.5480    -4.6660     1.2840 H     1 <1>   0.4500 
 30 H       -3.1270    -4.3690    -0.2110 H     1 <1>   0.4500 
 31 H      -13.3410    -5.3180    -1.3210 H     1 <1>   0.0800 
 32 H      -13.4620    -3.5880    -1.2170 H     1 <1>   0.0800 
 33 H      -13.6290    -5.4920     1.1410 H     1 <1>   0.0800 
 34 H      -14.9830    -4.6630     0.4070 H     1 <1>   0.0800 
 35 H      -13.7490    -3.7520     1.2460 H     1 <1>   0.0800 
 36 H       -0.8300    -4.2610    -0.9230 H     1 <1>   0.0800 
 37 H        0.1730    -5.6610    -0.6970 H     1 <1>   0.0800 
 38 H       -0.3060    -4.7240     0.6850 H     1 <1>   0.0800 
 39 H       -2.5880    -5.6580    -2.1370 H     1 <1>   0.0800 
 40 H       -3.1420    -7.1610    -1.4220 H     1 <1>   0.0800 
 41 H       -1.5070    -7.0090    -1.9680 H     1 <1>   0.0800 
 42 H       -1.2970    -6.7850     1.7970 H     1 <1>   0.0800 
 43 H       -0.7510    -7.7170     0.4370 H     1 <1>   0.0800 
 44 H       -2.4160    -7.8030     0.9080 H     1 <1>   0.0800 
@<TRIPOS>BOND
  1   1   2  1   
  2   1   3  1   
  3   2   4  ar  
  4   2   5  ar  
  5   3   6  1   
  6   3  19  1   
  7   3  20  1   
  8   4   7  ar  
  9   4  21  1   
 10   5   8  ar  
 11   5  22  1   
 12   6   9  1   
 13   6  10  1   
 14   6  23  1   
 15   7  11  ar  
 16   7  24  1   
 17   8  11  ar  
 18   8  25  1   
 19   9  26  1   
 20  10  12  1   
 21  10  27  1   
 22  10  28  1   
 23  11  13  1   
 24  12  14  1   
 25  12  29  1   
 26  12  30  1   
 27  13  15  1   
 28  13  31  1   
 29  13  32  1   
 30  14  16  1   
 31  14  17  1   
 32  14  18  1   
 33  15  33  1   
 34  15  34  1   
 35  15  35  1   
 36  16  36  1   
 37  16  37  1   
 38  16  38  1   
 39  17  39  1   
 40  17  40  1   
 41  17  41  1   
 42  18  42  1   
 43  18  43  1   
 44  18  44  1   
@<TRIPOS>SUBSTRUCTURE
  1 ****   3 GROUP 4 **** **** 0

# MOE 2024.06 (io_trps.svl 2023.06)
