@<TRIPOS>MOLECULE
NONAME
44 46 1 0 0 
SMALL
USER_CHARGES


@<TRIPOS>ATOM
  1 F       -2.9860    -0.1160     3.1310 F     1 <1>  -0.1900 
  2 C       -3.0560     0.6280     2.0580 C.ar  1 <1>   0.1900 
  3 C       -2.2190     1.7190     1.9010 C.ar  1 <1>   0.1900 
  4 C       -3.9860     0.3020     1.0880 C.ar  1 <1>  -0.1500 
  5 F       -1.3430     2.0230     2.8240 F     1 <1>  -0.1900 
  6 C       -2.2950     2.5060     0.7680 C.ar  1 <1>  -0.1500 
  7 C       -4.0790     1.0920    -0.0540 C.ar  1 <1>  -0.1440 
  8 C       -3.2290     2.1860    -0.2080 C.ar  1 <1>  -0.1500 
  9 C       -5.1020     0.7630    -1.1280 C.3   1 <1>   0.4870 
 10 N       -6.4560     1.1300    -0.6340 N.4   1 <1>  -0.9590 
 11 C       -7.5380     0.6520    -1.5720 C.3   1 <1>   0.3430 
 12 C       -6.5790     2.6180    -0.3840 C.3   1 <1>   0.3430 
 13 C       -8.9530     1.0450    -1.0970 C.3   1 <1>   0.2090 
 14 C       -7.9860     3.0250     0.0980 C.3   1 <1>   0.2090 
 15 N       -9.0320     2.5100    -0.8320 N.pl3 1 <1>  -0.8380 
 16 C      -10.3130     3.0080    -0.6210 C.ar  1 <1>   0.1000 
 17 C      -11.0410     2.6800     0.5160 C.ar  1 <1>  -0.1500 
 18 C      -10.8870     3.8510    -1.5620 C.ar  1 <1>  -0.1500 
 19 C      -12.3150     3.1800     0.7150 C.ar  1 <1>   0.0830 
 20 C      -12.1600     4.3580    -1.3740 C.ar  1 <1>  -0.1500 
 21 O      -12.9440     2.8020     1.8570 O.3   1 <1>  -0.3620 
 22 C      -12.8780     4.0260    -0.2370 C.ar  1 <1>  -0.1500 
 23 C      -14.2450     3.2550     2.1570 C.3   1 <1>   0.0400 
 24 H       -4.6110    -0.5610     1.2430 H     1 <1>   0.1500 
 25 H       -1.6330     3.3480     0.6570 H     1 <1>   0.1500 
 26 H       -3.2770     2.8030    -1.0920 H     1 <1>   0.1500 
 27 H       -5.0600    -0.2920    -1.3460 H     1 <1>   0.0800 
 28 H       -4.8760     1.3050    -2.0320 H     1 <1>   0.0800 
 29 H       -6.5910     0.6660     0.2720 H     1 <1>   0.4500 
 30 H       -7.4910    -0.4200    -1.6760 H     1 <1>   0.0800 
 31 H       -7.3870     1.0860    -2.5470 H     1 <1>   0.0800 
 32 H       -6.3740     3.1550    -1.2950 H     1 <1>   0.0800 
 33 H       -5.8560     2.9290     0.3530 H     1 <1>   0.0800 
 34 H       -9.2080     0.4990    -0.2060 H     1 <1>   0.0800 
 35 H       -9.6710     0.7870    -1.8580 H     1 <1>   0.0800 
 36 H       -8.0530     4.0990     0.1420 H     1 <1>   0.0800 
 37 H       -8.1600     2.6440     1.0900 H     1 <1>   0.0800 
 38 H      -10.6230     2.0310     1.2590 H     1 <1>   0.1500 
 39 H      -10.3280     4.1080    -2.4430 H     1 <1>   0.1500 
 40 H      -12.5930     5.0110    -2.1110 H     1 <1>   0.1500 
 41 H      -13.8640     4.4320    -0.1140 H     1 <1>   0.1500 
 42 H      -14.5380     2.8310     3.1010 H     1 <1>   0.0800 
 43 H      -14.9170     2.9250     1.3850 H     1 <1>   0.0800 
 44 H      -14.2340     4.3280     2.2270 H     1 <1>   0.0800 
@<TRIPOS>BOND
  1   1   2  1   
  2   2   3  ar  
  3   2   4  ar  
  4   3   5  1   
  5   3   6  ar  
  6   4   7  ar  
  7   4  24  1   
  8   6   8  ar  
  9   6  25  1   
 10   7   8  ar  
 11   7   9  1   
 12   8  26  1   
 13   9  10  1   
 14   9  27  1   
 15   9  28  1   
 16  10  11  1   
 17  10  12  1   
 18  10  29  1   
 19  11  13  1   
 20  11  30  1   
 21  11  31  1   
 22  12  14  1   
 23  12  32  1   
 24  12  33  1   
 25  13  15  1   
 26  13  34  1   
 27  13  35  1   
 28  14  15  1   
 29  14  36  1   
 30  14  37  1   
 31  15  16  1   
 32  16  17  ar  
 33  16  18  ar  
 34  17  19  ar  
 35  17  38  1   
 36  18  20  ar  
 37  18  39  1   
 38  19  21  1   
 39  19  22  ar  
 40  20  22  ar  
 41  20  40  1   
 42  21  23  1   
 43  22  41  1   
 44  23  42  1   
 45  23  43  1   
 46  23  44  1   
@<TRIPOS>SUBSTRUCTURE
  1 ****  14 GROUP 4 **** **** 0

# MOE 2024.06 (io_trps.svl 2023.06)
