@<TRIPOS>MOLECULE
NONAME
47 49 1 0 0 
SMALL
USER_CHARGES


@<TRIPOS>ATOM
  1 BR       1.3050    -2.8770     3.0310 Br    1 <1>  -0.1110 
  2 C        0.4100    -2.6720     1.3370 C.ar  1 <1>   0.1110 
  3 C        0.9490    -1.8690     0.3500 C.ar  1 <1>   0.1900 
  4 C       -0.7830    -3.3420     1.1340 C.ar  1 <1>  -0.1500 
  5 F        2.0750    -1.2390     0.5550 F     1 <1>  -0.1900 
  6 C        0.3080    -1.7190    -0.8650 C.ar  1 <1>  -0.1500 
  7 C       -1.4430    -3.1940    -0.0820 C.ar  1 <1>  -0.1440 
  8 C       -0.8910    -2.3870    -1.0760 C.ar  1 <1>  -0.1500 
  9 C       -2.7600    -3.9100    -0.3240 C.3   1 <1>   0.4870 
 10 N       -3.8690    -2.9290    -0.2040 N.4   1 <1>  -0.9590 
 11 C       -3.9830    -2.3640     1.1930 C.3   1 <1>   0.3430 
 12 C       -5.1880    -3.5140    -0.6460 C.3   1 <1>   0.3430 
 13 C       -5.1300    -1.3430     1.3230 C.3   1 <1>   0.2090 
 14 C       -6.3460    -2.5020    -0.5360 C.3   1 <1>   0.2090 
 15 N       -6.4200    -1.9160     0.8350 N.pl3 1 <1>  -0.8380 
 16 C       -7.5320    -1.0880     1.0440 C.ar  1 <1>   0.1000 
 17 C       -7.7210     0.1490     0.3990 C.ar  1 <1>   0.0830 
 18 C       -8.4930    -1.5270     1.9420 C.ar  1 <1>  -0.1500 
 19 O       -6.7630     0.5720    -0.4860 O.3   1 <1>  -0.3620 
 20 C       -8.8610     0.8990     0.6730 C.ar  1 <1>  -0.1500 
 21 C       -9.6220    -0.7750     2.2090 C.ar  1 <1>  -0.1500 
 22 C       -6.8720     1.8150    -1.1420 C.3   1 <1>   0.1200 
 23 C       -9.8060     0.4390     1.5740 C.ar  1 <1>  -0.1500 
 24 C       -5.6420     1.9890    -2.0280 C.3   1 <1>  -0.2400 
 25 H       -1.1690    -3.9660     1.9220 H     1 <1>   0.1500 
 26 H        0.7450    -1.0950    -1.6260 H     1 <1>   0.1500 
 27 H       -1.3800    -2.2710    -2.0290 H     1 <1>   0.1500 
 28 H       -2.8870    -4.7050     0.3940 H     1 <1>   0.0800 
 29 H       -2.7520    -4.3420    -1.3110 H     1 <1>   0.0800 
 30 H       -3.6540    -2.1360    -0.8210 H     1 <1>   0.4500 
 31 H       -3.0600    -1.8840     1.4740 H     1 <1>   0.0800 
 32 H       -4.1680    -3.1620     1.8930 H     1 <1>   0.0800 
 33 H       -5.4320    -4.3630    -0.0290 H     1 <1>   0.0800 
 34 H       -5.1190    -3.8530    -1.6660 H     1 <1>   0.0800 
 35 H       -4.8850    -0.4550     0.7670 H     1 <1>   0.0800 
 36 H       -5.2420    -1.0610     2.3560 H     1 <1>   0.0800 
 37 H       -7.2760    -2.9980    -0.7550 H     1 <1>   0.0800 
 38 H       -6.2130    -1.7210    -1.2640 H     1 <1>   0.0800 
 39 H       -8.3510    -2.4700     2.4360 H     1 <1>   0.1500 
 40 H       -9.0420     1.8460     0.2010 H     1 <1>   0.1500 
 41 H      -10.3570    -1.1340     2.9090 H     1 <1>   0.1500 
 42 H       -6.9170     2.5920    -0.3980 H     1 <1>   0.0800 
 43 H       -7.7700     1.8120    -1.7350 H     1 <1>   0.0800 
 44 H      -10.6850     1.0250     1.7800 H     1 <1>   0.1500 
 45 H       -4.7490     1.9810    -1.4290 H     1 <1>   0.0800 
 46 H       -5.6990     2.9320    -2.5410 H     1 <1>   0.0800 
 47 H       -5.5980     1.2050    -2.7610 H     1 <1>   0.0800 
@<TRIPOS>BOND
  1   1   2  1   
  2   2   3  ar  
  3   2   4  ar  
  4   3   5  1   
  5   3   6  ar  
  6   4   7  ar  
  7   4  25  1   
  8   6   8  ar  
  9   6  26  1   
 10   7   8  ar  
 11   7   9  1   
 12   8  27  1   
 13   9  10  1   
 14   9  28  1   
 15   9  29  1   
 16  10  11  1   
 17  10  12  1   
 18  10  30  1   
 19  11  13  1   
 20  11  31  1   
 21  11  32  1   
 22  12  14  1   
 23  12  33  1   
 24  12  34  1   
 25  13  15  1   
 26  13  35  1   
 27  13  36  1   
 28  14  15  1   
 29  14  37  1   
 30  14  38  1   
 31  15  16  1   
 32  16  17  ar  
 33  16  18  ar  
 34  17  19  1   
 35  17  20  ar  
 36  18  21  ar  
 37  18  39  1   
 38  19  22  1   
 39  20  23  ar  
 40  20  40  1   
 41  21  23  ar  
 42  21  41  1   
 43  22  24  1   
 44  22  42  1   
 45  22  43  1   
 46  23  44  1   
 47  24  45  1   
 48  24  46  1   
 49  24  47  1   
@<TRIPOS>SUBSTRUCTURE
  1 ****  11 GROUP 4 **** **** 0

# MOE 2024.06 (io_trps.svl 2023.06)
