@<TRIPOS>MOLECULE
NONAME
49 50 1 0 0 
SMALL
USER_CHARGES


@<TRIPOS>ATOM
  1 S        0.4840    -0.0800     0.2900 S.o2  1 <1>   1.3330 
  2 O        0.8760    -1.2150    -0.5150 O.2   1 <1>  -0.6500 
  3 O        0.0430    -0.2800     1.6520 O.2   1 <1>  -0.6500 
  4 N        1.7870     1.0040     0.3290 N.am  1 <1>  -0.8490 
  5 C       -0.7690     0.8330    -0.6180 C.3   1 <1>  -0.0550 
  6 C        3.0680     0.2960     0.4890 C.3   1 <1>   0.1960 
  7 C        1.6390     2.0180     1.3810 C.3   1 <1>   0.1960 
  8 C       -2.0790     0.0520    -0.8190 C.3   1 <1>  -0.1600 
  9 C        4.2440     1.2680     0.3320 C.3   1 <1>  -0.0190 
 10 C        2.7470     3.0700     1.2610 C.3   1 <1>  -0.1600 
 11 C       -3.1080     0.8790    -1.5960 C.3   1 <1>  -0.2400 
 12 C        5.5480     0.5000     0.4790 C.2   1 <1>   0.5690 
 13 C        4.1370     2.4240     1.3440 C.3   1 <1>  -0.1600 
 14 O        5.7580    -0.0960     1.5080 O.2   1 <1>  -0.5700 
 15 N        6.4260     0.5150    -0.5670 N.am  1 <1>  -0.5470 
 16 C        7.6450    -0.1660    -0.6850 C.ar  1 <1>   0.1170 
 17 C        7.7320    -1.5600    -0.7060 C.ar  1 <1>  -0.1440 
 18 C        8.8080     0.5830    -0.8140 C.ar  1 <1>  -0.1500 
 19 C        8.9710    -2.1660    -0.8440 C.ar  1 <1>  -0.1500 
 20 C        6.4970    -2.4450    -0.5850 C.3   1 <1>  -0.0970 
 21 C       10.0380    -0.0310    -0.9550 C.ar  1 <1>  -0.1500 
 22 C       10.1260    -1.4120    -0.9690 C.ar  1 <1>  -0.1440 
 23 C       11.4720    -2.0970    -1.1200 C.3   1 <1>  -0.0970 
 24 H       -0.3720     1.0950    -1.5800 H     1 <1>   0.0800 
 25 H       -0.9890     1.7420    -0.0960 H     1 <1>   0.0800 
 26 H        3.1620    -0.4690    -0.2640 H     1 <1>   0.0800 
 27 H        3.1050    -0.1830     1.4550 H     1 <1>   0.0800 
 28 H        1.6840     1.5500     2.3530 H     1 <1>   0.0800 
 29 H        0.6830     2.5050     1.2900 H     1 <1>   0.0800 
 30 H       -2.4850    -0.2160     0.1420 H     1 <1>   0.0800 
 31 H       -1.8710    -0.8590    -1.3560 H     1 <1>   0.0800 
 32 H        4.1950     1.6740    -0.6620 H     1 <1>   0.0800 
 33 H        2.6390     3.7920     2.0510 H     1 <1>   0.0800 
 34 H        2.6370     3.5870     0.3240 H     1 <1>   0.0800 
 35 H       -3.3460     1.7840    -1.0640 H     1 <1>   0.0800 
 36 H       -4.0130     0.3110    -1.7230 H     1 <1>   0.0800 
 37 H       -2.7290     1.1370    -2.5700 H     1 <1>   0.0800 
 38 H        4.9000     3.1580     1.1500 H     1 <1>   0.0800 
 39 H        4.2900     2.0400     2.3390 H     1 <1>   0.0800 
 40 H        6.2050     1.1330    -1.3440 H     1 <1>   0.3700 
 41 H        8.7510     1.6550    -0.7970 H     1 <1>   0.1500 
 42 H        9.0400    -3.2390    -0.8540 H     1 <1>   0.1500 
 43 H        5.6920    -2.0550    -1.1790 H     1 <1>   0.0800 
 44 H        6.1830    -2.4900     0.4430 H     1 <1>   0.0800 
 45 H        6.7060    -3.4440    -0.9200 H     1 <1>   0.0800 
 46 H       10.9250     0.5690    -1.0520 H     1 <1>   0.1500 
 47 H       11.5000    -2.9970    -0.5320 H     1 <1>   0.0800 
 48 H       12.2650    -1.4520    -0.7870 H     1 <1>   0.0800 
 49 H       11.6380    -2.3490    -2.1510 H     1 <1>   0.0800 
@<TRIPOS>BOND
  1   1   2  2   
  2   1   3  2   
  3   1   4  am  
  4   1   5  1   
  5   4   6  1   
  6   4   7  1   
  7   5   8  1   
  8   5  24  1   
  9   5  25  1   
 10   6   9  1   
 11   6  26  1   
 12   6  27  1   
 13   7  10  1   
 14   7  28  1   
 15   7  29  1   
 16   8  11  1   
 17   8  30  1   
 18   8  31  1   
 19   9  12  1   
 20   9  13  1   
 21   9  32  1   
 22  10  13  1   
 23  10  33  1   
 24  10  34  1   
 25  11  35  1   
 26  11  36  1   
 27  11  37  1   
 28  12  14  2   
 29  12  15  am  
 30  13  38  1   
 31  13  39  1   
 32  15  16  1   
 33  15  40  1   
 34  16  17  ar  
 35  16  18  ar  
 36  17  19  ar  
 37  17  20  1   
 38  18  21  ar  
 39  18  41  1   
 40  19  22  ar  
 41  19  42  1   
 42  20  43  1   
 43  20  44  1   
 44  20  45  1   
 45  21  22  ar  
 46  21  46  1   
 47  22  23  1   
 48  23  47  1   
 49  23  48  1   
 50  23  49  1   
@<TRIPOS>SUBSTRUCTURE
  1 ****   9 GROUP 4 **** **** 0

# MOE 2024.06 (io_trps.svl 2023.06)
