@<TRIPOS>MOLECULE
NONAME
47 48 1 0 0 
SMALL
USER_CHARGES


@<TRIPOS>ATOM
  1 CL      -2.1870     2.9190     3.0550 Cl    1 <1>  -0.1770 
  2 C       -2.7730     2.3080     1.5230 C.ar  1 <1>   0.1770 
  3 C       -2.0280     2.4890     0.3630 C.ar  1 <1>   0.0830 
  4 C       -3.9870     1.6500     1.5070 C.ar  1 <1>  -0.1500 
  5 O       -0.8400     3.1520     0.4530 O.3   1 <1>  -0.3620 
  6 C       -2.5340     1.9840    -0.8320 C.ar  1 <1>  -0.1500 
  7 C       -4.4950     1.1520     0.3160 C.ar  1 <1>   0.1170 
  8 C       -0.0410     3.3800    -0.6860 C.3   1 <1>   0.0400 
  9 C       -3.7510     1.3230    -0.8480 C.ar  1 <1>  -0.1500 
 10 N       -5.7330     0.4930     0.3420 N.am  1 <1>  -0.5470 
 11 C       -6.6900     0.3350    -0.6240 C.2   1 <1>   0.5690 
 12 O       -6.5650     0.7670    -1.7440 O.2   1 <1>  -0.5700 
 13 C       -7.9840    -0.4180    -0.2670 C.3   1 <1>   0.2570 
 14 N       -9.1150     0.4090     0.2610 N.am  1 <1>  -0.8490 
 15 S       -8.7340     1.2930     1.6610 S.o2  1 <1>   1.3330 
 16 C      -10.4560    -0.2160     0.3130 C.3   1 <1>   0.2760 
 17 O       -7.6160     0.6350     2.3040 O.2   1 <1>  -0.6500 
 18 O       -9.9300     1.5350     2.4320 O.2   1 <1>  -0.6500 
 19 C       -8.2090     2.8650     1.0050 C.3   1 <1>  -0.1350 
 20 C      -10.6040    -1.5240    -0.4930 C.3   1 <1>  -0.1600 
 21 C      -11.4780     0.8100    -0.2050 C.3   1 <1>  -0.1600 
 22 C      -12.0330    -2.0800    -0.4060 C.3   1 <1>  -0.1600 
 23 C      -12.9160     0.2730    -0.1320 C.3   1 <1>  -0.1600 
 24 C      -13.0560    -1.0490    -0.8960 C.3   1 <1>  -0.1600 
 25 H       -4.5320     1.5310     2.4250 H     1 <1>   0.1500 
 26 H       -2.0000     2.0920    -1.7570 H     1 <1>   0.1500 
 27 H        0.8360     3.9190    -0.3750 H     1 <1>   0.0800 
 28 H       -0.5980     3.9690    -1.3930 H     1 <1>   0.0800 
 29 H        0.2440     2.4330    -1.1100 H     1 <1>   0.0800 
 30 H       -4.1230     0.9370    -1.7800 H     1 <1>   0.1500 
 31 H       -6.0660     0.2570     1.2890 H     1 <1>   0.3700 
 32 H       -7.7500    -1.1950     0.4390 H     1 <1>   0.0800 
 33 H       -8.2830    -0.8890    -1.1840 H     1 <1>   0.0800 
 34 H      -10.6950    -0.4610     1.3360 H     1 <1>   0.0800 
 35 H       -7.3600     2.7520     0.3610 H     1 <1>   0.0800 
 36 H       -7.9450     3.5270     1.8060 H     1 <1>   0.0800 
 37 H       -9.0060     3.3100     0.4420 H     1 <1>   0.0800 
 38 H       -9.9350    -2.2720    -0.1090 H     1 <1>   0.0800 
 39 H      -10.3800    -1.3410    -1.5300 H     1 <1>   0.0800 
 40 H      -11.2440     1.0550    -1.2270 H     1 <1>   0.0800 
 41 H      -11.4280     1.7140     0.3740 H     1 <1>   0.0800 
 42 H      -12.2550    -2.3440     0.6150 H     1 <1>   0.0800 
 43 H      -12.1120    -2.9730    -1.0010 H     1 <1>   0.0800 
 44 H      -13.5930     1.0010    -0.5440 H     1 <1>   0.0800 
 45 H      -13.1850     0.1210     0.9000 H     1 <1>   0.0800 
 46 H      -14.0520    -1.4360    -0.7660 H     1 <1>   0.0800 
 47 H      -12.9070    -0.8700    -1.9470 H     1 <1>   0.0800 
@<TRIPOS>BOND
  1   1   2  1   
  2   2   3  ar  
  3   2   4  ar  
  4   3   5  1   
  5   3   6  ar  
  6   4   7  ar  
  7   4  25  1   
  8   5   8  1   
  9   6   9  ar  
 10   6  26  1   
 11   7   9  ar  
 12   7  10  1   
 13   8  27  1   
 14   8  28  1   
 15   8  29  1   
 16   9  30  1   
 17  10  11  am  
 18  10  31  1   
 19  11  12  2   
 20  11  13  1   
 21  13  14  1   
 22  13  32  1   
 23  13  33  1   
 24  14  15  am  
 25  14  16  1   
 26  15  17  2   
 27  15  18  2   
 28  15  19  1   
 29  16  20  1   
 30  16  21  1   
 31  16  34  1   
 32  19  35  1   
 33  19  36  1   
 34  19  37  1   
 35  20  22  1   
 36  20  38  1   
 37  20  39  1   
 38  21  23  1   
 39  21  40  1   
 40  21  41  1   
 41  22  24  1   
 42  22  42  1   
 43  22  43  1   
 44  23  24  1   
 45  23  44  1   
 46  23  45  1   
 47  24  46  1   
 48  24  47  1   
@<TRIPOS>SUBSTRUCTURE
  1 ****  11 GROUP 4 **** **** 0

# MOE 2024.06 (io_trps.svl 2023.06)
