@<TRIPOS>MOLECULE
NONAME
39 39 1 0 0 
SMALL
USER_CHARGES


@<TRIPOS>ATOM
  1 N        0.0330     0.1030     0.1060 N.4   1 <1>  -0.9590 
  2 C        1.1700     0.9260     0.6350 C.3   1 <1>   0.4230 
  3 C       -1.3000     0.7550     0.4100 C.3   1 <1>   0.3430 
  4 C        0.1020    -1.3020     0.6470 C.3   1 <1>   0.2630 
  5 C        1.2320     2.3110    -0.0310 C.3   1 <1>  -0.1600 
  6 C        2.5280     0.2720     0.3450 C.3   1 <1>  -0.1600 
  7 C       -2.5150     0.1170    -0.3250 C.3   1 <1>   0.3430 
  8 C        2.6000     2.4200    -0.7110 C.3   1 <1>  -0.0800 
  9 C        3.4770     1.4240     0.0350 C.3   1 <1>  -0.1600 
 10 N       -3.8230     0.8490    -0.1290 N.4   1 <1>  -0.9590 
 11 C        3.1700     3.8410    -0.6930 C.3   1 <1>  -0.2400 
 12 C       -4.3190     0.8340     1.2910 C.3   1 <1>   0.2630 
 13 C       -4.8840     0.2630    -1.0180 C.3   1 <1>   0.2630 
 14 H        0.1980     0.0700    -0.9130 H     1 <1>   0.4500 
 15 H        1.0710     1.0600     1.7010 H     1 <1>   0.0800 
 16 H       -1.2540     1.7930     0.1280 H     1 <1>   0.0800 
 17 H       -1.4720     0.7120     1.4730 H     1 <1>   0.0800 
 18 H        0.0190    -1.2960     1.7220 H     1 <1>   0.0800 
 19 H        1.0410    -1.7630     0.3840 H     1 <1>   0.0800 
 20 H       -0.6890    -1.9100     0.2400 H     1 <1>   0.0800 
 21 H        1.1610     3.0580     0.7420 H     1 <1>   0.0800 
 22 H        0.4620     2.4890    -0.7580 H     1 <1>   0.0800 
 23 H        2.4770    -0.3570    -0.5270 H     1 <1>   0.0800 
 24 H        2.8860    -0.2980     1.1840 H     1 <1>   0.0800 
 25 H       -2.6320    -0.9000     0.0110 H     1 <1>   0.0800 
 26 H       -2.2940     0.0950    -1.3800 H     1 <1>   0.0800 
 27 H        2.5110     2.0930    -1.7360 H     1 <1>   0.0800 
 28 H        4.3220     1.1100    -0.5560 H     1 <1>   0.0800 
 29 H        3.8370     1.8590     0.9540 H     1 <1>   0.0800 
 30 H       -3.7230     1.8380    -0.4200 H     1 <1>   0.4500 
 31 H        3.2900     4.1990     0.3150 H     1 <1>   0.0800 
 32 H        2.5180     4.5140    -1.2210 H     1 <1>   0.0800 
 33 H        4.1320     3.8590    -1.1740 H     1 <1>   0.0800 
 34 H       -4.4700    -0.1800     1.6280 H     1 <1>   0.0800 
 35 H       -5.2600     1.3560     1.3620 H     1 <1>   0.0800 
 36 H       -3.6170     1.3190     1.9490 H     1 <1>   0.0800 
 37 H       -5.0660    -0.7690    -0.7620 H     1 <1>   0.0800 
 38 H       -4.5820     0.3140    -2.0520 H     1 <1>   0.0800 
 39 H       -5.8080     0.8080    -0.9090 H     1 <1>   0.0800 
@<TRIPOS>BOND
  1   1   2  1   
  2   1   3  1   
  3   1   4  1   
  4   1  14  1   
  5   2   5  1   
  6   2   6  1   
  7   2  15  1   
  8   3   7  1   
  9   3  16  1   
 10   3  17  1   
 11   4  18  1   
 12   4  19  1   
 13   4  20  1   
 14   5   8  1   
 15   5  21  1   
 16   5  22  1   
 17   6   9  1   
 18   6  23  1   
 19   6  24  1   
 20   7  10  1   
 21   7  25  1   
 22   7  26  1   
 23   8   9  1   
 24   8  11  1   
 25   8  27  1   
 26   9  28  1   
 27   9  29  1   
 28  10  12  1   
 29  10  13  1   
 30  10  30  1   
 31  11  31  1   
 32  11  32  1   
 33  11  33  1   
 34  12  34  1   
 35  12  35  1   
 36  12  36  1   
 37  13  37  1   
 38  13  38  1   
 39  13  39  1   
@<TRIPOS>SUBSTRUCTURE
  1 ****   1 GROUP 4 **** **** 0

# MOE 2024.06 (io_trps.svl 2023.06)
