@<TRIPOS>MOLECULE
NONAME
54 56 1 0 0 
SMALL
USER_CHARGES


@<TRIPOS>ATOM
  1 S        1.6880    -1.0450     1.8290 S.o2  1 <1>   1.4470 
  2 O        2.5150    -1.7840     2.7600 O.2   1 <1>  -0.6500 
  3 O        0.4810    -0.4040     2.3010 O.2   1 <1>  -0.6500 
  4 N        2.6740     0.1670     1.1650 N.am  1 <1>  -0.8490 
  5 C        1.2840    -2.0770     0.3900 C.ar  1 <1>  -0.0090 
  6 C        3.9960    -0.3500     0.7820 C.3   1 <1>   0.1960 
  7 C        2.8080     1.2960     2.0930 C.3   1 <1>   0.1960 
  8 C        0.6160    -1.5320    -0.7050 C.ar  1 <1>  -0.1500 
  9 C        1.6350    -3.4250     0.3470 C.ar  1 <1>  -0.1500 
 10 C        4.8000     0.7280     0.0380 C.3   1 <1>  -0.0190 
 11 C        3.5830     2.4400     1.4300 C.3   1 <1>  -0.1600 
 12 C        0.3060    -2.3010    -1.8150 C.ar  1 <1>  -0.1500 
 13 C        1.3340    -4.2110    -0.7540 C.ar  1 <1>  -0.1500 
 14 C        6.1560     0.1960    -0.4010 C.2   1 <1>   0.5690 
 15 C        4.9560     1.9790     0.9220 C.3   1 <1>  -0.1600 
 16 C        0.6720    -3.6310    -1.8180 C.ar  1 <1>   0.1900 
 17 O        6.7100    -0.6520     0.2560 O.2   1 <1>  -0.5700 
 18 N        6.7410     0.7260    -1.5120 N.am  1 <1>  -0.7300 
 19 F        0.3850    -4.3640    -2.8580 F     1 <1>  -0.1900 
 20 C        7.9870     0.2870    -2.2330 C.3   1 <1>   0.1400 
 21 C        9.0810    -0.3890    -1.3680 C.3   1 <1>   0.3430 
 22 N        9.2820     0.2960    -0.0580 N.4   1 <1>  -0.9590 
 23 C        9.7080     1.7340    -0.1130 C.3   1 <1>   0.3430 
 24 C       10.0800    -0.4870     0.9340 C.3   1 <1>   0.3430 
 25 C       10.0010     2.2970     1.2970 C.3   1 <1>   0.1200 
 26 C       10.0170     0.1760     2.3320 C.3   1 <1>   0.1200 
 27 O        9.4580     1.4660     2.2850 O.3   1 <1>  -0.5600 
 28 H        3.8800    -1.2050     0.1360 H     1 <1>   0.0800 
 29 H        4.5350    -0.6680     1.6610 H     1 <1>   0.0800 
 30 H        3.3130     0.9740     2.9910 H     1 <1>   0.0800 
 31 H        1.8320     1.6590     2.3710 H     1 <1>   0.0800 
 32 H        0.3360    -0.4910    -0.6820 H     1 <1>   0.1500 
 33 H        2.1500    -3.8660     1.1850 H     1 <1>   0.1500 
 34 H        4.2430     0.9890    -0.8440 H     1 <1>   0.0800 
 35 H        3.7080     3.2390     2.1390 H     1 <1>   0.0800 
 36 H        2.9970     2.8210     0.6110 H     1 <1>   0.0800 
 37 H       -0.2110    -1.8810    -2.6600 H     1 <1>   0.1500 
 38 H        1.6020    -5.2530    -0.7890 H     1 <1>   0.1500 
 39 H        5.4230     2.7740     0.3680 H     1 <1>   0.0800 
 40 H        5.5830     1.7440     1.7660 H     1 <1>   0.0800 
 41 H        6.1830     1.4090    -2.0370 H     1 <1>   0.3700 
 42 H        8.4230     1.1480    -2.7090 H     1 <1>   0.0800 
 43 H        7.7060    -0.3950    -3.0180 H     1 <1>   0.0800 
 44 H       10.0070    -0.4240    -1.9170 H     1 <1>   0.0800 
 45 H        8.7700    -1.4050    -1.1830 H     1 <1>   0.0800 
 46 H        8.3290     0.3020     0.3640 H     1 <1>   0.4500 
 47 H        8.9250     2.3210    -0.5640 H     1 <1>   0.0800 
 48 H       10.5900     1.8400    -0.7220 H     1 <1>   0.0800 
 49 H       11.1070    -0.5440     0.6150 H     1 <1>   0.0800 
 50 H        9.7000    -1.4930     1.0060 H     1 <1>   0.0800 
 51 H        9.5650     3.2750     1.4060 H     1 <1>   0.0800 
 52 H       11.0610     2.3790     1.4630 H     1 <1>   0.0800 
 53 H       11.0010     0.2430     2.7630 H     1 <1>   0.0800 
 54 H        9.4040    -0.4150     2.9890 H     1 <1>   0.0800 
@<TRIPOS>BOND
  1   1   2  2   
  2   1   3  2   
  3   1   4  am  
  4   1   5  1   
  5   4   6  1   
  6   4   7  1   
  7   5   8  ar  
  8   5   9  ar  
  9   6  10  1   
 10   6  28  1   
 11   6  29  1   
 12   7  11  1   
 13   7  30  1   
 14   7  31  1   
 15   8  12  ar  
 16   8  32  1   
 17   9  13  ar  
 18   9  33  1   
 19  10  14  1   
 20  10  15  1   
 21  10  34  1   
 22  11  15  1   
 23  11  35  1   
 24  11  36  1   
 25  12  16  ar  
 26  12  37  1   
 27  13  16  ar  
 28  13  38  1   
 29  14  17  2   
 30  14  18  am  
 31  15  39  1   
 32  15  40  1   
 33  16  19  1   
 34  18  20  1   
 35  18  41  1   
 36  20  21  1   
 37  20  42  1   
 38  20  43  1   
 39  21  22  1   
 40  21  44  1   
 41  21  45  1   
 42  22  23  1   
 43  22  24  1   
 44  22  46  1   
 45  23  25  1   
 46  23  47  1   
 47  23  48  1   
 48  24  26  1   
 49  24  49  1   
 50  24  50  1   
 51  25  27  1   
 52  25  51  1   
 53  25  52  1   
 54  26  27  1   
 55  26  53  1   
 56  26  54  1   
@<TRIPOS>SUBSTRUCTURE
  1 ****   6 GROUP 4 **** **** 0

# MOE 2024.06 (io_trps.svl 2023.06)
