@<TRIPOS>MOLECULE
NONAME
34 35 1 0 0 
SMALL
USER_CHARGES


@<TRIPOS>ATOM
  1 S        0.1750     0.0290     1.9520 S.o2  1 <1>   1.6670 
  2 O        0.3430    -1.2050     2.6800 O.2   1 <1>  -0.6500 
  3 O        0.5460     1.2950     2.5330 O.2   1 <1>  -0.6500 
  4 N        1.2480    -0.1470     0.5950 N.pl3 1 <1>  -0.7020 
  5 C       -1.4530     0.1120     1.1650 C.ar  1 <1>  -0.0090 
  6 C        1.3930     0.6150    -0.4510 C.cat 1 <1>   0.6040 
  7 C        2.2490    -1.2340     0.6210 C.3   1 <1>   0.3300 
  8 C       -1.9570    -0.9680     0.4480 C.ar  1 <1>  -0.1500 
  9 C       -2.2280     1.2630     1.2330 C.ar  1 <1>  -0.1500 
 10 N        2.3550     0.2040    -1.2290 N.pl3 1 <1>  -0.7940 
 11 C        0.5740     1.8450    -0.7720 C.3   1 <1>  -0.1350 
 12 C        3.0300    -0.9990    -0.6870 C.3   1 <1>   0.3290 
 13 C       -3.1810    -0.9070    -0.1970 C.ar  1 <1>  -0.1430 
 14 C       -3.4510     1.3360     0.5940 C.ar  1 <1>  -0.1500 
 15 C       -3.9340     0.2580    -0.1270 C.ar  1 <1>  -0.1430 
 16 C       -3.6790    -2.1250    -0.9650 C.3   1 <1>  -0.0970 
 17 C       -5.2870     0.3770    -0.8160 C.3   1 <1>  -0.0970 
 18 H        1.7730    -2.2000     0.6240 H     1 <1>   0.0800 
 19 H        2.8930    -1.1410     1.4810 H     1 <1>   0.0800 
 20 H       -1.3830    -1.8780     0.3970 H     1 <1>   0.1500 
 21 H       -1.8800     2.1180     1.7910 H     1 <1>   0.1500 
 22 H        2.6650     0.6330    -2.1100 H     1 <1>   0.4500 
 23 H       -0.4120     1.5600    -1.0900 H     1 <1>   0.0800 
 24 H        1.0360     2.4050    -1.5630 H     1 <1>   0.0800 
 25 H        0.5000     2.4840     0.0900 H     1 <1>   0.0800 
 26 H        2.9290    -1.8360    -1.3570 H     1 <1>   0.0800 
 27 H        4.0710    -0.8040    -0.4890 H     1 <1>   0.0800 
 28 H       -4.0300     2.2420     0.6650 H     1 <1>   0.1500 
 29 H       -2.9790    -2.9390    -0.9070 H     1 <1>   0.0800 
 30 H       -3.8220    -1.8770    -2.0020 H     1 <1>   0.0800 
 31 H       -4.6150    -2.4610    -0.5560 H     1 <1>   0.0800 
 32 H       -5.1790     0.2230    -1.8750 H     1 <1>   0.0800 
 33 H       -5.7170     1.3490    -0.6610 H     1 <1>   0.0800 
 34 H       -5.9670    -0.3570    -0.4230 H     1 <1>   0.0800 
@<TRIPOS>BOND
  1   1   2  2   
  2   1   3  2   
  3   1   4  1   
  4   1   5  1   
  5   4   6  ar  
  6   4   7  1   
  7   5   8  ar  
  8   5   9  ar  
  9   6  10  ar  
 10   6  11  1   
 11   7  12  1   
 12   7  18  1   
 13   7  19  1   
 14   8  13  ar  
 15   8  20  1   
 16   9  14  ar  
 17   9  21  1   
 18  10  12  1   
 19  10  22  1   
 20  11  23  1   
 21  11  24  1   
 22  11  25  1   
 23  12  26  1   
 24  12  27  1   
 25  13  15  ar  
 26  13  16  1   
 27  14  15  ar  
 28  14  28  1   
 29  15  17  1   
 30  16  29  1   
 31  16  30  1   
 32  16  31  1   
 33  17  32  1   
 34  17  33  1   
 35  17  34  1   
@<TRIPOS>SUBSTRUCTURE
  1 ****   5 GROUP 4 **** **** 0

# MOE 2024.06 (io_trps.svl 2023.06)
