@<TRIPOS>MOLECULE
NONAME
47 49 1 0 0 
SMALL
USER_CHARGES


@<TRIPOS>ATOM
  1 CL      -0.2760    -2.5000     2.7130 Cl    1 <1>  -0.1770 
  2 C       -1.3420    -2.0130     1.4060 C.ar  1 <1>   0.1770 
  3 C       -1.0230    -2.3110     0.0750 C.ar  1 <1>   0.1000 
  4 C       -2.4960    -1.3320     1.7430 C.ar  1 <1>  -0.1500 
  5 N        0.1290    -2.9980    -0.3320 N.pl3 1 <1>  -0.8380 
  6 C       -1.9150    -1.8950    -0.9060 C.ar  1 <1>  -0.1500 
  7 C       -3.3670    -0.9280     0.7450 C.ar  1 <1>  -0.1500 
  8 C        0.1910    -4.4470     0.0250 C.3   1 <1>   0.2090 
  9 C        1.4210    -2.2620    -0.1760 C.3   1 <1>   0.2090 
 10 C       -3.0730    -1.2110    -0.5780 C.ar  1 <1>  -0.1500 
 11 C        1.3490    -5.1510    -0.7130 C.3   1 <1>   0.3430 
 12 C        2.5660    -2.9900    -0.9090 C.3   1 <1>   0.3430 
 13 N        2.6670    -4.4470    -0.5200 N.4   1 <1>  -0.9590 
 14 C        3.7770    -5.1320    -1.2350 C.3   1 <1>   0.4860 
 15 C        5.0800    -4.4650    -0.8460 C.ar  1 <1>  -0.1430 
 16 C        5.6020    -4.6390     0.4280 C.ar  1 <1>  -0.1500 
 17 C        5.7560    -3.6670    -1.7560 C.ar  1 <1>  -0.1500 
 18 C        6.7780    -4.0110     0.8020 C.ar  1 <1>  -0.1430 
 19 C        6.9330    -3.0390    -1.3920 C.ar  1 <1>  -0.1500 
 20 C        7.4500    -3.2040    -0.1100 C.ar  1 <1>   0.0830 
 21 C        7.3350    -4.2130     2.2050 C.3   1 <1>  -0.0970 
 22 O        8.6000    -2.6080     0.3030 O.3   1 <1>  -0.3630 
 23 C        9.4130    -1.8600    -0.5740 C.3   1 <1>   0.0400 
 24 H       -2.7110    -1.1190     2.7740 H     1 <1>   0.1500 
 25 H       -1.6940    -2.1100    -1.9350 H     1 <1>   0.1500 
 26 H       -4.2690    -0.3970     0.9970 H     1 <1>   0.1500 
 27 H       -0.7410    -4.9160    -0.2420 H     1 <1>   0.0800 
 28 H        0.3220    -4.5590     1.0870 H     1 <1>   0.0800 
 29 H        1.6680    -2.1660     0.8670 H     1 <1>   0.0800 
 30 H        1.3130    -1.2690    -0.5800 H     1 <1>   0.0800 
 31 H       -3.7500    -0.8980    -1.3550 H     1 <1>   0.1500 
 32 H        1.1040    -5.1780    -1.7620 H     1 <1>   0.0800 
 33 H        1.4190    -6.1680    -0.3630 H     1 <1>   0.0800 
 34 H        3.4940    -2.4850    -0.6910 H     1 <1>   0.0800 
 35 H        2.3890    -2.9100    -1.9690 H     1 <1>   0.0800 
 36 H        2.9020    -4.4620     0.4800 H     1 <1>   0.4500 
 37 H        3.6320    -5.0670    -2.3010 H     1 <1>   0.0800 
 38 H        3.8140    -6.1730    -0.9560 H     1 <1>   0.0800 
 39 H        5.1000    -5.2680     1.1430 H     1 <1>   0.1500 
 40 H        5.3820    -3.5250    -2.7560 H     1 <1>   0.1500 
 41 H        7.4370    -2.4260    -2.1160 H     1 <1>   0.1500 
 42 H        6.7110    -4.8620     2.7910 H     1 <1>   0.0800 
 43 H        7.4110    -3.2640     2.7070 H     1 <1>   0.0800 
 44 H        8.3180    -4.6450     2.1460 H     1 <1>   0.0800 
 45 H       10.2780    -1.5310    -0.0270 H     1 <1>   0.0800 
 46 H        8.8580    -1.0090    -0.9260 H     1 <1>   0.0800 
 47 H        9.7170    -2.4900    -1.3920 H     1 <1>   0.0800 
@<TRIPOS>BOND
  1   1   2  1   
  2   2   3  ar  
  3   2   4  ar  
  4   3   5  1   
  5   3   6  ar  
  6   4   7  ar  
  7   4  24  1   
  8   5   8  1   
  9   5   9  1   
 10   6  10  ar  
 11   6  25  1   
 12   7  10  ar  
 13   7  26  1   
 14   8  11  1   
 15   8  27  1   
 16   8  28  1   
 17   9  12  1   
 18   9  29  1   
 19   9  30  1   
 20  10  31  1   
 21  11  13  1   
 22  11  32  1   
 23  11  33  1   
 24  12  13  1   
 25  12  34  1   
 26  12  35  1   
 27  13  14  1   
 28  13  36  1   
 29  14  15  1   
 30  14  37  1   
 31  14  38  1   
 32  15  16  ar  
 33  15  17  ar  
 34  16  18  ar  
 35  16  39  1   
 36  17  19  ar  
 37  17  40  1   
 38  18  20  ar  
 39  18  21  1   
 40  19  20  ar  
 41  19  41  1   
 42  20  22  1   
 43  21  42  1   
 44  21  43  1   
 45  21  44  1   
 46  22  23  1   
 47  23  45  1   
 48  23  46  1   
 49  23  47  1   
@<TRIPOS>SUBSTRUCTURE
  1 ****  12 GROUP 4 **** **** 0

# MOE 2024.06 (io_trps.svl 2023.06)
