@<TRIPOS>MOLECULE
NONAME
48 49 1 0 0 
SMALL
USER_CHARGES


@<TRIPOS>ATOM
  1 O        2.5030    -5.5730    -0.6740 O.3   1 <1>  -0.5600 
  2 C        3.6600    -5.5360     0.1010 C.3   1 <1>   0.2800 
  3 C        1.5340    -4.5880    -0.4700 C.3   1 <1>   0.1200 
  4 C        4.3480    -4.1660    -0.0670 C.3   1 <1>  -0.1600 
  5 C        4.5570    -6.6420    -0.4530 C.3   1 <1>  -0.2400 
  6 C        3.3130    -5.8600     1.5610 C.3   1 <1>  -0.2400 
  7 C        2.1380    -3.2040    -0.7240 C.3   1 <1>  -0.1600 
  8 C        3.3880    -2.9780     0.1380 C.3   1 <1>  -0.0800 
  9 C        4.0420    -1.6320    -0.2230 C.3   1 <1>  -0.1600 
 10 C        5.2370    -1.3210     0.6740 C.3   1 <1>   0.3430 
 11 N        5.8560    -0.0450     0.2360 N.4   1 <1>  -0.9060 
 12 C        7.0600     0.3160     1.0290 C.3   1 <1>   0.4860 
 13 C        8.0880    -0.7880     0.8710 C.ar  1 <1>  -0.1430 
 14 C        8.8160    -0.9130    -0.3060 C.ar  1 <1>  -0.1500 
 15 C        8.2990    -1.6920     1.9030 C.ar  1 <1>  -0.1500 
 16 C        9.7320    -1.9390    -0.4560 C.ar  1 <1>  -0.1500 
 17 C        9.2150    -2.7160     1.7510 C.ar  1 <1>  -0.1500 
 18 C        9.9330    -2.8510     0.5760 C.ar  1 <1>   0.0820 
 19 O       10.8060    -3.8850     0.5120 O.3   1 <1>  -0.3630 
 20 C       11.6480    -4.0740    -0.6040 C.3   1 <1>   0.0400 
 21 H        1.1450    -4.6760     0.5280 H     1 <1>   0.0800 
 22 H        0.7330    -4.7770    -1.1640 H     1 <1>   0.0800 
 23 H        4.7540    -4.1190    -1.0620 H     1 <1>   0.0800 
 24 H        5.1720    -4.1150     0.6210 H     1 <1>   0.0800 
 25 H        4.7620    -6.4700    -1.4940 H     1 <1>   0.0800 
 26 H        4.0720    -7.5970    -0.3520 H     1 <1>   0.0800 
 27 H        5.4890    -6.6750     0.0800 H     1 <1>   0.0800 
 28 H        2.7250    -5.0880     2.0180 H     1 <1>   0.0800 
 29 H        4.2150    -5.9680     2.1360 H     1 <1>   0.0800 
 30 H        2.7710    -6.7880     1.6100 H     1 <1>   0.0800 
 31 H        1.3960    -2.4560    -0.5100 H     1 <1>   0.0800 
 32 H        2.3860    -3.1350    -1.7700 H     1 <1>   0.0800 
 33 H        3.0800    -2.9510     1.1710 H     1 <1>   0.0800 
 34 H        3.3070    -0.8540    -0.1170 H     1 <1>   0.0800 
 35 H        4.3590    -1.6680    -1.2520 H     1 <1>   0.0800 
 36 H        5.9590    -2.1200     0.6010 H     1 <1>   0.0800 
 37 H        4.9130    -1.2480     1.7010 H     1 <1>   0.0800 
 38 H        5.1670     0.7130     0.2720 H     1 <1>   0.4500 
 39 H        6.1490    -0.1560    -0.7410 H     1 <1>   0.4500 
 40 H        6.8030     0.4310     2.0690 H     1 <1>   0.0800 
 41 H        7.4760     1.2460     0.6740 H     1 <1>   0.0800 
 42 H        8.6870    -0.2170    -1.1170 H     1 <1>   0.1500 
 43 H        7.7630    -1.6140     2.8340 H     1 <1>   0.1500 
 44 H       10.2820    -2.0160    -1.3750 H     1 <1>   0.1500 
 45 H        9.3860    -3.4220     2.5450 H     1 <1>   0.1500 
 46 H       12.2680    -4.9310    -0.4130 H     1 <1>   0.0800 
 47 H       12.2640    -3.2010    -0.7310 H     1 <1>   0.0800 
 48 H       11.0420    -4.2500    -1.4750 H     1 <1>   0.0800 
@<TRIPOS>BOND
  1   1   2  1   
  2   1   3  1   
  3   2   4  1   
  4   2   5  1   
  5   2   6  1   
  6   3   7  1   
  7   3  21  1   
  8   3  22  1   
  9   4   8  1   
 10   4  23  1   
 11   4  24  1   
 12   5  25  1   
 13   5  26  1   
 14   5  27  1   
 15   6  28  1   
 16   6  29  1   
 17   6  30  1   
 18   7   8  1   
 19   7  31  1   
 20   7  32  1   
 21   8   9  1   
 22   8  33  1   
 23   9  10  1   
 24   9  34  1   
 25   9  35  1   
 26  10  11  1   
 27  10  36  1   
 28  10  37  1   
 29  11  12  1   
 30  11  38  1   
 31  11  39  1   
 32  12  13  1   
 33  12  40  1   
 34  12  41  1   
 35  13  14  ar  
 36  13  15  ar  
 37  14  16  ar  
 38  14  42  1   
 39  15  17  ar  
 40  15  43  1   
 41  16  18  ar  
 42  16  44  1   
 43  17  18  ar  
 44  17  45  1   
 45  18  19  1   
 46  19  20  1   
 47  20  46  1   
 48  20  47  1   
 49  20  48  1   
@<TRIPOS>SUBSTRUCTURE
  1 ****  10 GROUP 4 **** **** 0

# MOE 2024.06 (io_trps.svl 2023.06)
