@<TRIPOS>MOLECULE
NONAME
50 51 1 0 0 
SMALL
USER_CHARGES


@<TRIPOS>ATOM
  1 O        0.3220     0.5820     0.2190 O.3   1 <1>  -0.5600 
  2 C       -0.8310     1.3120     0.5190 C.3   1 <1>   0.1200 
  3 C        1.5150     1.2980     0.3000 C.3   1 <1>   0.1200 
  4 C       -1.3280     2.0410    -0.7340 C.3   1 <1>   0.1200 
  5 C        2.6630     0.3320    -0.0050 C.3   1 <1>   0.1100 
  6 O       -2.4950     2.7290    -0.4330 O.3   1 <1>  -0.6800 
  7 N        3.9860     0.9920     0.0860 N.3   1 <1>  -0.8100 
  8 C        5.0620    -0.0220     0.2060 C.3   1 <1>   0.1100 
  9 C        4.2510     1.8790    -1.0760 C.3   1 <1>   0.1100 
 10 C        6.4690     0.6150     0.3200 C.3   1 <1>   0.3430 
 11 C        5.6660     2.5100    -1.0340 C.3   1 <1>   0.3430 
 12 N        6.3980     2.1100     0.2160 N.4   1 <1>  -0.9590 
 13 C        7.6970     2.7830     0.4750 C.3   1 <1>   0.4230 
 14 C        7.4710     4.2730     0.7580 C.3   1 <1>  -0.1600 
 15 C        8.6890     2.5870    -0.6830 C.3   1 <1>  -0.1600 
 16 C        8.8020     4.9740     1.0690 C.3   1 <1>  -0.1600 
 17 C       10.0220     3.2860    -0.3760 C.3   1 <1>  -0.1600 
 18 C        9.8180     4.7780    -0.0680 C.3   1 <1>  -0.0800 
 19 C       11.1550     5.4330     0.2950 C.3   1 <1>  -0.2400 
 20 H       -0.6230     2.0040     1.3170 H     1 <1>   0.0800 
 21 H       -1.5730     0.6050     0.8460 H     1 <1>   0.0800 
 22 H        1.6170     1.6870     1.2990 H     1 <1>   0.0800 
 23 H        1.4830     2.0990    -0.4150 H     1 <1>   0.0800 
 24 H       -1.5410     1.3430    -1.5240 H     1 <1>   0.0800 
 25 H       -0.6050     2.7640    -1.0670 H     1 <1>   0.0800 
 26 H        2.5260    -0.0940    -0.9850 H     1 <1>   0.0800 
 27 H        2.6130    -0.4630     0.7200 H     1 <1>   0.0800 
 28 H       -3.2290     2.1080    -0.2560 H     1 <1>   0.4000 
 29 H        5.0410    -0.6790    -0.6470 H     1 <1>   0.0800 
 30 H        4.8870    -0.6260     1.0810 H     1 <1>   0.0800 
 31 H        3.5270     2.6750    -1.0960 H     1 <1>   0.0800 
 32 H        4.1440     1.3250    -1.9940 H     1 <1>   0.0800 
 33 H        7.1000     0.2190    -0.4570 H     1 <1>   0.0800 
 34 H        6.9000     0.3360     1.2670 H     1 <1>   0.0800 
 35 H        5.5690     3.5810    -1.0810 H     1 <1>   0.0800 
 36 H        6.2200     2.1920    -1.9020 H     1 <1>   0.0800 
 37 H        5.7370     2.3630     0.9660 H     1 <1>   0.4500 
 38 H        8.1350     2.3510     1.3600 H     1 <1>   0.0800 
 39 H        6.8140     4.3890     1.6030 H     1 <1>   0.0800 
 40 H        7.0280     4.7570    -0.0930 H     1 <1>   0.0800 
 41 H        8.2930     3.0050    -1.5910 H     1 <1>   0.0800 
 42 H        8.8800     1.5410    -0.8380 H     1 <1>   0.0800 
 43 H        9.2090     4.5830     1.9870 H     1 <1>   0.0800 
 44 H        8.6260     6.0270     1.2150 H     1 <1>   0.0800 
 45 H       10.6830     3.1820    -1.2210 H     1 <1>   0.0800 
 46 H       10.4940     2.8070     0.4650 H     1 <1>   0.0800 
 47 H        9.4410     5.2640    -0.9540 H     1 <1>   0.0800 
 48 H       11.5770     4.9840     1.1770 H     1 <1>   0.0800 
 49 H       11.0180     6.4850     0.4800 H     1 <1>   0.0800 
 50 H       11.8570     5.3250    -0.5130 H     1 <1>   0.0800 
@<TRIPOS>BOND
  1   1   2  1   
  2   1   3  1   
  3   2   4  1   
  4   2  20  1   
  5   2  21  1   
  6   3   5  1   
  7   3  22  1   
  8   3  23  1   
  9   4   6  1   
 10   4  24  1   
 11   4  25  1   
 12   5   7  1   
 13   5  26  1   
 14   5  27  1   
 15   6  28  1   
 16   7   8  1   
 17   7   9  1   
 18   8  10  1   
 19   8  29  1   
 20   8  30  1   
 21   9  11  1   
 22   9  31  1   
 23   9  32  1   
 24  10  12  1   
 25  10  33  1   
 26  10  34  1   
 27  11  12  1   
 28  11  35  1   
 29  11  36  1   
 30  12  13  1   
 31  12  37  1   
 32  13  14  1   
 33  13  15  1   
 34  13  38  1   
 35  14  16  1   
 36  14  39  1   
 37  14  40  1   
 38  15  17  1   
 39  15  41  1   
 40  15  42  1   
 41  16  18  1   
 42  16  43  1   
 43  16  44  1   
 44  17  18  1   
 45  17  45  1   
 46  17  46  1   
 47  18  19  1   
 48  18  47  1   
 49  19  48  1   
 50  19  49  1   
 51  19  50  1   
@<TRIPOS>SUBSTRUCTURE
  1 ****  11 GROUP 4 **** **** 0

# MOE 2024.06 (io_trps.svl 2023.06)
