@<TRIPOS>MOLECULE
NONAME
47 48 1 0 0 
SMALL
USER_CHARGES


@<TRIPOS>ATOM
  1 O       -0.5340    -0.4640    -1.0310 O.2   1 <1>  -0.5700 
  2 C       -1.6280    -0.8670    -0.6950 C.2   1 <1>   0.5440 
  3 N       -1.8030    -2.2230    -0.7150 N.am  1 <1>  -0.5470 
  4 C       -2.6660     0.0650    -0.2990 C.ar  1 <1>   0.0860 
  5 C       -2.9310    -3.0530    -0.5750 C.ar  1 <1>   0.1170 
  6 C       -3.4590    -0.1450     0.8310 C.ar  1 <1>  -0.1500 
  7 C       -2.9130     1.2150    -1.0490 C.ar  1 <1>  -0.1500 
  8 C       -2.7690    -4.3480    -0.0690 C.ar  1 <1>   0.0830 
  9 C       -4.2010    -2.6270    -0.9430 C.ar  1 <1>  -0.1500 
 10 C       -4.4700     0.7320     1.1740 C.ar  1 <1>  -0.1500 
 11 C       -3.9210     2.1000    -0.7130 C.ar  1 <1>  -0.1500 
 12 O       -1.4960    -4.7430     0.2450 O.3   1 <1>  -0.3630 
 13 C       -3.8770    -5.1740     0.0960 C.ar  1 <1>  -0.1500 
 14 C       -5.3090    -3.4450    -0.7610 C.ar  1 <1>   0.0830 
 15 C       -4.7150     1.8570     0.4040 C.ar  1 <1>   0.0830 
 16 C       -1.2370    -6.0310     0.7570 C.3   1 <1>   0.0400 
 17 C       -5.1380    -4.7180    -0.2450 C.ar  1 <1>  -0.1500 
 18 O       -6.5790    -3.0670    -1.0570 O.3   1 <1>  -0.3630 
 19 O       -5.7280     2.6590     0.7970 O.3   1 <1>  -0.3630 
 20 C       -6.8830    -1.7140    -1.3270 C.3   1 <1>   0.0400 
 21 C       -6.0450     3.8530     0.1130 C.3   1 <1>   0.1200 
 22 C       -7.2470     4.5270     0.7920 C.3   1 <1>  -0.0800 
 23 C       -8.4950     3.6340     0.7580 C.3   1 <1>  -0.2400 
 24 C       -7.5520     5.8690     0.1150 C.3   1 <1>  -0.2400 
 25 H       -0.9190    -2.7330    -0.7810 H     1 <1>   0.3700 
 26 H       -3.2800    -1.0130     1.4430 H     1 <1>   0.1500 
 27 H       -2.2970     1.4070    -1.9120 H     1 <1>   0.1500 
 28 H       -4.3160    -1.6560    -1.3790 H     1 <1>   0.1500 
 29 H       -5.0770     0.5530     2.0430 H     1 <1>   0.1500 
 30 H       -4.0720     2.9680    -1.3260 H     1 <1>   0.1500 
 31 H       -3.7850    -6.1690     0.4860 H     1 <1>   0.1500 
 32 H       -0.1780    -6.1170     0.9250 H     1 <1>   0.0800 
 33 H       -1.5510    -6.7650     0.0360 H     1 <1>   0.0800 
 34 H       -1.7640    -6.1510     1.6870 H     1 <1>   0.0800 
 35 H       -6.0000    -5.3480    -0.1150 H     1 <1>   0.1500 
 36 H       -7.9510    -1.6230    -1.4130 H     1 <1>   0.0800 
 37 H       -6.4170    -1.4290    -2.2530 H     1 <1>   0.0800 
 38 H       -6.5290    -1.1050    -0.5130 H     1 <1>   0.0800 
 39 H       -6.2790     3.6080    -0.9080 H     1 <1>   0.0800 
 40 H       -5.1830     4.4960     0.1500 H     1 <1>   0.0800 
 41 H       -6.9850     4.7220     1.8190 H     1 <1>   0.0800 
 42 H       -8.7750     3.4110    -0.2560 H     1 <1>   0.0800 
 43 H       -9.3200     4.1250     1.2430 H     1 <1>   0.0800 
 44 H       -8.3070     2.7080     1.2730 H     1 <1>   0.0800 
 45 H       -7.8190     5.7240    -0.9170 H     1 <1>   0.0800 
 46 H       -6.6950     6.5170     0.1620 H     1 <1>   0.0800 
 47 H       -8.3700     6.3600     0.6140 H     1 <1>   0.0800 
@<TRIPOS>BOND
  1   1   2  2   
  2   2   3  am  
  3   2   4  1   
  4   3   5  1   
  5   3  25  1   
  6   4   6  ar  
  7   4   7  ar  
  8   5   8  ar  
  9   5   9  ar  
 10   6  10  ar  
 11   6  26  1   
 12   7  11  ar  
 13   7  27  1   
 14   8  12  1   
 15   8  13  ar  
 16   9  14  ar  
 17   9  28  1   
 18  10  15  ar  
 19  10  29  1   
 20  11  15  ar  
 21  11  30  1   
 22  12  16  1   
 23  13  17  ar  
 24  13  31  1   
 25  14  17  ar  
 26  14  18  1   
 27  15  19  1   
 28  16  32  1   
 29  16  33  1   
 30  16  34  1   
 31  17  35  1   
 32  18  20  1   
 33  19  21  1   
 34  20  36  1   
 35  20  37  1   
 36  20  38  1   
 37  21  22  1   
 38  21  39  1   
 39  21  40  1   
 40  22  23  1   
 41  22  24  1   
 42  22  41  1   
 43  23  42  1   
 44  23  43  1   
 45  23  44  1   
 46  24  45  1   
 47  24  46  1   
 48  24  47  1   
@<TRIPOS>SUBSTRUCTURE
  1 ****   6 GROUP 4 **** **** 0

# MOE 2024.06 (io_trps.svl 2023.06)
