@<TRIPOS>MOLECULE
NONAME
47 50 1 0 0 
SMALL
USER_CHARGES


@<TRIPOS>ATOM
  1 O       -1.5890    -5.9720     2.0060 O.2   1 <1>  -0.5700 
  2 C       -2.1110    -5.0970     1.3740 C.2   1 <1>   0.4480 
  3 C       -3.5340    -5.2510     0.7700 C.3   1 <1>   0.0610 
  4 C       -1.3520    -3.7750     1.1880 C.3   1 <1>   0.1710 
  5 C       -4.0450    -6.7030     1.0030 C.3   1 <1>  -0.1600 
  6 C       -3.5160    -4.9170    -0.7390 C.3   1 <1>  -0.1600 
  7 C       -4.5120    -4.2740     1.4570 C.3   1 <1>  -0.1600 
  8 N       -0.6360    -3.6440    -0.1070 N.3   1 <1>  -0.8100 
  9 C       -5.5350    -6.9700     0.7090 C.3   1 <1>  -0.0800 
 10 C       -4.8920    -4.9320    -1.4270 C.3   1 <1>  -0.0800 
 11 C       -5.9320    -4.4460     0.8990 C.3   1 <1>  -0.0800 
 12 C       -0.0090    -2.3150    -0.2360 C.3   1 <1>   0.1100 
 13 C        0.3970    -4.6920    -0.2580 C.3   1 <1>   0.1100 
 14 C       -5.8330    -7.3050    -0.7610 C.3   1 <1>  -0.1600 
 15 C       -6.4400    -5.8490     1.2430 C.3   1 <1>  -0.1600 
 16 C       -5.3140    -6.3490    -1.8450 C.3   1 <1>  -0.1600 
 17 C       -5.9580    -4.1680    -0.6150 C.3   1 <1>  -0.1600 
 18 C        0.7830    -2.2050    -1.5510 C.3   1 <1>   0.1200 
 19 C        1.1880    -4.5070    -1.5660 C.3   1 <1>   0.1200 
 20 O        1.7400    -3.2230    -1.6330 O.3   1 <1>  -0.5600 
 21 H       -0.6380    -3.6930     1.9890 H     1 <1>   0.0800 
 22 H       -2.0400    -2.9580     1.2910 H     1 <1>   0.0800 
 23 H       -3.8990    -6.9370     2.0430 H     1 <1>   0.0800 
 24 H       -3.4360    -7.3940     0.4460 H     1 <1>   0.0800 
 25 H       -2.8370    -5.5790    -1.2470 H     1 <1>   0.0800 
 26 H       -3.1280    -3.9230    -0.8660 H     1 <1>   0.0800 
 27 H       -4.2060    -3.2560     1.2960 H     1 <1>   0.0800 
 28 H       -4.5160    -4.4510     2.5180 H     1 <1>   0.0800 
 29 H       -5.8020    -7.8580     1.2570 H     1 <1>   0.0800 
 30 H       -4.7680    -4.3940    -2.3520 H     1 <1>   0.0800 
 31 H       -6.5800    -3.7330     1.3820 H     1 <1>   0.0800 
 32 H        0.6610    -2.1390     0.5880 H     1 <1>   0.0800 
 33 H       -0.7710    -1.5560    -0.2220 H     1 <1>   0.0800 
 34 H       -0.0680    -5.6630    -0.2700 H     1 <1>   0.0800 
 35 H        1.0820    -4.6610     0.5720 H     1 <1>   0.0800 
 36 H       -6.8990    -7.3950    -0.8740 H     1 <1>   0.0800 
 37 H       -5.4300    -8.2810    -0.9680 H     1 <1>   0.0800 
 38 H       -6.4840    -5.9360     2.3150 H     1 <1>   0.0800 
 39 H       -7.4450    -5.9740     0.8800 H     1 <1>   0.0800 
 40 H       -4.4760    -6.8170    -2.3330 H     1 <1>   0.0800 
 41 H       -6.0810    -6.2610    -2.5950 H     1 <1>   0.0800 
 42 H       -6.9370    -4.3760    -1.0100 H     1 <1>   0.0800 
 43 H       -5.7820    -3.1160    -0.7540 H     1 <1>   0.0800 
 44 H        1.3010    -1.2640    -1.5990 H     1 <1>   0.0800 
 45 H        0.1230    -2.2840    -2.3970 H     1 <1>   0.0800 
 46 H        0.5450    -4.6510    -2.4170 H     1 <1>   0.0800 
 47 H        1.9950    -5.2160    -1.6160 H     1 <1>   0.0800 
@<TRIPOS>BOND
  1   1   2  2   
  2   2   3  1   
  3   2   4  1   
  4   3   5  1   
  5   3   6  1   
  6   3   7  1   
  7   4   8  1   
  8   4  21  1   
  9   4  22  1   
 10   5   9  1   
 11   5  23  1   
 12   5  24  1   
 13   6  10  1   
 14   6  25  1   
 15   6  26  1   
 16   7  11  1   
 17   7  27  1   
 18   7  28  1   
 19   8  12  1   
 20   8  13  1   
 21   9  14  1   
 22   9  15  1   
 23   9  29  1   
 24  10  16  1   
 25  10  17  1   
 26  10  30  1   
 27  11  15  1   
 28  11  17  1   
 29  11  31  1   
 30  12  18  1   
 31  12  32  1   
 32  12  33  1   
 33  13  19  1   
 34  13  34  1   
 35  13  35  1   
 36  14  16  1   
 37  14  36  1   
 38  14  37  1   
 39  15  38  1   
 40  15  39  1   
 41  16  40  1   
 42  16  41  1   
 43  17  42  1   
 44  17  43  1   
 45  18  20  1   
 46  18  44  1   
 47  18  45  1   
 48  19  20  1   
 49  19  46  1   
 50  19  47  1   
@<TRIPOS>SUBSTRUCTURE
  1 ****   6 GROUP 4 **** **** 0

# MOE 2024.06 (io_trps.svl 2023.06)
