@<TRIPOS>MOLECULE
NONAME
40 42 1 0 0 
SMALL
USER_CHARGES


@<TRIPOS>ATOM
  1 O       -0.7150     1.8360    -2.0680 O.2   1 <1>  -0.5700 
  2 C       -1.5470     1.9510    -1.2070 C.2   1 <1>   0.5690 
  3 N       -2.8460     1.6120    -1.4450 N.am  1 <1>  -0.5390 
  4 C       -1.1770     2.4670     0.1690 C.3   1 <1>   0.1810 
  5 C       -3.8800     1.8600    -0.5650 C.2   1 <1>  -0.0290 
  6 C       -0.8300     1.2830     0.9950 C.1   1 <1>   0.3570 
  7 C       -2.3340     3.2450     0.8290 C.3   1 <1>   0.2020 
  8 C       -3.7060     2.6240     0.5420 C.2   1 <1>  -0.1240 
  9 C       -5.2310     1.2450    -0.9090 C.3   1 <1>  -0.0220 
 10 N       -0.5870     0.3910     1.6560 N.1   1 <1>  -0.5570 
 11 C       -2.3270     4.7140     0.3980 C.ar  1 <1>  -0.1430 
 12 C       -4.7520     2.9080     1.4710 C.2   1 <1>   0.4950 
 13 C       -6.1400     1.0980     0.3340 C.3   1 <1>   0.0000 
 14 C       -2.1590     5.7030     1.3580 C.ar  1 <1>  -0.1500 
 15 C       -2.4870     5.0940    -0.9300 C.ar  1 <1>  -0.1500 
 16 O       -4.5940     3.5130     2.5030 O.2   1 <1>  -0.5700 
 17 C       -6.1500     2.4150     1.1410 C.3   1 <1>  -0.0990 
 18 C       -7.5720     0.7640    -0.1130 C.3   1 <1>  -0.2400 
 19 C       -5.6340    -0.0550     1.2210 C.3   1 <1>  -0.2400 
 20 C       -2.1350     7.0400     1.0000 C.ar  1 <1>  -0.1500 
 21 C       -2.4620     6.4300    -1.2890 C.ar  1 <1>  -0.1500 
 22 C       -2.2840     7.4050    -0.3250 C.ar  1 <1>  -0.1500 
 23 H       -3.0110     1.1530    -2.3460 H     1 <1>   0.3700 
 24 H       -0.3070     3.0920     0.0960 H     1 <1>   0.0800 
 25 H       -2.1670     3.2160     1.8940 H     1 <1>   0.0800 
 26 H       -5.0870     0.2770    -1.3570 H     1 <1>   0.0800 
 27 H       -5.7080     1.8750    -1.6390 H     1 <1>   0.0800 
 28 H       -2.0530     5.4440     2.3980 H     1 <1>   0.1500 
 29 H       -2.6370     4.3640    -1.7050 H     1 <1>   0.1500 
 30 H       -6.6410     3.1880     0.5790 H     1 <1>   0.0800 
 31 H       -6.6970     2.2810     2.0570 H     1 <1>   0.0800 
 32 H       -7.9730     1.5480    -0.7320 H     1 <1>   0.0800 
 33 H       -8.2170     0.6480     0.7400 H     1 <1>   0.0800 
 34 H       -7.5900    -0.1530    -0.6760 H     1 <1>   0.0800 
 35 H       -4.6230     0.1110     1.5510 H     1 <1>   0.0800 
 36 H       -5.6560    -0.9860     0.6820 H     1 <1>   0.0800 
 37 H       -6.2540    -0.1610     2.0940 H     1 <1>   0.0800 
 38 H       -2.0050     7.7960     1.7550 H     1 <1>   0.1500 
 39 H       -2.5840     6.7120    -2.3210 H     1 <1>   0.1500 
 40 H       -2.2650     8.4440    -0.6040 H     1 <1>   0.1500 
@<TRIPOS>BOND
  1   1   2  2   
  2   2   3  am  
  3   2   4  1   
  4   3   5  1   
  5   3  23  1   
  6   4   6  1   
  7   4   7  1   
  8   4  24  1   
  9   5   8  2   
 10   5   9  1   
 11   6  10  3   
 12   7   8  1   
 13   7  11  1   
 14   7  25  1   
 15   8  12  1   
 16   9  13  1   
 17   9  26  1   
 18   9  27  1   
 19  11  14  ar  
 20  11  15  ar  
 21  12  16  2   
 22  12  17  1   
 23  13  17  1   
 24  13  18  1   
 25  13  19  1   
 26  14  20  ar  
 27  14  28  1   
 28  15  21  ar  
 29  15  29  1   
 30  17  30  1   
 31  17  31  1   
 32  18  32  1   
 33  18  33  1   
 34  18  34  1   
 35  19  35  1   
 36  19  36  1   
 37  19  37  1   
 38  20  22  ar  
 39  20  38  1   
 40  21  22  ar  
 41  21  39  1   
 42  22  40  1   
@<TRIPOS>SUBSTRUCTURE
  1 ****   8 GROUP 4 **** **** 0

# MOE 2024.06 (io_trps.svl 2023.06)
