@<TRIPOS>MOLECULE
NONAME
49 51 1 0 0 
SMALL
USER_CHARGES


@<TRIPOS>ATOM
  1 S        0.0400    -0.1430     0.7700 S.o2  1 <1>   1.4470 
  2 O        1.0250    -1.1600     0.4870 O.2   1 <1>  -0.6500 
  3 O        0.1500     0.6800     1.9520 O.2   1 <1>  -0.6500 
  4 N        0.0270     0.9150    -0.6020 N.am  1 <1>  -0.6930 
  5 C       -1.6170    -0.8690     0.6640 C.ar  1 <1>  -0.0090 
  6 C       -0.6770     2.1200    -0.5960 C.ar  1 <1>   0.1990 
  7 C        0.7010     0.4460    -1.8520 C.3   1 <1>   0.2570 
  8 C       -1.8310    -2.0920     0.0360 C.ar  1 <1>  -0.1500 
  9 C       -2.7240    -0.2010     1.1760 C.ar  1 <1>  -0.1500 
 10 C       -0.1460     3.2930    -0.0440 C.ar  1 <1>   0.0830 
 11 C       -1.9520     2.1620    -1.1460 C.ar  1 <1>  -0.1500 
 12 C        2.2260     0.5630    -1.8270 C.2   1 <1>   0.5690 
 13 C       -3.1010    -2.6320    -0.0810 C.ar  1 <1>  -0.1500 
 14 C       -3.9970    -0.7310     1.0630 C.ar  1 <1>  -0.1500 
 15 O        1.1080     3.2760     0.4840 O.3   1 <1>  -0.3620 
 16 C       -0.8820     4.4680    -0.0520 C.ar  1 <1>  -0.1500 
 17 C       -2.6880     3.3340    -1.1480 C.ar  1 <1>  -0.1500 
 18 O        2.8640    -0.0800    -2.6290 O.2   1 <1>  -0.5700 
 19 N        2.8100     1.4010    -0.9290 N.am  1 <1>  -0.5790 
 20 C       -4.1960    -1.9470     0.4340 C.ar  1 <1>   0.0830 
 21 C        1.2510     3.7000     1.8220 C.3   1 <1>   0.0400 
 22 C       -2.1540     4.4880    -0.6010 C.ar  1 <1>  -0.1500 
 23 C        4.2470     1.6050    -0.7260 C.3   1 <1>   0.0490 
 24 O       -5.4710    -2.3970     0.3610 O.3   1 <1>  -0.3630 
 25 C        4.7310     1.7640     0.6760 C.3   1 <1>  -0.2000 
 26 C        4.6990     2.9450    -0.2480 C.3   1 <1>  -0.2000 
 27 C       -5.7810    -3.6520    -0.2030 C.3   1 <1>   0.0400 
 28 H        0.3430     1.0220    -2.6850 H     1 <1>   0.0800 
 29 H        0.4450    -0.5830    -2.0290 H     1 <1>   0.0800 
 30 H       -0.9900    -2.6330    -0.3660 H     1 <1>   0.1500 
 31 H       -2.5880     0.7490     1.6680 H     1 <1>   0.1500 
 32 H       -2.3750     1.2690    -1.5710 H     1 <1>   0.1500 
 33 H       -3.2170    -3.5790    -0.5720 H     1 <1>   0.1500 
 34 H       -4.8450    -0.2040     1.4630 H     1 <1>   0.1500 
 35 H       -0.4670     5.3700     0.3580 H     1 <1>   0.1500 
 36 H       -3.6770     3.3500    -1.5750 H     1 <1>   0.1500 
 37 H        2.1950     1.9400    -0.3050 H     1 <1>   0.3700 
 38 H        1.1440     4.7690     1.8700 H     1 <1>   0.0800 
 39 H        2.2300     3.4150     2.1620 H     1 <1>   0.0800 
 40 H        0.5020     3.2160     2.4260 H     1 <1>   0.0800 
 41 H       -2.7250     5.4010    -0.6040 H     1 <1>   0.1500 
 42 H        4.8610     1.0620    -1.4280 H     1 <1>   0.1000 
 43 H        5.6850     1.3440     0.9380 H     1 <1>   0.1000 
 44 H        4.0110     1.6880     1.4720 H     1 <1>   0.1000 
 45 H        3.9600     3.7120    -0.0980 H     1 <1>   0.1000 
 46 H        5.6330     3.3320    -0.6130 H     1 <1>   0.1000 
 47 H       -6.8430    -3.7990    -0.1270 H     1 <1>   0.0800 
 48 H       -5.2650    -4.4190     0.3470 H     1 <1>   0.0800 
 49 H       -5.4860    -3.6530    -1.2370 H     1 <1>   0.0800 
@<TRIPOS>BOND
  1   1   2  2   
  2   1   3  2   
  3   1   4  am  
  4   1   5  1   
  5   4   6  1   
  6   4   7  1   
  7   5   8  ar  
  8   5   9  ar  
  9   6  10  ar  
 10   6  11  ar  
 11   7  12  1   
 12   7  28  1   
 13   7  29  1   
 14   8  13  ar  
 15   8  30  1   
 16   9  14  ar  
 17   9  31  1   
 18  10  15  1   
 19  10  16  ar  
 20  11  17  ar  
 21  11  32  1   
 22  12  18  2   
 23  12  19  am  
 24  13  20  ar  
 25  13  33  1   
 26  14  20  ar  
 27  14  34  1   
 28  15  21  1   
 29  16  22  ar  
 30  16  35  1   
 31  17  22  ar  
 32  17  36  1   
 33  19  23  1   
 34  19  37  1   
 35  20  24  1   
 36  21  38  1   
 37  21  39  1   
 38  21  40  1   
 39  22  41  1   
 40  23  25  1   
 41  23  26  1   
 42  23  42  1   
 43  24  27  1   
 44  25  26  1   
 45  25  43  1   
 46  25  44  1   
 47  26  45  1   
 48  26  46  1   
 49  27  47  1   
 50  27  48  1   
 51  27  49  1   
@<TRIPOS>SUBSTRUCTURE
  1 ****   4 GROUP 4 **** **** 0

# MOE 2024.06 (io_trps.svl 2023.06)
