@<TRIPOS>MOLECULE
NONAME
46 48 1 0 0 
SMALL
USER_CHARGES


@<TRIPOS>ATOM
  1 O       -0.5490    -0.2600     1.2350 O.2   1 <1>  -0.5700 
  2 C       -0.4680    -1.2200     0.5110 C.2   1 <1>   0.5690 
  3 N        0.6930    -1.5960    -0.0770 N.am  1 <1>  -0.7300 
  4 C       -1.7150    -2.0270     0.2360 C.3   1 <1>  -0.0990 
  5 C        1.9850    -0.9100     0.0890 C.3   1 <1>   0.2200 
  6 C       -2.7510    -1.1870    -0.5210 C.3   1 <1>   0.0200 
  7 C        2.4590    -0.4080    -1.2790 C.3   1 <1>  -0.1600 
  8 C        2.9900    -1.8900     0.7030 C.3   1 <1>  -0.1600 
  9 C       -3.9750    -2.0090    -0.8680 C.2   1 <1>   0.2980 
 10 C        3.8560     0.2230    -1.1840 C.3   1 <1>  -0.1600 
 11 C        4.3880    -1.2620     0.8000 C.3   1 <1>  -0.1600 
 12 O       -3.8630    -2.9500    -1.7680 O.3   1 <1>  -0.0190 
 13 N       -5.1270    -1.8770    -0.3580 N.2   1 <1>  -0.5650 
 14 C        4.8660    -0.7550    -0.5670 C.3   1 <1>  -0.1600 
 15 N       -5.0500    -3.4640    -1.8360 N.2   1 <1>  -0.4100 
 16 C       -5.8030    -2.8330    -1.0050 C.2   1 <1>   0.4620 
 17 C       -7.2140    -3.0960    -0.7690 C.ar  1 <1>   0.0540 
 18 C       -7.9530    -2.3630     0.1630 C.ar  1 <1>  -0.1500 
 19 C       -7.8890    -4.0980    -1.4680 C.ar  1 <1>  -0.1500 
 20 C       -9.2960    -2.6100     0.3920 C.ar  1 <1>  -0.1440 
 21 C       -9.2300    -4.3540    -1.2490 C.ar  1 <1>  -0.1500 
 22 C       -9.9340    -3.6110    -0.3200 C.ar  1 <1>  -0.1500 
 23 C      -10.0720    -1.7950     1.4110 C.3   1 <1>  -0.0970 
 24 H        0.7250    -2.4210    -0.6750 H     1 <1>   0.3700 
 25 H       -2.1290    -2.3450     1.1760 H     1 <1>   0.0800 
 26 H       -1.4640    -2.9030    -0.3340 H     1 <1>   0.0800 
 27 H        1.8680    -0.0670     0.7520 H     1 <1>   0.0800 
 28 H       -2.3220    -0.8000    -1.4270 H     1 <1>   0.0800 
 29 H       -3.0500    -0.3520     0.0890 H     1 <1>   0.0800 
 30 H        1.7640     0.3250    -1.6470 H     1 <1>   0.0800 
 31 H        2.4930    -1.2290    -1.9730 H     1 <1>   0.0800 
 32 H        3.0480    -2.7760     0.0960 H     1 <1>   0.0800 
 33 H        2.6570    -2.1690     1.6870 H     1 <1>   0.0800 
 34 H        3.8050     1.1110    -0.5770 H     1 <1>   0.0800 
 35 H        4.1890     0.5140    -2.1660 H     1 <1>   0.0800 
 36 H        5.0860    -1.9890     1.1800 H     1 <1>   0.0800 
 37 H        4.3610    -0.4390     1.4950 H     1 <1>   0.0800 
 38 H        5.8190    -0.2660    -0.4570 H     1 <1>   0.0800 
 39 H        5.0020    -1.5920    -1.2300 H     1 <1>   0.0800 
 40 H       -7.4600    -1.5830     0.7160 H     1 <1>   0.1500 
 41 H       -7.3560    -4.6860    -2.1950 H     1 <1>   0.1500 
 42 H       -9.7270    -5.1320    -1.8020 H     1 <1>   0.1500 
 43 H      -10.9780    -3.8130    -0.1540 H     1 <1>   0.1500 
 44 H       -9.4050    -1.2360     2.0420 H     1 <1>   0.0800 
 45 H      -10.6620    -2.4450     2.0310 H     1 <1>   0.0800 
 46 H      -10.7250    -1.1080     0.9050 H     1 <1>   0.0800 
@<TRIPOS>BOND
  1   1   2  2   
  2   2   3  am  
  3   2   4  1   
  4   3   5  1   
  5   3  24  1   
  6   4   6  1   
  7   4  25  1   
  8   4  26  1   
  9   5   7  1   
 10   5   8  1   
 11   5  27  1   
 12   6   9  1   
 13   6  28  1   
 14   6  29  1   
 15   7  10  1   
 16   7  30  1   
 17   7  31  1   
 18   8  11  1   
 19   8  32  1   
 20   8  33  1   
 21   9  12  1   
 22   9  13  2   
 23  10  14  1   
 24  10  34  1   
 25  10  35  1   
 26  11  14  1   
 27  11  36  1   
 28  11  37  1   
 29  12  15  1   
 30  13  16  1   
 31  14  38  1   
 32  14  39  1   
 33  15  16  2   
 34  16  17  1   
 35  17  18  ar  
 36  17  19  ar  
 37  18  20  ar  
 38  18  40  1   
 39  19  21  ar  
 40  19  41  1   
 41  20  22  ar  
 42  20  23  1   
 43  21  22  ar  
 44  21  42  1   
 45  22  43  1   
 46  23  44  1   
 47  23  45  1   
 48  23  46  1   
@<TRIPOS>SUBSTRUCTURE
  1 ****   6 GROUP 4 **** **** 0

# MOE 2024.06 (io_trps.svl 2023.06)
