@<TRIPOS>MOLECULE
NONAME
36 35 1 0 0 
SMALL
USER_CHARGES


@<TRIPOS>ATOM
  1 O       -5.7090     1.4970    -0.9260 O.3   1 <1>  -0.6800 
  2 C       -5.5060     0.5600     0.0850 C.3   1 <1>   0.2000 
  3 C       -4.0440     0.0550     0.0070 C.3   1 <1>   0.3430 
  4 C       -6.5230    -0.5780    -0.0850 C.3   1 <1>  -0.1600 
  5 N       -3.1580     1.1030    -0.5870 N.4   1 <1>  -0.9060 
  6 C       -7.9610    -0.2520     0.3770 C.3   1 <1>  -0.0800 
  7 C       -2.2970     1.8850     0.2970 C.3   1 <1>   0.5030 
  8 C       -8.8220    -1.5160     0.2690 C.3   1 <1>  -0.2400 
  9 C       -8.6300     0.8770    -0.4210 C.3   1 <1>  -0.2400 
 10 C       -1.2490     0.9650     0.9180 C.3   1 <1>  -0.2400 
 11 C       -1.6190     2.9300    -0.5810 C.3   1 <1>  -0.2400 
 12 C       -3.1310     2.5750     1.3760 C.3   1 <1>  -0.2400 
 13 H       -6.6750     1.6490    -1.0330 H     1 <1>   0.4000 
 14 H       -5.6670     1.0530     1.0290 H     1 <1>   0.0800 
 15 H       -4.0270    -0.8180    -0.6230 H     1 <1>   0.0800 
 16 H       -3.7020    -0.2400     0.9840 H     1 <1>   0.0800 
 17 H       -6.1850    -1.4090     0.5100 H     1 <1>   0.0800 
 18 H       -6.5300    -0.9100    -1.1100 H     1 <1>   0.0800 
 19 H       -3.8290     1.7500    -1.0380 H     1 <1>   0.4500 
 20 H       -2.5910     0.7080    -1.3410 H     1 <1>   0.4500 
 21 H       -7.9360     0.0380     1.4160 H     1 <1>   0.0800 
 22 H       -8.8940    -1.8430    -0.7540 H     1 <1>   0.0800 
 23 H       -9.8160    -1.3260     0.6350 H     1 <1>   0.0800 
 24 H       -8.4020    -2.3140     0.8560 H     1 <1>   0.0800 
 25 H       -8.5670     0.6900    -1.4790 H     1 <1>   0.0800 
 26 H       -8.1900     1.8300    -0.1930 H     1 <1>   0.0800 
 27 H       -9.6720     0.9440    -0.1570 H     1 <1>   0.0800 
 28 H       -1.6960     0.2370     1.5700 H     1 <1>   0.0800 
 29 H       -0.5620     1.5460     1.5100 H     1 <1>   0.0800 
 30 H       -0.6790     0.4590     0.1590 H     1 <1>   0.0800 
 31 H       -1.0270     2.4680    -1.3510 H     1 <1>   0.0800 
 32 H       -0.9610     3.5400     0.0140 H     1 <1>   0.0800 
 33 H       -2.3440     3.5820    -1.0360 H     1 <1>   0.0800 
 34 H       -3.5630     1.8650     2.0570 H     1 <1>   0.0800 
 35 H       -3.9110     3.1720     0.9360 H     1 <1>   0.0800 
 36 H       -2.5030     3.2300     1.9550 H     1 <1>   0.0800 
@<TRIPOS>BOND
  1   1   2  1   
  2   1  13  1   
  3   2   3  1   
  4   2   4  1   
  5   2  14  1   
  6   3   5  1   
  7   3  15  1   
  8   3  16  1   
  9   4   6  1   
 10   4  17  1   
 11   4  18  1   
 12   5   7  1   
 13   5  19  1   
 14   5  20  1   
 15   6   8  1   
 16   6   9  1   
 17   6  21  1   
 18   7  10  1   
 19   7  11  1   
 20   7  12  1   
 21   8  22  1   
 22   8  23  1   
 23   8  24  1   
 24   9  25  1   
 25   9  26  1   
 26   9  27  1   
 27  10  28  1   
 28  10  29  1   
 29  10  30  1   
 30  11  31  1   
 31  11  32  1   
 32  11  33  1   
 33  12  34  1   
 34  12  35  1   
 35  12  36  1   
@<TRIPOS>SUBSTRUCTURE
  1 ****   2 GROUP 4 **** **** 0

# MOE 2024.06 (io_trps.svl 2023.06)
