@<TRIPOS>MOLECULE
NONAME
41 42 1 0 0 
SMALL
USER_CHARGES


@<TRIPOS>ATOM
  1 CL      -0.4680     0.9010     2.3870 Cl    1 <1>  -0.1770 
  2 C        0.1190     1.7380     0.9720 C.ar  1 <1>   0.1770 
  3 C        1.4810     1.8550     0.7760 C.ar  1 <1>  -0.1500 
  4 C       -0.7920     2.2660     0.0750 C.ar  1 <1>  -0.1500 
  5 C        1.9470     2.5230    -0.3530 C.ar  1 <1>   0.0830 
  6 C       -0.3270     2.9300    -1.0470 C.ar  1 <1>  -0.1500 
  7 O        3.2610     2.6930    -0.6390 O.3   1 <1>  -0.3630 
  8 C        1.0370     3.0550    -1.2560 C.ar  1 <1>  -0.1500 
  9 C        4.2670     2.1920     0.2110 C.3   1 <1>   0.1200 
 10 C        5.6240     2.5510    -0.3940 C.3   1 <1>  -0.1600 
 11 C        6.7780     2.0440     0.4820 C.3   1 <1>  -0.1600 
 12 C        8.1350     2.4110    -0.1320 C.3   1 <1>  -0.1600 
 13 C        9.3000     1.9200     0.7340 C.3   1 <1>   0.0210 
 14 C       10.6260     2.3100     0.1040 C.2   1 <1>  -0.1810 
 15 C       11.3260     3.4990     0.3090 C.2   1 <1>   0.1080 
 16 C       11.3870     1.6090    -0.7650 C.2   1 <1>  -0.3320 
 17 N       12.4300     3.5430    -0.3670 N.2   1 <1>  -0.7070 
 18 C       10.8950     4.6360     1.2070 C.3   1 <1>  -0.0590 
 19 N       12.4670     2.3750    -1.0300 N.pl3 1 <1>   0.3000 
 20 C       11.1690     0.2410    -1.3870 C.3   1 <1>  -0.0600 
 21 H        2.1430     1.4270     1.5030 H     1 <1>   0.1500 
 22 H       -1.8460     2.1580     0.2560 H     1 <1>   0.1500 
 23 H       -1.0220     3.3480    -1.7560 H     1 <1>   0.1500 
 24 H        1.4070     3.5690    -2.1250 H     1 <1>   0.1500 
 25 H        4.1520     1.1250     0.2810 H     1 <1>   0.0800 
 26 H        4.1510     2.6470     1.1800 H     1 <1>   0.0800 
 27 H        5.6910     3.6210    -0.4910 H     1 <1>   0.0800 
 28 H        5.6970     2.1120    -1.3740 H     1 <1>   0.0800 
 29 H        6.7080     0.9740     0.5810 H     1 <1>   0.0800 
 30 H        6.6990     2.4800     1.4640 H     1 <1>   0.0800 
 31 H        8.2060     3.4800    -0.2420 H     1 <1>   0.0800 
 32 H        8.2220     1.9740    -1.1120 H     1 <1>   0.0800 
 33 H        9.2550     0.8500     0.8340 H     1 <1>   0.0800 
 34 H        9.2340     2.3420     1.7200 H     1 <1>   0.0800 
 35 H        9.8830     4.9170     0.9850 H     1 <1>   0.0800 
 36 H       11.5340     5.4860     1.0500 H     1 <1>   0.0800 
 37 H       10.9670     4.3320     2.2340 H     1 <1>   0.0800 
 38 H       13.2420     2.1310    -1.6570 H     1 <1>   0.2700 
 39 H       10.2290    -0.1730    -1.0730 H     1 <1>   0.0800 
 40 H       11.9550    -0.4300    -1.0890 H     1 <1>   0.0800 
 41 H       11.1630     0.3190    -2.4600 H     1 <1>   0.0800 
@<TRIPOS>BOND
  1   1   2  1   
  2   2   3  ar  
  3   2   4  ar  
  4   3   5  ar  
  5   3  21  1   
  6   4   6  ar  
  7   4  22  1   
  8   5   7  1   
  9   5   8  ar  
 10   6   8  ar  
 11   6  23  1   
 12   7   9  1   
 13   8  24  1   
 14   9  10  1   
 15   9  25  1   
 16   9  26  1   
 17  10  11  1   
 18  10  27  1   
 19  10  28  1   
 20  11  12  1   
 21  11  29  1   
 22  11  30  1   
 23  12  13  1   
 24  12  31  1   
 25  12  32  1   
 26  13  14  1   
 27  13  33  1   
 28  13  34  1   
 29  14  15  1   
 30  14  16  2   
 31  15  17  2   
 32  15  18  1   
 33  16  19  1   
 34  16  20  1   
 35  17  19  1   
 36  18  35  1   
 37  18  36  1   
 38  18  37  1   
 39  19  38  1   
 40  20  39  1   
 41  20  40  1   
 42  20  41  1   
@<TRIPOS>SUBSTRUCTURE
  1 ****  10 GROUP 4 **** **** 0

# MOE 2024.06 (io_trps.svl 2023.06)
