@<TRIPOS>MOLECULE
NONAME
42 43 1 0 0 
SMALL
USER_CHARGES


@<TRIPOS>ATOM
  1 N        0.1360     0.5140     0.2360 N.3   1 <1>  -0.3020 
  2 N        1.4710    -0.0960     0.5250 N.4   1 <1>  -0.6410 
  3 C       -0.6850    -0.3200    -0.6800 C.3   1 <1>   0.1100 
  4 C       -0.6000     0.8470     1.4750 C.3   1 <1>   0.1100 
  5 C        2.4460     0.0360    -0.5910 C.3   1 <1>   0.4230 
  6 C       -2.1400     0.1930    -0.8380 C.3   1 <1>   0.3430 
  7 C       -1.9090     1.6260     1.1890 C.3   1 <1>   0.3430 
  8 C        3.7100    -0.7600    -0.2210 C.3   1 <1>  -0.1600 
  9 C        2.7310     1.5320    -0.8420 C.3   1 <1>  -0.1600 
 10 N       -2.3310     1.5640    -0.2560 N.4   1 <1>  -0.9590 
 11 C        4.6890     0.0720     0.6230 C.3   1 <1>  -0.0800 
 12 C        4.1890     1.7950    -1.2420 C.3   1 <1>  -0.1600 
 13 C       -3.7400     2.0470    -0.4330 C.3   1 <1>   0.2630 
 14 C        5.1750     1.3080    -0.1630 C.3   1 <1>  -0.1600 
 15 C        5.8790    -0.7820     1.0750 C.3   1 <1>  -0.2400 
 16 H        1.4060    -1.0920     0.7790 H     1 <1>   0.4500 
 17 H        1.9250     0.3700     1.3250 H     1 <1>   0.4500 
 18 H       -0.7180    -1.3350    -0.3240 H     1 <1>   0.0800 
 19 H       -0.2220    -0.3320    -1.6510 H     1 <1>   0.0800 
 20 H        0.0200     1.4480     2.1180 H     1 <1>   0.0800 
 21 H       -0.8410    -0.0580     2.0070 H     1 <1>   0.0800 
 22 H        2.0300    -0.4040    -1.4830 H     1 <1>   0.0800 
 23 H       -2.8050    -0.4990    -0.3450 H     1 <1>   0.0800 
 24 H       -2.4030     0.1940    -1.8840 H     1 <1>   0.0800 
 25 H       -1.7740     2.6560     1.4760 H     1 <1>   0.0800 
 26 H       -2.6890     1.2240     1.8160 H     1 <1>   0.0800 
 27 H        4.2130    -1.0350    -1.1330 H     1 <1>   0.0800 
 28 H        3.4560    -1.6780     0.2780 H     1 <1>   0.0800 
 29 H        2.5310     2.1120     0.0430 H     1 <1>   0.0800 
 30 H        2.0850     1.8880    -1.6240 H     1 <1>   0.0800 
 31 H       -1.7140     2.2060    -0.7800 H     1 <1>   0.4500 
 32 H        4.1840     0.4140     1.5110 H     1 <1>   0.0800 
 33 H        4.3440     2.8470    -1.4180 H     1 <1>   0.0800 
 34 H        4.4000     1.2850    -2.1680 H     1 <1>   0.0800 
 35 H       -4.4290     1.4080     0.0970 H     1 <1>   0.0800 
 36 H       -4.0090     2.0500    -1.4770 H     1 <1>   0.0800 
 37 H       -3.8440     3.0520    -0.0540 H     1 <1>   0.0800 
 38 H        6.1140     1.0950    -0.6480 H     1 <1>   0.0800 
 39 H        5.3630     2.1060     0.5360 H     1 <1>   0.0800 
 40 H        6.4190    -1.1680     0.2270 H     1 <1>   0.0800 
 41 H        5.5490    -1.6120     1.6740 H     1 <1>   0.0800 
 42 H        6.5580    -0.1920     1.6660 H     1 <1>   0.0800 
@<TRIPOS>BOND
  1   1   2  1   
  2   1   3  1   
  3   1   4  1   
  4   2   5  1   
  5   2  16  1   
  6   2  17  1   
  7   3   6  1   
  8   3  18  1   
  9   3  19  1   
 10   4   7  1   
 11   4  20  1   
 12   4  21  1   
 13   5   8  1   
 14   5   9  1   
 15   5  22  1   
 16   6  10  1   
 17   6  23  1   
 18   6  24  1   
 19   7  10  1   
 20   7  25  1   
 21   7  26  1   
 22   8  11  1   
 23   8  27  1   
 24   8  28  1   
 25   9  12  1   
 26   9  29  1   
 27   9  30  1   
 28  10  13  1   
 29  10  31  1   
 30  11  14  1   
 31  11  15  1   
 32  11  32  1   
 33  12  14  1   
 34  12  33  1   
 35  12  34  1   
 36  13  35  1   
 37  13  36  1   
 38  13  37  1   
 39  14  38  1   
 40  14  39  1   
 41  15  40  1   
 42  15  41  1   
 43  15  42  1   
@<TRIPOS>SUBSTRUCTURE
  1 ****   2 GROUP 4 **** **** 0

# MOE 2024.06 (io_trps.svl 2023.06)
