@<TRIPOS>MOLECULE
NONAME
34 35 1 0 0 
SMALL
USER_CHARGES


@<TRIPOS>ATOM
  1 S       -1.2390     0.5680     3.0200 S.3   1 <1>  -0.9360 
  2 C       -2.1170     0.8720     1.7080 C.cat 1 <1>   0.7360 
  3 N       -3.1630     0.1270     1.3880 N.pl3 1 <1>  -0.7000 
  4 N       -1.9230     1.8480     0.8230 N.pl3 1 <1>  -0.7640 
  5 C       -3.6800     0.6350     0.2400 C.2   1 <1>   0.4260 
  6 C       -2.9340     1.7070    -0.1370 C.2   1 <1>   0.2770 
  7 C       -0.8420     2.8520     0.8730 C.3   1 <1>   0.3540 
  8 N       -4.7820     0.1770    -0.4690 N.am  1 <1>  -0.4360 
  9 C       -3.3050     2.4050    -1.3290 C.2   1 <1>   0.7030 
 10 C        0.2770     2.4430    -0.0890 C.3   1 <1>  -0.1600 
 11 C       -5.1310     0.8580    -1.6230 C.2   1 <1>   0.6900 
 12 C       -5.5490    -1.0070     0.0090 C.3   1 <1>   0.0600 
 13 O       -2.7250     3.3800    -1.7720 O.2   1 <1>  -0.5700 
 14 N       -4.3920     1.9360    -2.0140 N.am  1 <1>  -0.4900 
 15 C        1.3960     3.4940    -0.1990 C.3   1 <1>  -0.0800 
 16 O       -6.0760     0.5300    -2.3060 O.2   1 <1>  -0.5700 
 17 C        2.4040     3.0640    -1.2720 C.3   1 <1>  -0.2400 
 18 C        2.1280     3.6960     1.1350 C.3   1 <1>  -0.2400 
 19 H       -3.4050    -0.6520     1.9930 H     1 <1>   0.4500 
 20 H       -0.4620     2.9190     1.8780 H     1 <1>   0.0800 
 21 H       -1.2360     3.8150     0.5950 H     1 <1>   0.0800 
 22 H       -0.1490     2.2930    -1.0650 H     1 <1>   0.0800 
 23 H        0.6920     1.5080     0.2470 H     1 <1>   0.0800 
 24 H       -4.9010    -1.8650     0.0550 H     1 <1>   0.0800 
 25 H       -6.3670    -1.2300    -0.6550 H     1 <1>   0.0800 
 26 H       -5.9480    -0.8100     0.9890 H     1 <1>   0.0800 
 27 H       -4.6720     2.4180    -2.8630 H     1 <1>   0.3700 
 28 H        0.9660     4.4340    -0.5040 H     1 <1>   0.0800 
 29 H        2.8630     2.1280    -1.0070 H     1 <1>   0.0800 
 30 H        3.1760     3.8060    -1.3790 H     1 <1>   0.0800 
 31 H        1.9140     2.9500    -2.2230 H     1 <1>   0.0800 
 32 H        2.5200     2.7610     1.4980 H     1 <1>   0.0800 
 33 H        1.4710     4.1040     1.8820 H     1 <1>   0.0800 
 34 H        2.9470     4.3820     1.0100 H     1 <1>   0.0800 
@<TRIPOS>BOND
  1   1   2  1   
  2   2   3  ar  
  3   2   4  ar  
  4   3   5  1   
  5   3  19  1   
  6   4   6  1   
  7   4   7  1   
  8   5   6  2   
  9   5   8  1   
 10   6   9  1   
 11   7  10  1   
 12   7  20  1   
 13   7  21  1   
 14   8  11  am  
 15   8  12  1   
 16   9  13  2   
 17   9  14  am  
 18  10  15  1   
 19  10  22  1   
 20  10  23  1   
 21  11  14  am  
 22  11  16  2   
 23  12  24  1   
 24  12  25  1   
 25  12  26  1   
 26  14  27  1   
 27  15  17  1   
 28  15  18  1   
 29  15  28  1   
 30  17  29  1   
 31  17  30  1   
 32  17  31  1   
 33  18  32  1   
 34  18  33  1   
 35  18  34  1   
@<TRIPOS>SUBSTRUCTURE
  1 ****   6 GROUP 4 **** **** 0

# MOE 2024.06 (io_trps.svl 2023.06)
