@<TRIPOS>MOLECULE
NONAME
39 40 1 0 0 
SMALL
USER_CHARGES


@<TRIPOS>ATOM
  1 S       -0.1220     0.6940    -0.8370 S.3   1 <1>  -0.0800 
  2 C       -1.6950     0.8250    -0.0410 C.2   1 <1>  -0.0450 
  3 C        0.6910     1.5760     0.4390 C.2   1 <1>  -0.1400 
  4 C       -2.8490     0.2370    -0.6730 C.2   1 <1>   0.7150 
  5 C       -1.5300     1.5120     1.1200 C.2   1 <1>  -0.1500 
  6 C       -0.1950     1.9320     1.3880 C.2   1 <1>  -0.1500 
  7 C        2.1860     1.7830     0.2710 C.3   1 <1>   0.0200 
  8 O       -2.7760    -0.3630    -1.7290 O.2   1 <1>  -0.5700 
  9 N       -4.0680     0.3560    -0.0790 N.am  1 <1>  -0.7300 
 10 C        2.7980     2.5640     1.4370 C.3   1 <1>  -0.2400 
 11 C       -5.3390    -0.0360    -0.6910 C.3   1 <1>   0.3640 
 12 C       -6.4220     0.8870    -0.1440 C.ar  1 <1>  -0.1430 
 13 C       -5.6190    -1.5020    -0.3700 C.3   1 <1>  -0.2400 
 14 C       -7.0920     1.7420    -1.0060 C.ar  1 <1>  -0.1500 
 15 C       -6.7520     0.9020     1.2050 C.ar  1 <1>  -0.1500 
 16 C       -8.0780     2.5980    -0.5420 C.ar  1 <1>   0.0830 
 17 C       -7.7350     1.7540     1.6790 C.ar  1 <1>  -0.1500 
 18 O       -8.6770     3.3940    -1.4630 O.3   1 <1>  -0.3630 
 19 C       -8.4000     2.6010     0.8120 C.ar  1 <1>  -0.1500 
 20 C       -9.7000     4.2940    -1.1000 C.3   1 <1>   0.0400 
 21 H       -2.3170     1.7430     1.8150 H     1 <1>   0.1500 
 22 H        0.0390     2.4830     2.2830 H     1 <1>   0.1500 
 23 H        2.3630     2.3160    -0.6470 H     1 <1>   0.0800 
 24 H        2.6640     0.8220     0.1950 H     1 <1>   0.0800 
 25 H       -4.1730     0.9920     0.7070 H     1 <1>   0.3700 
 26 H        2.3440     3.5360     1.5130 H     1 <1>   0.0800 
 27 H        3.8540     2.6900     1.2810 H     1 <1>   0.0800 
 28 H        2.6470     2.0330     2.3600 H     1 <1>   0.0800 
 29 H       -5.2690     0.0810    -1.7600 H     1 <1>   0.0800 
 30 H       -5.6190    -1.6750     0.6900 H     1 <1>   0.0800 
 31 H       -4.8710    -2.1220    -0.8300 H     1 <1>   0.0800 
 32 H       -6.5790    -1.7780    -0.7660 H     1 <1>   0.0800 
 33 H       -6.8580     1.7580    -2.0560 H     1 <1>   0.1500 
 34 H       -6.2480     0.2490     1.8960 H     1 <1>   0.1500 
 35 H       -7.9850     1.7550     2.7260 H     1 <1>   0.1500 
 36 H       -9.1580     3.2510     1.2040 H     1 <1>   0.1500 
 37 H      -10.0220     4.8090    -1.9870 H     1 <1>   0.0800 
 38 H       -9.3090     5.0000    -0.3890 H     1 <1>   0.0800 
 39 H      -10.5210     3.7390    -0.6810 H     1 <1>   0.0800 
@<TRIPOS>BOND
  1   1   2  1   
  2   1   3  1   
  3   2   4  1   
  4   2   5  2   
  5   3   6  2   
  6   3   7  1   
  7   4   8  2   
  8   4   9  am  
  9   5   6  1   
 10   5  21  1   
 11   6  22  1   
 12   7  10  1   
 13   7  23  1   
 14   7  24  1   
 15   9  11  1   
 16   9  25  1   
 17  10  26  1   
 18  10  27  1   
 19  10  28  1   
 20  11  12  1   
 21  11  13  1   
 22  11  29  1   
 23  12  14  ar  
 24  12  15  ar  
 25  13  30  1   
 26  13  31  1   
 27  13  32  1   
 28  14  16  ar  
 29  14  33  1   
 30  15  17  ar  
 31  15  34  1   
 32  16  18  1   
 33  16  19  ar  
 34  17  19  ar  
 35  17  35  1   
 36  18  20  1   
 37  19  36  1   
 38  20  37  1   
 39  20  38  1   
 40  20  39  1   
@<TRIPOS>SUBSTRUCTURE
  1 ****   9 GROUP 4 **** **** 0

# MOE 2024.06 (io_trps.svl 2023.06)
