@<TRIPOS>MOLECULE
NONAME
32 32 1 0 0 
SMALL
USER_CHARGES


@<TRIPOS>ATOM
  1 F       -0.7550     0.4350    -1.3110 F     1 <1>  -0.3400 
  2 C       -1.5070     1.2550    -0.5890 C.3   1 <1>   1.0200 
  3 F       -2.6800     1.2960    -1.2050 F     1 <1>  -0.3400 
  4 F       -1.7070     0.6250     0.5610 F     1 <1>  -0.3400 
  5 C       -0.8290     2.6230    -0.4160 C.3   1 <1>   0.2200 
  6 N        0.5700     2.5470     0.2150 N.am  1 <1>  -0.7300 
  7 C       -1.7970     3.5640     0.3180 C.3   1 <1>   1.0200 
  8 C        1.6690     3.1110    -0.3340 C.2   1 <1>   0.7800 
  9 F       -2.1320     3.1330     1.5270 F     1 <1>  -0.3400 
 10 F       -1.2570     4.7600     0.5100 F     1 <1>  -0.3400 
 11 F       -2.9310     3.7870    -0.3290 F     1 <1>  -0.3400 
 12 O        1.6040     3.7060    -1.3880 O.2   1 <1>  -0.5700 
 13 O        2.8090     2.9690     0.3450 O.3   1 <1>  -0.2330 
 14 C        4.0000     3.5420     0.0240 C.ar  1 <1>   0.0830 
 15 C        5.1660     2.7780     0.0930 C.ar  1 <1>  -0.1430 
 16 C        4.0580     4.8800    -0.3440 C.ar  1 <1>  -0.1500 
 17 C        6.3850     3.3690    -0.2330 C.ar  1 <1>  -0.1440 
 18 C        5.1150     1.3080     0.5100 C.3   1 <1>  -0.0970 
 19 C        5.2700     5.4600    -0.6590 C.ar  1 <1>  -0.1500 
 20 C        6.4260     4.7050    -0.6050 C.ar  1 <1>  -0.1500 
 21 C        7.6920     2.5890    -0.1990 C.3   1 <1>  -0.0970 
 22 H       -0.7250     3.0250    -1.4060 H     1 <1>   0.0800 
 23 H        0.6710     2.0830     1.1230 H     1 <1>   0.3700 
 24 H        3.1620     5.4730    -0.3860 H     1 <1>   0.1500 
 25 H        4.1790     1.0480     0.9680 H     1 <1>   0.0800 
 26 H        5.8890     1.0930     1.2240 H     1 <1>   0.0800 
 27 H        5.2540     0.6830    -0.3540 H     1 <1>   0.0800 
 28 H        5.3150     6.4960    -0.9470 H     1 <1>   0.1500 
 29 H        7.3630     5.1690    -0.8560 H     1 <1>   0.1500 
 30 H        7.6010     1.6850    -0.7740 H     1 <1>   0.0800 
 31 H        7.9440     2.3380     0.8150 H     1 <1>   0.0800 
 32 H        8.4980     3.1670    -0.6140 H     1 <1>   0.0800 
@<TRIPOS>BOND
  1   1   2  1   
  2   2   3  1   
  3   2   4  1   
  4   2   5  1   
  5   5   6  1   
  6   5   7  1   
  7   5  22  1   
  8   6   8  am  
  9   6  23  1   
 10   7   9  1   
 11   7  10  1   
 12   7  11  1   
 13   8  12  2   
 14   8  13  1   
 15  13  14  1   
 16  14  15  ar  
 17  14  16  ar  
 18  15  17  ar  
 19  15  18  1   
 20  16  19  ar  
 21  16  24  1   
 22  17  20  ar  
 23  17  21  1   
 24  18  25  1   
 25  18  26  1   
 26  18  27  1   
 27  19  20  ar  
 28  19  28  1   
 29  20  29  1   
 30  21  30  1   
 31  21  31  1   
 32  21  32  1   
@<TRIPOS>SUBSTRUCTURE
  1 ****   8 GROUP 4 **** **** 0

# MOE 2024.06 (io_trps.svl 2023.06)
