@<TRIPOS>MOLECULE
NONAME
27 27 1 0 0 
SMALL
USER_CHARGES


@<TRIPOS>ATOM
  1 O       -0.4160     0.7370    -0.9090 O.co2 1 <1>  -0.9000 
  2 C       -0.5960     1.3040     0.1760 C.2   1 <1>   0.9470 
  3 O        0.3250     1.4930     0.9780 O.co2 1 <1>  -0.9000 
  4 C       -1.9930     1.7810     0.5600 C.3   1 <1>  -0.2470 
  5 C       -2.5650     3.0840     0.1010 C.3   1 <1>  -0.1900 
  6 C       -3.1320     1.8020    -0.4380 C.3   1 <1>  -0.0600 
  7 C       -1.7430     3.9630    -0.8470 C.3   1 <1>  -0.1450 
  8 C       -3.3100     3.9170     1.1520 C.3   1 <1>  -0.1450 
  9 C       -4.4790     1.2560     0.0110 C.2   1 <1>  -0.1900 
 10 C       -5.6870     1.7990    -0.1840 C.2   1 <1>  -0.2760 
 11 C       -6.9600     1.1520     0.3350 C.3   1 <1>  -0.1020 
 12 C       -5.9430     3.0930    -0.9420 C.3   1 <1>  -0.1020 
 13 H       -2.2200     1.4630     1.5570 H     1 <1>   0.1000 
 14 H       -2.8720     1.4870    -1.4350 H     1 <1>   0.1000 
 15 H       -2.3820     4.6520    -1.3670 H     1 <1>   0.0800 
 16 H       -1.2300     3.3580    -1.5760 H     1 <1>   0.0800 
 17 H       -1.0050     4.5110    -0.2900 H     1 <1>   0.0800 
 18 H       -2.6020     4.4630     1.7490 H     1 <1>   0.0800 
 19 H       -3.8840     3.2820     1.8030 H     1 <1>   0.0800 
 20 H       -3.9750     4.6110     0.6750 H     1 <1>   0.0800 
 21 H       -4.3490     0.3210     0.5280 H     1 <1>   0.1500 
 22 H       -7.4660     1.8200     1.0080 H     1 <1>   0.0800 
 23 H       -6.7340     0.2430     0.8630 H     1 <1>   0.0800 
 24 H       -7.6150     0.9150    -0.4840 H     1 <1>   0.0800 
 25 H       -6.6180     2.9140    -1.7590 H     1 <1>   0.0800 
 26 H       -5.0300     3.4900    -1.3470 H     1 <1>   0.0800 
 27 H       -6.3730     3.8270    -0.2860 H     1 <1>   0.0800 
@<TRIPOS>BOND
  1   1   2  ar  
  2   2   3  ar  
  3   2   4  1   
  4   4   5  1   
  5   4   6  1   
  6   4  13  1   
  7   5   6  1   
  8   5   7  1   
  9   5   8  1   
 10   6   9  1   
 11   6  14  1   
 12   7  15  1   
 13   7  16  1   
 14   7  17  1   
 15   8  18  1   
 16   8  19  1   
 17   8  20  1   
 18   9  10  2   
 19   9  21  1   
 20  10  11  1   
 21  10  12  1   
 22  11  22  1   
 23  11  23  1   
 24  11  24  1   
 25  12  25  1   
 26  12  26  1   
 27  12  27  1   
@<TRIPOS>SUBSTRUCTURE
  1 ****   6 GROUP 4 **** **** 0

# MOE 2024.06 (io_trps.svl 2023.06)
