@<TRIPOS>MOLECULE
NONAME
36 36 1 0 0 
SMALL
USER_CHARGES


@<TRIPOS>ATOM
  1 O        3.5680    -1.5240    -2.3140 O.2   1 <1>  -0.5700 
  2 C        3.2540    -1.0280    -1.2680 C.2   1 <1>   0.6590 
  3 O        4.0980    -0.2110    -0.6490 O.3   1 <1>  -0.4300 
  4 C        1.8820    -1.3090    -0.6660 C.3   1 <1>  -0.0990 
  5 C        4.1380     0.0220     0.7470 C.3   1 <1>   0.1810 
  6 C        1.8820    -2.5020     0.3060 C.3   1 <1>  -0.1600 
  7 C        5.1460     1.1120     1.0900 C.2   1 <1>   0.4230 
  8 C        0.4780    -2.7650     0.8590 C.3   1 <1>  -0.2400 
  9 O        4.7030     2.0880     1.6440 O.2   1 <1>  -0.5700 
 10 C        6.5570     0.9440     0.7960 C.ar  1 <1>   0.0860 
 11 C        7.0880    -0.1730     0.1360 C.ar  1 <1>  -0.1500 
 12 C        7.4710     1.9280     1.1850 C.ar  1 <1>  -0.1500 
 13 C        8.4410    -0.3000    -0.1160 C.ar  1 <1>  -0.1500 
 14 C        8.8250     1.8090     0.9390 C.ar  1 <1>  -0.1500 
 15 C        9.3260     0.6950     0.2870 C.ar  1 <1>   0.0820 
 16 O       10.6600     0.6490     0.0830 O.3   1 <1>  -0.3630 
 17 C       11.2750    -0.4200    -0.5970 C.3   1 <1>   0.1200 
 18 C       12.7730    -0.1390    -0.6610 C.3   1 <1>  -0.2400 
 19 H        1.2160    -1.5310    -1.4810 H     1 <1>   0.0800 
 20 H        1.5080    -0.4250    -0.1870 H     1 <1>   0.0800 
 21 H        4.4100    -0.8930     1.2390 H     1 <1>   0.0800 
 22 H        3.1640     0.3340     1.0780 H     1 <1>   0.0800 
 23 H        2.5510    -2.3180     1.1270 H     1 <1>   0.0800 
 24 H        2.2280    -3.3810    -0.2120 H     1 <1>   0.0800 
 25 H        0.1150    -1.9070     1.3990 H     1 <1>   0.0800 
 26 H        0.4980    -3.6060     1.5300 H     1 <1>   0.0800 
 27 H       -0.2070    -2.9860     0.0590 H     1 <1>   0.0800 
 28 H        6.4430    -0.9650    -0.1990 H     1 <1>   0.1500 
 29 H        7.1090     2.8070     1.6920 H     1 <1>   0.1500 
 30 H        8.7910    -1.1770    -0.6280 H     1 <1>   0.1500 
 31 H        9.5070     2.5800     1.2490 H     1 <1>   0.1500 
 32 H       10.8560    -0.4790    -1.5880 H     1 <1>   0.0800 
 33 H       11.0800    -1.3270    -0.0530 H     1 <1>   0.0800 
 34 H       12.9540     0.7780    -1.1920 H     1 <1>   0.0800 
 35 H       13.2730    -0.9400    -1.1760 H     1 <1>   0.0800 
 36 H       13.1770    -0.0650     0.3330 H     1 <1>   0.0800 
@<TRIPOS>BOND
  1   1   2  2   
  2   2   3  1   
  3   2   4  1   
  4   3   5  1   
  5   4   6  1   
  6   4  19  1   
  7   4  20  1   
  8   5   7  1   
  9   5  21  1   
 10   5  22  1   
 11   6   8  1   
 12   6  23  1   
 13   6  24  1   
 14   7   9  2   
 15   7  10  1   
 16   8  25  1   
 17   8  26  1   
 18   8  27  1   
 19  10  11  ar  
 20  10  12  ar  
 21  11  13  ar  
 22  11  28  1   
 23  12  14  ar  
 24  12  29  1   
 25  13  15  ar  
 26  13  30  1   
 27  14  15  ar  
 28  14  31  1   
 29  15  16  1   
 30  16  17  1   
 31  17  18  1   
 32  17  32  1   
 33  17  33  1   
 34  18  34  1   
 35  18  35  1   
 36  18  36  1   
@<TRIPOS>SUBSTRUCTURE
  1 ****  11 GROUP 4 **** **** 0

# MOE 2024.06 (io_trps.svl 2023.06)
