@<TRIPOS>MOLECULE
NONAME
58 60 1 0 0 
SMALL
USER_CHARGES


@<TRIPOS>ATOM
  1 S        0.4820    -1.5400     0.9330 S.o2  1 <1>   1.4470 
  2 O        1.5410    -2.4990     1.1830 O.2   1 <1>  -0.6500 
  3 O       -0.5750    -1.4250     1.9110 O.2   1 <1>  -0.6500 
  4 N       -0.1510    -1.9360    -0.6010 N.am  1 <1>  -0.8490 
  5 C        1.2400     0.0990     0.7320 C.ar  1 <1>  -0.0090 
  6 C       -1.4960    -2.5220    -0.6860 C.3   1 <1>   0.2760 
  7 C        0.8130    -2.6610    -1.4830 C.3   1 <1>   0.2570 
  8 C        1.0260     0.8960    -0.3880 C.ar  1 <1>  -0.1500 
  9 C        2.0840     0.5930     1.7190 C.ar  1 <1>  -0.1500 
 10 C       -2.5970    -1.4840    -0.4210 C.3   1 <1>  -0.1600 
 11 C       -1.6780    -3.7980     0.1570 C.3   1 <1>  -0.1600 
 12 C        2.0690    -1.8780    -1.8940 C.2   1 <1>   0.5690 
 13 C        1.6540     2.1210    -0.5290 C.ar  1 <1>  -0.1500 
 14 C        2.7180     1.8150     1.5850 C.ar  1 <1>  -0.1500 
 15 C       -3.9860    -2.1000    -0.6480 C.3   1 <1>  -0.1600 
 16 C       -3.0730    -4.4000    -0.0720 C.3   1 <1>  -0.1600 
 17 O        2.0630    -1.3220    -2.9660 O.2   1 <1>  -0.5700 
 18 N        3.1370    -1.8370    -1.0360 N.am  1 <1>  -0.5470 
 19 C        2.5100     2.5850     0.4550 C.ar  1 <1>  -0.1440 
 20 C       -4.1750    -3.3660     0.2000 C.3   1 <1>  -0.1600 
 21 C        4.2870    -1.0390    -1.0920 C.ar  1 <1>   0.1170 
 22 C        3.2110     3.9210     0.2950 C.3   1 <1>  -0.0970 
 23 C        4.8240    -0.5570     0.0910 C.ar  1 <1>  -0.1500 
 24 C        4.9090    -0.7040    -2.2870 C.ar  1 <1>  -0.1500 
 25 C        5.9400     0.2790     0.1280 C.ar  1 <1>   0.0860 
 26 C        6.0270     0.1080    -2.2890 C.ar  1 <1>  -0.1500 
 27 C        6.4260     0.7860     1.3980 C.2   1 <1>   0.4230 
 28 C        6.5320     0.5950    -1.0980 C.ar  1 <1>  -0.1500 
 29 O        5.8400     0.6300     2.4380 O.2   1 <1>  -0.5700 
 30 C        7.7290     1.5590     1.4660 C.3   1 <1>  -0.1790 
 31 H       -1.6500    -2.8170    -1.7110 H     1 <1>   0.0800 
 32 H        0.3200    -2.9240    -2.4020 H     1 <1>   0.0800 
 33 H        1.1150    -3.5820    -1.0160 H     1 <1>   0.0800 
 34 H        0.3700     0.5590    -1.1720 H     1 <1>   0.1500 
 35 H        2.2630     0.0090     2.6070 H     1 <1>   0.1500 
 36 H       -2.4660    -0.6480    -1.0850 H     1 <1>   0.0800 
 37 H       -2.5570    -1.1240     0.5880 H     1 <1>   0.0800 
 38 H       -1.5810    -3.5790     1.2040 H     1 <1>   0.0800 
 39 H       -0.9340    -4.5270    -0.1080 H     1 <1>   0.0800 
 40 H        1.4770     2.7080    -1.4130 H     1 <1>   0.1500 
 41 H        3.3790     2.1560     2.3640 H     1 <1>   0.1500 
 42 H       -4.1060    -2.3450    -1.6890 H     1 <1>   0.0800 
 43 H       -4.7440    -1.3790    -0.3910 H     1 <1>   0.0800 
 44 H       -3.2090    -5.2480     0.5790 H     1 <1>   0.0800 
 45 H       -3.1540    -4.7490    -1.0870 H     1 <1>   0.0800 
 46 H        2.9660    -2.2810    -0.1230 H     1 <1>   0.3700 
 47 H       -5.1370    -3.8010    -0.0110 H     1 <1>   0.0800 
 48 H       -4.1600    -3.0980     1.2440 H     1 <1>   0.0800 
 49 H        2.5590     4.7140     0.6150 H     1 <1>   0.0800 
 50 H        3.4760     4.0810    -0.7350 H     1 <1>   0.0800 
 51 H        4.1090     3.9490     0.8850 H     1 <1>   0.0800 
 52 H        4.3550    -0.8250     1.0210 H     1 <1>   0.1500 
 53 H        4.5180    -1.0740    -3.2180 H     1 <1>   0.1500 
 54 H        6.4970     0.3630    -3.2240 H     1 <1>   0.1500 
 55 H        7.3970     1.2330    -1.1380 H     1 <1>   0.1500 
 56 H        7.6270     2.4960     0.9520 H     1 <1>   0.0800 
 57 H        8.5230     0.9860     1.0250 H     1 <1>   0.0800 
 58 H        7.9820     1.7570     2.4930 H     1 <1>   0.0800 
@<TRIPOS>BOND
  1   1   2  2   
  2   1   3  2   
  3   1   4  am  
  4   1   5  1   
  5   4   6  1   
  6   4   7  1   
  7   5   8  ar  
  8   5   9  ar  
  9   6  10  1   
 10   6  11  1   
 11   6  31  1   
 12   7  12  1   
 13   7  32  1   
 14   7  33  1   
 15   8  13  ar  
 16   8  34  1   
 17   9  14  ar  
 18   9  35  1   
 19  10  15  1   
 20  10  36  1   
 21  10  37  1   
 22  11  16  1   
 23  11  38  1   
 24  11  39  1   
 25  12  17  2   
 26  12  18  am  
 27  13  19  ar  
 28  13  40  1   
 29  14  19  ar  
 30  14  41  1   
 31  15  20  1   
 32  15  42  1   
 33  15  43  1   
 34  16  20  1   
 35  16  44  1   
 36  16  45  1   
 37  18  21  1   
 38  18  46  1   
 39  19  22  1   
 40  20  47  1   
 41  20  48  1   
 42  21  23  ar  
 43  21  24  ar  
 44  22  49  1   
 45  22  50  1   
 46  22  51  1   
 47  23  25  ar  
 48  23  52  1   
 49  24  26  ar  
 50  24  53  1   
 51  25  27  1   
 52  25  28  ar  
 53  26  28  ar  
 54  26  54  1   
 55  27  29  2   
 56  27  30  1   
 57  28  55  1   
 58  30  56  1   
 59  30  57  1   
 60  30  58  1   
@<TRIPOS>SUBSTRUCTURE
  1 ****   5 GROUP 4 **** **** 0

# MOE 2024.06 (io_trps.svl 2023.06)
