@<TRIPOS>MOLECULE
NONAME
37 38 1 0 0 
SMALL
USER_CHARGES


@<TRIPOS>ATOM
  1 F       -2.6010     1.7430     1.7140 F     1 <1>  -0.1900 
  2 C       -1.6640     2.3860     1.0690 C.ar  1 <1>   0.1900 
  3 C       -1.6910     2.3880    -0.3200 C.ar  1 <1>  -0.1440 
  4 C       -0.6950     3.0420     1.8010 C.ar  1 <1>  -0.1500 
  5 C       -0.6940     3.0790    -1.0030 C.ar  1 <1>  -0.1500 
  6 C       -2.7860     1.6460    -1.0640 C.3   1 <1>   0.4870 
  7 C        0.2730     3.7200     1.0890 C.ar  1 <1>   0.1900 
  8 C        0.2930     3.7500    -0.2950 C.ar  1 <1>  -0.1500 
  9 N       -4.0880     2.3210    -0.8200 N.4   1 <1>  -0.9590 
 10 F        1.2040     4.3560     1.7440 F     1 <1>  -0.1900 
 11 C       -5.2460     1.5130    -1.2620 C.3   1 <1>   0.3430 
 12 C       -4.1500     3.7090    -1.3270 C.3   1 <1>   0.3430 
 13 C       -5.8810     0.8790    -0.0280 C.3   1 <1>  -0.1600 
 14 C       -4.6490     4.6200    -0.2050 C.3   1 <1>  -0.1600 
 15 C       -6.7690     1.8310     0.7950 C.3   1 <1>  -0.1600 
 16 C       -6.0470     4.2870     0.3520 C.3   1 <1>  -0.1600 
 17 C       -6.1050     3.1080     1.3480 C.3   1 <1>  -0.1600 
 18 H       -0.6910     3.0300     2.8760 H     1 <1>   0.1500 
 19 H       -0.6690     3.1020    -2.0800 H     1 <1>   0.1500 
 20 H       -2.8270     0.6310    -0.7030 H     1 <1>   0.0800 
 21 H       -2.5690     1.6250    -2.1190 H     1 <1>   0.0800 
 22 H        1.0730     4.2910    -0.8030 H     1 <1>   0.1500 
 23 H       -4.1840     2.4020     0.2030 H     1 <1>   0.4500 
 24 H       -4.9250     0.7460    -1.9490 H     1 <1>   0.0800 
 25 H       -5.9770     2.1320    -1.7570 H     1 <1>   0.0800 
 26 H       -4.8120     3.7720    -2.1770 H     1 <1>   0.0800 
 27 H       -3.1720     4.0400    -1.6360 H     1 <1>   0.0800 
 28 H       -5.1250     0.4390     0.6000 H     1 <1>   0.0800 
 29 H       -6.5080     0.0720    -0.3650 H     1 <1>   0.0800 
 30 H       -4.6890     5.6170    -0.6090 H     1 <1>   0.0800 
 31 H       -3.9270     4.6470     0.5930 H     1 <1>   0.0800 
 32 H       -7.1360     1.2680     1.6380 H     1 <1>   0.0800 
 33 H       -7.6390     2.1020     0.2190 H     1 <1>   0.0800 
 34 H       -6.7490     4.1490    -0.4530 H     1 <1>   0.0800 
 35 H       -6.3800     5.1620     0.8870 H     1 <1>   0.0800 
 36 H       -5.1430     2.8940     1.7800 H     1 <1>   0.0800 
 37 H       -6.7240     3.4330     2.1690 H     1 <1>   0.0800 
@<TRIPOS>BOND
  1   1   2  1   
  2   2   3  ar  
  3   2   4  ar  
  4   3   5  ar  
  5   3   6  1   
  6   4   7  ar  
  7   4  18  1   
  8   5   8  ar  
  9   5  19  1   
 10   6   9  1   
 11   6  20  1   
 12   6  21  1   
 13   7   8  ar  
 14   7  10  1   
 15   8  22  1   
 16   9  11  1   
 17   9  12  1   
 18   9  23  1   
 19  11  13  1   
 20  11  24  1   
 21  11  25  1   
 22  12  14  1   
 23  12  26  1   
 24  12  27  1   
 25  13  15  1   
 26  13  28  1   
 27  13  29  1   
 28  14  16  1   
 29  14  30  1   
 30  14  31  1   
 31  15  17  1   
 32  15  32  1   
 33  15  33  1   
 34  16  17  1   
 35  16  34  1   
 36  16  35  1   
 37  17  36  1   
 38  17  37  1   
@<TRIPOS>SUBSTRUCTURE
  1 ****   3 GROUP 4 **** **** 0

# MOE 2024.06 (io_trps.svl 2023.06)
