@<TRIPOS>MOLECULE
NONAME
32 32 1 0 0 
SMALL
USER_CHARGES


@<TRIPOS>ATOM
  1 S        0.1360    -0.0830    -0.3410 S.3   1 <1>  -0.3710 
  2 C       -1.4450     0.7580    -0.3160 C.2   1 <1>   0.6510 
  3 C        1.2960     1.2370     0.2190 C.3   1 <1>   0.2080 
  4 N       -1.4220     1.9850     0.0360 N.2   1 <1>  -0.6210 
  5 N       -2.5570     0.0340    -0.6800 N.am  1 <1>  -0.4200 
  6 C        2.6900     0.6350     0.2630 C.2   1 <1>  -0.2880 
  7 C       -2.6060     2.6640     0.0720 C.2   1 <1>   0.0210 
  8 C       -3.7750     0.6940    -0.6380 C.2   1 <1>   0.6160 
  9 C       -2.4990    -1.3840    -1.1020 C.3   1 <1>   0.2780 
 10 C        3.7460     1.0820    -0.4240 C.2   1 <1>  -0.3000 
 11 O       -2.5340     3.8490     0.4110 O.3   1 <1>  -0.8500 
 12 C       -3.8000     2.0330    -0.2570 C.2   1 <1>  -0.1240 
 13 O       -4.7990     0.0540    -0.9530 O.2   1 <1>  -0.5700 
 14 C       -2.6510    -2.2860     0.1100 C.2   1 <1>  -0.2880 
 15 C       -5.1140     2.8060    -0.1980 C.3   1 <1>  -0.0220 
 16 C       -1.7390    -3.1600     0.5480 C.2   1 <1>  -0.3000 
 17 C       -5.8010     2.6070     1.1560 C.3   1 <1>  -0.2400 
 18 H        0.9680     1.5640     1.1910 H     1 <1>   0.0800 
 19 H        1.2230     2.0510    -0.4820 H     1 <1>   0.0800 
 20 H        2.7400    -0.2150     0.9230 H     1 <1>   0.1500 
 21 H       -1.5750    -1.5870    -1.6110 H     1 <1>   0.0800 
 22 H       -3.2900    -1.5900    -1.8030 H     1 <1>   0.0800 
 23 H        4.7260     0.6390    -0.3780 H     1 <1>   0.1500 
 24 H        3.7160     1.9280    -1.0890 H     1 <1>   0.1500 
 25 H       -3.6000    -2.1390     0.5990 H     1 <1>   0.1500 
 26 H       -5.7640     2.4840    -0.9900 H     1 <1>   0.0800 
 27 H       -4.9150     3.8540    -0.3450 H     1 <1>   0.0800 
 28 H       -1.8740    -3.7850     1.4130 H     1 <1>   0.1500 
 29 H       -0.7800    -3.3180     0.0830 H     1 <1>   0.1500 
 30 H       -6.0220     1.5670     1.3100 H     1 <1>   0.0800 
 31 H       -6.7110     3.1760     1.1980 H     1 <1>   0.0800 
 32 H       -5.1400     2.9440     1.9370 H     1 <1>   0.0800 
@<TRIPOS>BOND
  1   1   2  1   
  2   1   3  1   
  3   2   4  2   
  4   2   5  1   
  5   3   6  1   
  6   3  18  1   
  7   3  19  1   
  8   4   7  1   
  9   5   8  am  
 10   5   9  1   
 11   6  10  2   
 12   6  20  1   
 13   7  11  1   
 14   7  12  2   
 15   8  12  1   
 16   8  13  2   
 17   9  14  1   
 18   9  21  1   
 19   9  22  1   
 20  10  23  1   
 21  10  24  1   
 22  12  15  1   
 23  14  16  2   
 24  14  25  1   
 25  15  17  1   
 26  15  26  1   
 27  15  27  1   
 28  16  28  1   
 29  16  29  1   
 30  17  30  1   
 31  17  31  1   
 32  17  32  1   
@<TRIPOS>SUBSTRUCTURE
  1 ****   2 GROUP 4 **** **** 0

# MOE 2024.06 (io_trps.svl 2023.06)
