@<TRIPOS>MOLECULE
NONAME
42 43 1 0 0 
SMALL
USER_CHARGES


@<TRIPOS>ATOM
  1 O       -1.5000     0.8490    -0.5590 O.3   1 <1>  -0.3630 
  2 C       -0.8060     1.8820    -0.0200 C.ar  1 <1>   0.0830 
  3 C       -1.1080    -0.4490    -0.1530 C.3   1 <1>   0.0400 
  4 C       -1.4270     2.6410     0.9670 C.ar  1 <1>  -0.1440 
  5 C        0.4810     2.1950    -0.4560 C.ar  1 <1>  -0.1440 
  6 C       -0.7350     3.6770     1.5710 C.ar  1 <1>  -0.1500 
  7 C       -2.8610     2.3520     1.3640 C.3   1 <1>   0.4870 
  8 C        1.1710     3.2320     0.1660 C.ar  1 <1>   0.0830 
  9 C        1.1460     1.4430    -1.6100 C.3   1 <1>  -0.0960 
 10 C        0.5590     3.9650     1.1800 C.ar  1 <1>  -0.1500 
 11 N       -3.7130     2.4760     0.1550 N.4   1 <1>  -0.9590 
 12 O        2.4390     3.4910    -0.2530 O.3   1 <1>  -0.3630 
 13 C       -3.7150     3.8620    -0.3950 C.3   1 <1>   0.3430 
 14 C       -5.0780     1.9250     0.3600 C.3   1 <1>   0.3430 
 15 C        3.2430     4.4840     0.3450 C.3   1 <1>   0.0400 
 16 C       -4.4480     3.8770    -1.7370 C.3   1 <1>  -0.1600 
 17 C       -5.8300     1.9120    -0.9730 C.3   1 <1>  -0.1600 
 18 C       -5.8660     3.3030    -1.6210 C.3   1 <1>  -0.1600 
 19 H       -0.0850    -0.6230    -0.4350 H     1 <1>   0.0800 
 20 H       -1.7440    -1.1650    -0.6430 H     1 <1>   0.0800 
 21 H       -1.2120    -0.5310     0.9140 H     1 <1>   0.0800 
 22 H       -1.1870     4.2690     2.3480 H     1 <1>   0.1500 
 23 H       -3.1870     3.0410     2.1260 H     1 <1>   0.0800 
 24 H       -2.9190     1.3490     1.7550 H     1 <1>   0.0800 
 25 H        0.4260     0.9230    -2.2140 H     1 <1>   0.0800 
 26 H        1.8580     0.7360    -1.2220 H     1 <1>   0.0800 
 27 H        1.6660     2.1310    -2.2530 H     1 <1>   0.0800 
 28 H        1.0750     4.7680     1.6720 H     1 <1>   0.1500 
 29 H       -3.2250     1.8880    -0.5440 H     1 <1>   0.4500 
 30 H       -2.7030     4.2060    -0.5380 H     1 <1>   0.0800 
 31 H       -4.2080     4.5280     0.2940 H     1 <1>   0.0800 
 32 H       -5.6150     2.5350     1.0690 H     1 <1>   0.0800 
 33 H       -5.0200     0.9210     0.7470 H     1 <1>   0.0800 
 34 H        3.3660     4.2530     1.3890 H     1 <1>   0.0800 
 35 H        2.7730     5.4420     0.2130 H     1 <1>   0.0800 
 36 H        4.2000     4.4770    -0.1450 H     1 <1>   0.0800 
 37 H       -3.8800     3.3110    -2.4560 H     1 <1>   0.0800 
 38 H       -4.5000     4.8900    -2.0970 H     1 <1>   0.0800 
 39 H       -6.8370     1.5700    -0.8060 H     1 <1>   0.0800 
 40 H       -5.3580     1.2110    -1.6390 H     1 <1>   0.0800 
 41 H       -6.3160     3.2390    -2.5990 H     1 <1>   0.0800 
 42 H       -6.4740     3.9630    -1.0240 H     1 <1>   0.0800 
@<TRIPOS>BOND
  1   1   2  1   
  2   1   3  1   
  3   2   4  ar  
  4   2   5  ar  
  5   3  19  1   
  6   3  20  1   
  7   3  21  1   
  8   4   6  ar  
  9   4   7  1   
 10   5   8  ar  
 11   5   9  1   
 12   6  10  ar  
 13   6  22  1   
 14   7  11  1   
 15   7  23  1   
 16   7  24  1   
 17   8  10  ar  
 18   8  12  1   
 19   9  25  1   
 20   9  26  1   
 21   9  27  1   
 22  10  28  1   
 23  11  13  1   
 24  11  14  1   
 25  11  29  1   
 26  12  15  1   
 27  13  16  1   
 28  13  30  1   
 29  13  31  1   
 30  14  17  1   
 31  14  32  1   
 32  14  33  1   
 33  15  34  1   
 34  15  35  1   
 35  15  36  1   
 36  16  18  1   
 37  16  37  1   
 38  16  38  1   
 39  17  18  1   
 40  17  39  1   
 41  17  40  1   
 42  18  41  1   
 43  18  42  1   
@<TRIPOS>SUBSTRUCTURE
  1 ****   2 GROUP 4 **** **** 0

# MOE 2024.06 (io_trps.svl 2023.06)
