@<TRIPOS>MOLECULE
NONAME
46 48 1 0 0 
SMALL
USER_CHARGES


@<TRIPOS>ATOM
  1 O       -1.8090     1.0060    -3.7330 O.2   1 <1>  -0.5700 
  2 C       -1.2480     1.7720    -2.9860 C.2   1 <1>   0.5690 
  3 N       -1.8370     2.2650    -1.8710 N.am  1 <1>  -0.7300 
  4 C        0.2030     2.1840    -3.2550 C.3   1 <1>   0.1710 
  5 C       -3.0180     1.6900    -1.2150 C.3   1 <1>   0.2840 
  6 N        0.9700     2.5150    -2.0160 N.3   1 <1>  -0.8100 
  7 C       -2.5290     0.9790     0.0340 C.ar  1 <1>  -0.1440 
  8 C        2.2720     3.1360    -2.3430 C.3   1 <1>   0.1100 
  9 C        1.2050     1.2980    -1.1930 C.3   1 <1>   0.1100 
 10 C       -2.4420     1.6530     1.2430 C.ar  1 <1>  -0.1500 
 11 C       -2.1410    -0.3500    -0.0350 C.ar  1 <1>  -0.1500 
 12 C        3.0770     3.4920    -1.0770 C.3   1 <1>   0.2090 
 13 C        1.9820     1.6120     0.0980 C.3   1 <1>   0.2090 
 14 C       -1.9710     1.0030     2.3710 C.ar  1 <1>  -0.1500 
 15 C       -1.6700    -1.0010     1.0930 C.ar  1 <1>  -0.1500 
 16 N        3.2740     2.2960    -0.2070 N.pl3 1 <1>  -0.8380 
 17 C       -1.5850    -0.3240     2.2960 C.ar  1 <1>  -0.1500 
 18 C        4.1480     2.4610     0.8600 C.ar  1 <1>   0.1000 
 19 C        5.3800     1.8210     0.8400 C.ar  1 <1>  -0.1500 
 20 C        3.8250     3.2560     1.9540 C.ar  1 <1>  -0.1500 
 21 C        6.2720     1.9690     1.8870 C.ar  1 <1>  -0.1500 
 22 C        4.7130     3.4070     3.0040 C.ar  1 <1>  -0.1500 
 23 C        5.9390     2.7630     2.9720 C.ar  1 <1>  -0.1500 
 24 H       -1.2020     2.7790    -1.2510 H     1 <1>   0.3700 
 25 H        0.1750     3.0470    -3.8950 H     1 <1>   0.0800 
 26 H        0.6940     1.3900    -3.7880 H     1 <1>   0.0800 
 27 H       -3.5130     0.9970    -1.8750 H     1 <1>   0.0800 
 28 H       -3.7080     2.4750    -0.9610 H     1 <1>   0.0800 
 29 H        2.1060     4.0360    -2.9100 H     1 <1>   0.0800 
 30 H        2.8590     2.4630    -2.9450 H     1 <1>   0.0800 
 31 H        1.7640     0.5740    -1.7600 H     1 <1>   0.0800 
 32 H        0.2660     0.8510    -0.9190 H     1 <1>   0.0800 
 33 H       -2.7360     2.6850     1.3110 H     1 <1>   0.1500 
 34 H       -2.2000    -0.8790    -0.9720 H     1 <1>   0.1500 
 35 H        2.5530     4.2550    -0.5280 H     1 <1>   0.0800 
 36 H        4.0380     3.8830    -1.3610 H     1 <1>   0.0800 
 37 H        2.1830     0.6970     0.6270 H     1 <1>   0.0800 
 38 H        1.3770     2.2390     0.7300 H     1 <1>   0.0800 
 39 H       -1.9050     1.5290     3.3080 H     1 <1>   0.1500 
 40 H       -1.3710    -2.0330     1.0320 H     1 <1>   0.1500 
 41 H       -1.2200    -0.8290     3.1740 H     1 <1>   0.1500 
 42 H        5.6250     1.2080    -0.0070 H     1 <1>   0.1500 
 43 H        2.8750     3.7550     1.9770 H     1 <1>   0.1500 
 44 H        7.2230     1.4670     1.8570 H     1 <1>   0.1500 
 45 H        4.4520     4.0240     3.8450 H     1 <1>   0.1500 
 46 H        6.6320     2.8790     3.7870 H     1 <1>   0.1500 
@<TRIPOS>BOND
  1   1   2  2   
  2   2   3  am  
  3   2   4  1   
  4   3   5  1   
  5   3  24  1   
  6   4   6  1   
  7   4  25  1   
  8   4  26  1   
  9   5   7  1   
 10   5  27  1   
 11   5  28  1   
 12   6   8  1   
 13   6   9  1   
 14   7  10  ar  
 15   7  11  ar  
 16   8  12  1   
 17   8  29  1   
 18   8  30  1   
 19   9  13  1   
 20   9  31  1   
 21   9  32  1   
 22  10  14  ar  
 23  10  33  1   
 24  11  15  ar  
 25  11  34  1   
 26  12  16  1   
 27  12  35  1   
 28  12  36  1   
 29  13  16  1   
 30  13  37  1   
 31  13  38  1   
 32  14  17  ar  
 33  14  39  1   
 34  15  17  ar  
 35  15  40  1   
 36  16  18  1   
 37  17  41  1   
 38  18  19  ar  
 39  18  20  ar  
 40  19  21  ar  
 41  19  42  1   
 42  20  22  ar  
 43  20  43  1   
 44  21  23  ar  
 45  21  44  1   
 46  22  23  ar  
 47  22  45  1   
 48  23  46  1   
@<TRIPOS>SUBSTRUCTURE
  1 ****  13 GROUP 4 **** **** 0

# MOE 2024.06 (io_trps.svl 2023.06)
