@<TRIPOS>MOLECULE
NONAME
50 52 1 0 0 
SMALL
USER_CHARGES


@<TRIPOS>ATOM
  1 N       -0.0750     0.7780     0.3800 N.4   1 <1>  -0.9590 
  2 C       -1.2810     1.4400    -0.2650 C.3   1 <1>   0.4230 
  3 C        1.0270     0.5010    -0.5870 C.3   1 <1>   0.4230 
  4 C       -0.3820    -0.3280     1.3700 C.3   1 <1>   0.3430 
  5 C       -1.5880     2.7520     0.4940 C.3   1 <1>  -0.0800 
  6 C       -2.5870     0.5700    -0.4120 C.3   1 <1>   0.4230 
  7 C        0.9930    -0.9170    -1.1580 C.3   1 <1>  -0.2400 
  8 C        2.3460     0.7440     0.1380 C.3   1 <1>  -0.2400 
  9 C       -1.5310    -1.2750     0.9370 C.3   1 <1>   0.3430 
 10 C       -0.4790     3.8150     0.2760 C.3   1 <1>  -0.1600 
 11 C       -1.8970     2.5820     1.9990 C.3   1 <1>  -0.1600 
 12 N       -2.8010    -0.5450     0.5800 N.4   1 <1>  -0.9590 
 13 C       -2.7470    -0.0860    -1.7860 C.3   1 <1>  -0.1600 
 14 C       -0.4380     4.8950     1.3720 C.3   1 <1>  -0.1600 
 15 C       -2.4180     3.8940     2.6120 C.3   1 <1>  -0.1600 
 16 C       -3.7750    -1.4720    -0.0650 C.3   1 <1>   0.3430 
 17 C       -3.4130    -1.4440    -1.5440 C.3   1 <1>  -0.1600 
 18 C       -1.8280     5.1570     1.9600 C.3   1 <1>  -0.1600 
 19 H        0.3240     1.5400     0.9500 H     1 <1>   0.4500 
 20 H       -1.0080     1.7460    -1.2620 H     1 <1>   0.0800 
 21 H        0.9670     1.2040    -1.4050 H     1 <1>   0.0800 
 22 H       -0.6580     0.1130     2.3140 H     1 <1>   0.0800 
 23 H        0.5080    -0.9110     1.5490 H     1 <1>   0.0800 
 24 H       -2.4790     3.1650     0.0490 H     1 <1>   0.0800 
 25 H       -3.4230     1.2450    -0.3210 H     1 <1>   0.0800 
 26 H        1.2120    -1.6590    -0.4120 H     1 <1>   0.0800 
 27 H        1.7560    -1.0010    -1.9140 H     1 <1>   0.0800 
 28 H        0.0590    -1.1380    -1.6310 H     1 <1>   0.0800 
 29 H        2.4850     0.0610     0.9560 H     1 <1>   0.0800 
 30 H        2.4090     1.7550     0.4990 H     1 <1>   0.0800 
 31 H        3.1630     0.6000    -0.5490 H     1 <1>   0.0800 
 32 H       -1.7290    -1.9720     1.7350 H     1 <1>   0.0800 
 33 H       -1.1960    -1.8480     0.0890 H     1 <1>   0.0800 
 34 H       -0.6600     4.3030    -0.6690 H     1 <1>   0.0800 
 35 H        0.5010     3.3790     0.2160 H     1 <1>   0.0800 
 36 H       -0.9990     2.3090     2.5260 H     1 <1>   0.0800 
 37 H       -2.6320     1.8190     2.1720 H     1 <1>   0.0800 
 38 H       -3.2380    -0.1700     1.4360 H     1 <1>   0.4500 
 39 H       -1.8100    -0.2060    -2.2960 H     1 <1>   0.0800 
 40 H       -3.3740     0.5340    -2.4050 H     1 <1>   0.0800 
 41 H       -0.0370     5.8090     0.9660 H     1 <1>   0.0800 
 42 H        0.2180     4.5850     2.1680 H     1 <1>   0.0800 
 43 H       -2.1860     3.9010     3.6650 H     1 <1>   0.0800 
 44 H       -3.4910     3.9410     2.5270 H     1 <1>   0.0800 
 45 H       -4.7780    -1.0930     0.0610 H     1 <1>   0.0800 
 46 H       -3.7240    -2.4700     0.3430 H     1 <1>   0.0800 
 47 H       -2.7280    -2.2450    -1.7640 H     1 <1>   0.0800 
 48 H       -4.2910    -1.5770    -2.1530 H     1 <1>   0.0800 
 49 H       -2.4800     5.4950     1.1720 H     1 <1>   0.0800 
 50 H       -1.7740     5.9480     2.6890 H     1 <1>   0.0800 
@<TRIPOS>BOND
  1   1   2  1   
  2   1   3  1   
  3   1   4  1   
  4   1  19  1   
  5   2   5  1   
  6   2   6  1   
  7   2  20  1   
  8   3   7  1   
  9   3   8  1   
 10   3  21  1   
 11   4   9  1   
 12   4  22  1   
 13   4  23  1   
 14   5  10  1   
 15   5  11  1   
 16   5  24  1   
 17   6  12  1   
 18   6  13  1   
 19   6  25  1   
 20   7  26  1   
 21   7  27  1   
 22   7  28  1   
 23   8  29  1   
 24   8  30  1   
 25   8  31  1   
 26   9  12  1   
 27   9  32  1   
 28   9  33  1   
 29  10  14  1   
 30  10  34  1   
 31  10  35  1   
 32  11  15  1   
 33  11  36  1   
 34  11  37  1   
 35  12  16  1   
 36  12  38  1   
 37  13  17  1   
 38  13  39  1   
 39  13  40  1   
 40  14  18  1   
 41  14  41  1   
 42  14  42  1   
 43  15  18  1   
 44  15  43  1   
 45  15  44  1   
 46  16  17  1   
 47  16  45  1   
 48  16  46  1   
 49  17  47  1   
 50  17  48  1   
 51  18  49  1   
 52  18  50  1   
@<TRIPOS>SUBSTRUCTURE
  1 ****   2 GROUP 4 **** **** 0

# MOE 2024.06 (io_trps.svl 2023.06)
