@<TRIPOS>MOLECULE
NONAME
44 45 1 0 0 
SMALL
USER_CHARGES


@<TRIPOS>ATOM
  1 CL      -0.8730     2.4330    -2.8530 Cl    1 <1>  -0.1770 
  2 C       -1.3540     2.4850    -1.1710 C.ar  1 <1>   0.1770 
  3 C       -0.4380     2.8440    -0.1890 C.ar  1 <1>   0.0830 
  4 C       -2.6600     2.1650    -0.8580 C.ar  1 <1>  -0.1500 
  5 O        0.8310     3.1500    -0.5670 O.3   1 <1>  -0.3630 
  6 C       -0.8710     2.8740     1.1340 C.ar  1 <1>  -0.1500 
  7 C       -3.1010     2.1960     0.4590 C.ar  1 <1>  -0.0090 
  8 C        1.8170     3.5230     0.3670 C.3   1 <1>   0.1200 
  9 C       -2.1840     2.5540     1.4430 C.ar  1 <1>  -0.1500 
 10 S       -4.8240     1.7990     0.8660 S.o2  1 <1>   1.4470 
 11 C        3.1100     3.7930    -0.3970 C.3   1 <1>  -0.2400 
 12 O       -5.0820     2.0640     2.2650 O.2   1 <1>  -0.6500 
 13 O       -5.1480     0.5000     0.3170 O.2   1 <1>  -0.6500 
 14 N       -5.6980     2.9480    -0.0220 N.am  1 <1>  -0.8490 
 15 C       -5.5070     4.3120     0.5000 C.3   1 <1>   0.1960 
 16 C       -7.1240     2.6080    -0.0580 C.3   1 <1>   0.1960 
 17 C       -6.1700     5.3380    -0.4300 C.3   1 <1>  -0.0190 
 18 C       -7.8780     3.5710    -0.9830 C.3   1 <1>  -0.1600 
 19 C       -5.9300     6.7540     0.0730 C.2   1 <1>   0.5690 
 20 C       -7.6720     5.0350    -0.5700 C.3   1 <1>  -0.1600 
 21 O       -5.8040     6.9530     1.2570 O.2   1 <1>  -0.5700 
 22 N       -5.8670     7.7620    -0.8370 N.am  1 <1>  -0.7300 
 23 C       -5.6440     9.1940    -0.5110 C.3   1 <1>   0.0600 
 24 H       -3.3410     1.8910    -1.6450 H     1 <1>   0.1500 
 25 H       -0.2060     3.1430     1.9330 H     1 <1>   0.1500 
 26 H        1.9510     2.7150     1.0650 H     1 <1>   0.0800 
 27 H        1.4860     4.4110     0.8780 H     1 <1>   0.0800 
 28 H       -2.5040     2.5830     2.4720 H     1 <1>   0.1500 
 29 H        3.4230     2.9060    -0.9180 H     1 <1>   0.0800 
 30 H        3.8860     4.0810     0.2880 H     1 <1>   0.0800 
 31 H        2.9620     4.5900    -1.1040 H     1 <1>   0.0800 
 32 H       -4.4560     4.5370     0.5670 H     1 <1>   0.0800 
 33 H       -5.9270     4.3900     1.4910 H     1 <1>   0.0800 
 34 H       -7.5360     2.6520     0.9380 H     1 <1>   0.0800 
 35 H       -7.2510     1.6040    -0.4290 H     1 <1>   0.0800 
 36 H       -5.7020     5.2480    -1.3930 H     1 <1>   0.0800 
 37 H       -8.9270     3.3340    -0.9630 H     1 <1>   0.0800 
 38 H       -7.5290     3.4230    -1.9900 H     1 <1>   0.0800 
 39 H       -8.1170     5.6900    -1.3000 H     1 <1>   0.0800 
 40 H       -8.1580     5.2120     0.3750 H     1 <1>   0.0800 
 41 H       -5.9880     7.5480    -1.8290 H     1 <1>   0.3700 
 42 H       -5.5330     9.3250     0.5520 H     1 <1>   0.0800 
 43 H       -6.4830     9.7790    -0.8460 H     1 <1>   0.0800 
 44 H       -4.7500     9.5440    -0.9980 H     1 <1>   0.0800 
@<TRIPOS>BOND
  1   1   2  1   
  2   2   3  ar  
  3   2   4  ar  
  4   3   5  1   
  5   3   6  ar  
  6   4   7  ar  
  7   4  24  1   
  8   5   8  1   
  9   6   9  ar  
 10   6  25  1   
 11   7   9  ar  
 12   7  10  1   
 13   8  11  1   
 14   8  26  1   
 15   8  27  1   
 16   9  28  1   
 17  10  12  2   
 18  10  13  2   
 19  10  14  am  
 20  11  29  1   
 21  11  30  1   
 22  11  31  1   
 23  14  15  1   
 24  14  16  1   
 25  15  17  1   
 26  15  32  1   
 27  15  33  1   
 28  16  18  1   
 29  16  34  1   
 30  16  35  1   
 31  17  19  1   
 32  17  20  1   
 33  17  36  1   
 34  18  20  1   
 35  18  37  1   
 36  18  38  1   
 37  19  21  2   
 38  19  22  am  
 39  20  39  1   
 40  20  40  1   
 41  22  23  1   
 42  22  41  1   
 43  23  42  1   
 44  23  43  1   
 45  23  44  1   
@<TRIPOS>SUBSTRUCTURE
  1 ****   7 GROUP 4 **** **** 0

# MOE 2024.06 (io_trps.svl 2023.06)
