@<TRIPOS>MOLECULE
NONAME
35 36 1 0 0 
SMALL
USER_CHARGES


@<TRIPOS>ATOM
  1 P        0.9660     0.5250     1.1890 P.3   1 <1>   0.9000 
  2 O        2.0270     1.1740     2.0260 O.co2 1 <1>  -0.9500 
  3 O       -0.4620     0.6540     1.6190 O.co2 1 <1>  -0.9500 
  4 C        1.3290    -1.2590     1.0110 C.3   1 <1>   0.1100 
  5 C        1.1120     1.1450    -0.5170 C.3   1 <1>   0.1400 
  6 N        2.5930    -1.7670     0.3770 N.3   1 <1>  -0.8100 
  7 N        0.8280     2.5940    -0.7860 N.am  1 <1>  -0.6600 
  8 C        2.5720    -1.8390    -1.1010 C.3   1 <1>   0.1100 
  9 C        3.7870    -1.0790     0.9020 C.3   1 <1>   0.1100 
 10 C        0.7680     3.1800    -1.9940 C.2   1 <1>   0.5690 
 11 C        0.4460     3.4850     0.3210 C.3   1 <1>   0.1400 
 12 C        3.8820    -1.3530    -1.7590 C.3   1 <1>   0.1200 
 13 C        5.0790    -1.6500     0.2780 C.3   1 <1>   0.1200 
 14 O        1.0130     2.6540    -3.0540 O.2   1 <1>  -0.5700 
 15 C        0.3330     4.6140    -1.8640 C.3   1 <1>  -0.0990 
 16 C        0.3250     4.8630    -0.3440 C.3   1 <1>  -0.1600 
 17 O        5.0000    -1.8900    -1.1100 O.3   1 <1>  -0.5600 
 18 H        0.5130    -1.7330     0.4990 H     1 <1>   0.0800 
 19 H        1.3120    -1.6810     1.9990 H     1 <1>   0.0800 
 20 H        0.4550     0.5890    -1.1570 H     1 <1>   0.0800 
 21 H        2.1070     0.9710    -0.8740 H     1 <1>   0.0800 
 22 H        1.7500    -1.2730    -1.4990 H     1 <1>   0.0800 
 23 H        2.4130    -2.8650    -1.3800 H     1 <1>   0.0800 
 24 H        3.8220    -1.1780     1.9730 H     1 <1>   0.0800 
 25 H        3.7380    -0.0270     0.6800 H     1 <1>   0.0800 
 26 H        1.2000     3.4780     1.0920 H     1 <1>   0.0800 
 27 H       -0.4940     3.1600     0.7360 H     1 <1>   0.0800 
 28 H        3.9500    -0.2800    -1.7200 H     1 <1>   0.0800 
 29 H        3.9170    -1.6600    -2.7890 H     1 <1>   0.0800 
 30 H        5.3120    -2.5880     0.7480 H     1 <1>   0.0800 
 31 H        5.8940    -0.9720     0.4510 H     1 <1>   0.0800 
 32 H       -0.6520     4.7160    -2.2790 H     1 <1>   0.0800 
 33 H        1.0220     5.2620    -2.3740 H     1 <1>   0.0800 
 34 H        1.1790     5.4550    -0.0650 H     1 <1>   0.0800 
 35 H       -0.5680     5.3680    -0.0210 H     1 <1>   0.0800 
@<TRIPOS>BOND
  1   1   2  ar  
  2   1   3  ar  
  3   1   4  1   
  4   1   5  1   
  5   4   6  1   
  6   4  18  1   
  7   4  19  1   
  8   5   7  1   
  9   5  20  1   
 10   5  21  1   
 11   6   8  1   
 12   6   9  1   
 13   7  10  am  
 14   7  11  1   
 15   8  12  1   
 16   8  22  1   
 17   8  23  1   
 18   9  13  1   
 19   9  24  1   
 20   9  25  1   
 21  10  14  2   
 22  10  15  1   
 23  11  16  1   
 24  11  26  1   
 25  11  27  1   
 26  12  17  1   
 27  12  28  1   
 28  12  29  1   
 29  13  17  1   
 30  13  30  1   
 31  13  31  1   
 32  15  16  1   
 33  15  32  1   
 34  15  33  1   
 35  16  34  1   
 36  16  35  1   
@<TRIPOS>SUBSTRUCTURE
  1 ****   5 GROUP 4 **** **** 0

# MOE 2024.06 (io_trps.svl 2023.06)
