@<TRIPOS>MOLECULE
NONAME
44 46 1 0 0 
SMALL
USER_CHARGES


@<TRIPOS>ATOM
  1 N        1.0520    -0.3830    -0.5230 N.ar  1 <1>  -0.6200 
  2 C        1.6120     0.3010     0.4740 C.ar  1 <1>   0.7200 
  3 C        0.0640     0.2180    -1.1430 C.ar  1 <1>   0.1600 
  4 N        1.3060     1.5340     0.8590 N.ar  1 <1>  -0.6200 
  5 N        2.6410    -0.3160     1.1480 N.pl3 1 <1>  -0.8380 
  6 C       -0.3520     1.4820    -0.8030 C.ar  1 <1>  -0.1500 
  7 C        0.3160     2.1090     0.2210 C.ar  1 <1>   0.1600 
  8 C        2.8270    -1.7930     1.0550 C.3   1 <1>   0.2090 
  9 C        3.9130     0.4340     1.3580 C.3   1 <1>   0.2090 
 10 C        3.7940    -2.1190    -0.1010 C.3   1 <1>   0.3430 
 11 C        4.9050     0.1060     0.2220 C.3   1 <1>   0.3430 
 12 N        5.1070    -1.3820     0.0230 N.4   1 <1>  -0.9590 
 13 C        6.0010    -1.6560    -1.1320 C.3   1 <1>   0.4860 
 14 C        7.3750    -1.1020    -0.8090 C.ar  1 <1>  -0.1430 
 15 C        8.2550    -1.7630     0.0440 C.ar  1 <1>  -0.1430 
 16 C        7.7510     0.1070    -1.3790 C.ar  1 <1>  -0.1500 
 17 C        9.4850    -1.1890     0.3250 C.ar  1 <1>  -0.1500 
 18 C        7.9300    -3.1100     0.6810 C.3   1 <1>  -0.0970 
 19 C        8.9810     0.6670    -1.0910 C.ar  1 <1>  -0.1500 
 20 C        9.8540     0.0220    -0.2350 C.ar  1 <1>  -0.1430 
 21 C       11.2080     0.6300     0.0880 C.3   1 <1>  -0.0970 
 22 H       -0.4300    -0.3080    -1.9440 H     1 <1>   0.1500 
 23 H       -1.1640     1.9620    -1.3160 H     1 <1>   0.1500 
 24 H        0.0290     3.1030     0.5220 H     1 <1>   0.1500 
 25 H        1.8810    -2.2810     0.8910 H     1 <1>   0.0800 
 26 H        3.2220    -2.1630     1.9850 H     1 <1>   0.0800 
 27 H        4.3360     0.1620     2.3090 H     1 <1>   0.0800 
 28 H        3.7340     1.4960     1.3780 H     1 <1>   0.0800 
 29 H        3.3070    -1.8400    -1.0210 H     1 <1>   0.0800 
 30 H        3.9670    -3.1820    -0.1260 H     1 <1>   0.0800 
 31 H        5.8500     0.5790     0.4360 H     1 <1>   0.0800 
 32 H        4.5190     0.5400    -0.6860 H     1 <1>   0.0800 
 33 H        5.6050    -1.7200     0.8540 H     1 <1>   0.4500 
 34 H        5.6140    -1.1920    -2.0240 H     1 <1>   0.0800 
 35 H        6.0760    -2.7170    -1.3050 H     1 <1>   0.0800 
 36 H        7.0970     0.6300    -2.0560 H     1 <1>   0.1500 
 37 H       10.1750    -1.6860     0.9860 H     1 <1>   0.1500 
 38 H        7.5110    -3.7860    -0.0420 H     1 <1>   0.0800 
 39 H        7.2440    -2.9850     1.4990 H     1 <1>   0.0800 
 40 H        8.8240    -3.5680     1.0660 H     1 <1>   0.0800 
 41 H        9.2600     1.6060    -1.5380 H     1 <1>   0.1500 
 42 H       11.9550    -0.1400     0.1670 H     1 <1>   0.0800 
 43 H       11.1570     1.1610     1.0220 H     1 <1>   0.0800 
 44 H       11.5110     1.3150    -0.6830 H     1 <1>   0.0800 
@<TRIPOS>BOND
  1   1   2  ar  
  2   1   3  ar  
  3   2   4  ar  
  4   2   5  1   
  5   3   6  ar  
  6   3  22  1   
  7   4   7  ar  
  8   5   8  1   
  9   5   9  1   
 10   6   7  ar  
 11   6  23  1   
 12   7  24  1   
 13   8  10  1   
 14   8  25  1   
 15   8  26  1   
 16   9  11  1   
 17   9  27  1   
 18   9  28  1   
 19  10  12  1   
 20  10  29  1   
 21  10  30  1   
 22  11  12  1   
 23  11  31  1   
 24  11  32  1   
 25  12  13  1   
 26  12  33  1   
 27  13  14  1   
 28  13  34  1   
 29  13  35  1   
 30  14  15  ar  
 31  14  16  ar  
 32  15  17  ar  
 33  15  18  1   
 34  16  19  ar  
 35  16  36  1   
 36  17  20  ar  
 37  17  37  1   
 38  18  38  1   
 39  18  39  1   
 40  18  40  1   
 41  19  20  ar  
 42  19  41  1   
 43  20  21  1   
 44  21  42  1   
 45  21  43  1   
 46  21  44  1   
@<TRIPOS>SUBSTRUCTURE
  1 ****  11 GROUP 4 **** **** 0

# MOE 2024.06 (io_trps.svl 2023.06)
