@<TRIPOS>MOLECULE
NONAME
28 28 1 0 0 
SMALL
USER_CHARGES


@<TRIPOS>ATOM
  1 S       -0.1600    -0.0650     0.6210 S.3   1 <1>  -0.3710 
  2 C        1.3160     0.8900     0.8180 C.2   1 <1>   0.6410 
  3 C       -1.4260     0.9060     1.5780 C.3   1 <1>   0.1310 
  4 N        2.4020     0.3690     0.2000 N.pl3 1 <1>  -0.5500 
  5 N        1.2810     1.9720     1.4990 N.2   1 <1>  -0.6610 
  6 C       -2.8030     0.2910     1.4210 C.2   1 <1>   0.6590 
  7 C        3.5990     1.0180     0.2780 C.2   1 <1>   0.1770 
  8 C        2.4630     2.6510     1.6000 C.2   1 <1>   0.7670 
  9 O       -3.3560    -0.2660     2.3350 O.2   1 <1>  -0.5700 
 10 O       -3.3670     0.4190     0.2260 O.3   1 <1>  -0.4300 
 11 O        4.6800     0.5130    -0.3280 O.3   1 <1>  -0.3570 
 12 C        3.6400     2.1710     0.9830 C.2   1 <1>  -0.1360 
 13 O        2.4730     3.6910     2.2410 O.2   1 <1>  -0.5700 
 14 C       -4.6410    -0.1140    -0.0460 C.3   1 <1>   0.1200 
 15 C        4.6620    -0.6890    -1.0700 C.3   1 <1>   0.0400 
 16 C       -4.9840     0.2020    -1.4980 C.3   1 <1>  -0.2400 
 17 H       -1.4200     1.9110     1.1980 H     1 <1>   0.0800 
 18 H       -1.1240     0.8990     2.6090 H     1 <1>   0.0800 
 19 H        2.2880    -0.5030    -0.3110 H     1 <1>   0.4000 
 20 H        4.5370     2.7460     1.0970 H     1 <1>   0.1500 
 21 H       -5.3510     0.3370     0.6270 H     1 <1>   0.0800 
 22 H       -4.6090    -1.1780     0.1220 H     1 <1>   0.0800 
 23 H        5.6540    -0.8620    -1.4470 H     1 <1>   0.0800 
 24 H        3.9740    -0.5840    -1.8900 H     1 <1>   0.0800 
 25 H        4.3740    -1.4970    -0.4210 H     1 <1>   0.0800 
 26 H       -5.0020     1.2660    -1.6520 H     1 <1>   0.0800 
 27 H       -5.9530    -0.1960    -1.7360 H     1 <1>   0.0800 
 28 H       -4.2590    -0.2450    -2.1550 H     1 <1>   0.0800 
@<TRIPOS>BOND
  1   1   2  1   
  2   1   3  1   
  3   2   4  1   
  4   2   5  2   
  5   3   6  1   
  6   3  17  1   
  7   3  18  1   
  8   4   7  1   
  9   4  19  1   
 10   5   8  1   
 11   6   9  2   
 12   6  10  1   
 13   7  11  1   
 14   7  12  2   
 15   8  12  1   
 16   8  13  2   
 17  10  14  1   
 18  11  15  1   
 19  12  20  1   
 20  14  16  1   
 21  14  21  1   
 22  14  22  1   
 23  15  23  1   
 24  15  24  1   
 25  15  25  1   
 26  16  26  1   
 27  16  27  1   
 28  16  28  1   
@<TRIPOS>SUBSTRUCTURE
  1 ****   2 GROUP 4 **** **** 0

# MOE 2024.06 (io_trps.svl 2023.06)
