@<TRIPOS>MOLECULE
NONAME
39 40 1 0 0 
SMALL
USER_CHARGES


@<TRIPOS>ATOM
  1 I        0.4220    -0.3050     0.4480 I     1 <1>  -0.0810 
  2 C       -1.5530    -1.0810     0.2620 C.ar  1 <1>   0.0810 
  3 C       -1.7140    -2.4030    -0.1060 C.ar  1 <1>  -0.1500 
  4 C       -2.6210    -0.2420     0.5130 C.ar  1 <1>  -0.1500 
  5 C       -2.9980    -2.9110    -0.2280 C.ar  1 <1>  -0.1440 
  6 C       -3.9010    -0.7520     0.3900 C.ar  1 <1>  -0.1500 
  7 C       -4.0960    -2.0850     0.0200 C.ar  1 <1>   0.0830 
  8 C       -3.1920    -4.3660    -0.6320 C.3   1 <1>  -0.0960 
  9 O       -5.3320    -2.6370    -0.1140 O.3   1 <1>  -0.3630 
 10 C       -6.5030    -1.8970     0.1180 C.3   1 <1>   0.1200 
 11 C       -7.6810    -2.8420    -0.1140 C.3   1 <1>  -0.1600 
 12 C       -9.0070    -2.1260     0.1290 C.3   1 <1>   0.3430 
 13 N      -10.1500    -3.0280    -0.1880 N.4   1 <1>  -0.9590 
 14 C      -11.4390    -2.2540    -0.2650 C.3   1 <1>   0.3430 
 15 C      -10.2850    -4.1610     0.7990 C.3   1 <1>   0.3430 
 16 C      -12.6480    -3.1830    -0.4880 C.3   1 <1>   0.1200 
 17 C      -11.5480    -5.0020     0.5300 C.3   1 <1>   0.1200 
 18 O      -12.6780    -4.1800     0.4910 O.3   1 <1>  -0.5600 
 19 H       -0.8510    -3.0190    -0.2910 H     1 <1>   0.1500 
 20 H       -2.4570     0.7820     0.7960 H     1 <1>   0.1500 
 21 H       -4.7250    -0.0950     0.5860 H     1 <1>   0.1500 
 22 H       -2.2480    -4.8570    -0.7820 H     1 <1>   0.0800 
 23 H       -3.7530    -4.4170    -1.5480 H     1 <1>   0.0800 
 24 H       -3.7320    -4.8890     0.1360 H     1 <1>   0.0800 
 25 H       -6.5200    -1.0700    -0.5720 H     1 <1>   0.0800 
 26 H       -6.4800    -1.5420     1.1350 H     1 <1>   0.0800 
 27 H       -7.5760    -3.6730     0.5600 H     1 <1>   0.0800 
 28 H       -7.6380    -3.1930    -1.1300 H     1 <1>   0.0800 
 29 H       -9.0520    -1.2530    -0.5030 H     1 <1>   0.0800 
 30 H       -9.0680    -1.8000     1.1560 H     1 <1>   0.0800 
 31 H       -9.9850    -3.4440    -1.1150 H     1 <1>   0.4500 
 32 H      -11.3920    -1.5360    -1.0670 H     1 <1>   0.0800 
 33 H      -11.5960    -1.7140     0.6540 H     1 <1>   0.0800 
 34 H      -10.3500    -3.7660     1.8000 H     1 <1>   0.0800 
 35 H       -9.4200    -4.8010     0.7510 H     1 <1>   0.0800 
 36 H      -12.6120    -3.6490    -1.4580 H     1 <1>   0.0800 
 37 H      -13.5650    -2.6240    -0.4120 H     1 <1>   0.0800 
 38 H      -11.6930    -5.7170     1.3210 H     1 <1>   0.0800 
 39 H      -11.4730    -5.5340    -0.4030 H     1 <1>   0.0800 
@<TRIPOS>BOND
  1   1   2  1   
  2   2   3  ar  
  3   2   4  ar  
  4   3   5  ar  
  5   3  19  1   
  6   4   6  ar  
  7   4  20  1   
  8   5   7  ar  
  9   5   8  1   
 10   6   7  ar  
 11   6  21  1   
 12   7   9  1   
 13   8  22  1   
 14   8  23  1   
 15   8  24  1   
 16   9  10  1   
 17  10  11  1   
 18  10  25  1   
 19  10  26  1   
 20  11  12  1   
 21  11  27  1   
 22  11  28  1   
 23  12  13  1   
 24  12  29  1   
 25  12  30  1   
 26  13  14  1   
 27  13  15  1   
 28  13  31  1   
 29  14  16  1   
 30  14  32  1   
 31  14  33  1   
 32  15  17  1   
 33  15  34  1   
 34  15  35  1   
 35  16  18  1   
 36  16  36  1   
 37  16  37  1   
 38  17  18  1   
 39  17  38  1   
 40  17  39  1   
@<TRIPOS>SUBSTRUCTURE
  1 ****  10 GROUP 4 **** **** 0

# MOE 2024.06 (io_trps.svl 2023.06)
