@<TRIPOS>MOLECULE
NONAME
40 41 1 0 0 
SMALL
USER_CHARGES


@<TRIPOS>ATOM
  1 BR       0.6810    -0.2190    -1.9300 Br    1 <1>  -0.1110 
  2 C        2.3100     0.6390    -1.3640 C.ar  1 <1>   0.1110 
  3 C        2.3690     1.1950    -0.1020 C.ar  1 <1>  -0.1500 
  4 C        3.3820     0.6770    -2.2350 C.ar  1 <1>  -0.1500 
  5 C        3.5430     1.8100     0.2970 C.ar  1 <1>  -0.1500 
  6 C        4.5490     1.2950    -1.8210 C.ar  1 <1>  -0.1500 
  7 C        4.6480     1.8650    -0.5520 C.ar  1 <1>   0.1170 
  8 N        5.8570     2.4820    -0.1930 N.am  1 <1>  -0.5470 
  9 C        6.3750     2.8180     1.0270 C.2   1 <1>   0.5690 
 10 O        5.8470     2.5660     2.0820 O.2   1 <1>  -0.5700 
 11 C        7.7410     3.5100     1.0490 C.3   1 <1>   0.1710 
 12 N        8.8530     2.6870     0.4820 N.3   1 <1>  -0.8100 
 13 C       10.1270     3.4460     0.4960 C.3   1 <1>   0.1100 
 14 C        9.0050     1.4210     1.2540 C.3   1 <1>   0.1100 
 15 C       11.3220     2.6230    -0.0480 C.3   1 <1>   0.3430 
 16 C       10.2420     0.5910     0.8330 C.3   1 <1>   0.3430 
 17 N       10.9340     1.2050    -0.3510 N.4   1 <1>  -0.9590 
 18 C       12.0630     0.4070    -0.8880 C.3   1 <1>   0.3430 
 19 C       11.5320    -0.8660    -1.5350 C.3   1 <1>  -0.2400 
 20 H        1.5160     1.1500     0.5520 H     1 <1>   0.1500 
 21 H        3.2990     0.2340    -3.2120 H     1 <1>   0.1500 
 22 H        3.5900     2.2500     1.2770 H     1 <1>   0.1500 
 23 H        5.3870     1.3310    -2.4910 H     1 <1>   0.1500 
 24 H        6.4930     2.6590    -0.9690 H     1 <1>   0.3700 
 25 H        7.9660     3.7730     2.0680 H     1 <1>   0.0800 
 26 H        7.6530     4.4250     0.4890 H     1 <1>   0.0800 
 27 H       10.3520     3.7600     1.5030 H     1 <1>   0.0800 
 28 H       10.0210     4.3370    -0.1000 H     1 <1>   0.0800 
 29 H        8.1270     0.8110     1.1180 H     1 <1>   0.0800 
 30 H        9.0770     1.6380     2.3070 H     1 <1>   0.0800 
 31 H       12.1180     2.6400     0.6790 H     1 <1>   0.0800 
 32 H       11.6900     3.0970    -0.9430 H     1 <1>   0.0800 
 33 H        9.9210    -0.4100     0.5990 H     1 <1>   0.0800 
 34 H       10.9250     0.5290     1.6640 H     1 <1>   0.0800 
 35 H       10.1950     1.2890    -1.0650 H     1 <1>   0.4500 
 36 H       12.7560     0.1620    -0.0980 H     1 <1>   0.0800 
 37 H       12.5900     0.9820    -1.6330 H     1 <1>   0.0800 
 38 H       11.0860    -1.5220    -0.8100 H     1 <1>   0.0800 
 39 H       12.3500    -1.3950    -1.9910 H     1 <1>   0.0800 
 40 H       10.8180    -0.6350    -2.3050 H     1 <1>   0.0800 
@<TRIPOS>BOND
  1   1   2  1   
  2   2   3  ar  
  3   2   4  ar  
  4   3   5  ar  
  5   3  20  1   
  6   4   6  ar  
  7   4  21  1   
  8   5   7  ar  
  9   5  22  1   
 10   6   7  ar  
 11   6  23  1   
 12   7   8  1   
 13   8   9  am  
 14   8  24  1   
 15   9  10  2   
 16   9  11  1   
 17  11  12  1   
 18  11  25  1   
 19  11  26  1   
 20  12  13  1   
 21  12  14  1   
 22  13  15  1   
 23  13  27  1   
 24  13  28  1   
 25  14  16  1   
 26  14  29  1   
 27  14  30  1   
 28  15  17  1   
 29  15  31  1   
 30  15  32  1   
 31  16  17  1   
 32  16  33  1   
 33  16  34  1   
 34  17  18  1   
 35  17  35  1   
 36  18  19  1   
 37  18  36  1   
 38  18  37  1   
 39  19  38  1   
 40  19  39  1   
 41  19  40  1   
@<TRIPOS>SUBSTRUCTURE
  1 ****   8 GROUP 4 **** **** 0

# MOE 2024.06 (io_trps.svl 2023.06)
