@<TRIPOS>MOLECULE
NONAME
31 32 1 0 0 
SMALL
USER_CHARGES


@<TRIPOS>ATOM
  1 O       -0.1640     0.0020    -0.9460 O.2   1 <1>  -0.5700 
  2 C       -0.7390    -0.8360    -0.2800 C.2   1 <1>   0.6900 
  3 N       -2.0490    -0.6980     0.0840 N.am  1 <1>  -0.5470 
  4 N       -0.0980    -1.9650     0.1200 N.am  1 <1>  -0.5790 
  5 C       -2.9980     0.3220    -0.0870 C.ar  1 <1>   0.1170 
  6 C        1.2990    -2.3120    -0.1800 C.3   1 <1>   0.0490 
  7 C       -4.3760     0.0320     0.0120 C.ar  1 <1>   0.0860 
  8 C       -2.5950     1.6320    -0.3420 C.ar  1 <1>  -0.1500 
  9 C        1.6370    -3.7540    -0.3680 C.3   1 <1>  -0.2000 
 10 C        2.0830    -3.0300     0.8670 C.3   1 <1>  -0.2000 
 11 C       -4.8760    -1.3020     0.2990 C.2   1 <1>   0.6340 
 12 C       -5.2800     1.0870    -0.1730 C.ar  1 <1>  -0.1500 
 13 C       -3.5090     2.6490    -0.5180 C.ar  1 <1>  -0.1500 
 14 O       -4.1910    -2.2140     0.7290 O.2   1 <1>  -0.5700 
 15 O       -6.1740    -1.5450     0.0820 O.3   1 <1>  -0.4300 
 16 C       -4.8610     2.3740    -0.4360 C.ar  1 <1>  -0.1500 
 17 C       -6.7570    -2.8100     0.3280 C.3   1 <1>   0.0400 
 18 H       -2.4580    -1.5620     0.4540 H     1 <1>   0.3700 
 19 H       -0.5930    -2.6330     0.7040 H     1 <1>   0.3700 
 20 H        1.8010    -1.5780    -0.7910 H     1 <1>   0.1000 
 21 H       -1.5490     1.8710    -0.4030 H     1 <1>   0.1500 
 22 H        2.3790    -4.0150    -1.1010 H     1 <1>   0.1000 
 23 H        0.8520    -4.4850    -0.2940 H     1 <1>   0.1000 
 24 H        1.6120    -3.2550     1.8080 H     1 <1>   0.1000 
 25 H        3.1290    -2.8010     0.9730 H     1 <1>   0.1000 
 26 H       -6.3380     0.8990    -0.1090 H     1 <1>   0.1500 
 27 H       -3.1710     3.6510    -0.7190 H     1 <1>   0.1500 
 28 H       -5.5790     3.1650    -0.5750 H     1 <1>   0.1500 
 29 H       -7.8020    -2.7580     0.0820 H     1 <1>   0.0800 
 30 H       -6.6330    -3.0550     1.3690 H     1 <1>   0.0800 
 31 H       -6.2670    -3.5450    -0.2870 H     1 <1>   0.0800 
@<TRIPOS>BOND
  1   1   2  2   
  2   2   3  am  
  3   2   4  am  
  4   3   5  1   
  5   3  18  1   
  6   4   6  1   
  7   4  19  1   
  8   5   7  ar  
  9   5   8  ar  
 10   6   9  1   
 11   6  10  1   
 12   6  20  1   
 13   7  11  1   
 14   7  12  ar  
 15   8  13  ar  
 16   8  21  1   
 17   9  10  1   
 18   9  22  1   
 19   9  23  1   
 20  10  24  1   
 21  10  25  1   
 22  11  14  2   
 23  11  15  1   
 24  12  16  ar  
 25  12  26  1   
 26  13  16  ar  
 27  13  27  1   
 28  15  17  1   
 29  16  28  1   
 30  17  29  1   
 31  17  30  1   
 32  17  31  1   
@<TRIPOS>SUBSTRUCTURE
  1 ****   3 GROUP 4 **** **** 0

# MOE 2024.06 (io_trps.svl 2023.06)
