@<TRIPOS>MOLECULE
NONAME
35 37 1 0 0 
SMALL
USER_CHARGES


@<TRIPOS>ATOM
  1 F       -0.7180    -0.1260     1.0280 F     1 <1>  -0.1900 
  2 C       -1.8300    -0.7760     0.8070 C.ar  1 <1>   0.1900 
  3 C       -1.7650    -2.0650     0.3180 C.ar  1 <1>  -0.1500 
  4 C       -3.0290    -0.1390     1.0700 C.ar  1 <1>  -0.1500 
  5 C       -2.9470    -2.7550     0.0790 C.ar  1 <1>   0.1170 
  6 C       -4.2070    -0.8270     0.8330 C.ar  1 <1>  -0.1500 
  7 N       -2.9860    -4.0570    -0.4280 N.am  1 <1>  -0.5470 
  8 C       -4.1590    -2.1230     0.3420 C.ar  1 <1>  -0.1500 
  9 C       -2.1260    -5.1080    -0.2910 C.2   1 <1>   0.5690 
 10 O       -1.0590    -4.9910     0.2670 O.2   1 <1>  -0.5700 
 11 C       -2.4740    -6.4650    -0.9380 C.3   1 <1>  -0.0190 
 12 C       -4.0460    -7.0770    -0.7780 C.3   1 <1>  -0.1860 
 13 C       -1.4520    -7.6420    -0.4120 C.3   1 <1>  -0.0800 
 14 C       -5.0890    -6.0810    -0.2900 C.2   1 <1>   0.9060 
 15 C       -3.9460    -8.5020     0.0350 C.3   1 <1>  -0.0800 
 16 C       -2.6990    -8.0750    -0.2080 C.3   1 <1>  -0.1600 
 17 C       -1.3600    -9.0760     0.3660 C.3   1 <1>  -0.1600 
 18 O       -5.3920    -5.1690    -1.0700 O.co2 1 <1>  -0.9000 
 19 O       -5.5560    -6.1380     0.8470 O.co2 1 <1>  -0.9000 
 20 C       -2.9140    -9.6660     0.5310 C.3   1 <1>  -0.1600 
 21 H       -0.8140    -2.5240     0.1270 H     1 <1>   0.1500 
 22 H       -3.0360     0.8660     1.4510 H     1 <1>   0.1500 
 23 H       -5.1590    -0.3660     1.0290 H     1 <1>   0.1500 
 24 H       -3.9240    -4.3290    -0.7820 H     1 <1>   0.3700 
 25 H       -5.0730    -2.6680     0.1620 H     1 <1>   0.1500 
 26 H       -2.3050    -6.3090    -1.9900 H     1 <1>   0.0800 
 27 H       -4.3930    -7.3110    -1.7730 H     1 <1>   0.0800 
 28 H       -0.9130    -7.8650    -1.3220 H     1 <1>   0.0800 
 29 H       -4.4490    -8.2750     0.9660 H     1 <1>   0.0800 
 30 H       -2.7030    -7.5410     0.8410 H     1 <1>   0.0800 
 31 H       -2.6900    -8.5980    -1.2600 H     1 <1>   0.0800 
 32 H       -0.9140    -8.9320     1.3390 H     1 <1>   0.0800 
 33 H       -0.7440    -9.7750    -0.1760 H     1 <1>   0.0800 
 34 H       -3.0430   -10.5540    -0.0700 H     1 <1>   0.0800 
 35 H       -3.1080    -9.9360     1.5570 H     1 <1>   0.0800 
@<TRIPOS>BOND
  1   1   2  1   
  2   2   3  ar  
  3   2   4  ar  
  4   3   5  ar  
  5   3  21  1   
  6   4   6  ar  
  7   4  22  1   
  8   5   7  1   
  9   5   8  ar  
 10   6   8  ar  
 11   6  23  1   
 12   7   9  am  
 13   7  24  1   
 14   8  25  1   
 15   9  10  2   
 16   9  11  1   
 17  11  12  1   
 18  11  13  1   
 19  11  26  1   
 20  12  14  1   
 21  12  15  1   
 22  12  27  1   
 23  13  16  1   
 24  13  17  1   
 25  13  28  1   
 26  14  18  ar  
 27  14  19  ar  
 28  15  16  1   
 29  15  20  1   
 30  15  29  1   
 31  16  30  1   
 32  16  31  1   
 33  17  20  1   
 34  17  32  1   
 35  17  33  1   
 36  20  34  1   
 37  20  35  1   
@<TRIPOS>SUBSTRUCTURE
  1 ****   7 GROUP 4 **** **** 0

# MOE 2024.06 (io_trps.svl 2023.06)
