@<TRIPOS>MOLECULE
NONAME
48 50 1 0 0 
SMALL
USER_CHARGES


@<TRIPOS>ATOM
  1 O       -2.4660    -1.2590     1.2240 O.3   1 <1>  -0.6800 
  2 C       -1.3870    -1.0150     0.3690 C.3   1 <1>   0.2000 
  3 C       -1.8970    -0.4000    -0.9450 C.3   1 <1>   0.0960 
  4 C       -0.6400    -2.3500     0.1620 C.3   1 <1>   0.3430 
  5 N       -2.6030     0.8640    -0.6590 N.pl3 1 <1>   0.0480 
  6 N       -1.6140    -3.4780     0.1210 N.4   1 <1>  -0.9060 
  7 C       -3.9250     0.9520    -0.2870 C.ar  1 <1>  -0.1520 
  8 C       -2.0220     2.0910    -0.4580 C.2   1 <1>  -0.3320 
  9 C       -1.1090    -4.7720     0.6120 C.3   1 <1>   0.4860 
 10 C       -4.1650     2.2430     0.1650 C.ar  1 <1>   0.0000 
 11 C       -4.9530     0.0010    -0.2970 C.ar  1 <1>  -0.1500 
 12 C       -2.9480     2.9460     0.0420 C.2   1 <1>  -0.1810 
 13 C       -0.5600     2.3730    -0.7830 C.3   1 <1>  -0.0600 
 14 C       -2.2510    -5.7500     0.4730 C.ar  1 <1>  -0.1440 
 15 C       -5.4390     2.5930     0.6250 C.ar  1 <1>  -0.1500 
 16 C       -6.2010     0.3580     0.1580 C.ar  1 <1>  -0.1500 
 17 C       -2.8180     4.4080     0.4320 C.3   1 <1>  -0.0590 
 18 C       -2.3260    -6.5830    -0.6350 C.ar  1 <1>  -0.1500 
 19 C       -3.2380    -5.8140     1.4460 C.ar  1 <1>  -0.1500 
 20 C       -6.4440     1.6560     0.6210 C.ar  1 <1>  -0.1500 
 21 C       -3.3830    -7.4660    -0.7700 C.ar  1 <1>  -0.1500 
 22 C       -4.2940    -6.6980     1.3080 C.ar  1 <1>  -0.1500 
 23 C       -4.3670    -7.5230     0.2000 C.ar  1 <1>  -0.1500 
 24 H       -2.9980    -0.4300     1.3340 H     1 <1>   0.4000 
 25 H       -0.7300    -0.3110     0.8520 H     1 <1>   0.0800 
 26 H       -2.5680    -1.0700    -1.4490 H     1 <1>   0.0800 
 27 H       -1.0750    -0.1910    -1.6050 H     1 <1>   0.0800 
 28 H        0.0250    -2.4830     1.0000 H     1 <1>   0.0800 
 29 H       -0.0420    -2.3190    -0.7340 H     1 <1>   0.0800 
 30 H       -2.0510    -3.6120    -0.7960 H     1 <1>   0.4500 
 31 H       -2.3850    -3.1780     0.7470 H     1 <1>   0.4500 
 32 H       -0.8100    -4.6960     1.6450 H     1 <1>   0.0800 
 33 H       -0.2680    -5.1010     0.0230 H     1 <1>   0.0800 
 34 H       -4.7760    -0.9940    -0.6590 H     1 <1>   0.1500 
 35 H       -0.3200     3.4060    -0.6130 H     1 <1>   0.0800 
 36 H        0.0870     1.7770    -0.1660 H     1 <1>   0.0800 
 37 H       -0.3640     2.1570    -1.8180 H     1 <1>   0.0800 
 38 H       -5.6130     3.5940     0.9750 H     1 <1>   0.1500 
 39 H       -7.0080    -0.3550     0.1600 H     1 <1>   0.1500 
 40 H       -1.8170     4.7670     0.2930 H     1 <1>   0.0800 
 41 H       -3.0850     4.5320     1.4660 H     1 <1>   0.0800 
 42 H       -3.4820     5.0010    -0.1710 H     1 <1>   0.0800 
 43 H       -1.5700    -6.5630    -1.4020 H     1 <1>   0.1500 
 44 H       -3.2020    -5.1860     2.3210 H     1 <1>   0.1500 
 45 H       -7.4280     1.9130     0.9720 H     1 <1>   0.1500 
 46 H       -3.4420    -8.1150    -1.6280 H     1 <1>   0.1500 
 47 H       -5.0610    -6.7500     2.0630 H     1 <1>   0.1500 
 48 H       -5.1880    -8.2120     0.0950 H     1 <1>   0.1500 
@<TRIPOS>BOND
  1   1   2  1   
  2   1  24  1   
  3   2   3  1   
  4   2   4  1   
  5   2  25  1   
  6   3   5  1   
  7   3  26  1   
  8   3  27  1   
  9   4   6  1   
 10   4  28  1   
 11   4  29  1   
 12   5   7  1   
 13   5   8  1   
 14   6   9  1   
 15   6  30  1   
 16   6  31  1   
 17   7  10  ar  
 18   7  11  ar  
 19   8  12  2   
 20   8  13  1   
 21   9  14  1   
 22   9  32  1   
 23   9  33  1   
 24  10  12  1   
 25  10  15  ar  
 26  11  16  ar  
 27  11  34  1   
 28  12  17  1   
 29  13  35  1   
 30  13  36  1   
 31  13  37  1   
 32  14  18  ar  
 33  14  19  ar  
 34  15  20  ar  
 35  15  38  1   
 36  16  20  ar  
 37  16  39  1   
 38  17  40  1   
 39  17  41  1   
 40  17  42  1   
 41  18  21  ar  
 42  18  43  1   
 43  19  22  ar  
 44  19  44  1   
 45  20  45  1   
 46  21  23  ar  
 47  21  46  1   
 48  22  23  ar  
 49  22  47  1   
 50  23  48  1   
@<TRIPOS>SUBSTRUCTURE
  1 ****   1 GROUP 4 **** **** 0

# MOE 2024.06 (io_trps.svl 2023.06)
