@<TRIPOS>MOLECULE
NONAME
37 37 1 0 0 
SMALL
USER_CHARGES


@<TRIPOS>ATOM
  1 O        0.9770     1.4450     0.0330 O.3   1 <1>  -0.5600 
  2 C        1.4020     0.4880    -0.8970 C.3   1 <1>   0.4800 
  3 C       -0.3850     1.5360     0.3450 C.3   1 <1>   0.1200 
  4 C        2.8830     0.6630    -0.9740 C.1   1 <1>  -0.2000 
  5 C        1.0900    -0.9250    -0.3980 C.3   1 <1>  -0.2400 
  6 C        0.7910     0.7670    -2.2720 C.3   1 <1>  -0.2400 
  7 C       -0.5600     2.6490     1.3750 C.3   1 <1>   0.0400 
  8 C        4.0580     0.8440    -0.9980 C.1   1 <1>  -0.2000 
  9 C       -1.9940     2.7810     1.7400 C.1   1 <1>   0.3570 
 10 C        5.5080     1.1590    -0.9450 C.3   1 <1>   0.5430 
 11 N       -3.0950     2.8660     2.0060 N.1   1 <1>  -0.5570 
 12 N        5.7080     2.0580     0.2160 N.4   1 <1>  -0.9590 
 13 C        5.0550     3.3810     0.0590 C.3   1 <1>   0.3430 
 14 C        7.1240     2.3230     0.5500 C.3   1 <1>   0.3430 
 15 C        5.7470     4.2650     1.0890 C.3   1 <1>  -0.1600 
 16 C        7.0750     3.5730     1.4170 C.3   1 <1>  -0.1600 
 17 H       -0.7230     0.6010     0.7580 H     1 <1>   0.0800 
 18 H       -0.9430     1.7700    -0.5450 H     1 <1>   0.0800 
 19 H        1.5710    -1.6470    -1.0320 H     1 <1>   0.0800 
 20 H        0.0350    -1.1240    -0.4240 H     1 <1>   0.0800 
 21 H        1.4590    -1.0560     0.6040 H     1 <1>   0.0800 
 22 H        1.2540     0.1360    -3.0080 H     1 <1>   0.0800 
 23 H        0.9580     1.7920    -2.5510 H     1 <1>   0.0800 
 24 H       -0.2620     0.5570    -2.2810 H     1 <1>   0.0800 
 25 H       -0.2200     3.5820     0.9660 H     1 <1>   0.0800 
 26 H        0.0020     2.4190     2.2610 H     1 <1>   0.0800 
 27 H        5.8200     1.6400    -1.8570 H     1 <1>   0.0800 
 28 H        6.0700     0.2480    -0.8160 H     1 <1>   0.0800 
 29 H        5.2570     1.6020     1.0200 H     1 <1>   0.4500 
 30 H        3.9910     3.3220     0.2270 H     1 <1>   0.0800 
 31 H        5.2400     3.7670    -0.9310 H     1 <1>   0.0800 
 32 H        7.6810     2.5330    -0.3500 H     1 <1>   0.0800 
 33 H        7.5780     1.4930     1.0690 H     1 <1>   0.0800 
 34 H        5.1340     4.3430     1.9710 H     1 <1>   0.0800 
 35 H        5.8980     5.2540     0.6910 H     1 <1>   0.0800 
 36 H        7.9180     4.2090     1.2100 H     1 <1>   0.0800 
 37 H        7.1050     3.2960     2.4570 H     1 <1>   0.0800 
@<TRIPOS>BOND
  1   1   2  1   
  2   1   3  1   
  3   2   4  1   
  4   2   5  1   
  5   2   6  1   
  6   3   7  1   
  7   3  17  1   
  8   3  18  1   
  9   4   8  3   
 10   5  19  1   
 11   5  20  1   
 12   5  21  1   
 13   6  22  1   
 14   6  23  1   
 15   6  24  1   
 16   7   9  1   
 17   7  25  1   
 18   7  26  1   
 19   8  10  1   
 20   9  11  3   
 21  10  12  1   
 22  10  27  1   
 23  10  28  1   
 24  12  13  1   
 25  12  14  1   
 26  12  29  1   
 27  13  15  1   
 28  13  30  1   
 29  13  31  1   
 30  14  16  1   
 31  14  32  1   
 32  14  33  1   
 33  15  16  1   
 34  15  34  1   
 35  15  35  1   
 36  16  36  1   
 37  16  37  1   
@<TRIPOS>SUBSTRUCTURE
  1 ****   1 GROUP 4 **** **** 0

# MOE 2024.06 (io_trps.svl 2023.06)
