@<TRIPOS>MOLECULE
NONAME
39 39 1 0 0 
SMALL
USER_CHARGES


@<TRIPOS>ATOM
  1 P        0.1200     1.5800     0.3810 P.3   1 <1>  -0.2120 
  2 N        1.6620     1.0980    -0.4440 N.pl3 1 <1>  -0.6220 
  3 C       -0.4710     3.0210    -0.6710 C.3   1 <1>   0.1670 
  4 C       -0.9460     0.0810     0.0530 C.3   1 <1>   0.0870 
  5 C        2.9050     1.2910     0.0980 C.ar  1 <1>   0.4100 
  6 C       -1.5130     3.7970     0.1390 C.3   1 <1>  -0.2400 
  7 C       -1.0540     2.5330    -2.0010 C.3   1 <1>  -0.2400 
  8 C        0.7280     3.9400    -0.9380 C.3   1 <1>  -0.2400 
  9 C       -2.3360     0.2790     0.6620 C.3   1 <1>  -0.2400 
 10 C       -0.2610    -1.1330     0.6880 C.3   1 <1>  -0.2400 
 11 N        3.8790     1.3760    -0.7970 N.ar  1 <1>  -0.6200 
 12 C        3.1130     1.3870     1.4720 C.ar  1 <1>  -0.1500 
 13 C        5.0930     1.5670    -0.3060 C.ar  1 <1>   0.1600 
 14 C        4.3810     1.5860     1.9640 C.ar  1 <1>  -0.1500 
 15 C        5.4040     1.6790     1.0410 C.ar  1 <1>  -0.1440 
 16 C        6.8310     1.8990     1.5130 C.3   1 <1>  -0.0970 
 17 H        1.6160     1.0950    -1.4640 H     1 <1>   0.4000 
 18 H       -1.0140    -0.0640    -1.0100 H     1 <1>   0.0800 
 19 H       -2.3700     3.1900     0.3520 H     1 <1>   0.0800 
 20 H       -1.8410     4.6640    -0.4060 H     1 <1>   0.0800 
 21 H       -1.0890     4.1210     1.0720 H     1 <1>   0.0800 
 22 H       -1.9500     1.9630    -1.8430 H     1 <1>   0.0800 
 23 H       -0.3390     1.9220    -2.5210 H     1 <1>   0.0800 
 24 H       -1.3010     3.3720    -2.6260 H     1 <1>   0.0800 
 25 H        1.2120     4.1980    -0.0130 H     1 <1>   0.0800 
 26 H        0.4100     4.8460    -1.4220 H     1 <1>   0.0800 
 27 H        1.4510     3.4620    -1.5730 H     1 <1>   0.0800 
 28 H       -2.2540     0.5580     1.6980 H     1 <1>   0.0800 
 29 H       -2.9030    -0.6320     0.5950 H     1 <1>   0.0800 
 30 H       -2.8760     1.0410     0.1360 H     1 <1>   0.0800 
 31 H        0.7020    -1.2970     0.2400 H     1 <1>   0.0800 
 32 H       -0.8550    -2.0170     0.5420 H     1 <1>   0.0800 
 33 H       -0.1230    -0.9750     1.7420 H     1 <1>   0.0800 
 34 H        2.2770     1.3010     2.1380 H     1 <1>   0.1500 
 35 H        5.8890     1.6370    -1.0260 H     1 <1>   0.1500 
 36 H        4.5650     1.6640     3.0210 H     1 <1>   0.1500 
 37 H        7.1360     1.0870     2.1480 H     1 <1>   0.0800 
 38 H        6.8950     2.8180     2.0690 H     1 <1>   0.0800 
 39 H        7.5080     1.9560     0.6790 H     1 <1>   0.0800 
@<TRIPOS>BOND
  1   1   2  1   
  2   1   3  1   
  3   1   4  1   
  4   2   5  1   
  5   2  17  1   
  6   3   6  1   
  7   3   7  1   
  8   3   8  1   
  9   4   9  1   
 10   4  10  1   
 11   4  18  1   
 12   5  11  ar  
 13   5  12  ar  
 14   6  19  1   
 15   6  20  1   
 16   6  21  1   
 17   7  22  1   
 18   7  23  1   
 19   7  24  1   
 20   8  25  1   
 21   8  26  1   
 22   8  27  1   
 23   9  28  1   
 24   9  29  1   
 25   9  30  1   
 26  10  31  1   
 27  10  32  1   
 28  10  33  1   
 29  11  13  ar  
 30  12  14  ar  
 31  12  34  1   
 32  13  15  ar  
 33  13  35  1   
 34  14  15  ar  
 35  14  36  1   
 36  15  16  1   
 37  16  37  1   
 38  16  38  1   
 39  16  39  1   
@<TRIPOS>SUBSTRUCTURE
  1 ****   2 GROUP 4 **** **** 0

# MOE 2024.06 (io_trps.svl 2023.06)
