@<TRIPOS>MOLECULE
NONAME
49 50 1 0 0 
SMALL
USER_CHARGES


@<TRIPOS>ATOM
  1 O       -0.0470     0.1650     0.7750 O.2   1 <1>  -0.5700 
  2 C        0.5330     1.1400     0.3390 C.2   1 <1>   0.5440 
  3 N       -0.1820     2.1970    -0.1750 N.am  1 <1>  -0.5470 
  4 C        1.9830     1.1830     0.3220 C.ar  1 <1>   0.0860 
  5 C       -1.5620     2.4590    -0.1850 C.ar  1 <1>   0.1170 
  6 C        2.6900     2.3830     0.4430 C.ar  1 <1>  -0.1500 
  7 C        2.7330     0.0130     0.1800 C.ar  1 <1>  -0.1500 
  8 C       -2.4370     1.9460     0.7670 C.ar  1 <1>  -0.1500 
  9 C       -2.0810     3.2850    -1.1740 C.ar  1 <1>  -0.1500 
 10 C        4.0710     2.4100     0.4050 C.ar  1 <1>  -0.1500 
 11 C        4.1140     0.0330     0.1420 C.ar  1 <1>  -0.1500 
 12 C       -3.7860     2.2470     0.7250 C.ar  1 <1>  -0.1500 
 13 C       -3.4300     3.5860    -1.2150 C.ar  1 <1>  -0.1500 
 14 C        4.7960     1.2410     0.2510 C.ar  1 <1>   0.0830 
 15 C       -4.3050     3.0740    -0.2640 C.ar  1 <1>   0.1170 
 16 O        6.1420     1.3540     0.2210 O.3   1 <1>  -0.3630 
 17 N       -5.6850     3.3390    -0.2680 N.am  1 <1>  -0.5470 
 18 C        6.9800     0.2280     0.0920 C.3   1 <1>   0.1200 
 19 C       -6.3990     4.3630    -0.8230 C.2   1 <1>   0.5690 
 20 C        8.4320     0.7070     0.1030 C.3   1 <1>  -0.1600 
 21 O       -5.9050     5.2840    -1.4250 O.2   1 <1>  -0.5700 
 22 C       -7.9090     4.3320    -0.6600 C.3   1 <1>  -0.0990 
 23 C        9.4070    -0.4690    -0.0350 C.3   1 <1>  -0.1600 
 24 C       -8.3610     4.5790     0.7890 C.3   1 <1>  -0.2400 
 25 C       10.8590     0.0170    -0.0220 C.3   1 <1>  -0.2400 
 26 H        0.3750     2.8600    -0.7070 H     1 <1>   0.3700 
 27 H        2.1570     3.3070     0.5800 H     1 <1>   0.1500 
 28 H        2.2120    -0.9260     0.0980 H     1 <1>   0.1500 
 29 H       -2.0630     1.3100     1.5480 H     1 <1>   0.1500 
 30 H       -1.4300     3.6950    -1.9230 H     1 <1>   0.1500 
 31 H        4.6030     3.3410     0.4980 H     1 <1>   0.1500 
 32 H        4.6410    -0.8960     0.0290 H     1 <1>   0.1500 
 33 H       -4.4370     1.8350     1.4740 H     1 <1>   0.1500 
 34 H       -3.8000     4.2230    -1.9980 H     1 <1>   0.1500 
 35 H       -6.2410     2.6810     0.2720 H     1 <1>   0.3700 
 36 H        6.7490    -0.2620    -0.8380 H     1 <1>   0.0800 
 37 H        6.7910    -0.4320     0.9210 H     1 <1>   0.0800 
 38 H        8.6220     1.2240     1.0280 H     1 <1>   0.0800 
 39 H        8.5800     1.3940    -0.7120 H     1 <1>   0.0800 
 40 H       -8.2760     3.3820    -1.0020 H     1 <1>   0.0800 
 41 H       -8.3330     5.0910    -1.2940 H     1 <1>   0.0800 
 42 H        9.2180    -0.9910    -0.9580 H     1 <1>   0.0800 
 43 H        9.2590    -1.1600     0.7780 H     1 <1>   0.0800 
 44 H       -7.9870     3.8130     1.4440 H     1 <1>   0.0800 
 45 H       -9.4350     4.5850     0.8440 H     1 <1>   0.0800 
 46 H       -7.9960     5.5330     1.1290 H     1 <1>   0.0800 
 47 H       11.0360     0.6940    -0.8390 H     1 <1>   0.0800 
 48 H       11.5280    -0.8190    -0.1200 H     1 <1>   0.0800 
 49 H       11.0780     0.5240     0.9010 H     1 <1>   0.0800 
@<TRIPOS>BOND
  1   1   2  2   
  2   2   3  am  
  3   2   4  1   
  4   3   5  1   
  5   3  26  1   
  6   4   6  ar  
  7   4   7  ar  
  8   5   8  ar  
  9   5   9  ar  
 10   6  10  ar  
 11   6  27  1   
 12   7  11  ar  
 13   7  28  1   
 14   8  12  ar  
 15   8  29  1   
 16   9  13  ar  
 17   9  30  1   
 18  10  14  ar  
 19  10  31  1   
 20  11  14  ar  
 21  11  32  1   
 22  12  15  ar  
 23  12  33  1   
 24  13  15  ar  
 25  13  34  1   
 26  14  16  1   
 27  15  17  1   
 28  16  18  1   
 29  17  19  am  
 30  17  35  1   
 31  18  20  1   
 32  18  36  1   
 33  18  37  1   
 34  19  21  2   
 35  19  22  1   
 36  20  23  1   
 37  20  38  1   
 38  20  39  1   
 39  22  24  1   
 40  22  40  1   
 41  22  41  1   
 42  23  25  1   
 43  23  42  1   
 44  23  43  1   
 45  24  44  1   
 46  24  45  1   
 47  24  46  1   
 48  25  47  1   
 49  25  48  1   
 50  25  49  1   
@<TRIPOS>SUBSTRUCTURE
  1 ****   3 GROUP 4 **** **** 0

# MOE 2024.06 (io_trps.svl 2023.06)
