@<TRIPOS>MOLECULE
NONAME
33 33 1 0 0 
SMALL
USER_CHARGES


@<TRIPOS>ATOM
  1 CL       0.7840    -2.1560     2.6450 Cl    1 <1>  -0.1770 
  2 C        0.7140    -2.6370     0.9660 C.ar  1 <1>   0.1770 
  3 C        1.5640    -2.0630     0.0310 C.ar  1 <1>  -0.1440 
  4 C       -0.2050    -3.6060     0.6050 C.ar  1 <1>  -0.1500 
  5 C        1.4870    -2.4930    -1.2860 C.ar  1 <1>  -0.1500 
  6 C        2.5760    -0.9950     0.4070 C.3   1 <1>   0.2840 
  7 C       -0.2770    -4.0210    -0.7130 C.ar  1 <1>  -0.1500 
  8 C        0.5710    -3.4640    -1.6560 C.ar  1 <1>  -0.1500 
  9 N        3.8740    -1.6490     0.6360 N.am  1 <1>  -0.7300 
 10 C        4.9270    -1.5840    -0.2110 C.2   1 <1>   0.6900 
 11 O        4.8900    -0.8210    -1.1590 O.2   1 <1>  -0.5700 
 12 N        6.0100    -2.3990     0.0020 N.am  1 <1>  -0.6600 
 13 C        7.1240    -2.4460    -0.9800 C.3   1 <1>   0.1400 
 14 C        6.1740    -3.2530     1.2060 C.3   1 <1>   0.1400 
 15 C        8.2170    -1.4640    -0.5650 C.3   1 <1>  -0.2400 
 16 C        5.5470    -4.6220     0.9500 C.3   1 <1>  -0.2400 
 17 H       -0.8530    -4.0300     1.3510 H     1 <1>   0.1500 
 18 H        2.1480    -2.0700    -2.0260 H     1 <1>   0.1500 
 19 H        2.2790    -0.4680     1.2960 H     1 <1>   0.0800 
 20 H        2.6550    -0.2720    -0.3880 H     1 <1>   0.0800 
 21 H       -0.9880    -4.7750    -1.0050 H     1 <1>   0.1500 
 22 H        0.5210    -3.7870    -2.6820 H     1 <1>   0.1500 
 23 H        3.8470    -2.4450     1.2650 H     1 <1>   0.3700 
 24 H        6.7580    -2.1860    -1.9600 H     1 <1>   0.0800 
 25 H        7.5210    -3.4460    -1.0320 H     1 <1>   0.0800 
 26 H        5.7100    -2.7830     2.0560 H     1 <1>   0.0800 
 27 H        7.2210    -3.3670     1.4300 H     1 <1>   0.0800 
 28 H        7.8140    -0.4670    -0.5290 H     1 <1>   0.0800 
 29 H        9.0130    -1.4830    -1.2860 H     1 <1>   0.0800 
 30 H        8.6180    -1.7230     0.3980 H     1 <1>   0.0800 
 31 H        4.5010    -4.5230     0.7240 H     1 <1>   0.0800 
 32 H        5.6520    -5.2390     1.8240 H     1 <1>   0.0800 
 33 H        6.0400    -5.1090     0.1280 H     1 <1>   0.0800 
@<TRIPOS>BOND
  1   1   2  1   
  2   2   3  ar  
  3   2   4  ar  
  4   3   5  ar  
  5   3   6  1   
  6   4   7  ar  
  7   4  17  1   
  8   5   8  ar  
  9   5  18  1   
 10   6   9  1   
 11   6  19  1   
 12   6  20  1   
 13   7   8  ar  
 14   7  21  1   
 15   8  22  1   
 16   9  10  am  
 17   9  23  1   
 18  10  11  2   
 19  10  12  am  
 20  12  13  1   
 21  12  14  1   
 22  13  15  1   
 23  13  24  1   
 24  13  25  1   
 25  14  16  1   
 26  14  26  1   
 27  14  27  1   
 28  15  28  1   
 29  15  29  1   
 30  15  30  1   
 31  16  31  1   
 32  16  32  1   
 33  16  33  1   
@<TRIPOS>SUBSTRUCTURE
  1 ****   9 GROUP 4 **** **** 0

# MOE 2024.06 (io_trps.svl 2023.06)
