@<TRIPOS>MOLECULE
NONAME
47 48 1 0 0 
SMALL
USER_CHARGES


@<TRIPOS>ATOM
  1 S        0.6840    -1.6120     1.3670 S.o2  1 <1>   1.3330 
  2 O        1.8000    -2.5320     1.4440 O.2   1 <1>  -0.6500 
  3 O       -0.3490    -1.6830     2.3700 O.2   1 <1>  -0.6500 
  4 N        0.0410    -1.7240    -0.2040 N.am  1 <1>  -0.8490 
  5 C        1.3090     0.0570     1.3970 C.3   1 <1>  -0.1350 
  6 C       -1.3330    -2.2190    -0.3830 C.3   1 <1>   0.2760 
  7 C        0.9700    -2.3200    -1.2090 C.3   1 <1>   0.2570 
  8 C       -2.3830    -1.2000     0.0870 C.3   1 <1>  -0.1600 
  9 C       -1.5710    -3.6200     0.2070 C.3   1 <1>  -0.1600 
 10 C        2.2670    -1.5410    -1.4810 C.2   1 <1>   0.5690 
 11 C       -3.8000    -1.6980    -0.2340 C.3   1 <1>  -0.1600 
 12 C       -2.9940    -4.1050    -0.1110 C.3   1 <1>  -0.1600 
 13 O        2.2740    -0.7350    -2.3800 O.2   1 <1>  -0.5700 
 14 N        3.3590    -1.7930    -0.6920 N.am  1 <1>  -0.5470 
 15 C       -4.0450    -3.0910     0.3650 C.3   1 <1>  -0.1600 
 16 C        4.6480    -1.2430    -0.6860 C.ar  1 <1>   0.1170 
 17 C        5.3860    -1.3070     0.4880 C.ar  1 <1>  -0.1500 
 18 C        5.2280    -0.6460    -1.8030 C.ar  1 <1>  -0.1500 
 19 C        6.6620    -0.7810     0.5410 C.ar  1 <1>   0.1010 
 20 C        6.5070    -0.1190    -1.7470 C.ar  1 <1>  -0.1500 
 21 S        7.5340    -0.9100     2.1130 S.3   1 <1>  -0.3320 
 22 C        7.2340    -0.1830    -0.5710 C.ar  1 <1>  -0.1500 
 23 C        9.2090    -0.1750     1.8560 C.3   1 <1>  -0.0100 
 24 H        2.0340     0.2110     0.6240 H     1 <1>   0.0800 
 25 H        1.7680     0.2590     2.3440 H     1 <1>   0.0800 
 26 H        0.5030     0.7500     1.2520 H     1 <1>   0.0800 
 27 H       -1.5030    -2.3080    -1.4430 H     1 <1>   0.0800 
 28 H        0.4670    -2.3890    -2.1570 H     1 <1>   0.0800 
 29 H        1.2250    -3.3220    -0.9120 H     1 <1>   0.0800 
 30 H       -2.2150    -0.2610    -0.4090 H     1 <1>   0.0800 
 31 H       -2.3210    -1.0410     1.1460 H     1 <1>   0.0800 
 32 H       -1.4580    -3.6060     1.2750 H     1 <1>   0.0800 
 33 H       -0.8650    -4.3200    -0.1990 H     1 <1>   0.0800 
 34 H       -3.9360    -1.7380    -1.3010 H     1 <1>   0.0800 
 35 H       -4.5220    -1.0040     0.1630 H     1 <1>   0.0800 
 36 H       -3.1670    -5.0520     0.3720 H     1 <1>   0.0800 
 37 H       -3.0970    -4.2530    -1.1720 H     1 <1>   0.0800 
 38 H        3.1470    -2.3780     0.1290 H     1 <1>   0.3700 
 39 H       -5.0280    -3.4340     0.0880 H     1 <1>   0.0800 
 40 H       -4.0120    -3.0250     1.4400 H     1 <1>   0.0800 
 41 H        4.9710    -1.7650     1.3670 H     1 <1>   0.1500 
 42 H        4.6810    -0.5900    -2.7260 H     1 <1>   0.1500 
 43 H        6.9340     0.3410    -2.6210 H     1 <1>   0.1500 
 44 H        8.2230     0.2300    -0.5400 H     1 <1>   0.1500 
 45 H        9.7470    -0.2620     2.7830 H     1 <1>   0.0800 
 46 H        9.0820     0.8580     1.5850 H     1 <1>   0.0800 
 47 H        9.7000    -0.7300     1.0770 H     1 <1>   0.0800 
@<TRIPOS>BOND
  1   1   2  2   
  2   1   3  2   
  3   1   4  am  
  4   1   5  1   
  5   4   6  1   
  6   4   7  1   
  7   5  24  1   
  8   5  25  1   
  9   5  26  1   
 10   6   8  1   
 11   6   9  1   
 12   6  27  1   
 13   7  10  1   
 14   7  28  1   
 15   7  29  1   
 16   8  11  1   
 17   8  30  1   
 18   8  31  1   
 19   9  12  1   
 20   9  32  1   
 21   9  33  1   
 22  10  13  2   
 23  10  14  am  
 24  11  15  1   
 25  11  34  1   
 26  11  35  1   
 27  12  15  1   
 28  12  36  1   
 29  12  37  1   
 30  14  16  1   
 31  14  38  1   
 32  15  39  1   
 33  15  40  1   
 34  16  17  ar  
 35  16  18  ar  
 36  17  19  ar  
 37  17  41  1   
 38  18  20  ar  
 39  18  42  1   
 40  19  21  1   
 41  19  22  ar  
 42  20  22  ar  
 43  20  43  1   
 44  21  23  1   
 45  22  44  1   
 46  23  45  1   
 47  23  46  1   
 48  23  47  1   
@<TRIPOS>SUBSTRUCTURE
  1 ****  14 GROUP 4 **** **** 0

# MOE 2024.06 (io_trps.svl 2023.06)
