@<TRIPOS>MOLECULE
NONAME
53 55 1 0 0 
SMALL
USER_CHARGES


@<TRIPOS>ATOM
  1 S       -0.1860     0.0800    -1.8540 S.o2  1 <1>   1.4470 
  2 O       -0.9480     1.0570    -2.6010 O.2   1 <1>  -0.6500 
  3 O        0.4470    -1.0130    -2.5630 O.2   1 <1>  -0.6500 
  4 N        1.0630     0.9170    -1.0660 N.am  1 <1>  -0.8490 
  5 C       -1.1940    -0.5540    -0.4850 C.ar  1 <1>  -0.0090 
  6 C        1.7760     1.7980    -1.9940 C.3   1 <1>   0.1960 
  7 C        1.9760     0.0060    -0.3690 C.3   1 <1>   0.1960 
  8 C       -1.5790    -1.8890    -0.4290 C.ar  1 <1>  -0.1500 
  9 C       -1.6090     0.2820     0.5440 C.ar  1 <1>  -0.1500 
 10 C        2.8050     2.6460    -1.2400 C.3   1 <1>  -0.1600 
 11 C        2.9990     0.8010     0.4440 C.3   1 <1>  -0.1600 
 12 C       -2.3430    -2.3730     0.6190 C.ar  1 <1>  -0.1500 
 13 C       -2.3730    -0.1950     1.5950 C.ar  1 <1>  -0.1500 
 14 C        3.7910     1.7670    -0.4530 C.3   1 <1>  -0.0190 
 15 C       -2.7420    -1.5280     1.6390 C.ar  1 <1>  -0.1430 
 16 C        4.7770     2.6140     0.3520 C.2   1 <1>   0.5690 
 17 C       -3.5820    -2.0540     2.7890 C.3   1 <1>  -0.0970 
 18 O        4.3560     3.2930     1.2560 O.2   1 <1>  -0.5700 
 19 N        6.0980     2.5480     0.0010 N.am  1 <1>  -0.5470 
 20 C        7.2350     3.2030     0.5080 C.ar  1 <1>   0.1170 
 21 C        8.4980     2.6400     0.3070 C.ar  1 <1>  -0.1430 
 22 C        7.1450     4.4140     1.1890 C.ar  1 <1>  -0.1500 
 23 C        9.6250     3.2880     0.7860 C.ar  1 <1>  -0.1500 
 24 C        8.6730     1.3160    -0.4270 C.3   1 <1>  -0.0970 
 25 C        8.2710     5.0570     1.6700 C.ar  1 <1>  -0.1430 
 26 C        9.5150     4.4890     1.4640 C.ar  1 <1>  -0.1500 
 27 C        8.1460     6.3750     2.4130 C.3   1 <1>  -0.0970 
 28 H        1.0770     2.4600    -2.4770 H     1 <1>   0.0800 
 29 H        2.2620     1.2090    -2.7560 H     1 <1>   0.0800 
 30 H        2.4850    -0.6240    -1.0810 H     1 <1>   0.0800 
 31 H        1.4180    -0.6280     0.3010 H     1 <1>   0.0800 
 32 H       -1.2770    -2.5590    -1.2170 H     1 <1>   0.1500 
 33 H       -1.3280     1.3220     0.5200 H     1 <1>   0.1500 
 34 H        2.2820     3.3010    -0.5650 H     1 <1>   0.0800 
 35 H        3.3420     3.2600    -1.9400 H     1 <1>   0.0800 
 36 H        3.6750     0.1220     0.9330 H     1 <1>   0.0800 
 37 H        2.4800     1.3530     1.2100 H     1 <1>   0.0800 
 38 H       -2.6260    -3.4110     0.6340 H     1 <1>   0.1500 
 39 H       -2.6790     0.4780     2.3770 H     1 <1>   0.1500 
 40 H        4.3460     1.1790    -1.1610 H     1 <1>   0.0800 
 41 H       -3.3640    -1.5110     3.6920 H     1 <1>   0.0800 
 42 H       -3.3750    -3.0950     2.9620 H     1 <1>   0.0800 
 43 H       -4.6260    -1.9400     2.5590 H     1 <1>   0.0800 
 44 H        6.3190     1.8790    -0.7310 H     1 <1>   0.3700 
 45 H        6.1830     4.8650     1.3430 H     1 <1>   0.1500 
 46 H       10.6020     2.8650     0.6380 H     1 <1>   0.1500 
 47 H        8.0870     0.5500     0.0480 H     1 <1>   0.0800 
 48 H        9.7020     1.0030    -0.4140 H     1 <1>   0.0800 
 49 H        8.3670     1.4180    -1.4520 H     1 <1>   0.0800 
 50 H       10.4000     4.9780     1.8290 H     1 <1>   0.1500 
 51 H        7.1580     6.4870     2.8210 H     1 <1>   0.0800 
 52 H        8.3390     7.1910     1.7410 H     1 <1>   0.0800 
 53 H        8.8530     6.4140     3.2220 H     1 <1>   0.0800 
@<TRIPOS>BOND
  1   1   2  2   
  2   1   3  2   
  3   1   4  am  
  4   1   5  1   
  5   4   6  1   
  6   4   7  1   
  7   5   8  ar  
  8   5   9  ar  
  9   6  10  1   
 10   6  28  1   
 11   6  29  1   
 12   7  11  1   
 13   7  30  1   
 14   7  31  1   
 15   8  12  ar  
 16   8  32  1   
 17   9  13  ar  
 18   9  33  1   
 19  10  14  1   
 20  10  34  1   
 21  10  35  1   
 22  11  14  1   
 23  11  36  1   
 24  11  37  1   
 25  12  15  ar  
 26  12  38  1   
 27  13  15  ar  
 28  13  39  1   
 29  14  16  1   
 30  14  40  1   
 31  15  17  1   
 32  16  18  2   
 33  16  19  am  
 34  17  41  1   
 35  17  42  1   
 36  17  43  1   
 37  19  20  1   
 38  19  44  1   
 39  20  21  ar  
 40  20  22  ar  
 41  21  23  ar  
 42  21  24  1   
 43  22  25  ar  
 44  22  45  1   
 45  23  26  ar  
 46  23  46  1   
 47  24  47  1   
 48  24  48  1   
 49  24  49  1   
 50  25  26  ar  
 51  25  27  1   
 52  26  50  1   
 53  27  51  1   
 54  27  52  1   
 55  27  53  1   
@<TRIPOS>SUBSTRUCTURE
  1 ****  11 GROUP 4 **** **** 0

# MOE 2024.06 (io_trps.svl 2023.06)
