@<TRIPOS>MOLECULE
NONAME
48 50 1 0 0 
SMALL
USER_CHARGES


@<TRIPOS>ATOM
  1 O        2.2590     0.4480     1.1740 O.2   1 <1>  -0.5700 
  2 C        2.4470    -0.6680     0.7710 C.2   1 <1>   0.6590 
  3 O        3.5010    -1.0420     0.0690 O.3   1 <1>  -0.4300 
  4 C        1.5690    -1.9000     0.9640 C.3   1 <1>   0.0610 
  5 C        3.3800    -2.4390    -0.2120 C.3   1 <1>   0.3410 
  6 C        1.8420    -2.5800    -0.3920 C.3   1 <1>   0.0000 
  7 C        2.3640    -2.7660     1.9670 C.3   1 <1>  -0.1600 
  8 C        0.1050    -1.6470     1.3630 C.3   1 <1>  -0.2400 
  9 C        4.3190    -2.9060    -1.3570 C.2   1 <1>   0.5690 
 10 C        3.6290    -3.1290     1.1530 C.3   1 <1>  -0.1600 
 11 C        1.2840    -1.8020    -1.6160 C.3   1 <1>  -0.2400 
 12 C        1.2780    -4.0250    -0.5080 C.3   1 <1>  -0.2400 
 13 O        3.9140    -3.7000    -2.1730 O.2   1 <1>  -0.5700 
 14 N        5.6070    -2.4870    -1.4810 N.am  1 <1>  -0.7300 
 15 C        6.3870    -1.5490    -0.6540 C.3   1 <1>   0.2200 
 16 C        6.4330    -0.1980    -1.3790 C.3   1 <1>  -0.1600 
 17 C        7.7560    -2.1870    -0.3970 C.3   1 <1>  -0.1600 
 18 C        6.9000     0.9390    -0.4570 C.3   1 <1>  -0.1600 
 19 C        8.7290    -1.3170     0.4160 C.3   1 <1>  -0.1600 
 20 C        8.4230     1.1300    -0.3770 C.3   1 <1>  -0.1600 
 21 C        9.2860    -0.1420    -0.3990 C.3   1 <1>  -0.1600 
 22 H        1.8160    -3.6460     2.2560 H     1 <1>   0.0800 
 23 H        2.6120    -2.2040     2.8520 H     1 <1>   0.0800 
 24 H        0.0680    -1.1500     2.3160 H     1 <1>   0.0800 
 25 H       -0.4360    -2.5730     1.4360 H     1 <1>   0.0800 
 26 H       -0.3790    -1.0170     0.6380 H     1 <1>   0.0800 
 27 H        4.5300    -2.7660     1.6160 H     1 <1>   0.0800 
 28 H        3.7130    -4.1940     1.0270 H     1 <1>   0.0800 
 29 H        1.6070    -0.7780    -1.6560 H     1 <1>   0.0800 
 30 H        0.2090    -1.8090    -1.6070 H     1 <1>   0.0800 
 31 H        1.6070    -2.2740    -2.5290 H     1 <1>   0.0800 
 32 H        1.5580    -4.4570    -1.4520 H     1 <1>   0.0800 
 33 H        0.2040    -4.0060    -0.4670 H     1 <1>   0.0800 
 34 H        1.6220    -4.6910     0.2590 H     1 <1>   0.0800 
 35 H        6.0980    -2.8400    -2.3030 H     1 <1>   0.3700 
 36 H        5.8990    -1.4170     0.2950 H     1 <1>   0.0800 
 37 H        5.4320     0.0400    -1.6930 H     1 <1>   0.0800 
 38 H        7.0500    -0.2530    -2.2580 H     1 <1>   0.0800 
 39 H        8.2150    -2.4450    -1.3350 H     1 <1>   0.0800 
 40 H        7.5950    -3.1010     0.1480 H     1 <1>   0.0800 
 41 H        6.5060     0.7810     0.5320 H     1 <1>   0.0800 
 42 H        6.4720     1.8630    -0.8090 H     1 <1>   0.0800 
 43 H        9.5580    -1.9410     0.7020 H     1 <1>   0.0800 
 44 H        8.2660    -0.9670     1.3230 H     1 <1>   0.0800 
 45 H        8.6390     1.6790     0.5230 H     1 <1>   0.0800 
 46 H        8.7340     1.7510    -1.2000 H     1 <1>   0.0800 
 47 H        9.4400    -0.4520    -1.4180 H     1 <1>   0.0800 
 48 H       10.2550     0.1170    -0.0080 H     1 <1>   0.0800 
@<TRIPOS>BOND
  1   1   2  2   
  2   2   3  1   
  3   2   4  1   
  4   3   5  1   
  5   4   6  1   
  6   4   7  1   
  7   4   8  1   
  8   5   6  1   
  9   5   9  1   
 10   5  10  1   
 11   6  11  1   
 12   6  12  1   
 13   7  10  1   
 14   7  22  1   
 15   7  23  1   
 16   8  24  1   
 17   8  25  1   
 18   8  26  1   
 19   9  13  2   
 20   9  14  am  
 21  10  27  1   
 22  10  28  1   
 23  11  29  1   
 24  11  30  1   
 25  11  31  1   
 26  12  32  1   
 27  12  33  1   
 28  12  34  1   
 29  14  15  1   
 30  14  35  1   
 31  15  16  1   
 32  15  17  1   
 33  15  36  1   
 34  16  18  1   
 35  16  37  1   
 36  16  38  1   
 37  17  19  1   
 38  17  39  1   
 39  17  40  1   
 40  18  20  1   
 41  18  41  1   
 42  18  42  1   
 43  19  21  1   
 44  19  43  1   
 45  19  44  1   
 46  20  21  1   
 47  20  45  1   
 48  20  46  1   
 49  21  47  1   
 50  21  48  1   
@<TRIPOS>SUBSTRUCTURE
  1 ****   3 GROUP 4 **** **** 0

# MOE 2024.06 (io_trps.svl 2023.06)
