@<TRIPOS>MOLECULE
NONAME
38 40 1 0 0 
SMALL
USER_CHARGES


@<TRIPOS>ATOM
  1 O       -0.7980     1.7680    -1.6470 O.2   1 <1>  -0.5700 
  2 C       -0.4440     2.0680    -0.5190 C.2   1 <1>   0.4690 
  3 C        0.8350     2.6770    -0.2600 C.ar  1 <1>   0.0860 
  4 C       -1.2960     1.8540     0.6100 C.2   1 <1>  -0.1240 
  5 C        1.1550     3.0460     1.0530 C.ar  1 <1>   0.0830 
  6 C        1.7830     2.9250    -1.2570 C.ar  1 <1>  -0.1500 
  7 C       -0.8980     2.2410     1.8420 C.2   1 <1>  -0.0730 
  8 C       -2.6390     1.1740     0.3910 C.3   1 <1>   0.2480 
  9 O        0.2820     2.8270     2.0590 O.3   1 <1>  -0.1590 
 10 C        2.3730     3.6430     1.3500 C.ar  1 <1>  -0.1500 
 11 C        2.9950     3.5180    -0.9590 C.ar  1 <1>  -0.1500 
 12 N       -3.7270     2.1670     0.2500 N.3   1 <1>  -0.8100 
 13 C        3.2910     3.8790     0.3470 C.ar  1 <1>  -0.1500 
 14 C       -3.5720     2.9700    -0.9960 C.3   1 <1>   0.1100 
 15 C       -5.0510     1.5020     0.2630 C.3   1 <1>   0.1100 
 16 C       -4.7810     3.8920    -1.2810 C.3   1 <1>   0.3430 
 17 C       -6.2200     2.5150     0.1670 C.3   1 <1>   0.3430 
 18 N       -5.7250     3.9040    -0.1170 N.4   1 <1>  -0.9590 
 19 C       -6.8180     4.9100    -0.2460 C.3   1 <1>   0.2630 
 20 H        1.5580     2.6460    -2.2720 H     1 <1>   0.1500 
 21 H       -1.4870     2.1140     2.7340 H     1 <1>   0.1500 
 22 H       -2.8430     0.5550     1.2490 H     1 <1>   0.0800 
 23 H       -2.6020     0.5280    -0.4720 H     1 <1>   0.0800 
 24 H        2.5930     3.9190     2.3660 H     1 <1>   0.1500 
 25 H        3.7130     3.7010    -1.7400 H     1 <1>   0.1500 
 26 H        4.2360     4.3420     0.5740 H     1 <1>   0.1500 
 27 H       -3.4220     2.3190    -1.8420 H     1 <1>   0.0800 
 28 H       -2.6950     3.5880    -0.9120 H     1 <1>   0.0800 
 29 H       -5.1620     0.9340     1.1720 H     1 <1>   0.0800 
 30 H       -5.1180     0.8100    -0.5600 H     1 <1>   0.0800 
 31 H       -5.2900     3.5430    -2.1640 H     1 <1>   0.0800 
 32 H       -4.4210     4.8880    -1.4810 H     1 <1>   0.0800 
 33 H       -6.7610     2.5090     1.0990 H     1 <1>   0.0800 
 34 H       -6.8990     2.1970    -0.6070 H     1 <1>   0.0800 
 35 H       -5.1150     4.1210     0.6890 H     1 <1>   0.4500 
 36 H       -7.4440     4.6770    -1.0910 H     1 <1>   0.0800 
 37 H       -6.4020     5.8960    -0.3850 H     1 <1>   0.0800 
 38 H       -7.4250     4.9180     0.6440 H     1 <1>   0.0800 
@<TRIPOS>BOND
  1   1   2  2   
  2   2   3  1   
  3   2   4  1   
  4   3   5  ar  
  5   3   6  ar  
  6   4   7  2   
  7   4   8  1   
  8   5   9  1   
  9   5  10  ar  
 10   6  11  ar  
 11   6  20  1   
 12   7   9  1   
 13   7  21  1   
 14   8  12  1   
 15   8  22  1   
 16   8  23  1   
 17  10  13  ar  
 18  10  24  1   
 19  11  13  ar  
 20  11  25  1   
 21  12  14  1   
 22  12  15  1   
 23  13  26  1   
 24  14  16  1   
 25  14  27  1   
 26  14  28  1   
 27  15  17  1   
 28  15  29  1   
 29  15  30  1   
 30  16  18  1   
 31  16  31  1   
 32  16  32  1   
 33  17  18  1   
 34  17  33  1   
 35  17  34  1   
 36  18  19  1   
 37  18  35  1   
 38  19  36  1   
 39  19  37  1   
 40  19  38  1   
@<TRIPOS>SUBSTRUCTURE
  1 ****   4 GROUP 4 **** **** 0

# MOE 2024.06 (io_trps.svl 2023.06)
