@<TRIPOS>MOLECULE
NONAME
40 43 1 0 0 
SMALL
USER_CHARGES


@<TRIPOS>ATOM
  1 N       -0.6550     0.0120     0.8210 N.2   1 <1>  -0.6120 
  2 C       -1.5190     0.9950     0.8570 C.2   1 <1>   0.3750 
  3 C       -1.1260    -1.1010     0.2800 C.cat 1 <1>   0.9620 
  4 C       -2.8190     0.8990     0.3760 C.2   1 <1>  -0.1360 
  5 C       -1.0350     2.2940     1.4670 C.3   1 <1>  -0.1790 
  6 N       -0.4360    -2.2090     0.0980 N.pl3 1 <1>  -0.7000 
  7 N       -2.3630    -1.3080    -0.1970 N.pl3 1 <1>  -0.3220 
  8 C       -3.2690    -0.2810    -0.1710 C.2   1 <1>   0.4790 
  9 C       -1.2750    -3.0820    -0.5160 C.2   1 <1>   0.5030 
 10 N       -2.4390    -2.5830    -0.7140 N.2   1 <1>  -0.2600 
 11 N       -4.5320    -0.4430    -0.6700 N.pl3 1 <1>  -0.8380 
 12 C       -5.3710    -1.6720    -0.4430 C.3   1 <1>   0.2090 
 13 C       -5.2820     0.6270    -1.4150 C.3   1 <1>   0.2090 
 14 C       -6.7330    -1.3320     0.1970 C.3   1 <1>   0.2090 
 15 C       -6.6330     0.9540    -0.7510 C.3   1 <1>   0.2090 
 16 N       -7.4620    -0.2730    -0.5610 N.pl3 1 <1>  -0.8380 
 17 C       -8.7470    -0.0410    -0.1260 C.ar  1 <1>   0.4100 
 18 N       -8.8790     0.5470     1.0570 N.ar  1 <1>  -0.6200 
 19 C       -9.8210    -0.4270    -0.9200 C.ar  1 <1>  -0.1500 
 20 C      -10.1240     0.7540     1.4560 C.ar  1 <1>   0.1600 
 21 C      -11.1090    -0.2040    -0.4930 C.ar  1 <1>  -0.1500 
 22 C      -11.2540     0.4060     0.7370 C.ar  1 <1>  -0.1500 
 23 H       -3.4790     1.7410     0.4440 H     1 <1>   0.1500 
 24 H       -1.8020     3.0460     1.4520 H     1 <1>   0.0800 
 25 H       -0.1850     2.6590     0.9190 H     1 <1>   0.0800 
 26 H       -0.7380     2.1280     2.4870 H     1 <1>   0.0800 
 27 H        0.5380    -2.3130     0.3700 H     1 <1>   0.4500 
 28 H       -0.9770    -4.0810    -0.8010 H     1 <1>   0.1500 
 29 H       -4.8600    -2.3620     0.2050 H     1 <1>   0.0800 
 30 H       -5.5420    -2.1630    -1.3850 H     1 <1>   0.0800 
 31 H       -5.4740     0.2820    -2.4170 H     1 <1>   0.0800 
 32 H       -4.6940     1.5230    -1.4910 H     1 <1>   0.0800 
 33 H       -6.5760    -0.9980     1.2080 H     1 <1>   0.0800 
 34 H       -7.3400    -2.2200     0.2350 H     1 <1>   0.0800 
 35 H       -7.1750     1.6520    -1.3650 H     1 <1>   0.0800 
 36 H       -6.4590     1.4190     0.2040 H     1 <1>   0.0800 
 37 H       -9.6220    -0.8960    -1.8640 H     1 <1>   0.1500 
 38 H      -10.2510     1.2290     2.4130 H     1 <1>   0.1500 
 39 H      -11.9610    -0.4910    -1.0850 H     1 <1>   0.1500 
 40 H      -12.2320     0.6100     1.1330 H     1 <1>   0.1500 
@<TRIPOS>BOND
  1   1   2  2   
  2   1   3  1   
  3   2   4  1   
  4   2   5  1   
  5   3   6  ar  
  6   3   7  ar  
  7   4   8  2   
  8   4  23  1   
  9   5  24  1   
 10   5  25  1   
 11   5  26  1   
 12   6   9  1   
 13   6  27  1   
 14   7   8  1   
 15   7  10  1   
 16   8  11  1   
 17   9  10  2   
 18   9  28  1   
 19  11  12  1   
 20  11  13  1   
 21  12  14  1   
 22  12  29  1   
 23  12  30  1   
 24  13  15  1   
 25  13  31  1   
 26  13  32  1   
 27  14  16  1   
 28  14  33  1   
 29  14  34  1   
 30  15  16  1   
 31  15  35  1   
 32  15  36  1   
 33  16  17  1   
 34  17  18  ar  
 35  17  19  ar  
 36  18  20  ar  
 37  19  21  ar  
 38  19  37  1   
 39  20  22  ar  
 40  20  38  1   
 41  21  22  ar  
 42  21  39  1   
 43  22  40  1   
@<TRIPOS>SUBSTRUCTURE
  1 ****  11 GROUP 4 **** **** 0

# MOE 2024.06 (io_trps.svl 2023.06)
