@<TRIPOS>MOLECULE
NONAME
44 45 1 0 0 
SMALL
USER_CHARGES


@<TRIPOS>ATOM
  1 S        0.4440    -0.8940     2.0620 S.o2  1 <1>   1.4470 
  2 O        0.2460    -1.2050     3.4610 O.2   1 <1>  -0.6500 
  3 O        0.8580     0.4360     1.6750 O.2   1 <1>  -0.6500 
  4 N        1.6610    -1.9440     1.5220 N.am  1 <1>  -0.8490 
  5 C       -1.0120    -1.3690     1.0880 C.ar  1 <1>  -0.0090 
  6 C        2.9760    -1.5350     2.1060 C.3   1 <1>   0.2570 
  7 C        1.3480    -3.3440     1.8450 C.3   1 <1>   0.1960 
  8 C       -0.9930    -1.3020    -0.3010 C.ar  1 <1>  -0.1500 
  9 C       -2.1770    -1.8210     1.7000 C.ar  1 <1>  -0.1500 
 10 C        4.1760    -1.7670     1.1850 C.2   1 <1>   0.5690 
 11 C        2.2270    -4.3100     1.0550 C.3   1 <1>  -0.2400 
 12 C       -2.0920    -1.6800    -1.0520 C.ar  1 <1>  -0.1500 
 13 C       -3.2830    -2.2000     0.9570 C.ar  1 <1>  -0.1500 
 14 O        5.2530    -2.0200     1.6730 O.2   1 <1>  -0.5700 
 15 N        3.9780    -1.6840    -0.1580 N.am  1 <1>  -0.5790 
 16 C       -3.2430    -2.1330    -0.4310 C.ar  1 <1>   0.0830 
 17 C        4.9820    -1.8960    -1.2060 C.3   1 <1>   0.0490 
 18 O       -4.2730    -2.4850    -1.2370 O.3   1 <1>  -0.3630 
 19 C        4.8150    -1.1590    -2.4930 C.3   1 <1>  -0.2000 
 20 C        4.5660    -2.6360    -2.4330 C.3   1 <1>  -0.2000 
 21 C       -5.5060    -2.9200    -0.7110 C.3   1 <1>   0.1200 
 22 C       -6.4420    -3.2110    -1.8800 C.3   1 <1>  -0.2400 
 23 H        3.1460    -2.0440     3.0390 H     1 <1>   0.0800 
 24 H        2.9810    -0.4820     2.3240 H     1 <1>   0.0800 
 25 H        0.3250    -3.5540     1.5830 H     1 <1>   0.0800 
 26 H        1.4540    -3.5210     2.9050 H     1 <1>   0.0800 
 27 H       -0.1060    -0.9490    -0.7990 H     1 <1>   0.1500 
 28 H       -2.2200    -1.8770     2.7750 H     1 <1>   0.1500 
 29 H        2.1890    -4.0800     0.0050 H     1 <1>   0.0800 
 30 H        1.8650    -5.3130     1.1930 H     1 <1>   0.0800 
 31 H        3.2450    -4.2840     1.3970 H     1 <1>   0.0800 
 32 H       -2.0650    -1.6250    -2.1260 H     1 <1>   0.1500 
 33 H       -4.1600    -2.5430     1.4740 H     1 <1>   0.1500 
 34 H        3.0170    -1.5340    -0.4730 H     1 <1>   0.3700 
 35 H        5.9780    -2.0490    -0.8190 H     1 <1>   0.1000 
 36 H        5.6960    -0.8120    -3.0040 H     1 <1>   0.1000 
 37 H        3.9820    -0.4880    -2.6020 H     1 <1>   0.1000 
 38 H        3.5560    -3.0010    -2.5020 H     1 <1>   0.1000 
 39 H        5.2770    -3.2920    -2.9030 H     1 <1>   0.1000 
 40 H       -5.9060    -2.1370    -0.0890 H     1 <1>   0.0800 
 41 H       -5.3340    -3.8100    -0.1300 H     1 <1>   0.0800 
 42 H       -6.5940    -2.3210    -2.4630 H     1 <1>   0.0800 
 43 H       -7.3940    -3.5460    -1.5110 H     1 <1>   0.0800 
 44 H       -6.0250    -3.9820    -2.5040 H     1 <1>   0.0800 
@<TRIPOS>BOND
  1   1   2  2   
  2   1   3  2   
  3   1   4  am  
  4   1   5  1   
  5   4   6  1   
  6   4   7  1   
  7   5   8  ar  
  8   5   9  ar  
  9   6  10  1   
 10   6  23  1   
 11   6  24  1   
 12   7  11  1   
 13   7  25  1   
 14   7  26  1   
 15   8  12  ar  
 16   8  27  1   
 17   9  13  ar  
 18   9  28  1   
 19  10  14  2   
 20  10  15  am  
 21  11  29  1   
 22  11  30  1   
 23  11  31  1   
 24  12  16  ar  
 25  12  32  1   
 26  13  16  ar  
 27  13  33  1   
 28  15  17  1   
 29  15  34  1   
 30  16  18  1   
 31  17  19  1   
 32  17  20  1   
 33  17  35  1   
 34  18  21  1   
 35  19  20  1   
 36  19  36  1   
 37  19  37  1   
 38  20  38  1   
 39  20  39  1   
 40  21  22  1   
 41  21  40  1   
 42  21  41  1   
 43  22  42  1   
 44  22  43  1   
 45  22  44  1   
@<TRIPOS>SUBSTRUCTURE
  1 ****   5 GROUP 4 **** **** 0

# MOE 2024.06 (io_trps.svl 2023.06)
