@<TRIPOS>MOLECULE
NONAME
43 44 1 0 0 
SMALL
USER_CHARGES


@<TRIPOS>ATOM
  1 O        0.1070    -0.4130    -0.3910 O.2   1 <1>  -0.5700 
  2 C       -0.0380    -1.5930    -0.1340 C.2   1 <1>   0.7800 
  3 O        0.9920    -2.4310    -0.2560 O.3   1 <1>  -0.4300 
  4 N       -1.2320    -2.1150     0.2800 N.am  1 <1>  -0.6600 
  5 C        2.2530    -1.9680    -0.6800 C.3   1 <1>   0.1200 
  6 C       -1.3890    -3.5690     0.5890 C.3   1 <1>   0.1400 
  7 C       -2.4510    -1.2630     0.4000 C.3   1 <1>   0.1400 
  8 C        3.2060    -3.1580    -0.7170 C.3   1 <1>  -0.2400 
  9 C       -2.6700    -3.8640     1.3860 C.3   1 <1>   0.1400 
 10 C       -3.7150    -2.0260    -0.0270 C.3   1 <1>   0.1400 
 11 N       -3.8940    -3.3180     0.7140 N.am  1 <1>  -0.6600 
 12 C       -5.0890    -3.9880     0.8230 C.2   1 <1>   0.5690 
 13 O       -5.1870    -4.9700     1.5230 O.2   1 <1>  -0.5700 
 14 C       -6.3410    -3.5070     0.0730 C.3   1 <1>  -0.0190 
 15 C       -7.2020    -2.5950     0.9700 C.3   1 <1>  -0.1600 
 16 C       -7.1920    -4.6770    -0.4640 C.3   1 <1>  -0.1600 
 17 C       -8.4490    -2.0890     0.2320 C.3   1 <1>  -0.1600 
 18 C       -8.4370    -4.1740    -1.2100 C.3   1 <1>  -0.1600 
 19 C       -9.2810    -3.2560    -0.3160 C.3   1 <1>  -0.1600 
 20 H        2.5940    -1.2200     0.0160 H     1 <1>   0.0800 
 21 H        2.1440    -1.5290    -1.6580 H     1 <1>   0.0800 
 22 H       -0.5390    -3.9100     1.1540 H     1 <1>   0.0800 
 23 H       -1.4170    -4.1220    -0.3340 H     1 <1>   0.0800 
 24 H       -2.3470    -0.3840    -0.2120 H     1 <1>   0.0800 
 25 H       -2.5560    -0.9420     1.4220 H     1 <1>   0.0800 
 26 H        3.2960    -3.5910     0.2630 H     1 <1>   0.0800 
 27 H        4.1780    -2.8340    -1.0400 H     1 <1>   0.0800 
 28 H        2.8450    -3.9000    -1.4080 H     1 <1>   0.0800 
 29 H       -2.5860    -3.4300     2.3670 H     1 <1>   0.0800 
 30 H       -2.7610    -4.9300     1.5080 H     1 <1>   0.0800 
 31 H       -3.6520    -2.2330    -1.0810 H     1 <1>   0.0800 
 32 H       -4.5670    -1.3910     0.1400 H     1 <1>   0.0800 
 33 H       -6.0310    -2.9410    -0.7850 H     1 <1>   0.0800 
 34 H       -6.6190    -1.7560     1.3060 H     1 <1>   0.0800 
 35 H       -7.5050    -3.1500     1.8420 H     1 <1>   0.0800 
 36 H       -7.5030    -5.3010     0.3570 H     1 <1>   0.0800 
 37 H       -6.5950    -5.2820    -1.1250 H     1 <1>   0.0800 
 38 H       -8.1500    -1.4520    -0.5830 H     1 <1>   0.0800 
 39 H       -9.0520    -1.5040     0.9040 H     1 <1>   0.0800 
 40 H       -9.0310    -5.0140    -1.5240 H     1 <1>   0.0800 
 41 H       -8.1350    -3.6350    -2.0920 H     1 <1>   0.0800 
 42 H      -10.1160    -2.8730    -0.8770 H     1 <1>   0.0800 
 43 H       -9.6730    -3.8280     0.5080 H     1 <1>   0.0800 
@<TRIPOS>BOND
  1   1   2  2   
  2   2   3  1   
  3   2   4  am  
  4   3   5  1   
  5   4   6  1   
  6   4   7  1   
  7   5   8  1   
  8   5  20  1   
  9   5  21  1   
 10   6   9  1   
 11   6  22  1   
 12   6  23  1   
 13   7  10  1   
 14   7  24  1   
 15   7  25  1   
 16   8  26  1   
 17   8  27  1   
 18   8  28  1   
 19   9  11  1   
 20   9  29  1   
 21   9  30  1   
 22  10  11  1   
 23  10  31  1   
 24  10  32  1   
 25  11  12  am  
 26  12  13  2   
 27  12  14  1   
 28  14  15  1   
 29  14  16  1   
 30  14  33  1   
 31  15  17  1   
 32  15  34  1   
 33  15  35  1   
 34  16  18  1   
 35  16  36  1   
 36  16  37  1   
 37  17  19  1   
 38  17  38  1   
 39  17  39  1   
 40  18  19  1   
 41  18  40  1   
 42  18  41  1   
 43  19  42  1   
 44  19  43  1   
@<TRIPOS>SUBSTRUCTURE
  1 ****  11 GROUP 4 **** **** 0

# MOE 2024.06 (io_trps.svl 2023.06)
