@<TRIPOS>MOLECULE
NONAME
44 45 1 0 0 
SMALL
USER_CHARGES


@<TRIPOS>ATOM
  1 CL       1.6300     1.7250     2.7320 Cl    1 <1>  -0.1770 
  2 C        2.4820     2.0120     1.2310 C.ar  1 <1>   0.1770 
  3 C        2.1800     3.1180     0.4450 C.ar  1 <1>   0.0820 
  4 C        3.4560     1.1030     0.8610 C.ar  1 <1>  -0.1500 
  5 O        1.2050     3.9700     0.8470 O.3   1 <1>  -0.3630 
  6 C        2.9000     3.3140    -0.7400 C.ar  1 <1>   0.0820 
  7 C        4.1590     1.2900    -0.3200 C.ar  1 <1>  -0.1440 
  8 C       -0.1030     3.6440     0.4370 C.3   1 <1>   0.1200 
  9 O        2.7390     4.3580    -1.5960 O.3   1 <1>  -0.3630 
 10 C        3.8670     2.3920    -1.1130 C.ar  1 <1>  -0.1500 
 11 C        5.2420     0.3220    -0.7400 C.3   1 <1>   0.4860 
 12 C       -1.0460     4.7210     0.9630 C.3   1 <1>  -0.2400 
 13 C        2.4150     5.6440    -1.1140 C.3   1 <1>   0.1200 
 14 N        6.5130     0.8730    -0.2310 N.4   1 <1>  -0.9060 
 15 C        2.8490     6.6630    -2.1630 C.3   1 <1>  -0.2400 
 16 C        7.7150     0.0930    -0.5930 C.3   1 <1>   0.4860 
 17 C        8.8950     0.7890     0.0360 C.ar  1 <1>  -0.1430 
 18 C        9.6220     1.7180    -0.6940 C.ar  1 <1>   0.1600 
 19 C        9.2680     0.5250     1.3410 C.ar  1 <1>  -0.1500 
 20 N       10.6510     2.3990    -0.2280 N.ar  1 <1>  -0.6200 
 21 C       10.3500     1.2230     1.8350 C.ar  1 <1>  -0.1500 
 22 C       10.9970     2.1380     1.0220 C.ar  1 <1>   0.1600 
 23 H        3.6410     0.2620     1.5080 H     1 <1>   0.1500 
 24 H       -0.3600     2.6800     0.8420 H     1 <1>   0.0800 
 25 H       -0.1240     3.6050    -0.6390 H     1 <1>   0.0800 
 26 H        4.3840     2.5660    -2.0410 H     1 <1>   0.1500 
 27 H        5.2640     0.2420    -1.8150 H     1 <1>   0.0800 
 28 H        5.0520    -0.6530    -0.3190 H     1 <1>   0.0800 
 29 H       -1.0030     4.7550     2.0370 H     1 <1>   0.0800 
 30 H       -2.0540     4.4970     0.6680 H     1 <1>   0.0800 
 31 H       -0.7750     5.6810     0.5620 H     1 <1>   0.0800 
 32 H        2.9300     5.8090    -0.1840 H     1 <1>   0.0800 
 33 H        1.3520     5.6930    -0.9600 H     1 <1>   0.0800 
 34 H        6.4600     0.9590     0.7900 H     1 <1>   0.4500 
 35 H        6.6150     1.8370    -0.5700 H     1 <1>   0.4500 
 36 H        3.9100     6.6030    -2.3220 H     1 <1>   0.0800 
 37 H        2.6090     7.6550    -1.8240 H     1 <1>   0.0800 
 38 H        2.3330     6.4840    -3.0890 H     1 <1>   0.0800 
 39 H        7.8350     0.0540    -1.6640 H     1 <1>   0.0800 
 40 H        7.6420    -0.9150    -0.2140 H     1 <1>   0.0800 
 41 H        9.3530     1.9260    -1.7170 H     1 <1>   0.1500 
 42 H        8.7580    -0.1930     1.9630 H     1 <1>   0.1500 
 43 H       10.6970     1.0650     2.8410 H     1 <1>   0.1500 
 44 H       11.8400     2.6800     1.4180 H     1 <1>   0.1500 
@<TRIPOS>BOND
  1   1   2  1   
  2   2   3  ar  
  3   2   4  ar  
  4   3   5  1   
  5   3   6  ar  
  6   4   7  ar  
  7   4  23  1   
  8   5   8  1   
  9   6   9  1   
 10   6  10  ar  
 11   7  10  ar  
 12   7  11  1   
 13   8  12  1   
 14   8  24  1   
 15   8  25  1   
 16   9  13  1   
 17  10  26  1   
 18  11  14  1   
 19  11  27  1   
 20  11  28  1   
 21  12  29  1   
 22  12  30  1   
 23  12  31  1   
 24  13  15  1   
 25  13  32  1   
 26  13  33  1   
 27  14  16  1   
 28  14  34  1   
 29  14  35  1   
 30  15  36  1   
 31  15  37  1   
 32  15  38  1   
 33  16  17  1   
 34  16  39  1   
 35  16  40  1   
 36  17  18  ar  
 37  17  19  ar  
 38  18  20  ar  
 39  18  41  1   
 40  19  21  ar  
 41  19  42  1   
 42  20  22  ar  
 43  21  22  ar  
 44  21  43  1   
 45  22  44  1   
@<TRIPOS>SUBSTRUCTURE
  1 ****   7 GROUP 4 **** **** 0

# MOE 2024.06 (io_trps.svl 2023.06)
