@<TRIPOS>MOLECULE
NONAME
53 54 1 0 0 
SMALL
USER_CHARGES


@<TRIPOS>ATOM
  1 O       -0.4430     0.3280     1.5090 O.2   1 <1>  -0.5700 
  2 C       -1.4240     0.9210     1.1190 C.2   1 <1>   0.4950 
  3 C       -1.5610     2.3420     1.1300 C.2   1 <1>   0.0290 
  4 C       -2.5960     0.0690     0.6700 C.3   1 <1>   0.0420 
  5 C       -2.7500     2.7410     1.8220 C.2   1 <1>   0.4950 
  6 C       -0.6340     3.1830     0.5250 C.2   1 <1>  -0.0380 
  7 C       -2.1900    -0.6460    -0.6020 C.2   1 <1>   0.6590 
  8 C       -3.9280     0.8670     0.5540 C.3   1 <1>   0.0000 
  9 O       -2.8540     3.7010     2.5500 O.2   1 <1>  -0.5700 
 10 C       -3.9920     1.8670     1.7250 C.3   1 <1>  -0.0990 
 11 N       -0.7470     4.5200     0.2950 N.pl3 1 <1>  -0.8690 
 12 C        0.6840     2.5840     0.0030 C.3   1 <1>  -0.0220 
 13 O       -1.5850    -0.0950    -1.4870 O.2   1 <1>  -0.5700 
 14 O       -2.5630    -1.9170    -0.6940 O.3   1 <1>  -0.4300 
 15 C       -5.1290    -0.0910     0.6510 C.3   1 <1>  -0.2400 
 16 C       -4.0620     1.6400    -0.7790 C.3   1 <1>  -0.2400 
 17 C       -1.9040     5.4360     0.4620 C.3   1 <1>   0.2090 
 18 C        1.5690     3.5110    -0.8490 C.3   1 <1>  -0.2400 
 19 C       -2.2460    -2.7030    -1.8240 C.3   1 <1>   0.0400 
 20 C       -1.8200     6.5630    -0.5640 C.3   1 <1>  -0.0160 
 21 C       -3.0730     7.4220    -0.5070 C.ar  1 <1>  -0.1430 
 22 C       -3.1960     8.4170     0.4500 C.ar  1 <1>  -0.1500 
 23 C       -4.1080     7.2110    -1.4060 C.ar  1 <1>  -0.1500 
 24 C       -4.3400     9.1940     0.5090 C.ar  1 <1>  -0.1500 
 25 C       -5.2520     7.9880    -1.3490 C.ar  1 <1>  -0.1500 
 26 C       -5.3690     8.9800    -0.3910 C.ar  1 <1>  -0.1500 
 27 H       -2.7170    -0.6800     1.4300 H     1 <1>   0.0800 
 28 H       -4.0910     1.3400     2.6580 H     1 <1>   0.0800 
 29 H       -4.8530     2.5030     1.6240 H     1 <1>   0.0800 
 30 H        0.0680     5.0000    -0.1040 H     1 <1>   0.4000 
 31 H        1.2620     2.2500     0.8470 H     1 <1>   0.0800 
 32 H        0.4610     1.7190    -0.5980 H     1 <1>   0.0800 
 33 H       -6.0550     0.4550     0.6020 H     1 <1>   0.0800 
 34 H       -5.1140    -0.6390     1.5780 H     1 <1>   0.0800 
 35 H       -5.1180    -0.8010    -0.1580 H     1 <1>   0.0800 
 36 H       -4.1430     0.9630    -1.6120 H     1 <1>   0.0800 
 37 H       -3.2200     2.2830    -0.9640 H     1 <1>   0.0800 
 38 H       -4.9490     2.2510    -0.7750 H     1 <1>   0.0800 
 39 H       -2.8230     4.8980     0.3090 H     1 <1>   0.0800 
 40 H       -1.9030     5.8440     1.4590 H     1 <1>   0.0800 
 41 H        1.9110     4.3480    -0.2670 H     1 <1>   0.0800 
 42 H        1.0250     3.8630    -1.7070 H     1 <1>   0.0800 
 43 H        2.4310     2.9670    -1.1940 H     1 <1>   0.0800 
 44 H       -1.1750    -2.7440    -1.9290 H     1 <1>   0.0800 
 45 H       -2.6870    -2.2540    -2.6960 H     1 <1>   0.0800 
 46 H       -2.6410    -3.6920    -1.6740 H     1 <1>   0.0800 
 47 H       -0.9580     7.1720    -0.3620 H     1 <1>   0.0800 
 48 H       -1.7180     6.1410    -1.5480 H     1 <1>   0.0800 
 49 H       -2.4020     8.5890     1.1560 H     1 <1>   0.1500 
 50 H       -4.0290     6.4420    -2.1540 H     1 <1>   0.1500 
 51 H       -4.4290     9.9630     1.2550 H     1 <1>   0.1500 
 52 H       -6.0520     7.8210    -2.0490 H     1 <1>   0.1500 
 53 H       -6.2580     9.5840    -0.3460 H     1 <1>   0.1500 
@<TRIPOS>BOND
  1   1   2  2   
  2   2   3  1   
  3   2   4  1   
  4   3   5  1   
  5   3   6  2   
  6   4   7  1   
  7   4   8  1   
  8   4  27  1   
  9   5   9  2   
 10   5  10  1   
 11   6  11  1   
 12   6  12  1   
 13   7  13  2   
 14   7  14  1   
 15   8  10  1   
 16   8  15  1   
 17   8  16  1   
 18  10  28  1   
 19  10  29  1   
 20  11  17  1   
 21  11  30  1   
 22  12  18  1   
 23  12  31  1   
 24  12  32  1   
 25  14  19  1   
 26  15  33  1   
 27  15  34  1   
 28  15  35  1   
 29  16  36  1   
 30  16  37  1   
 31  16  38  1   
 32  17  20  1   
 33  17  39  1   
 34  17  40  1   
 35  18  41  1   
 36  18  42  1   
 37  18  43  1   
 38  19  44  1   
 39  19  45  1   
 40  19  46  1   
 41  20  21  1   
 42  20  47  1   
 43  20  48  1   
 44  21  22  ar  
 45  21  23  ar  
 46  22  24  ar  
 47  22  49  1   
 48  23  25  ar  
 49  23  50  1   
 50  24  26  ar  
 51  24  51  1   
 52  25  26  ar  
 53  25  52  1   
 54  26  53  1   
@<TRIPOS>SUBSTRUCTURE
  1 ****   3 GROUP 4 **** **** 0

# MOE 2024.06 (io_trps.svl 2023.06)
