@<TRIPOS>MOLECULE
NONAME
46 48 1 0 0 
SMALL
USER_CHARGES


@<TRIPOS>ATOM
  1 F       -0.7940     3.0390    -2.4410 F     1 <1>  -0.1900 
  2 C        0.2520     2.5820    -1.7910 C.ar  1 <1>   0.1900 
  3 C        0.3210     2.7180    -0.3980 C.ar  1 <1>   0.1000 
  4 C        1.2460     1.9770    -2.5340 C.ar  1 <1>  -0.1500 
  5 N       -0.6580     3.3220     0.4010 N.pl3 1 <1>  -0.8380 
  6 C        1.4550     2.2120     0.2240 C.ar  1 <1>  -0.1500 
  7 C        2.3640     1.4820    -1.8820 C.ar  1 <1>  -0.1500 
  8 C       -1.9720     2.6160     0.4590 C.3   1 <1>   0.2090 
  9 C       -0.8330     4.7920     0.2110 C.3   1 <1>   0.2090 
 10 C        2.4640     1.6020    -0.5050 C.ar  1 <1>  -0.1500 
 11 C       -2.8970     3.2520     1.5140 C.3   1 <1>   0.1100 
 12 C       -1.7790     5.3810     1.2760 C.3   1 <1>   0.1100 
 13 N       -3.0960     4.7060     1.2800 N.3   1 <1>  -0.8100 
 14 C       -3.9980     5.2930     2.3170 C.3   1 <1>   0.1710 
 15 C       -5.4730     4.9430     2.1060 C.2   1 <1>   0.5690 
 16 O       -6.2290     4.9790     3.0470 O.2   1 <1>  -0.5700 
 17 N       -5.8240     4.6010     0.8320 N.am  1 <1>  -0.5470 
 18 C       -7.0180     4.2000     0.2150 C.ar  1 <1>   0.1170 
 19 C       -6.9750     3.6980    -1.0890 C.ar  1 <1>  -0.1430 
 20 C       -8.2500     4.2930     0.8550 C.ar  1 <1>  -0.1500 
 21 C       -8.1460     3.3020    -1.7160 C.ar  1 <1>  -0.1500 
 22 C       -5.6550     3.5730    -1.8430 C.3   1 <1>  -0.0970 
 23 C       -9.4140     3.8960     0.2240 C.ar  1 <1>  -0.1500 
 24 C       -9.3630     3.3990    -1.0650 C.ar  1 <1>  -0.1500 
 25 H        1.1470     1.8960    -3.6010 H     1 <1>   0.1500 
 26 H        1.5370     2.3030     1.2910 H     1 <1>   0.1500 
 27 H        3.1510     1.0070    -2.4430 H     1 <1>   0.1500 
 28 H       -1.8060     1.5810     0.7050 H     1 <1>   0.0800 
 29 H       -2.4510     2.6590    -0.5030 H     1 <1>   0.0800 
 30 H       -1.2390     4.9860    -0.7670 H     1 <1>   0.0800 
 31 H        0.1270     5.2740     0.2780 H     1 <1>   0.0800 
 32 H        3.3320     1.2180     0.0040 H     1 <1>   0.1500 
 33 H       -2.4640     3.0930     2.4860 H     1 <1>   0.0800 
 34 H       -3.8460     2.7440     1.4880 H     1 <1>   0.0800 
 35 H       -1.9150     6.4290     1.0710 H     1 <1>   0.0800 
 36 H       -1.3120     5.2840     2.2410 H     1 <1>   0.0800 
 37 H       -3.9250     6.3660     2.2860 H     1 <1>   0.0800 
 38 H       -3.6970     4.9700     3.2980 H     1 <1>   0.0800 
 39 H       -4.9950     4.5760     0.2310 H     1 <1>   0.3700 
 40 H       -8.3080     4.6800     1.8550 H     1 <1>   0.1500 
 41 H       -8.1220     2.9130    -2.7190 H     1 <1>   0.1500 
 42 H       -5.2000     4.5400    -1.9550 H     1 <1>   0.0800 
 43 H       -5.8080     3.1580    -2.8230 H     1 <1>   0.0800 
 44 H       -4.9830     2.9270    -1.3060 H     1 <1>   0.0800 
 45 H      -10.3570     3.9750     0.7360 H     1 <1>   0.1500 
 46 H      -10.2670     3.0890    -1.5590 H     1 <1>   0.1500 
@<TRIPOS>BOND
  1   1   2  1   
  2   2   3  ar  
  3   2   4  ar  
  4   3   5  1   
  5   3   6  ar  
  6   4   7  ar  
  7   4  25  1   
  8   5   8  1   
  9   5   9  1   
 10   6  10  ar  
 11   6  26  1   
 12   7  10  ar  
 13   7  27  1   
 14   8  11  1   
 15   8  28  1   
 16   8  29  1   
 17   9  12  1   
 18   9  30  1   
 19   9  31  1   
 20  10  32  1   
 21  11  13  1   
 22  11  33  1   
 23  11  34  1   
 24  12  13  1   
 25  12  35  1   
 26  12  36  1   
 27  13  14  1   
 28  14  15  1   
 29  14  37  1   
 30  14  38  1   
 31  15  16  2   
 32  15  17  am  
 33  17  18  1   
 34  17  39  1   
 35  18  19  ar  
 36  18  20  ar  
 37  19  21  ar  
 38  19  22  1   
 39  20  23  ar  
 40  20  40  1   
 41  21  24  ar  
 42  21  41  1   
 43  22  42  1   
 44  22  43  1   
 45  22  44  1   
 46  23  24  ar  
 47  23  45  1   
 48  24  46  1   
@<TRIPOS>SUBSTRUCTURE
  1 ****  11 GROUP 4 **** **** 0

# MOE 2024.06 (io_trps.svl 2023.06)
