@<TRIPOS>MOLECULE
NONAME
42 43 1 0 0 
SMALL
USER_CHARGES


@<TRIPOS>ATOM
  1 O       -0.5960    -0.8200    -0.4900 O.2   1 <1>  -0.5700 
  2 C       -0.1340    -1.6000     0.3190 C.2   1 <1>   0.6900 
  3 N        1.1880    -1.9200     0.3440 N.am  1 <1>  -0.5470 
  4 N       -0.9270    -2.2040     1.2390 N.am  1 <1>  -0.7300 
  5 C        2.3010    -1.4780    -0.3930 C.ar  1 <1>   0.1170 
  6 C       -2.3940    -2.0330     1.4180 C.3   1 <1>   0.2200 
  7 C        3.4740    -2.2390    -0.3330 C.ar  1 <1>   0.0830 
  8 C        2.2940    -0.3190    -1.1610 C.ar  1 <1>  -0.1500 
  9 C       -3.1940    -2.1400     0.0970 C.3   1 <1>   0.2000 
 10 C       -2.6400    -0.7090     2.1430 C.3   1 <1>  -0.2400 
 11 O        3.4460    -3.3660     0.4430 O.3   1 <1>  -0.3630 
 12 C        4.6030    -1.8390    -1.0430 C.ar  1 <1>  -0.1500 
 13 C        3.4180     0.0740    -1.8650 C.ar  1 <1>  -0.1500 
 14 O       -4.5580    -2.2290     0.3720 O.3   1 <1>  -0.5600 
 15 C       -2.9100    -3.3900    -0.7310 C.3   1 <1>  -0.1600 
 16 C        4.5500    -4.2390     0.5040 C.3   1 <1>   0.1200 
 17 C        4.5720    -0.6850    -1.8070 C.ar  1 <1>  -0.1500 
 18 C       -5.2230    -2.7310    -0.7400 C.3   1 <1>   0.1200 
 19 C       -4.2290    -3.6530    -1.4420 C.3   1 <1>  -0.1600 
 20 C        4.1750    -5.4090     1.4090 C.3   1 <1>  -0.2400 
 21 H        1.4150    -2.7360     0.9070 H     1 <1>   0.3700 
 22 H       -0.4690    -2.6790     2.0120 H     1 <1>   0.3700 
 23 H       -2.7340    -2.8350     2.0510 H     1 <1>   0.0800 
 24 H        1.4090     0.2880    -1.2150 H     1 <1>   0.1500 
 25 H       -3.0490    -1.2560    -0.5010 H     1 <1>   0.0800 
 26 H       -2.3220     0.1150     1.5290 H     1 <1>   0.0800 
 27 H       -2.1090    -0.6860     3.0760 H     1 <1>   0.0800 
 28 H       -3.6900    -0.5950     2.3440 H     1 <1>   0.0800 
 29 H        5.5150    -2.4040    -1.0160 H     1 <1>   0.1500 
 30 H        3.3920     0.9730    -2.4570 H     1 <1>   0.1500 
 31 H       -2.6650    -4.2120    -0.0820 H     1 <1>   0.0800 
 32 H       -2.0960    -3.2230    -1.4150 H     1 <1>   0.0800 
 33 H        5.3900    -3.7000     0.9080 H     1 <1>   0.0800 
 34 H        4.7690    -4.5840    -0.4920 H     1 <1>   0.0800 
 35 H        5.4450    -0.3770    -2.3560 H     1 <1>   0.1500 
 36 H       -5.4950    -1.9000    -1.3680 H     1 <1>   0.0800 
 37 H       -6.1050    -3.2520    -0.4100 H     1 <1>   0.0800 
 38 H       -4.5260    -4.6820    -1.3440 H     1 <1>   0.0800 
 39 H       -4.1700    -3.4000    -2.4860 H     1 <1>   0.0800 
 40 H        3.9470    -5.0540     2.3980 H     1 <1>   0.0800 
 41 H        4.9980    -6.0960     1.4730 H     1 <1>   0.0800 
 42 H        3.3240    -5.9300     1.0060 H     1 <1>   0.0800 
@<TRIPOS>BOND
  1   1   2  2   
  2   2   3  am  
  3   2   4  am  
  4   3   5  1   
  5   3  21  1   
  6   4   6  1   
  7   4  22  1   
  8   5   7  ar  
  9   5   8  ar  
 10   6   9  1   
 11   6  10  1   
 12   6  23  1   
 13   7  11  1   
 14   7  12  ar  
 15   8  13  ar  
 16   8  24  1   
 17   9  14  1   
 18   9  15  1   
 19   9  25  1   
 20  10  26  1   
 21  10  27  1   
 22  10  28  1   
 23  11  16  1   
 24  12  17  ar  
 25  12  29  1   
 26  13  17  ar  
 27  13  30  1   
 28  14  18  1   
 29  15  19  1   
 30  15  31  1   
 31  15  32  1   
 32  16  20  1   
 33  16  33  1   
 34  16  34  1   
 35  17  35  1   
 36  18  19  1   
 37  18  36  1   
 38  18  37  1   
 39  19  38  1   
 40  19  39  1   
 41  20  40  1   
 42  20  41  1   
 43  20  42  1   
@<TRIPOS>SUBSTRUCTURE
  1 ****   2 GROUP 4 **** **** 0

# MOE 2024.06 (io_trps.svl 2023.06)
