@<TRIPOS>MOLECULE
NONAME
50 53 1 0 0 
SMALL
USER_CHARGES


@<TRIPOS>ATOM
  1 O       -1.1710     1.3770    -1.8490 O.2   1 <1>  -0.5700 
  2 C       -1.3800     1.6000    -0.6740 C.2   1 <1>   0.5440 
  3 N       -0.6260     2.4510     0.0910 N.am  1 <1>  -0.4200 
  4 C       -2.4280     1.0550     0.1410 C.ar  1 <1>   0.0860 
  5 C       -1.1500     2.4830     1.3560 C.2   1 <1>   0.5440 
  6 C        0.5630     3.1970    -0.3670 C.3   1 <1>   0.1400 
  7 C       -2.2850     1.6040     1.4060 C.ar  1 <1>   0.0860 
  8 C       -3.4550     0.1560    -0.1210 C.ar  1 <1>  -0.1500 
  9 O       -0.7060     3.1610     2.2590 O.2   1 <1>  -0.5700 
 10 C        1.8240     2.3610    -0.1340 C.3   1 <1>  -0.1600 
 11 C       -3.1670     1.2620     2.4240 C.ar  1 <1>  -0.1500 
 12 C       -4.3340    -0.1850     0.8930 C.ar  1 <1>  -0.1500 
 13 C        3.0880     3.1160    -0.5860 C.3   1 <1>  -0.0990 
 14 C       -4.1900     0.3660     2.1610 C.ar  1 <1>  -0.1500 
 15 C        4.3920     2.3490    -0.3840 C.2   1 <1>   0.5690 
 16 O        4.3440     1.2490     0.1130 O.2   1 <1>  -0.5700 
 17 N        5.5840     2.9110    -0.7620 N.am  1 <1>  -0.6600 
 18 C        5.7700     4.2790    -1.3480 C.3   1 <1>   0.1400 
 19 C        6.8850     2.2020    -0.5360 C.3   1 <1>   0.1400 
 20 C        6.7420     5.1220    -0.5040 C.3   1 <1>   0.2090 
 21 C        7.8510     3.0560     0.3040 C.3   1 <1>   0.2090 
 22 N        8.0400     4.4100    -0.2970 N.pl3 1 <1>  -0.8380 
 23 C        9.1090     5.1460     0.1750 C.ar  1 <1>   0.4100 
 24 N        8.8380     6.1660     0.9840 N.ar  1 <1>  -0.6200 
 25 C       10.4030     4.7930    -0.1990 C.ar  1 <1>  -0.1500 
 26 C        9.8840     6.8420     1.4300 C.ar  1 <1>   0.1600 
 27 C       11.4810     5.5050     0.2720 C.ar  1 <1>  -0.1500 
 28 C       11.2010     6.5620     1.1140 C.ar  1 <1>  -0.1500 
 29 H        0.6270     4.1230     0.1780 H     1 <1>   0.0800 
 30 H        0.4550     3.4210    -1.4150 H     1 <1>   0.0800 
 31 H       -3.5540    -0.2640    -1.1080 H     1 <1>   0.1500 
 32 H        1.7490     1.4380    -0.6850 H     1 <1>   0.0800 
 33 H        1.9100     2.1280     0.9140 H     1 <1>   0.0800 
 34 H       -3.0450     1.6960     3.4020 H     1 <1>   0.1500 
 35 H       -5.1330    -0.8810     0.7010 H     1 <1>   0.1500 
 36 H        3.1560     4.0350    -0.0330 H     1 <1>   0.0800 
 37 H        2.9980     3.3490    -1.6310 H     1 <1>   0.0800 
 38 H       -4.8800     0.0940     2.9430 H     1 <1>   0.1500 
 39 H        4.8360     4.8030    -1.4250 H     1 <1>   0.0800 
 40 H        6.1740     4.1810    -2.3400 H     1 <1>   0.0800 
 41 H        7.3390     1.9910    -1.4870 H     1 <1>   0.0800 
 42 H        6.7250     1.2630    -0.0350 H     1 <1>   0.0800 
 43 H        6.2960     5.3340     0.4530 H     1 <1>   0.0800 
 44 H        6.9280     6.0590    -0.9980 H     1 <1>   0.0800 
 45 H        8.8000     2.5540     0.3750 H     1 <1>   0.0800 
 46 H        7.4560     3.1620     1.3000 H     1 <1>   0.0800 
 47 H       10.5370     3.9630    -0.8640 H     1 <1>   0.1500 
 48 H        9.6780     7.6690     2.0870 H     1 <1>   0.1500 
 49 H       12.4910     5.2540    -0.0030 H     1 <1>   0.1500 
 50 H       11.9950     7.1620     1.5200 H     1 <1>   0.1500 
@<TRIPOS>BOND
  1   1   2  2   
  2   2   3  am  
  3   2   4  1   
  4   3   5  am  
  5   3   6  1   
  6   4   7  ar  
  7   4   8  ar  
  8   5   7  1   
  9   5   9  2   
 10   6  10  1   
 11   6  29  1   
 12   6  30  1   
 13   7  11  ar  
 14   8  12  ar  
 15   8  31  1   
 16  10  13  1   
 17  10  32  1   
 18  10  33  1   
 19  11  14  ar  
 20  11  34  1   
 21  12  14  ar  
 22  12  35  1   
 23  13  15  1   
 24  13  36  1   
 25  13  37  1   
 26  14  38  1   
 27  15  16  2   
 28  15  17  am  
 29  17  18  1   
 30  17  19  1   
 31  18  20  1   
 32  18  39  1   
 33  18  40  1   
 34  19  21  1   
 35  19  41  1   
 36  19  42  1   
 37  20  22  1   
 38  20  43  1   
 39  20  44  1   
 40  21  22  1   
 41  21  45  1   
 42  21  46  1   
 43  22  23  1   
 44  23  24  ar  
 45  23  25  ar  
 46  24  26  ar  
 47  25  27  ar  
 48  25  47  1   
 49  26  28  ar  
 50  26  48  1   
 51  27  28  ar  
 52  27  49  1   
 53  28  50  1   
@<TRIPOS>SUBSTRUCTURE
  1 ****  13 GROUP 4 **** **** 0

# MOE 2024.06 (io_trps.svl 2023.06)
