@<TRIPOS>MOLECULE
NONAME
47 48 1 0 0 
SMALL
USER_CHARGES


@<TRIPOS>ATOM
  1 S       -0.6370    -0.1880    -2.1630 S.3   1 <1>  -0.0800 
  2 C        0.1630     0.9690    -1.1190 C.2   1 <1>   0.1040 
  3 C       -2.1840     0.0820    -1.3880 C.2   1 <1>  -0.1400 
  4 N        1.5190     1.2080    -1.2790 N.am  1 <1>  -0.4940 
  5 C       -0.7230     1.5260    -0.2350 C.2   1 <1>  -0.0860 
  6 C       -2.0670     0.9950    -0.4040 C.2   1 <1>  -0.1810 
  7 C       -3.3270    -0.7410    -1.9540 C.3   1 <1>  -0.0600 
  8 C        2.5140     0.6380    -2.0280 C.2   1 <1>   0.5690 
  9 C       -0.3110     2.5140     0.7340 C.2   1 <1>   0.8060 
 10 C       -3.2350     1.4320     0.4730 C.3   1 <1>  -0.0590 
 11 O        2.3580    -0.2840    -2.7920 O.2   1 <1>  -0.5700 
 12 C        3.9140     1.2330    -1.8620 C.3   1 <1>   0.1710 
 13 O        0.8560     2.6950     1.0420 O.2   1 <1>  -0.5700 
 14 O       -1.2310     3.2910     1.3200 O.3   1 <1>  -0.4300 
 15 N        4.0250     2.2470    -0.7630 N.3   1 <1>  -0.8100 
 16 C       -0.8850     4.2940     2.2560 C.3   1 <1>   0.0400 
 17 C        4.0810     1.5980     0.5750 C.3   1 <1>   0.1100 
 18 C        5.2180     3.0970    -0.9400 C.3   1 <1>   0.1100 
 19 C        5.5140     1.2930     1.0910 C.3   1 <1>   0.2000 
 20 C        6.5520     2.3190    -0.7770 C.3   1 <1>   0.2000 
 21 O        6.4220     1.1840     0.0350 O.3   1 <1>  -0.5600 
 22 C        5.5790    -0.0170     1.8710 C.3   1 <1>  -0.2400 
 23 C        7.6760     3.1860    -0.2070 C.3   1 <1>  -0.2400 
 24 H        1.9120     1.9430    -0.6710 H     1 <1>   0.3700 
 25 H       -3.4350    -0.5340    -3.0030 H     1 <1>   0.0800 
 26 H       -4.2550    -0.5190    -1.4640 H     1 <1>   0.0800 
 27 H       -3.1140    -1.7880    -1.8300 H     1 <1>   0.0800 
 28 H       -4.1160     0.8530     0.2730 H     1 <1>   0.0800 
 29 H       -3.4670     2.4660     0.2900 H     1 <1>   0.0800 
 30 H       -2.9870     1.3040     1.5110 H     1 <1>   0.0800 
 31 H        4.1650     1.6960    -2.7990 H     1 <1>   0.0800 
 32 H        4.6110     0.4300    -1.6970 H     1 <1>   0.0800 
 33 H       -1.7860     4.7810     2.5830 H     1 <1>   0.0800 
 34 H       -0.2320     5.0060     1.7800 H     1 <1>   0.0800 
 35 H       -0.3870     3.8350     3.0930 H     1 <1>   0.0800 
 36 H        3.5040     0.6890     0.5660 H     1 <1>   0.0800 
 37 H        3.6060     2.2480     1.2900 H     1 <1>   0.0800 
 38 H        5.1810     3.8850    -0.2070 H     1 <1>   0.0800 
 39 H        5.1930     3.5720    -1.9050 H     1 <1>   0.0800 
 40 H        5.8420     2.0970     1.7270 H     1 <1>   0.0800 
 41 H        6.8570     1.9590    -1.7440 H     1 <1>   0.0800 
 42 H        5.2930    -0.8390     1.2390 H     1 <1>   0.0800 
 43 H        4.9130     0.0210     2.7140 H     1 <1>   0.0800 
 44 H        6.5790    -0.1770     2.2310 H     1 <1>   0.0800 
 45 H        7.4120     3.5670     0.7620 H     1 <1>   0.0800 
 46 H        7.8640     4.0180    -0.8620 H     1 <1>   0.0800 
 47 H        8.5770     2.6060    -0.1290 H     1 <1>   0.0800 
@<TRIPOS>BOND
  1   1   2  1   
  2   1   3  1   
  3   2   4  1   
  4   2   5  2   
  5   3   6  2   
  6   3   7  1   
  7   4   8  am  
  8   4  24  1   
  9   5   6  1   
 10   5   9  1   
 11   6  10  1   
 12   7  25  1   
 13   7  26  1   
 14   7  27  1   
 15   8  11  2   
 16   8  12  1   
 17   9  13  2   
 18   9  14  1   
 19  10  28  1   
 20  10  29  1   
 21  10  30  1   
 22  12  15  1   
 23  12  31  1   
 24  12  32  1   
 25  14  16  1   
 26  15  17  1   
 27  15  18  1   
 28  16  33  1   
 29  16  34  1   
 30  16  35  1   
 31  17  19  1   
 32  17  36  1   
 33  17  37  1   
 34  18  20  1   
 35  18  38  1   
 36  18  39  1   
 37  19  21  1   
 38  19  22  1   
 39  19  40  1   
 40  20  21  1   
 41  20  23  1   
 42  20  41  1   
 43  22  42  1   
 44  22  43  1   
 45  22  44  1   
 46  23  45  1   
 47  23  46  1   
 48  23  47  1   
@<TRIPOS>SUBSTRUCTURE
  1 ****   4 GROUP 4 **** **** 0

# MOE 2024.06 (io_trps.svl 2023.06)
