@<TRIPOS>MOLECULE
NONAME
38 39 1 0 0 
SMALL
USER_CHARGES


@<TRIPOS>ATOM
  1 I       -0.4280     0.0970     0.3610 I     1 <1>  -0.0810 
  2 C        1.5470     0.8750     0.1830 C.ar  1 <1>   0.0810 
  3 C        1.7150     2.1420    -0.3440 C.ar  1 <1>  -0.1500 
  4 C        2.6080     0.0930     0.6000 C.ar  1 <1>  -0.1500 
  5 C        3.0030     2.6380    -0.4550 C.ar  1 <1>  -0.1500 
  6 C        3.8910     0.6010     0.4830 C.ar  1 <1>  -0.1500 
  7 C        4.0910     1.8780    -0.0460 C.ar  1 <1>   0.0830 
  8 O        5.3140     2.4480    -0.1940 O.3   1 <1>  -0.3630 
  9 C        6.4890     1.7740     0.1820 C.3   1 <1>   0.1200 
 10 C        7.6670     2.7020    -0.1230 C.3   1 <1>  -0.1600 
 11 C        9.0130     2.0610     0.2440 C.3   1 <1>  -0.1600 
 12 C       10.1640     3.0210    -0.0680 C.3   1 <1>   0.3430 
 13 N       11.4630     2.4310     0.3550 N.4   1 <1>  -0.9590 
 14 C       12.5780     3.4070     0.2960 C.3   1 <1>   0.3430 
 15 C       11.9020     1.2710    -0.4610 C.3   1 <1>   0.3430 
 16 C       13.8340     2.5470     0.3020 C.3   1 <1>  -0.1600 
 17 C       13.3980     1.1670    -0.1990 C.3   1 <1>  -0.1600 
 18 H        0.8690     2.7260    -0.6580 H     1 <1>   0.1500 
 19 H        2.4370    -0.8890     1.0050 H     1 <1>   0.1500 
 20 H        3.1730     3.6200    -0.8600 H     1 <1>   0.1500 
 21 H        4.7130    -0.0070     0.8060 H     1 <1>   0.1500 
 22 H        6.5550     0.8650    -0.3910 H     1 <1>   0.0800 
 23 H        6.4310     1.5540     1.2340 H     1 <1>   0.0800 
 24 H        7.5340     3.6140     0.4360 H     1 <1>   0.0800 
 25 H        7.6520     2.9390    -1.1730 H     1 <1>   0.0800 
 26 H        9.1270     1.1510    -0.3180 H     1 <1>   0.0800 
 27 H        9.0130     1.8270     1.2950 H     1 <1>   0.0800 
 28 H        9.9990     3.9460     0.4630 H     1 <1>   0.0800 
 29 H       10.1820     3.2390    -1.1240 H     1 <1>   0.0800 
 30 H       11.3870     2.1150     1.3310 H     1 <1>   0.4500 
 31 H       12.5580     4.0920     1.1290 H     1 <1>   0.0800 
 32 H       12.5290     3.9630    -0.6270 H     1 <1>   0.0800 
 33 H       11.7340     1.4750    -1.5070 H     1 <1>   0.0800 
 34 H       11.3840     0.3660    -0.1840 H     1 <1>   0.0800 
 35 H       14.2230     2.4770     1.3040 H     1 <1>   0.0800 
 36 H       14.5910     2.9820    -0.3270 H     1 <1>   0.0800 
 37 H       13.9170     0.8870    -1.1000 H     1 <1>   0.0800 
 38 H       13.5880     0.4170     0.5500 H     1 <1>   0.0800 
@<TRIPOS>BOND
  1   1   2  1   
  2   2   3  ar  
  3   2   4  ar  
  4   3   5  ar  
  5   3  18  1   
  6   4   6  ar  
  7   4  19  1   
  8   5   7  ar  
  9   5  20  1   
 10   6   7  ar  
 11   6  21  1   
 12   7   8  1   
 13   8   9  1   
 14   9  10  1   
 15   9  22  1   
 16   9  23  1   
 17  10  11  1   
 18  10  24  1   
 19  10  25  1   
 20  11  12  1   
 21  11  26  1   
 22  11  27  1   
 23  12  13  1   
 24  12  28  1   
 25  12  29  1   
 26  13  14  1   
 27  13  15  1   
 28  13  30  1   
 29  14  16  1   
 30  14  31  1   
 31  14  32  1   
 32  15  17  1   
 33  15  33  1   
 34  15  34  1   
 35  16  17  1   
 36  16  35  1   
 37  16  36  1   
 38  17  37  1   
 39  17  38  1   
@<TRIPOS>SUBSTRUCTURE
  1 ****   9 GROUP 4 **** **** 0

# MOE 2024.06 (io_trps.svl 2023.06)
