@<TRIPOS>MOLECULE
NONAME
30 31 1 0 0 
SMALL
USER_CHARGES


@<TRIPOS>ATOM
  1 S       -0.7130     0.1880    -0.2450 S.o2  1 <1>   1.5680 
  2 S        1.0450    -0.6090     0.5530 S.3   1 <1>  -0.3480 
  3 O       -0.2670     0.7700    -1.5340 O.co2 1 <1>  -0.8170 
  4 O       -1.6260    -0.9750    -0.3490 O.co2 1 <1>  -0.8170 
  5 O       -1.0970     1.2050     0.7700 O.co2 1 <1>  -0.8170 
  6 C        2.0420     0.8530     0.9360 C.3   1 <1>   0.0700 
  7 C        2.7700     1.3170    -0.3290 C.3   1 <1>  -0.0990 
  8 C        3.7230     2.4460    -0.0020 C.2   1 <1>   0.5690 
  9 O        4.8430     2.1210     0.3240 O.2   1 <1>  -0.5700 
 10 N        3.3690     3.7780    -0.0690 N.am  1 <1>  -0.4770 
 11 C        2.1590     4.4550    -0.3130 C.ar  1 <1>   0.1170 
 12 C        4.4470     4.7930     0.0920 C.3   1 <1>   0.1400 
 13 C        2.3690     5.8140    -0.4430 C.ar  1 <1>  -0.1440 
 14 C        0.8560     3.9780    -0.4130 C.ar  1 <1>  -0.1500 
 15 C        3.8280     6.1450    -0.2800 C.3   1 <1>  -0.0160 
 16 C        1.3370     6.7010    -0.6850 C.ar  1 <1>  -0.1500 
 17 C       -0.1900     4.8520    -0.6540 C.ar  1 <1>  -0.1500 
 18 C        0.0460     6.2110    -0.7930 C.ar  1 <1>  -0.1500 
 19 H        2.7450     0.5550     1.6930 H     1 <1>   0.0800 
 20 H        1.3810     1.6040     1.3300 H     1 <1>   0.0800 
 21 H        2.0920     1.6140    -1.1030 H     1 <1>   0.0800 
 22 H        3.3440     0.4950    -0.7140 H     1 <1>   0.0800 
 23 H        5.2770     4.5580    -0.5520 H     1 <1>   0.0800 
 24 H        4.7770     4.7940     1.1170 H     1 <1>   0.0800 
 25 H        0.6160     2.9400    -0.3040 H     1 <1>   0.1500 
 26 H        4.2390     6.5080    -1.2040 H     1 <1>   0.0800 
 27 H        3.9840     6.8690     0.5000 H     1 <1>   0.0800 
 28 H        1.5290     7.7540    -0.7860 H     1 <1>   0.1500 
 29 H       -1.1900     4.4580    -0.7310 H     1 <1>   0.1500 
 30 H       -0.7750     6.8800    -0.9810 H     1 <1>   0.1500 
@<TRIPOS>BOND
  1   1   2  1   
  2   1   3  ar  
  3   1   4  ar  
  4   1   5  ar  
  5   2   6  1   
  6   6   7  1   
  7   6  19  1   
  8   6  20  1   
  9   7   8  1   
 10   7  21  1   
 11   7  22  1   
 12   8   9  2   
 13   8  10  am  
 14  10  11  1   
 15  10  12  1   
 16  11  13  ar  
 17  11  14  ar  
 18  12  15  1   
 19  12  23  1   
 20  12  24  1   
 21  13  15  1   
 22  13  16  ar  
 23  14  17  ar  
 24  14  25  1   
 25  15  26  1   
 26  15  27  1   
 27  16  18  ar  
 28  16  28  1   
 29  17  18  ar  
 30  17  29  1   
 31  18  30  1   
@<TRIPOS>SUBSTRUCTURE
  1 ****  14 GROUP 4 **** **** 0

# MOE 2024.06 (io_trps.svl 2023.06)
