@<TRIPOS>MOLECULE
NONAME
44 46 1 0 0 
SMALL
USER_CHARGES


@<TRIPOS>ATOM
  1 S        0.2680    -0.6400     1.3860 S.o2  1 <1>   1.4470 
  2 O        0.8200    -1.1720     2.6140 O.2   1 <1>  -0.6500 
  3 O        0.1350     0.7920     1.2280 O.2   1 <1>  -0.6500 
  4 N        1.2820    -1.1730     0.1360 N.am  1 <1>  -0.8490 
  5 C       -1.3100    -1.4460     0.9990 C.ar  1 <1>  -0.0090 
  6 C        2.5360    -0.3950     0.1040 C.3   1 <1>   0.1960 
  7 C        1.5720    -2.6170     0.2320 C.3   1 <1>   0.1960 
  8 C       -1.9590    -1.1970    -0.2030 C.ar  1 <1>  -0.1500 
  9 C       -1.8990    -2.3430     1.8790 C.ar  1 <1>  -0.1500 
 10 C        3.4620    -0.8290    -1.0470 C.3   1 <1>   0.1400 
 11 C        2.4390    -3.0880    -0.9460 C.3   1 <1>   0.1400 
 12 C       -3.1550    -1.8170    -0.5320 C.ar  1 <1>  -0.1440 
 13 C       -3.0910    -2.9700     1.5660 C.ar  1 <1>  -0.1500 
 14 N        3.7050    -2.3010    -0.9930 N.am  1 <1>  -0.6600 
 15 C       -3.7270    -2.7140     0.3620 C.ar  1 <1>  -0.1430 
 16 C       -3.8120    -1.4940    -1.8660 C.3   1 <1>  -0.0970 
 17 C        4.9780    -2.8250    -0.8640 C.2   1 <1>   0.7150 
 18 C       -5.0380    -3.4220     0.0510 C.3   1 <1>  -0.0970 
 19 O        5.9100    -2.1470    -1.2600 O.2   1 <1>  -0.5700 
 20 C        5.2560    -4.1240    -0.2830 C.2   1 <1>   0.0550 
 21 O        4.4330    -4.7150     0.5830 O.3   1 <1>  -0.2800 
 22 C        6.3410    -4.9310    -0.4510 C.2   1 <1>  -0.1500 
 23 C        4.9560    -5.8600     0.9580 C.2   1 <1>  -0.0100 
 24 C        6.1440    -6.0560     0.3490 C.2   1 <1>  -0.1500 
 25 H        3.0600    -0.5090     1.0390 H     1 <1>   0.0800 
 26 H        2.3080     0.6510    -0.0190 H     1 <1>   0.0800 
 27 H        0.6510    -3.1740     0.2230 H     1 <1>   0.0800 
 28 H        2.0860    -2.8370     1.1540 H     1 <1>   0.0800 
 29 H       -1.5100    -0.4990    -0.8890 H     1 <1>   0.1500 
 30 H       -1.4220    -2.5550     2.8210 H     1 <1>   0.1500 
 31 H        4.3890    -0.2880    -0.9760 H     1 <1>   0.0800 
 32 H        3.0040    -0.5800    -1.9880 H     1 <1>   0.0800 
 33 H        1.8960    -2.9300    -1.8620 H     1 <1>   0.0800 
 34 H        2.6340    -4.1410    -0.8680 H     1 <1>   0.0800 
 35 H       -3.5230    -3.6600     2.2700 H     1 <1>   0.1500 
 36 H       -3.2320    -0.7800    -2.4220 H     1 <1>   0.0800 
 37 H       -4.7900    -1.0780    -1.7040 H     1 <1>   0.0800 
 38 H       -3.9050    -2.3870    -2.4580 H     1 <1>   0.0800 
 39 H       -5.8220    -2.7000    -0.0880 H     1 <1>   0.0800 
 40 H       -5.3240    -4.0780     0.8540 H     1 <1>   0.0800 
 41 H       -4.9380    -4.0090    -0.8440 H     1 <1>   0.0800 
 42 H        7.1980    -4.7440    -1.0750 H     1 <1>   0.1500 
 43 H        4.4220    -6.4760     1.6610 H     1 <1>   0.1500 
 44 H        6.8190    -6.8890     0.4430 H     1 <1>   0.1500 
@<TRIPOS>BOND
  1   1   2  2   
  2   1   3  2   
  3   1   4  am  
  4   1   5  1   
  5   4   6  1   
  6   4   7  1   
  7   5   8  ar  
  8   5   9  ar  
  9   6  10  1   
 10   6  25  1   
 11   6  26  1   
 12   7  11  1   
 13   7  27  1   
 14   7  28  1   
 15   8  12  ar  
 16   8  29  1   
 17   9  13  ar  
 18   9  30  1   
 19  10  14  1   
 20  10  31  1   
 21  10  32  1   
 22  11  14  1   
 23  11  33  1   
 24  11  34  1   
 25  12  15  ar  
 26  12  16  1   
 27  13  15  ar  
 28  13  35  1   
 29  14  17  am  
 30  15  18  1   
 31  16  36  1   
 32  16  37  1   
 33  16  38  1   
 34  17  19  2   
 35  17  20  1   
 36  18  39  1   
 37  18  40  1   
 38  18  41  1   
 39  20  21  1   
 40  20  22  2   
 41  21  23  1   
 42  22  24  1   
 43  22  42  1   
 44  23  24  2   
 45  23  43  1   
 46  24  44  1   
@<TRIPOS>SUBSTRUCTURE
  1 ****   7 GROUP 4 **** **** 0

# MOE 2024.06 (io_trps.svl 2023.06)
