@<TRIPOS>MOLECULE
NONAME
45 47 1 0 0 
SMALL
USER_CHARGES


@<TRIPOS>ATOM
  1 O        0.4790     1.1850    -1.7930 O.2   1 <1>  -0.5700 
  2 C        0.1070     1.5110    -0.6900 C.2   1 <1>   0.5690 
  3 N        0.9710     1.5450     0.3600 N.am  1 <1>  -0.7300 
  4 C       -1.3660     1.9040    -0.4450 C.3   1 <1>   0.0610 
  5 C        2.4430     1.3530     0.2850 C.3   1 <1>   0.3610 
  6 C       -2.0020     0.9870     0.6310 C.3   1 <1>  -0.1600 
  7 C       -2.2170     1.7830    -1.7380 C.3   1 <1>  -0.1600 
  8 C       -1.4520     3.3720     0.0460 C.3   1 <1>  -0.1600 
  9 C        3.1270     2.1850    -0.8460 C.2   1 <1>   0.6590 
 10 C        2.9850     1.8040     1.6470 C.3   1 <1>  -0.2400 
 11 C        2.6920    -0.1560     0.1370 C.3   1 <1>  -0.2400 
 12 C       -3.4650     1.3860     0.9020 C.3   1 <1>  -0.0800 
 13 C       -3.6810     2.1840    -1.4800 C.3   1 <1>  -0.0800 
 14 C       -2.9130     3.7790     0.3160 C.3   1 <1>  -0.0800 
 15 O        4.0570     1.7630    -1.4930 O.2   1 <1>  -0.5700 
 16 O        2.6680     3.4250    -1.0300 O.3   1 <1>  -0.4300 
 17 C       -4.2740     1.2600    -0.4010 C.3   1 <1>  -0.1600 
 18 C       -3.5090     2.8470     1.3880 C.3   1 <1>  -0.1600 
 19 C       -3.7260     3.6400    -0.9840 C.3   1 <1>  -0.1600 
 20 C        3.1750     4.2580    -2.0510 C.3   1 <1>   0.0400 
 21 H        0.6260     1.8510     1.2670 H     1 <1>   0.3700 
 22 H       -1.4460     1.0480     1.5500 H     1 <1>   0.0800 
 23 H       -1.9630    -0.0360     0.2970 H     1 <1>   0.0800 
 24 H       -2.1790     0.7710    -2.1020 H     1 <1>   0.0800 
 25 H       -1.8010     2.4150    -2.5040 H     1 <1>   0.0800 
 26 H       -1.0270     4.0230    -0.6980 H     1 <1>   0.0800 
 27 H       -0.8810     3.4980     0.9480 H     1 <1>   0.0800 
 28 H        4.0510     1.6610     1.6770 H     1 <1>   0.0800 
 29 H        2.5460     1.2340     2.4460 H     1 <1>   0.0800 
 30 H        2.7860     2.8500     1.8000 H     1 <1>   0.0800 
 31 H        3.7460    -0.3630     0.1800 H     1 <1>   0.0800 
 32 H        2.3290    -0.4950    -0.8170 H     1 <1>   0.0800 
 33 H        2.2000    -0.7070     0.9170 H     1 <1>   0.0800 
 34 H       -3.8850     0.7400     1.6540 H     1 <1>   0.0800 
 35 H       -4.2480     2.0910    -2.3910 H     1 <1>   0.0800 
 36 H       -2.9500     4.7990     0.6590 H     1 <1>   0.0800 
 37 H       -5.3010     1.5250    -0.2190 H     1 <1>   0.0800 
 38 H       -4.2560     0.2400    -0.7450 H     1 <1>   0.0800 
 39 H       -4.5280     3.1310     1.5890 H     1 <1>   0.0800 
 40 H       -2.9570     2.9450     2.3060 H     1 <1>   0.0800 
 41 H       -4.7460     3.9340    -0.8100 H     1 <1>   0.0800 
 42 H       -3.3230     4.2940    -1.7380 H     1 <1>   0.0800 
 43 H        3.0100     3.7770    -3.0000 H     1 <1>   0.0800 
 44 H        4.2280     4.4080    -1.8880 H     1 <1>   0.0800 
 45 H        2.6540     5.1970    -2.0150 H     1 <1>   0.0800 
@<TRIPOS>BOND
  1   1   2  2   
  2   2   3  am  
  3   2   4  1   
  4   3   5  1   
  5   3  21  1   
  6   4   6  1   
  7   4   7  1   
  8   4   8  1   
  9   5   9  1   
 10   5  10  1   
 11   5  11  1   
 12   6  12  1   
 13   6  22  1   
 14   6  23  1   
 15   7  13  1   
 16   7  24  1   
 17   7  25  1   
 18   8  14  1   
 19   8  26  1   
 20   8  27  1   
 21   9  15  2   
 22   9  16  1   
 23  10  28  1   
 24  10  29  1   
 25  10  30  1   
 26  11  31  1   
 27  11  32  1   
 28  11  33  1   
 29  12  17  1   
 30  12  18  1   
 31  12  34  1   
 32  13  17  1   
 33  13  19  1   
 34  13  35  1   
 35  14  18  1   
 36  14  19  1   
 37  14  36  1   
 38  16  20  1   
 39  17  37  1   
 40  17  38  1   
 41  18  39  1   
 42  18  40  1   
 43  19  41  1   
 44  19  42  1   
 45  20  43  1   
 46  20  44  1   
 47  20  45  1   
@<TRIPOS>SUBSTRUCTURE
  1 ****   2 GROUP 4 **** **** 0

# MOE 2024.06 (io_trps.svl 2023.06)
