@<TRIPOS>MOLECULE
NONAME
37 39 1 0 0 
SMALL
USER_CHARGES


@<TRIPOS>ATOM
  1 CL      -0.2750    -0.4580     0.6680 Cl    1 <1>  -0.1770 
  2 C       -2.0020    -0.2470     0.4790 C.ar  1 <1>   0.1770 
  3 C       -2.5570     1.0100     0.3050 C.ar  1 <1>   0.1900 
  4 C       -2.8250    -1.3570     0.5020 C.ar  1 <1>  -0.1500 
  5 F       -1.7830     2.0640     0.2800 F     1 <1>  -0.1900 
  6 C       -3.9180     1.1860     0.1560 C.ar  1 <1>  -0.1500 
  7 C       -4.1940    -1.1900     0.3510 C.ar  1 <1>  -0.1500 
  8 C       -4.7580     0.0750     0.1770 C.ar  1 <1>   0.1170 
  9 N       -6.1560     0.2190     0.0230 N.am  1 <1>  -0.2370 
 10 C       -6.9340    -0.5220    -0.8230 C.2   1 <1>   0.5690 
 11 C       -6.9370     1.1350     0.6720 C.2   1 <1>   0.5690 
 12 O       -6.5160    -1.2780    -1.6690 O.2   1 <1>  -0.5700 
 13 C       -8.4280    -0.2100    -0.6280 C.3   1 <1>   0.2510 
 14 O       -6.5570     1.9610     1.4610 O.2   1 <1>  -0.5700 
 15 C       -8.3840     1.0400     0.2630 C.3   1 <1>  -0.0990 
 16 N       -9.2470    -1.2580     0.0530 N.3   1 <1>  -0.8100 
 17 C      -10.6890    -0.9550    -0.0690 C.3   1 <1>   0.1100 
 18 C       -8.9700    -2.6220    -0.4480 C.3   1 <1>   0.1100 
 19 C      -11.5130    -1.9320     0.7730 C.3   1 <1>  -0.1600 
 20 C       -9.7510    -3.6610     0.3630 C.3   1 <1>  -0.1600 
 21 C      -11.2570    -3.3790     0.3440 C.3   1 <1>  -0.1600 
 22 H       -2.4000    -2.3360     0.6350 H     1 <1>   0.1500 
 23 H       -4.3150     2.1770     0.0290 H     1 <1>   0.1500 
 24 H       -4.8340    -2.0570     0.3660 H     1 <1>   0.1500 
 25 H       -8.8540     0.0180    -1.5900 H     1 <1>   0.0800 
 26 H       -8.6510     1.9180    -0.2940 H     1 <1>   0.0800 
 27 H       -8.9980     0.9540     1.1400 H     1 <1>   0.0800 
 28 H      -10.9910    -1.0250    -1.1010 H     1 <1>   0.0800 
 29 H      -10.8920     0.0450     0.2740 H     1 <1>   0.0800 
 30 H       -7.9250    -2.8530    -0.3460 H     1 <1>   0.0800 
 31 H       -9.2340    -2.6920    -1.4910 H     1 <1>   0.0800 
 32 H      -12.5580    -1.7040     0.6670 H     1 <1>   0.0800 
 33 H      -11.2500    -1.8050     1.8090 H     1 <1>   0.0800 
 34 H       -9.3930    -3.6440     1.3780 H     1 <1>   0.0800 
 35 H       -9.5620    -4.6410    -0.0370 H     1 <1>   0.0800 
 36 H      -11.6360    -3.5320    -0.6510 H     1 <1>   0.0800 
 37 H      -11.7660    -4.0570     1.0070 H     1 <1>   0.0800 
@<TRIPOS>BOND
  1   1   2  1   
  2   2   3  ar  
  3   2   4  ar  
  4   3   5  1   
  5   3   6  ar  
  6   4   7  ar  
  7   4  22  1   
  8   6   8  ar  
  9   6  23  1   
 10   7   8  ar  
 11   7  24  1   
 12   8   9  1   
 13   9  10  am  
 14   9  11  am  
 15  10  12  2   
 16  10  13  1   
 17  11  14  2   
 18  11  15  1   
 19  13  15  1   
 20  13  16  1   
 21  13  25  1   
 22  15  26  1   
 23  15  27  1   
 24  16  17  1   
 25  16  18  1   
 26  17  19  1   
 27  17  28  1   
 28  17  29  1   
 29  18  20  1   
 30  18  30  1   
 31  18  31  1   
 32  19  21  1   
 33  19  32  1   
 34  19  33  1   
 35  20  21  1   
 36  20  34  1   
 37  20  35  1   
 38  21  36  1   
 39  21  37  1   
@<TRIPOS>SUBSTRUCTURE
  1 ****   9 GROUP 4 **** **** 0

# MOE 2024.06 (io_trps.svl 2023.06)
