@<TRIPOS>MOLECULE
NONAME
41 42 1 0 0 
SMALL
USER_CHARGES


@<TRIPOS>ATOM
  1 O       -6.3230     4.5550    -1.6090 O.3   1 <1>  -0.6800 
  2 C       -5.6440     3.5430    -0.9440 C.3   1 <1>   0.4870 
  3 C       -6.6410     2.6620    -0.1630 C.ar  1 <1>  -0.1440 
  4 C       -4.5100     4.1310    -0.0940 C.ar  1 <1>  -0.1440 
  5 C       -7.6570     3.0870     0.7120 C.ar  1 <1>  -0.1440 
  6 C       -6.4620     1.2940    -0.3540 C.ar  1 <1>  -0.1500 
  7 C       -3.8450     5.2950    -0.4710 C.ar  1 <1>  -0.1500 
  8 C       -4.1080     3.4930     1.0750 C.ar  1 <1>  -0.1500 
  9 C       -8.4270     2.1290     1.3650 C.ar  1 <1>  -0.1500 
 10 C       -8.0620     4.5310     1.0370 C.3   1 <1>   0.5660 
 11 C       -7.2430     0.3600     0.2950 C.ar  1 <1>  -0.1500 
 12 C       -2.8250     5.8140     0.3080 C.ar  1 <1>  -0.1500 
 13 C       -3.0880     4.0110     1.8540 C.ar  1 <1>  -0.1500 
 14 C       -8.2280     0.7780     1.1620 C.ar  1 <1>  -0.1500 
 15 N       -8.6180     5.1840    -0.1750 N.4   1 <1>  -0.9590 
 16 C       -6.9470     5.3620     1.6660 C.3   1 <1>  -0.2400 
 17 C       -2.4470     5.1730     1.4720 C.ar  1 <1>  -0.1500 
 18 C       -9.0080     6.6120     0.0110 C.3   1 <1>   0.2630 
 19 C       -9.7330     4.3910    -0.7760 C.3   1 <1>   0.2630 
 20 H       -5.6980     4.9520    -2.2480 H     1 <1>   0.4000 
 21 H       -5.1860     2.9440    -1.7120 H     1 <1>   0.0800 
 22 H       -5.6950     0.9280    -1.0150 H     1 <1>   0.1500 
 23 H       -4.1020     5.8210    -1.3720 H     1 <1>   0.1500 
 24 H       -4.5790     2.5810     1.4000 H     1 <1>   0.1500 
 25 H       -9.2060     2.4190     2.0500 H     1 <1>   0.1500 
 26 H       -8.8490     4.4760     1.7700 H     1 <1>   0.0800 
 27 H       -7.0810    -0.6930     0.1290 H     1 <1>   0.1500 
 28 H       -2.3200     6.7160     0.0070 H     1 <1>   0.1500 
 29 H       -2.7900     3.5060     2.7570 H     1 <1>   0.1500 
 30 H       -8.8360     0.0530     1.6760 H     1 <1>   0.1500 
 31 H       -7.8240     5.1300    -0.8440 H     1 <1>   0.4500 
 32 H       -6.2740     5.7500     0.9270 H     1 <1>   0.0800 
 33 H       -6.3890     4.7530     2.3550 H     1 <1>   0.0800 
 34 H       -7.3610     6.1810     2.2240 H     1 <1>   0.0800 
 35 H       -1.6530     5.5760     2.0780 H     1 <1>   0.1500 
 36 H       -9.7880     6.6950     0.7510 H     1 <1>   0.0800 
 37 H       -9.3680     7.0230    -0.9190 H     1 <1>   0.0800 
 38 H       -8.1610     7.1950     0.3320 H     1 <1>   0.0800 
 39 H      -10.5640     4.3310    -0.0920 H     1 <1>   0.0800 
 40 H       -9.4000     3.3900    -1.0040 H     1 <1>   0.0800 
 41 H      -10.0670     4.8510    -1.6910 H     1 <1>   0.0800 
@<TRIPOS>BOND
  1   1   2  1   
  2   1  20  1   
  3   2   3  1   
  4   2   4  1   
  5   2  21  1   
  6   3   5  ar  
  7   3   6  ar  
  8   4   7  ar  
  9   4   8  ar  
 10   5   9  ar  
 11   5  10  1   
 12   6  11  ar  
 13   6  22  1   
 14   7  12  ar  
 15   7  23  1   
 16   8  13  ar  
 17   8  24  1   
 18   9  14  ar  
 19   9  25  1   
 20  10  15  1   
 21  10  16  1   
 22  10  26  1   
 23  11  14  ar  
 24  11  27  1   
 25  12  17  ar  
 26  12  28  1   
 27  13  17  ar  
 28  13  29  1   
 29  14  30  1   
 30  15  18  1   
 31  15  19  1   
 32  15  31  1   
 33  16  32  1   
 34  16  33  1   
 35  16  34  1   
 36  17  35  1   
 37  18  36  1   
 38  18  37  1   
 39  18  38  1   
 40  19  39  1   
 41  19  40  1   
 42  19  41  1   
@<TRIPOS>SUBSTRUCTURE
  1 ****   3 GROUP 4 **** **** 0

# MOE 2024.06 (io_trps.svl 2023.06)
