@<TRIPOS>MOLECULE
NONAME
45 46 1 0 0 
SMALL
USER_CHARGES


@<TRIPOS>ATOM
  1 BR       1.8370    -0.7350    -1.4920 Br    1 <1>  -0.1110 
  2 C        0.7110    -2.1090    -0.7370 C.ar  1 <1>   0.1110 
  3 C        1.0500    -2.6910     0.4770 C.ar  1 <1>   0.0820 
  4 C       -0.4160    -2.4710    -1.4460 C.ar  1 <1>  -0.1500 
  5 O        2.1790    -2.2640     1.1010 O.3   1 <1>  -0.3630 
  6 C        0.2100    -3.6760     0.9880 C.ar  1 <1>  -0.1500 
  7 C       -1.2510    -3.4510    -0.9300 C.ar  1 <1>  -0.1430 
  8 C        2.6540    -2.8640     2.2860 C.3   1 <1>   0.0400 
  9 C       -0.9350    -4.0560     0.2880 C.ar  1 <1>   0.0820 
 10 C       -2.4960    -3.8530    -1.6970 C.3   1 <1>   0.4870 
 11 O       -1.7880    -5.0100     0.7570 O.3   1 <1>  -0.3630 
 12 N       -3.6730    -3.6480    -0.8020 N.4   1 <1>  -0.9590 
 13 C       -1.3190    -5.9950     1.6640 C.3   1 <1>   0.0400 
 14 C       -4.8940    -4.3470    -1.3380 C.3   1 <1>   0.3430 
 15 C       -3.8870    -2.1970    -0.5420 C.3   1 <1>   0.3430 
 16 C       -6.0680    -4.5250    -0.3300 C.3   1 <1>   0.3430 
 17 C       -4.3720    -1.9490     0.8870 C.3   1 <1>  -0.1600 
 18 N       -6.4420    -3.3150     0.5000 N.4   1 <1>  -0.9590 
 19 C       -5.3760    -2.9410     1.4770 C.3   1 <1>   0.3430 
 20 C       -7.7100    -3.6070     1.2520 C.3   1 <1>   0.2630 
 21 H       -0.6130    -1.9830    -2.3860 H     1 <1>   0.1500 
 22 H        0.4480    -4.1330     1.9270 H     1 <1>   0.1500 
 23 H        3.5750    -2.3790     2.5580 H     1 <1>   0.0800 
 24 H        2.8350    -3.9090     2.1020 H     1 <1>   0.0800 
 25 H        1.9280    -2.7260     3.0670 H     1 <1>   0.0800 
 26 H       -2.4110    -4.8930    -1.9700 H     1 <1>   0.0800 
 27 H       -2.5920    -3.2660    -2.5960 H     1 <1>   0.0800 
 28 H       -3.3310    -4.0990     0.0680 H     1 <1>   0.4500 
 29 H       -1.1550    -5.5430     2.6270 H     1 <1>   0.0800 
 30 H       -0.4050    -6.4190     1.2840 H     1 <1>   0.0800 
 31 H       -2.0650    -6.7650     1.7500 H     1 <1>   0.0800 
 32 H       -4.6120    -5.3290    -1.6850 H     1 <1>   0.0800 
 33 H       -5.2590    -3.8080    -2.1970 H     1 <1>   0.0800 
 34 H       -4.6020    -1.8050    -1.2480 H     1 <1>   0.0800 
 35 H       -2.9650    -1.6520    -0.6820 H     1 <1>   0.0800 
 36 H       -5.8170    -5.3360     0.3340 H     1 <1>   0.0800 
 37 H       -6.9320    -4.8450    -0.8900 H     1 <1>   0.0800 
 38 H       -4.7940    -0.9610     0.9310 H     1 <1>   0.0800 
 39 H       -3.5110    -1.9290     1.5330 H     1 <1>   0.0800 
 40 H       -6.6470    -2.5040    -0.1040 H     1 <1>   0.4500 
 41 H       -5.8220    -2.4870     2.3500 H     1 <1>   0.0800 
 42 H       -4.8610    -3.8300     1.8070 H     1 <1>   0.0800 
 43 H       -7.5720    -4.4390     1.9240 H     1 <1>   0.0800 
 44 H       -8.5090    -3.8470     0.5680 H     1 <1>   0.0800 
 45 H       -8.0110    -2.7470     1.8310 H     1 <1>   0.0800 
@<TRIPOS>BOND
  1   1   2  1   
  2   2   3  ar  
  3   2   4  ar  
  4   3   5  1   
  5   3   6  ar  
  6   4   7  ar  
  7   4  21  1   
  8   5   8  1   
  9   6   9  ar  
 10   6  22  1   
 11   7   9  ar  
 12   7  10  1   
 13   8  23  1   
 14   8  24  1   
 15   8  25  1   
 16   9  11  1   
 17  10  12  1   
 18  10  26  1   
 19  10  27  1   
 20  11  13  1   
 21  12  14  1   
 22  12  15  1   
 23  12  28  1   
 24  13  29  1   
 25  13  30  1   
 26  13  31  1   
 27  14  16  1   
 28  14  32  1   
 29  14  33  1   
 30  15  17  1   
 31  15  34  1   
 32  15  35  1   
 33  16  18  1   
 34  16  36  1   
 35  16  37  1   
 36  17  19  1   
 37  17  38  1   
 38  17  39  1   
 39  18  19  1   
 40  18  20  1   
 41  18  40  1   
 42  19  41  1   
 43  19  42  1   
 44  20  43  1   
 45  20  44  1   
 46  20  45  1   
@<TRIPOS>SUBSTRUCTURE
  1 ****   7 GROUP 4 **** **** 0

# MOE 2024.06 (io_trps.svl 2023.06)
