@<TRIPOS>MOLECULE
NONAME
45 47 1 0 0 
SMALL
USER_CHARGES


@<TRIPOS>ATOM
  1 O        0.0040     0.7510    -2.4740 O.2   1 <1>  -0.5700 
  2 C       -0.3710     1.6060    -1.7070 C.2   1 <1>   0.5690 
  3 N        0.5170     2.4200    -1.0450 N.am  1 <1>  -0.6600 
  4 C       -1.8690     1.7550    -1.5330 C.3   1 <1>  -0.0990 
  5 C        0.1750     3.6460    -0.2660 C.3   1 <1>   0.1400 
  6 C        1.9840     2.1620    -1.1240 C.3   1 <1>   0.1400 
  7 C       -2.3390     1.3120    -0.1410 C.3   1 <1>   0.2430 
  8 C        0.7270     3.5250     1.1590 C.3   1 <1>  -0.1600 
  9 C        2.5640     2.0290     0.2880 C.3   1 <1>  -0.1600 
 10 C       -2.0790    -0.1780     0.0870 C.ar  1 <1>  -0.1440 
 11 C       -3.8050     1.6760     0.0810 C.2   1 <1>  -0.0400 
 12 C        2.2380     3.2530     1.1550 C.3   1 <1>  -0.1600 
 13 C       -2.9930    -1.1430    -0.3120 C.ar  1 <1>  -0.1500 
 14 C       -0.9020    -0.5870     0.6980 C.ar  1 <1>  -0.1500 
 15 O       -4.2590     1.7080     1.3200 O.3   1 <1>  -0.2800 
 16 C       -4.7930     1.9970    -0.7860 C.2   1 <1>  -0.1500 
 17 C       -2.7380    -2.4870    -0.0980 C.ar  1 <1>  -0.1500 
 18 C       -0.6460    -1.9300     0.9110 C.ar  1 <1>  -0.1500 
 19 C       -5.5320     2.0410     1.2740 C.2   1 <1>  -0.0100 
 20 C       -5.9280     2.2360    -0.0010 C.2   1 <1>  -0.1500 
 21 C       -1.5640    -2.8880     0.5160 C.ar  1 <1>  -0.1440 
 22 C       -1.2810    -4.3610     0.7460 C.3   1 <1>  -0.0970 
 23 H       -2.3600     1.1500    -2.2740 H     1 <1>   0.0800 
 24 H       -2.1420     2.7760    -1.7160 H     1 <1>   0.0800 
 25 H       -0.8860     3.8090    -0.2300 H     1 <1>   0.0800 
 26 H        0.6200     4.4970    -0.7520 H     1 <1>   0.0800 
 27 H        2.4560     2.9790    -1.6410 H     1 <1>   0.0800 
 28 H        2.1850     1.2590    -1.6770 H     1 <1>   0.0800 
 29 H       -1.7840     1.8590     0.5970 H     1 <1>   0.0800 
 30 H        0.2180     2.7270     1.6700 H     1 <1>   0.0800 
 31 H        0.5280     4.4360     1.6950 H     1 <1>   0.0800 
 32 H        3.6300     1.9060     0.2220 H     1 <1>   0.0800 
 33 H        2.1610     1.1410     0.7430 H     1 <1>   0.0800 
 34 H        2.5820     3.0890     2.1620 H     1 <1>   0.0800 
 35 H        2.7540     4.1130     0.7630 H     1 <1>   0.0800 
 36 H       -3.9130    -0.8570    -0.7900 H     1 <1>   0.1500 
 37 H       -0.1720     0.1400     1.0070 H     1 <1>   0.1500 
 38 H       -4.7620     2.0630    -1.8590 H     1 <1>   0.1500 
 39 H       -3.4590    -3.2180    -0.4150 H     1 <1>   0.1500 
 40 H        0.2740    -2.2250     1.3820 H     1 <1>   0.1500 
 41 H       -6.0810     2.1150     2.1970 H     1 <1>   0.1500 
 42 H       -6.8990     2.5130    -0.3700 H     1 <1>   0.1500 
 43 H       -2.2000    -4.9050     0.8670 H     1 <1>   0.0800 
 44 H       -0.6870    -4.4950     1.6320 H     1 <1>   0.0800 
 45 H       -0.7470    -4.7620    -0.0960 H     1 <1>   0.0800 
@<TRIPOS>BOND
  1   1   2  2   
  2   2   3  am  
  3   2   4  1   
  4   3   5  1   
  5   3   6  1   
  6   4   7  1   
  7   4  23  1   
  8   4  24  1   
  9   5   8  1   
 10   5  25  1   
 11   5  26  1   
 12   6   9  1   
 13   6  27  1   
 14   6  28  1   
 15   7  10  1   
 16   7  11  1   
 17   7  29  1   
 18   8  12  1   
 19   8  30  1   
 20   8  31  1   
 21   9  12  1   
 22   9  32  1   
 23   9  33  1   
 24  10  13  ar  
 25  10  14  ar  
 26  11  15  1   
 27  11  16  2   
 28  12  34  1   
 29  12  35  1   
 30  13  17  ar  
 31  13  36  1   
 32  14  18  ar  
 33  14  37  1   
 34  15  19  1   
 35  16  20  1   
 36  16  38  1   
 37  17  21  ar  
 38  17  39  1   
 39  18  21  ar  
 40  18  40  1   
 41  19  20  2   
 42  19  41  1   
 43  20  42  1   
 44  21  22  1   
 45  22  43  1   
 46  22  44  1   
 47  22  45  1   
@<TRIPOS>SUBSTRUCTURE
  1 ****   7 GROUP 4 **** **** 0

# MOE 2024.06 (io_trps.svl 2023.06)
