@<TRIPOS>MOLECULE
NONAME
53 55 1 0 0 
SMALL
USER_CHARGES


@<TRIPOS>ATOM
  1 O       14.3080    -0.3460    -2.9750 O.2   1 <1>  -0.5700 
  2 C       13.7870    -0.9870    -2.0830 C.2   1 <1>   0.7060 
  3 O       12.5360    -0.6710    -1.7460 O.3   1 <1>  -0.2330 
  4 C       14.4390    -2.0540    -1.3740 C.2   1 <1>  -0.1240 
  5 C       11.8480    -1.3180    -0.7820 C.ar  1 <1>   0.0820 
  6 C       13.8020    -2.7170    -0.3750 C.2   1 <1>  -0.1670 
  7 C       15.8710    -2.3820    -1.7990 C.3   1 <1>  -0.0220 
  8 C       12.4400    -2.3680    -0.0650 C.ar  1 <1>   0.0280 
  9 C       10.5460    -0.9160    -0.5320 C.ar  1 <1>  -0.1500 
 10 C       14.4830    -3.8280     0.4270 C.3   1 <1>  -0.0220 
 11 C       16.3480    -3.7370    -1.2670 C.3   1 <1>  -0.1600 
 12 C       11.6510    -3.0050     0.9000 C.ar  1 <1>  -0.1500 
 13 C        9.7930    -1.5490     0.4390 C.ar  1 <1>   0.0830 
 14 C       16.0010    -3.8760     0.2160 C.3   1 <1>  -0.1600 
 15 C       10.3530    -2.6070     1.1490 C.ar  1 <1>  -0.1500 
 16 O        8.5230    -1.1110     0.6340 O.3   1 <1>  -0.2320 
 17 C        7.8030    -1.1360     1.7550 C.2   1 <1>   0.6590 
 18 O        8.2210    -1.5130     2.8180 O.2   1 <1>  -0.5700 
 19 C        6.3760    -0.6610     1.6210 C.3   1 <1>  -0.0990 
 20 C        5.4670    -1.8400     1.2890 C.3   1 <1>   0.1400 
 21 N        4.0710    -1.3700     1.1870 N.am  1 <1>  -0.7300 
 22 C        3.4400    -1.0330     0.0400 C.2   1 <1>   0.7800 
 23 O        4.0060    -1.0370    -1.0330 O.2   1 <1>  -0.5700 
 24 O        2.1630    -0.6880     0.1760 O.3   1 <1>  -0.4300 
 25 C        1.2780    -0.2910    -0.8500 C.3   1 <1>   0.2800 
 26 C        1.0880    -1.4310    -1.8580 C.3   1 <1>  -0.2400 
 27 C        1.7770     0.9980    -1.5130 C.3   1 <1>  -0.2400 
 28 C       -0.0520    -0.0140    -0.1470 C.3   1 <1>  -0.2400 
 29 H       16.5210    -1.6030    -1.4390 H     1 <1>   0.0800 
 30 H       15.9400    -2.3920    -2.8740 H     1 <1>   0.0800 
 31 H       10.1220    -0.1070    -1.0980 H     1 <1>   0.1500 
 32 H       14.0540    -4.7720     0.1370 H     1 <1>   0.0800 
 33 H       14.3030    -3.6860     1.4780 H     1 <1>   0.0800 
 34 H       17.4120    -3.8260    -1.4080 H     1 <1>   0.0800 
 35 H       15.8710    -4.5270    -1.8210 H     1 <1>   0.0800 
 36 H       12.0470    -3.8270     1.4660 H     1 <1>   0.1500 
 37 H       16.3890    -4.8040     0.6000 H     1 <1>   0.0800 
 38 H       16.4610    -3.0720     0.7640 H     1 <1>   0.0800 
 39 H        9.7810    -3.1290     1.8950 H     1 <1>   0.1500 
 40 H        6.3190     0.0780     0.8430 H     1 <1>   0.0800 
 41 H        6.0740    -0.2180     2.5520 H     1 <1>   0.0800 
 42 H        5.5350    -2.5940     2.0560 H     1 <1>   0.0800 
 43 H        5.7680    -2.2810     0.3520 H     1 <1>   0.0800 
 44 H        3.5170    -1.3270     2.0420 H     1 <1>   0.3700 
 45 H        0.8070    -2.3360    -1.3510 H     1 <1>   0.0800 
 46 H        1.9860    -1.6050    -2.4210 H     1 <1>   0.0800 
 47 H        0.3120    -1.1770    -2.5570 H     1 <1>   0.0800 
 48 H        2.6760     0.8230    -2.0750 H     1 <1>   0.0800 
 49 H        1.9640     1.7530    -0.7710 H     1 <1>   0.0800 
 50 H        1.0350     1.3700    -2.1960 H     1 <1>   0.0800 
 51 H       -0.4070    -0.9020     0.3440 H     1 <1>   0.0800 
 52 H       -0.7940     0.2990    -0.8590 H     1 <1>   0.0800 
 53 H        0.0680     0.7670     0.5830 H     1 <1>   0.0800 
@<TRIPOS>BOND
  1   1   2  2   
  2   2   3  1   
  3   2   4  1   
  4   3   5  1   
  5   4   6  2   
  6   4   7  1   
  7   5   8  ar  
  8   5   9  ar  
  9   6   8  1   
 10   6  10  1   
 11   7  11  1   
 12   7  29  1   
 13   7  30  1   
 14   8  12  ar  
 15   9  13  ar  
 16   9  31  1   
 17  10  14  1   
 18  10  32  1   
 19  10  33  1   
 20  11  14  1   
 21  11  34  1   
 22  11  35  1   
 23  12  15  ar  
 24  12  36  1   
 25  13  15  ar  
 26  13  16  1   
 27  14  37  1   
 28  14  38  1   
 29  15  39  1   
 30  16  17  1   
 31  17  18  2   
 32  17  19  1   
 33  19  20  1   
 34  19  40  1   
 35  19  41  1   
 36  20  21  1   
 37  20  42  1   
 38  20  43  1   
 39  21  22  am  
 40  21  44  1   
 41  22  23  2   
 42  22  24  1   
 43  24  25  1   
 44  25  26  1   
 45  25  27  1   
 46  25  28  1   
 47  26  45  1   
 48  26  46  1   
 49  26  47  1   
 50  27  48  1   
 51  27  49  1   
 52  27  50  1   
 53  28  51  1   
 54  28  52  1   
 55  28  53  1   
@<TRIPOS>SUBSTRUCTURE
  1 ****  13 GROUP 4 **** **** 0

# MOE 2024.06 (io_trps.svl 2023.06)
