@<TRIPOS>MOLECULE
NONAME
47 48 1 0 0 
SMALL
USER_CHARGES


@<TRIPOS>ATOM
  1 O       -2.1500    -2.2680     1.8110 O.2   1 <1>  -0.5700 
  2 C       -1.5910    -1.7150     0.8840 C.2   1 <1>   0.7800 
  3 O       -0.4250    -2.1520     0.4120 O.3   1 <1>  -0.4300 
  4 N       -2.0880    -0.6250     0.2720 N.am  1 <1>  -0.7300 
  5 C        0.3390    -3.2360     0.8890 C.3   1 <1>   0.2800 
  6 C       -3.2000     0.1780     0.7910 C.3   1 <1>   0.3640 
  7 C       -0.4400    -4.5470     0.7250 C.3   1 <1>  -0.2400 
  8 C        1.5800    -3.2710    -0.0030 C.3   1 <1>  -0.2400 
  9 C        0.7660    -2.9850     2.3400 C.3   1 <1>  -0.2400 
 10 C       -4.5320    -0.5390     0.5670 C.ar  1 <1>  -0.1440 
 11 C       -3.2100     1.5210     0.0800 C.3   1 <1>  -0.2660 
 12 C       -5.4440    -0.6450     1.6060 C.ar  1 <1>  -0.1500 
 13 C       -4.8580    -1.0860    -0.6650 C.ar  1 <1>  -0.1500 
 14 C       -1.9140     2.2220     0.3250 C.2   1 <1>   0.9060 
 15 C       -6.6580    -1.2800     1.4140 C.ar  1 <1>  -0.1500 
 16 C       -6.0730    -1.7200    -0.8550 C.ar  1 <1>  -0.1500 
 17 O       -0.9300     1.8570    -0.3270 O.co2 1 <1>  -0.9000 
 18 O       -1.8720     3.1040     1.1830 O.co2 1 <1>  -0.9000 
 19 C       -6.9960    -1.8260     0.1800 C.ar  1 <1>   0.0000 
 20 C       -8.2660    -2.4850    -0.0200 C.ar  1 <1>   0.0000 
 21 C       -8.3270    -3.8290    -0.3760 C.ar  1 <1>  -0.1500 
 22 C       -9.4630    -1.7940     0.1380 C.ar  1 <1>  -0.1500 
 23 C       -9.5410    -4.4620    -0.5700 C.ar  1 <1>  -0.1500 
 24 C      -10.6810    -2.4220    -0.0530 C.ar  1 <1>  -0.1500 
 25 C      -10.7220    -3.7590    -0.4080 C.ar  1 <1>  -0.1500 
 26 H       -1.3930    -0.0230    -0.2020 H     1 <1>   0.3700 
 27 H       -3.0420     0.3400     1.8450 H     1 <1>   0.0800 
 28 H        0.1940    -5.3820     0.9580 H     1 <1>   0.0800 
 29 H       -0.7850    -4.6490    -0.2880 H     1 <1>   0.0800 
 30 H       -1.2830    -4.5810     1.3900 H     1 <1>   0.0800 
 31 H        2.1200    -2.3440     0.0780 H     1 <1>   0.0800 
 32 H        1.2960    -3.4190    -1.0290 H     1 <1>   0.0800 
 33 H        2.2330    -4.0730     0.2910 H     1 <1>   0.0800 
 34 H       -0.0770    -3.0240     3.0040 H     1 <1>   0.0800 
 35 H        1.2370    -2.0220     2.4260 H     1 <1>   0.0800 
 36 H        1.4650    -3.7380     2.6540 H     1 <1>   0.0800 
 37 H       -4.0060     2.1290     0.4630 H     1 <1>   0.0800 
 38 H       -3.3470     1.3950    -0.9760 H     1 <1>   0.0800 
 39 H       -5.2040    -0.2340     2.5710 H     1 <1>   0.1500 
 40 H       -4.1560    -1.0160    -1.4780 H     1 <1>   0.1500 
 41 H       -7.3520    -1.3580     2.2300 H     1 <1>   0.1500 
 42 H       -6.3110    -2.1360    -1.8170 H     1 <1>   0.1500 
 43 H       -7.4100    -4.3790    -0.4980 H     1 <1>   0.1500 
 44 H       -9.4330    -0.7540     0.4110 H     1 <1>   0.1500 
 45 H       -9.5680    -5.5020    -0.8450 H     1 <1>   0.1500 
 46 H      -11.5970    -1.8710     0.0730 H     1 <1>   0.1500 
 47 H      -11.6680    -4.2500    -0.5580 H     1 <1>   0.1500 
@<TRIPOS>BOND
  1   1   2  2   
  2   2   3  1   
  3   2   4  am  
  4   3   5  1   
  5   4   6  1   
  6   4  26  1   
  7   5   7  1   
  8   5   8  1   
  9   5   9  1   
 10   6  10  1   
 11   6  11  1   
 12   6  27  1   
 13   7  28  1   
 14   7  29  1   
 15   7  30  1   
 16   8  31  1   
 17   8  32  1   
 18   8  33  1   
 19   9  34  1   
 20   9  35  1   
 21   9  36  1   
 22  10  12  ar  
 23  10  13  ar  
 24  11  14  1   
 25  11  37  1   
 26  11  38  1   
 27  12  15  ar  
 28  12  39  1   
 29  13  16  ar  
 30  13  40  1   
 31  14  17  ar  
 32  14  18  ar  
 33  15  19  ar  
 34  15  41  1   
 35  16  19  ar  
 36  16  42  1   
 37  19  20  1   
 38  20  21  ar  
 39  20  22  ar  
 40  21  23  ar  
 41  21  43  1   
 42  22  24  ar  
 43  22  44  1   
 44  23  25  ar  
 45  23  45  1   
 46  24  25  ar  
 47  24  46  1   
 48  25  47  1   
@<TRIPOS>SUBSTRUCTURE
  1 ****  10 GROUP 4 **** **** 0

# MOE 2024.06 (io_trps.svl 2023.06)
