@<TRIPOS>MOLECULE
NONAME
37 38 1 0 0 
SMALL
USER_CHARGES


@<TRIPOS>ATOM
  1 S       -0.6880    -0.1150     0.3210 S.3   1 <1>  -0.0800 
  2 C       -0.8120     1.5750    -0.0480 C.2   1 <1>   0.4420 
  3 C        1.0090     0.0170     0.0150 C.2   1 <1>   0.1980 
  4 N        0.3250     2.0870    -0.3540 N.2   1 <1>  -0.3380 
  5 N       -2.0750     2.1250     0.0200 N.am  1 <1>  -0.4940 
  6 N        1.3600     1.1910    -0.3150 N.2   1 <1>  -0.3380 
  7 C        1.8610    -1.2230     0.1660 C.3   1 <1>  -0.0600 
  8 C       -2.4750     3.4330    -0.1010 C.2   1 <1>   0.5440 
  9 O       -1.6530     4.3240    -0.1060 O.2   1 <1>  -0.5700 
 10 C       -3.8900     3.7390    -0.1770 C.ar  1 <1>   0.0860 
 11 C       -4.3960     4.9220     0.3660 C.ar  1 <1>  -0.1500 
 12 C       -4.8050     2.8760    -0.7880 C.ar  1 <1>  -0.1500 
 13 C       -5.7440     5.2260     0.3260 C.ar  1 <1>  -0.1500 
 14 C       -6.1540     3.1720    -0.8310 C.ar  1 <1>  -0.1500 
 15 C       -6.6370     4.3430    -0.2730 C.ar  1 <1>   0.0830 
 16 O       -7.9690     4.5550    -0.3530 O.3   1 <1>  -0.3630 
 17 C       -8.5740     5.7160     0.1760 C.3   1 <1>   0.1200 
 18 C      -10.0920     5.6500    -0.0520 C.3   1 <1>  -0.0800 
 19 C      -10.7570     6.9420     0.4400 C.3   1 <1>  -0.2400 
 20 C      -10.7220     4.4420     0.6570 C.3   1 <1>  -0.2400 
 21 H       -2.8160     1.4640     0.2260 H     1 <1>   0.3700 
 22 H        1.5230    -1.9830    -0.5140 H     1 <1>   0.0800 
 23 H        1.7960    -1.5900     1.1730 H     1 <1>   0.0800 
 24 H        2.8860    -0.9870    -0.0550 H     1 <1>   0.0800 
 25 H       -3.7090     5.6120     0.8290 H     1 <1>   0.1500 
 26 H       -4.4620     1.9660    -1.2480 H     1 <1>   0.1500 
 27 H       -6.0790     6.1480     0.7620 H     1 <1>   0.1500 
 28 H       -6.8490     2.4990    -1.3020 H     1 <1>   0.1500 
 29 H       -8.1550     6.5690    -0.3290 H     1 <1>   0.0800 
 30 H       -8.3530     5.7640     1.2280 H     1 <1>   0.0800 
 31 H      -10.2680     5.5650    -1.1110 H     1 <1>   0.0800 
 32 H      -10.6050     7.0700     1.4970 H     1 <1>   0.0800 
 33 H      -11.8150     6.9120     0.2470 H     1 <1>   0.0800 
 34 H      -10.3460     7.7940    -0.0730 H     1 <1>   0.0800 
 35 H      -10.5520     4.4920     1.7170 H     1 <1>   0.0800 
 36 H      -10.2960     3.5260     0.2850 H     1 <1>   0.0800 
 37 H      -11.7820     4.4140     0.4780 H     1 <1>   0.0800 
@<TRIPOS>BOND
  1   1   2  1   
  2   1   3  1   
  3   2   4  2   
  4   2   5  1   
  5   3   6  2   
  6   3   7  1   
  7   4   6  1   
  8   5   8  am  
  9   5  21  1   
 10   7  22  1   
 11   7  23  1   
 12   7  24  1   
 13   8   9  2   
 14   8  10  1   
 15  10  11  ar  
 16  10  12  ar  
 17  11  13  ar  
 18  11  25  1   
 19  12  14  ar  
 20  12  26  1   
 21  13  15  ar  
 22  13  27  1   
 23  14  15  ar  
 24  14  28  1   
 25  15  16  1   
 26  16  17  1   
 27  17  18  1   
 28  17  29  1   
 29  17  30  1   
 30  18  19  1   
 31  18  20  1   
 32  18  31  1   
 33  19  32  1   
 34  19  33  1   
 35  19  34  1   
 36  20  35  1   
 37  20  36  1   
 38  20  37  1   
@<TRIPOS>SUBSTRUCTURE
  1 ****  10 GROUP 4 **** **** 0

# MOE 2024.06 (io_trps.svl 2023.06)
