@<TRIPOS>MOLECULE
NONAME
44 46 1 0 0 
SMALL
USER_CHARGES


@<TRIPOS>ATOM
  1 O        0.8720     2.3320    -0.1000 O.3   1 <1>  -0.3630 
  2 C        1.6130     1.2460     0.2480 C.ar  1 <1>   0.0830 
  3 C       -0.4390     2.5250     0.3770 C.3   1 <1>   0.1200 
  4 C        2.9110     1.1400    -0.2550 C.ar  1 <1>  -0.1440 
  5 C        1.1140     0.2490     1.0850 C.ar  1 <1>  -0.1500 
  6 C       -0.9610     3.8340    -0.2040 C.3   1 <1>   0.0960 
  7 C        3.6770     0.0360     0.0950 C.ar  1 <1>  -0.1500 
  8 C        3.5120     2.2070    -1.1810 C.3   1 <1>   0.0640 
  9 C        1.8940    -0.8410     1.4200 C.ar  1 <1>  -0.1500 
 10 N       -2.3310     4.0750     0.2780 N.pl3 1 <1>   0.0480 
 11 C        3.1810    -0.9530     0.9280 C.ar  1 <1>  -0.1430 
 12 C        3.8600     1.6110    -2.5490 C.3   1 <1>  -0.2400 
 13 C        4.7440     2.8560    -0.5420 C.3   1 <1>  -0.2400 
 14 C       -3.4690     3.4750    -0.1600 C.ar  1 <1>  -0.1520 
 15 C       -2.7190     4.8800     1.3020 C.2   1 <1>   0.0360 
 16 C        4.0450    -2.1480     1.2900 C.3   1 <1>  -0.0970 
 17 C       -4.4810     3.9700     0.6440 C.ar  1 <1>   0.2270 
 18 C       -3.7400     2.5470    -1.1710 C.ar  1 <1>  -0.1500 
 19 N       -3.9800     4.8510     1.5530 N.2   1 <1>  -0.5650 
 20 C       -5.7940     3.5450     0.4530 C.ar  1 <1>  -0.1500 
 21 C       -5.0410     2.1330    -1.3520 C.ar  1 <1>  -0.1500 
 22 C       -6.0690     2.6310    -0.5410 C.ar  1 <1>  -0.1500 
 23 H       -0.4040     2.5720     1.4520 H     1 <1>   0.0800 
 24 H       -1.0430     1.6960     0.0500 H     1 <1>   0.0800 
 25 H        0.1210     0.2960     1.4880 H     1 <1>   0.1500 
 26 H       -0.9760     3.7830    -1.2770 H     1 <1>   0.0800 
 27 H       -0.3330     4.6490     0.1070 H     1 <1>   0.0800 
 28 H        4.6780    -0.0610    -0.2850 H     1 <1>   0.1500 
 29 H        2.7960     2.9910    -1.3520 H     1 <1>   0.0800 
 30 H        1.4940    -1.6030     2.0660 H     1 <1>   0.1500 
 31 H        4.6290     0.8660    -2.4610 H     1 <1>   0.0800 
 32 H        4.2050     2.3830    -3.2140 H     1 <1>   0.0800 
 33 H        2.9870     1.1540    -2.9790 H     1 <1>   0.0800 
 34 H        4.4830     3.2610     0.4200 H     1 <1>   0.0800 
 35 H        5.5340     2.1390    -0.4090 H     1 <1>   0.0800 
 36 H        5.1080     3.6550    -1.1630 H     1 <1>   0.0800 
 37 H       -2.0110     5.4810     1.8450 H     1 <1>   0.1500 
 38 H        5.0670    -1.8410     1.4250 H     1 <1>   0.0800 
 39 H        4.0030    -2.8780     0.5020 H     1 <1>   0.0800 
 40 H        3.7040    -2.6010     2.2030 H     1 <1>   0.0800 
 41 H       -2.9480     2.1690    -1.7920 H     1 <1>   0.1500 
 42 H       -6.5610     3.9450     1.0890 H     1 <1>   0.1500 
 43 H       -5.2820     1.4200    -2.1220 H     1 <1>   0.1500 
 44 H       -7.0780     2.2930    -0.7020 H     1 <1>   0.1500 
@<TRIPOS>BOND
  1   1   2  1   
  2   1   3  1   
  3   2   4  ar  
  4   2   5  ar  
  5   3   6  1   
  6   3  23  1   
  7   3  24  1   
  8   4   7  ar  
  9   4   8  1   
 10   5   9  ar  
 11   5  25  1   
 12   6  10  1   
 13   6  26  1   
 14   6  27  1   
 15   7  11  ar  
 16   7  28  1   
 17   8  12  1   
 18   8  13  1   
 19   8  29  1   
 20   9  11  ar  
 21   9  30  1   
 22  10  14  1   
 23  10  15  1   
 24  11  16  1   
 25  12  31  1   
 26  12  32  1   
 27  12  33  1   
 28  13  34  1   
 29  13  35  1   
 30  13  36  1   
 31  14  17  ar  
 32  14  18  ar  
 33  15  19  2   
 34  15  37  1   
 35  16  38  1   
 36  16  39  1   
 37  16  40  1   
 38  17  19  1   
 39  17  20  ar  
 40  18  21  ar  
 41  18  41  1   
 42  20  22  ar  
 43  20  42  1   
 44  21  22  ar  
 45  21  43  1   
 46  22  44  1   
@<TRIPOS>SUBSTRUCTURE
  1 ****   3 GROUP 4 **** **** 0

# MOE 2024.06 (io_trps.svl 2023.06)
