@<TRIPOS>MOLECULE
NONAME
39 40 1 0 0 
SMALL
USER_CHARGES


@<TRIPOS>ATOM
  1 F        0.1960    -1.0940     1.3630 F     1 <1>  -0.3400 
  2 C        0.8690    -0.4570     0.4130 C.3   1 <1>   1.1640 
  3 F        1.1800     0.7340     0.9110 F     1 <1>  -0.3400 
  4 F        0.0010    -0.2310    -0.5670 F     1 <1>  -0.3400 
  5 C        2.0900    -1.2580    -0.0630 C.ar  1 <1>  -0.1440 
  6 C        3.3760    -0.9290     0.3490 C.ar  1 <1>  -0.1500 
  7 C        1.9250    -2.3440    -0.9180 C.ar  1 <1>  -0.1500 
  8 C        4.4810    -1.6510    -0.0760 C.ar  1 <1>   0.1000 
  9 C        3.0200    -3.0740    -1.3500 C.ar  1 <1>  -0.1500 
 10 N        5.7470    -1.2850     0.3600 N.pl3 1 <1>  -0.8380 
 11 C        4.2900    -2.7290    -0.9310 C.ar  1 <1>  -0.1500 
 12 C        6.4300    -2.2350     1.3010 C.3   1 <1>   0.2090 
 13 C        6.6340    -0.6560    -0.6700 C.3   1 <1>   0.2090 
 14 C        7.7300    -2.8250     0.7250 C.3   1 <1>   0.1400 
 15 C        8.0790    -0.4790    -0.1700 C.3   1 <1>   0.1400 
 16 N        8.6910    -1.7700     0.2760 N.am  1 <1>  -0.6600 
 17 C        9.9650    -2.1300    -0.0840 C.2   1 <1>   0.6900 
 18 O       10.2210    -3.3060    -0.2830 O.2   1 <1>  -0.5700 
 19 N       10.9560    -1.1860    -0.2250 N.am  1 <1>  -0.6600 
 20 C       12.1770    -1.4910    -1.0160 C.3   1 <1>   0.0600 
 21 C       11.0920    -0.0370     0.7100 C.3   1 <1>   0.0600 
 22 H        3.5530    -0.1010     1.0140 H     1 <1>   0.1500 
 23 H        0.9410    -2.6280    -1.2540 H     1 <1>   0.1500 
 24 H        2.8820    -3.9110    -2.0130 H     1 <1>   0.1500 
 25 H        5.1410    -3.2920    -1.2650 H     1 <1>   0.1500 
 26 H        5.7590    -3.0390     1.5520 H     1 <1>   0.0800 
 27 H        6.6600    -1.7110     2.2120 H     1 <1>   0.0800 
 28 H        6.2300     0.3060    -0.9320 H     1 <1>   0.0800 
 29 H        6.6440    -1.2630    -1.5580 H     1 <1>   0.0800 
 30 H        7.4900    -3.4570    -0.1110 H     1 <1>   0.0800 
 31 H        8.2060    -3.4360     1.4720 H     1 <1>   0.0800 
 32 H        8.0750     0.2110     0.6550 H     1 <1>   0.0800 
 33 H        8.6700    -0.0530    -0.9620 H     1 <1>   0.0800 
 34 H       11.9610    -2.2450    -1.7540 H     1 <1>   0.0800 
 35 H       12.9500    -1.8570    -0.3630 H     1 <1>   0.0800 
 36 H       12.5200    -0.6040    -1.5190 H     1 <1>   0.0800 
 37 H       10.3540    -0.0990     1.4910 H     1 <1>   0.0800 
 38 H       10.9620     0.8850     0.1720 H     1 <1>   0.0800 
 39 H       12.0670    -0.0490     1.1640 H     1 <1>   0.0800 
@<TRIPOS>BOND
  1   1   2  1   
  2   2   3  1   
  3   2   4  1   
  4   2   5  1   
  5   5   6  ar  
  6   5   7  ar  
  7   6   8  ar  
  8   6  22  1   
  9   7   9  ar  
 10   7  23  1   
 11   8  10  1   
 12   8  11  ar  
 13   9  11  ar  
 14   9  24  1   
 15  10  12  1   
 16  10  13  1   
 17  11  25  1   
 18  12  14  1   
 19  12  26  1   
 20  12  27  1   
 21  13  15  1   
 22  13  28  1   
 23  13  29  1   
 24  14  16  1   
 25  14  30  1   
 26  14  31  1   
 27  15  16  1   
 28  15  32  1   
 29  15  33  1   
 30  16  17  am  
 31  17  18  2   
 32  17  19  am  
 33  19  20  1   
 34  19  21  1   
 35  20  34  1   
 36  20  35  1   
 37  20  36  1   
 38  21  37  1   
 39  21  38  1   
 40  21  39  1   
@<TRIPOS>SUBSTRUCTURE
  1 ****  10 GROUP 4 **** **** 0

# MOE 2024.06 (io_trps.svl 2023.06)
