@<TRIPOS>MOLECULE
NONAME
42 44 1 0 0 
SMALL
USER_CHARGES


@<TRIPOS>ATOM
  1 O       -2.7860     3.4260     0.6510 O.3   1 <1>  -0.1650 
  2 C       -2.8450     2.1100     0.3230 C.ar  1 <1>   0.0830 
  3 C       -1.8040     4.2390     0.1870 C.ar  1 <1>   0.0830 
  4 C       -3.3710     1.2300     1.2540 C.ar  1 <1>  -0.1500 
  5 C       -2.4230     1.6320    -0.9120 C.ar  1 <1>  -0.1500 
  6 C       -2.1480     5.5140    -0.2310 C.ar  1 <1>  -0.1500 
  7 C       -0.4760     3.8290     0.1410 C.ar  1 <1>  -0.1500 
  8 C       -3.4650    -0.1190     0.9620 C.ar  1 <1>  -0.1500 
  9 C       -2.5160     0.2820    -1.2000 C.ar  1 <1>  -0.1500 
 10 C       -1.1740     6.3750    -0.7080 C.ar  1 <1>  -0.1500 
 11 C        0.4960     4.6910    -0.3370 C.ar  1 <1>  -0.1500 
 12 C       -3.0340    -0.6030    -0.2650 C.ar  1 <1>  -0.1430 
 13 C        0.1470     5.9620    -0.7620 C.ar  1 <1>  -0.1500 
 14 C       -3.1370    -2.0860    -0.5910 C.3   1 <1>  -0.0170 
 15 C       -1.7710    -2.7920    -0.4940 C.3   1 <1>  -0.0800 
 16 C       -1.8940    -4.2720    -0.9000 C.3   1 <1>  -0.1600 
 17 C       -1.1650    -2.6850     0.9180 C.3   1 <1>  -0.1600 
 18 C       -0.5660    -5.0170    -0.7510 C.3   1 <1>   0.3430 
 19 C        0.1480    -3.4580     1.0380 C.3   1 <1>   0.3430 
 20 N       -0.0700    -4.8770     0.6450 N.4   1 <1>  -0.9060 
 21 H       -3.7080     1.6080     2.2030 H     1 <1>   0.1500 
 22 H       -2.0320     2.3110    -1.6490 H     1 <1>   0.1500 
 23 H       -3.1760     5.8270    -0.1830 H     1 <1>   0.1500 
 24 H       -0.2060     2.8460     0.4810 H     1 <1>   0.1500 
 25 H       -3.8810    -0.7860     1.6970 H     1 <1>   0.1500 
 26 H       -2.1890    -0.0730    -2.1620 H     1 <1>   0.1500 
 27 H       -1.4430     7.3640    -1.0350 H     1 <1>   0.1500 
 28 H        1.5240     4.3750    -0.3760 H     1 <1>   0.1500 
 29 H        0.9040     6.6310    -1.1340 H     1 <1>   0.1500 
 30 H       -3.5270    -2.1880    -1.5900 H     1 <1>   0.0800 
 31 H       -3.8430    -2.5520     0.0740 H     1 <1>   0.0800 
 32 H       -1.1010    -2.3070    -1.1860 H     1 <1>   0.0800 
 33 H       -2.2100    -4.3350    -1.9270 H     1 <1>   0.0800 
 34 H       -2.6450    -4.7610    -0.3030 H     1 <1>   0.0800 
 35 H       -1.8640    -3.0460     1.6530 H     1 <1>   0.0800 
 36 H       -0.9680    -1.6510     1.1480 H     1 <1>   0.0800 
 37 H        0.1560    -4.6030    -1.4370 H     1 <1>   0.0800 
 38 H       -0.7060    -6.0590    -0.9930 H     1 <1>   0.0800 
 39 H        0.5090    -3.4040     2.0530 H     1 <1>   0.0800 
 40 H        0.8870    -3.0100     0.3920 H     1 <1>   0.0800 
 41 H        0.8030    -5.4070     0.7590 H     1 <1>   0.4500 
 42 H       -0.7590    -5.2920     1.2840 H     1 <1>   0.4500 
@<TRIPOS>BOND
  1   1   2  1   
  2   1   3  1   
  3   2   4  ar  
  4   2   5  ar  
  5   3   6  ar  
  6   3   7  ar  
  7   4   8  ar  
  8   4  21  1   
  9   5   9  ar  
 10   5  22  1   
 11   6  10  ar  
 12   6  23  1   
 13   7  11  ar  
 14   7  24  1   
 15   8  12  ar  
 16   8  25  1   
 17   9  12  ar  
 18   9  26  1   
 19  10  13  ar  
 20  10  27  1   
 21  11  13  ar  
 22  11  28  1   
 23  12  14  1   
 24  13  29  1   
 25  14  15  1   
 26  14  30  1   
 27  14  31  1   
 28  15  16  1   
 29  15  17  1   
 30  15  32  1   
 31  16  18  1   
 32  16  33  1   
 33  16  34  1   
 34  17  19  1   
 35  17  35  1   
 36  17  36  1   
 37  18  20  1   
 38  18  37  1   
 39  18  38  1   
 40  19  20  1   
 41  19  39  1   
 42  19  40  1   
 43  20  41  1   
 44  20  42  1   
@<TRIPOS>SUBSTRUCTURE
  1 ****   9 GROUP 4 **** **** 0

# MOE 2024.06 (io_trps.svl 2023.06)
