@<TRIPOS>MOLECULE
NONAME
34 34 1 0 0 
SMALL
USER_CHARGES


@<TRIPOS>ATOM
  1 F        0.8650     0.2610    -0.3720 F     1 <1>  -0.1900 
  2 C        2.0660     0.7490    -0.2070 C.ar  1 <1>   0.1900 
  3 C        3.1050     0.2300    -0.9560 C.ar  1 <1>  -0.1500 
  4 C        2.2520     1.7660     0.7100 C.ar  1 <1>  -0.1500 
  5 C        4.3790     0.7470    -0.7810 C.ar  1 <1>  -0.1500 
  6 C        3.5280     2.2770     0.8790 C.ar  1 <1>  -0.1500 
  7 C        4.5920     1.7750     0.1400 C.ar  1 <1>   0.0830 
  8 O        5.8050     2.3370     0.3730 O.3   1 <1>  -0.3630 
  9 C        6.9580     1.9140    -0.3120 C.3   1 <1>   0.1200 
 10 C        8.1230     2.7610     0.2030 C.3   1 <1>   0.3430 
 11 N        9.4170     2.3960    -0.4620 N.4   1 <1>  -0.9060 
 12 C       10.6000     3.1520    -0.0380 C.3   1 <1>   0.5030 
 13 C       10.4060     4.6350    -0.3490 C.3   1 <1>  -0.2400 
 14 C       11.7690     2.6010    -0.8470 C.3   1 <1>  -0.2400 
 15 C       10.8500     2.9290     1.4530 C.3   1 <1>  -0.2400 
 16 H        2.9130    -0.5620    -1.6580 H     1 <1>   0.1500 
 17 H        1.4180     2.1430     1.2740 H     1 <1>   0.1500 
 18 H        5.1770     0.3360    -1.3680 H     1 <1>   0.1500 
 19 H        3.7000     3.0690     1.5860 H     1 <1>   0.1500 
 20 H        6.7960     2.0730    -1.3640 H     1 <1>   0.0800 
 21 H        7.1100     0.8710    -0.0950 H     1 <1>   0.0800 
 22 H        8.2070     2.6150     1.2670 H     1 <1>   0.0800 
 23 H        7.8990     3.7990     0.0170 H     1 <1>   0.0800 
 24 H        9.3320     2.5220    -1.4750 H     1 <1>   0.4500 
 25 H        9.6230     1.4060    -0.2970 H     1 <1>   0.4500 
 26 H        9.6310     5.0710     0.2540 H     1 <1>   0.0800 
 27 H       10.1790     4.7890    -1.3890 H     1 <1>   0.0800 
 28 H       11.3140     5.1710    -0.1300 H     1 <1>   0.0800 
 29 H       11.6150     2.7430    -1.9020 H     1 <1>   0.0800 
 30 H       11.9240     1.5550    -0.6480 H     1 <1>   0.0800 
 31 H       12.6740     3.1190    -0.5800 H     1 <1>   0.0800 
 32 H       10.0750     3.3650     2.0570 H     1 <1>   0.0800 
 33 H       11.7740     3.4020     1.7380 H     1 <1>   0.0800 
 34 H       10.9350     1.8820     1.6820 H     1 <1>   0.0800 
@<TRIPOS>BOND
  1   1   2  1   
  2   2   3  ar  
  3   2   4  ar  
  4   3   5  ar  
  5   3  16  1   
  6   4   6  ar  
  7   4  17  1   
  8   5   7  ar  
  9   5  18  1   
 10   6   7  ar  
 11   6  19  1   
 12   7   8  1   
 13   8   9  1   
 14   9  10  1   
 15   9  20  1   
 16   9  21  1   
 17  10  11  1   
 18  10  22  1   
 19  10  23  1   
 20  11  12  1   
 21  11  24  1   
 22  11  25  1   
 23  12  13  1   
 24  12  14  1   
 25  12  15  1   
 26  13  26  1   
 27  13  27  1   
 28  13  28  1   
 29  14  29  1   
 30  14  30  1   
 31  14  31  1   
 32  15  32  1   
 33  15  33  1   
 34  15  34  1   
@<TRIPOS>SUBSTRUCTURE
  1 ****   9 GROUP 4 **** **** 0

# MOE 2024.06 (io_trps.svl 2023.06)
