@<TRIPOS>MOLECULE
NONAME
46 49 1 0 0 
SMALL
USER_CHARGES


@<TRIPOS>ATOM
  1 F       -0.5680     2.1510     0.5350 F     1 <1>  -0.1900 
  2 C       -0.9380     2.7690    -0.5560 C.ar  1 <1>   0.1900 
  3 C       -2.1660     2.4600    -1.1320 C.ar  1 <1>  -0.1440 
  4 C       -0.0830     3.7190    -1.0810 C.ar  1 <1>  -0.1500 
  5 C       -2.5460     3.1430    -2.2820 C.ar  1 <1>  -0.1500 
  6 C       -3.0850     1.4020    -0.5370 C.3   1 <1>   0.2540 
  7 C       -0.4980     4.3720    -2.2240 C.ar  1 <1>   0.1900 
  8 C       -1.7110     4.1040    -2.8340 C.ar  1 <1>  -0.1500 
  9 N       -4.2540     2.0360     0.1050 N.3   1 <1>  -0.8100 
 10 F        0.2820     5.2780    -2.7470 F     1 <1>  -0.1900 
 11 C       -5.2580     1.0230     0.5090 C.3   1 <1>   0.1100 
 12 C       -3.8610     2.8710     1.2710 C.3   1 <1>   0.1100 
 13 C       -6.5070     1.6610     1.1670 C.3   1 <1>   0.3430 
 14 C       -5.0790     3.5050     1.9880 C.3   1 <1>   0.3430 
 15 N       -6.3550     3.1500     1.2900 N.4   1 <1>  -0.9590 
 16 C       -7.5560     3.8450     1.8160 C.3   1 <1>   0.4860 
 17 C       -8.7360     3.5240     0.9200 C.ar  1 <1>  -0.1430 
 18 C       -8.7890     4.0470    -0.3710 C.ar  1 <1>  -0.1500 
 19 C       -9.7630     2.6970     1.3820 C.ar  1 <1>  -0.1500 
 20 C       -9.8680     3.7120    -1.1640 C.ar  1 <1>   0.0830 
 21 C      -10.8400     2.3760     0.5660 C.ar  1 <1>  -0.1500 
 22 O      -10.1160     4.0890    -2.4210 O.3   1 <1>  -0.3630 
 23 C      -10.8640     2.8990    -0.7110 C.ar  1 <1>   0.0830 
 24 C      -11.3590     3.4910    -2.7900 C.3   1 <1>   0.4000 
 25 O      -11.7860     2.7270    -1.6630 O.3   1 <1>  -0.3620 
 26 H        0.8620     3.9410    -0.6220 H     1 <1>   0.1500 
 27 H       -3.4930     2.9280    -2.7470 H     1 <1>   0.1500 
 28 H       -2.5570     0.7890     0.1750 H     1 <1>   0.0800 
 29 H       -3.4200     0.7610    -1.3340 H     1 <1>   0.0800 
 30 H       -1.9930     4.6390    -3.7240 H     1 <1>   0.1500 
 31 H       -4.8160     0.3230     1.1990 H     1 <1>   0.0800 
 32 H       -5.5740     0.4660    -0.3570 H     1 <1>   0.0800 
 33 H       -3.2150     3.6680     0.9410 H     1 <1>   0.0800 
 34 H       -3.3030     2.2800     1.9770 H     1 <1>   0.0800 
 35 H       -6.6620     1.2220     2.1390 H     1 <1>   0.0800 
 36 H       -7.3700     1.4300     0.5630 H     1 <1>   0.0800 
 37 H       -4.9520     4.5750     2.0060 H     1 <1>   0.0800 
 38 H       -5.1070     3.1590     3.0080 H     1 <1>   0.0800 
 39 H       -6.2030     3.4470     0.3140 H     1 <1>   0.4500 
 40 H       -7.3950     4.9110     1.8240 H     1 <1>   0.0800 
 41 H       -7.7620     3.5220     2.8240 H     1 <1>   0.0800 
 42 H       -8.0310     4.6970    -0.7690 H     1 <1>   0.1500 
 43 H       -9.7400     2.2950     2.3810 H     1 <1>   0.1500 
 44 H      -11.6420     1.7420     0.9020 H     1 <1>   0.1500 
 45 H      -11.2120     2.8400    -3.6340 H     1 <1>   0.0800 
 46 H      -12.0810     4.2600    -2.9990 H     1 <1>   0.0800 
@<TRIPOS>BOND
  1   1   2  1   
  2   2   3  ar  
  3   2   4  ar  
  4   3   5  ar  
  5   3   6  1   
  6   4   7  ar  
  7   4  26  1   
  8   5   8  ar  
  9   5  27  1   
 10   6   9  1   
 11   6  28  1   
 12   6  29  1   
 13   7   8  ar  
 14   7  10  1   
 15   8  30  1   
 16   9  11  1   
 17   9  12  1   
 18  11  13  1   
 19  11  31  1   
 20  11  32  1   
 21  12  14  1   
 22  12  33  1   
 23  12  34  1   
 24  13  15  1   
 25  13  35  1   
 26  13  36  1   
 27  14  15  1   
 28  14  37  1   
 29  14  38  1   
 30  15  16  1   
 31  15  39  1   
 32  16  17  1   
 33  16  40  1   
 34  16  41  1   
 35  17  18  ar  
 36  17  19  ar  
 37  18  20  ar  
 38  18  42  1   
 39  19  21  ar  
 40  19  43  1   
 41  20  22  1   
 42  20  23  ar  
 43  21  23  ar  
 44  21  44  1   
 45  22  24  1   
 46  23  25  1   
 47  24  25  1   
 48  24  45  1   
 49  24  46  1   
@<TRIPOS>SUBSTRUCTURE
  1 ****  15 GROUP 4 **** **** 0

# MOE 2024.06 (io_trps.svl 2023.06)
