@<TRIPOS>MOLECULE
NONAME
47 50 1 0 0 
SMALL
USER_CHARGES


@<TRIPOS>ATOM
  1 O       -0.7330    -0.1890     1.1750 O.3   1 <1>  -0.3630 
  2 C       -1.7940    -0.6590     0.4750 C.ar  1 <1>   0.0830 
  3 C       -0.0680    -0.9830     2.1320 C.3   1 <1>   0.0400 
  4 C       -2.3620    -1.9130     0.6750 C.ar  1 <1>  -0.1500 
  5 C       -2.3210     0.1800    -0.4920 C.ar  1 <1>  -0.1500 
  6 C       -3.4500    -2.3100    -0.0830 C.ar  1 <1>  -0.1500 
  7 C       -3.4070    -0.2160    -1.2500 C.ar  1 <1>  -0.1500 
  8 C       -3.9840    -1.4610    -1.0430 C.ar  1 <1>  -0.1430 
  9 C       -5.1940    -1.8830    -1.8540 C.3   1 <1>   0.4860 
 10 N       -6.4000    -1.7870    -0.9860 N.4   1 <1>  -0.9590 
 11 C       -7.5870    -2.4130    -1.6380 C.3   1 <1>   0.3430 
 12 C       -6.6540    -0.3740    -0.5610 C.3   1 <1>   0.3430 
 13 C       -8.7740    -2.3970    -0.6810 C.3   1 <1>  -0.1600 
 14 C       -7.8280    -0.3260     0.4090 C.3   1 <1>  -0.1600 
 15 C       -9.0710    -0.9760    -0.2000 C.3   1 <1>   0.2820 
 16 C      -10.2490    -0.9510     0.7710 C.ar  1 <1>  -0.1430 
 17 C       -9.6420    -0.1220    -1.3290 C.2   1 <1>  -0.2880 
 18 C      -11.2830    -0.2020     0.2380 C.ar  1 <1>   0.0280 
 19 C      -10.3740    -1.5470     2.0140 C.ar  1 <1>  -0.1500 
 20 C      -10.8810     0.2900    -1.0420 C.2   1 <1>  -0.1780 
 21 C      -12.4630    -0.0390     0.9460 C.ar  1 <1>  -0.1500 
 22 C      -11.5540    -1.3840     2.7220 C.ar  1 <1>  -0.1500 
 23 C      -12.5940    -0.6340     2.1900 C.ar  1 <1>  -0.1500 
 24 H        0.7500    -0.4090     2.5300 H     1 <1>   0.0800 
 25 H        0.3080    -1.8690     1.6510 H     1 <1>   0.0800 
 26 H       -0.7560    -1.2320     2.9200 H     1 <1>   0.0800 
 27 H       -1.9670    -2.5870     1.4120 H     1 <1>   0.1500 
 28 H       -1.8670     1.1440    -0.6440 H     1 <1>   0.1500 
 29 H       -3.8660    -3.2880     0.0870 H     1 <1>   0.1500 
 30 H       -3.7880     0.4600    -1.9980 H     1 <1>   0.1500 
 31 H       -5.0560    -2.8980    -2.1910 H     1 <1>   0.0800 
 32 H       -5.3000    -1.2470    -2.7180 H     1 <1>   0.0800 
 33 H       -6.1760    -2.3140    -0.1330 H     1 <1>   0.4500 
 34 H       -7.3650    -3.4320    -1.9140 H     1 <1>   0.0800 
 35 H       -7.8430    -1.8690    -2.5330 H     1 <1>   0.0800 
 36 H       -6.8750     0.2350    -1.4230 H     1 <1>   0.0800 
 37 H       -5.7790     0.0320    -0.0770 H     1 <1>   0.0800 
 38 H       -8.5690    -3.0350     0.1590 H     1 <1>   0.0800 
 39 H       -9.6420    -2.7900    -1.1810 H     1 <1>   0.0800 
 40 H       -8.0470     0.6990     0.6550 H     1 <1>   0.0800 
 41 H       -7.5610    -0.8250     1.3230 H     1 <1>   0.0800 
 42 H       -9.0690     0.0860    -2.2140 H     1 <1>   0.1500 
 43 H       -9.5750    -2.1300     2.4350 H     1 <1>   0.1500 
 44 H      -11.5380     0.9020    -1.6370 H     1 <1>   0.1500 
 45 H      -13.2650     0.5430     0.5290 H     1 <1>   0.1500 
 46 H      -11.6690    -1.8410     3.6900 H     1 <1>   0.1500 
 47 H      -13.5060    -0.5140     2.7480 H     1 <1>   0.1500 
@<TRIPOS>BOND
  1   1   2  1   
  2   1   3  1   
  3   2   4  ar  
  4   2   5  ar  
  5   3  24  1   
  6   3  25  1   
  7   3  26  1   
  8   4   6  ar  
  9   4  27  1   
 10   5   7  ar  
 11   5  28  1   
 12   6   8  ar  
 13   6  29  1   
 14   7   8  ar  
 15   7  30  1   
 16   8   9  1   
 17   9  10  1   
 18   9  31  1   
 19   9  32  1   
 20  10  11  1   
 21  10  12  1   
 22  10  33  1   
 23  11  13  1   
 24  11  34  1   
 25  11  35  1   
 26  12  14  1   
 27  12  36  1   
 28  12  37  1   
 29  13  15  1   
 30  13  38  1   
 31  13  39  1   
 32  14  15  1   
 33  14  40  1   
 34  14  41  1   
 35  15  16  1   
 36  15  17  1   
 37  16  18  ar  
 38  16  19  ar  
 39  17  20  2   
 40  17  42  1   
 41  18  20  1   
 42  18  21  ar  
 43  19  22  ar  
 44  19  43  1   
 45  20  44  1   
 46  21  23  ar  
 47  21  45  1   
 48  22  23  ar  
 49  22  46  1   
 50  23  47  1   
@<TRIPOS>SUBSTRUCTURE
  1 ****  12 GROUP 4 **** **** 0

# MOE 2024.06 (io_trps.svl 2023.06)
