@<TRIPOS>MOLECULE
NONAME
37 37 1 0 0 
SMALL
USER_CHARGES


@<TRIPOS>ATOM
  1 I       -1.4110    -0.1510     0.9280 I     1 <1>  -0.0810 
  2 C       -0.8890     1.7630     0.1420 C.ar  1 <1>   0.0810 
  3 C       -1.8840     2.6780    -0.2110 C.ar  1 <1>   0.0860 
  4 C        0.4620     2.0230     0.0020 C.ar  1 <1>  -0.1500 
  5 C       -3.2960     2.4200    -0.0500 C.2   1 <1>   0.5440 
  6 C       -1.4470     3.8920    -0.7410 C.ar  1 <1>  -0.1500 
  7 C        0.8570     3.2420    -0.5180 C.ar  1 <1>  -0.1500 
  8 O       -3.9980     2.1660    -1.0080 O.2   1 <1>  -0.5700 
  9 N       -3.8810     2.4780     1.1870 N.am  1 <1>  -0.7300 
 10 C       -0.0990     4.1730    -0.8910 C.ar  1 <1>  -0.1500 
 11 C       -5.2430     1.9790     1.5170 C.3   1 <1>   0.1400 
 12 C       -6.3300     2.6680     0.6610 C.3   1 <1>   0.3430 
 13 N       -7.3850     1.7290     0.1460 N.4   1 <1>  -0.9590 
 14 C       -6.7990     0.7460    -0.8140 C.3   1 <1>   0.3430 
 15 C       -8.4710     2.5270    -0.4860 C.3   1 <1>   0.3430 
 16 C       -7.1450    -0.6610    -0.3420 C.3   1 <1>  -0.2400 
 17 C       -9.7100     1.6650    -0.6990 C.3   1 <1>  -0.2400 
 18 H        1.1960     1.2900     0.2880 H     1 <1>   0.1500 
 19 H       -2.1770     4.6240    -1.0420 H     1 <1>   0.1500 
 20 H        1.9040     3.4670    -0.6370 H     1 <1>   0.1500 
 21 H       -3.2600     2.6340     1.9890 H     1 <1>   0.3700 
 22 H        0.2100     5.1200    -1.3020 H     1 <1>   0.1500 
 23 H       -5.4410     2.1690     2.5580 H     1 <1>   0.0800 
 24 H       -5.2510     0.9150     1.3620 H     1 <1>   0.0800 
 25 H       -5.8560     3.1500    -0.1790 H     1 <1>   0.0800 
 26 H       -6.7920     3.4370     1.2570 H     1 <1>   0.0800 
 27 H       -7.7860     1.2050     0.9320 H     1 <1>   0.4500 
 28 H       -5.7280     0.8450    -0.8550 H     1 <1>   0.0800 
 29 H       -7.1850     0.9100    -1.8070 H     1 <1>   0.0800 
 30 H       -8.1330     2.9310    -1.4280 H     1 <1>   0.0800 
 31 H       -8.7320     3.3520     0.1570 H     1 <1>   0.0800 
 32 H       -6.7250    -0.8550     0.6280 H     1 <1>   0.0800 
 33 H       -6.7240    -1.3720    -1.0300 H     1 <1>   0.0800 
 34 H       -8.2080    -0.8160    -0.3160 H     1 <1>   0.0800 
 35 H       -9.5320     0.8990    -1.4310 H     1 <1>   0.0800 
 36 H      -10.5080     2.2850    -1.0670 H     1 <1>   0.0800 
 37 H      -10.0340     1.2220     0.2250 H     1 <1>   0.0800 
@<TRIPOS>BOND
  1   1   2  1   
  2   2   3  ar  
  3   2   4  ar  
  4   3   5  1   
  5   3   6  ar  
  6   4   7  ar  
  7   4  18  1   
  8   5   8  2   
  9   5   9  am  
 10   6  10  ar  
 11   6  19  1   
 12   7  10  ar  
 13   7  20  1   
 14   9  11  1   
 15   9  21  1   
 16  10  22  1   
 17  11  12  1   
 18  11  23  1   
 19  11  24  1   
 20  12  13  1   
 21  12  25  1   
 22  12  26  1   
 23  13  14  1   
 24  13  15  1   
 25  13  27  1   
 26  14  16  1   
 27  14  28  1   
 28  14  29  1   
 29  15  17  1   
 30  15  30  1   
 31  15  31  1   
 32  16  32  1   
 33  16  33  1   
 34  16  34  1   
 35  17  35  1   
 36  17  36  1   
 37  17  37  1   
@<TRIPOS>SUBSTRUCTURE
  1 ****   5 GROUP 4 **** **** 0

# MOE 2024.06 (io_trps.svl 2023.06)
