@<TRIPOS>MOLECULE
NONAME
52 53 1 0 0 
SMALL
USER_CHARGES


@<TRIPOS>ATOM
  1 O       -0.1180    -0.7630     0.3960 O.3   1 <1>  -0.5600 
  2 C        0.8040     0.1020     0.9880 C.3   1 <1>   0.1200 
  3 C        0.3230    -1.2960    -0.8180 C.3   1 <1>   0.1200 
  4 C        2.1280    -0.6360     1.2590 C.3   1 <1>   0.1100 
  5 C        1.6330    -2.0790    -0.6110 C.3   1 <1>   0.1100 
  6 N        2.6770    -1.2350     0.0170 N.3   1 <1>  -0.8100 
  7 C        3.9060    -2.0000     0.2480 C.3   1 <1>   0.1100 
  8 C        5.0930    -1.0400     0.4020 C.3   1 <1>   0.3430 
  9 N        6.3890    -1.7790     0.4730 N.4   1 <1>  -0.9060 
 10 C        7.5580    -0.8930     0.6320 C.3   1 <1>   0.4230 
 11 C        7.8280    -0.1340    -0.6710 C.3   1 <1>  -0.1600 
 12 C        8.7630    -1.7560     1.0060 C.3   1 <1>  -0.1600 
 13 C        9.0990     0.7210    -0.5590 C.3   1 <1>  -0.1600 
 14 C       10.0360    -0.9060     1.1290 C.3   1 <1>  -0.1600 
 15 C       10.3400    -0.1170    -0.1680 C.3   1 <1>  -0.0800 
 16 C       11.6680     0.7130    -0.1050 C.3   1 <1>   0.0000 
 17 C       12.8690    -0.2060     0.1900 C.3   1 <1>  -0.2400 
 18 C       11.9510     1.3880    -1.4600 C.3   1 <1>  -0.2400 
 19 C       11.6410     1.8130     0.9730 C.3   1 <1>  -0.2400 
 20 H        0.3750     0.4560     1.9090 H     1 <1>   0.0800 
 21 H        0.9610     0.9420     0.3330 H     1 <1>   0.0800 
 22 H        0.4660    -0.4920    -1.5180 H     1 <1>   0.0800 
 23 H       -0.4480    -1.9480    -1.1890 H     1 <1>   0.0800 
 24 H        1.9430    -1.4040     1.9920 H     1 <1>   0.0800 
 25 H        2.8300     0.0650     1.6730 H     1 <1>   0.0800 
 26 H        1.9780    -2.4290    -1.5680 H     1 <1>   0.0800 
 27 H        1.4260    -2.9360     0.0070 H     1 <1>   0.0800 
 28 H        4.0850    -2.6290    -0.6070 H     1 <1>   0.0800 
 29 H        3.7930    -2.6210     1.1210 H     1 <1>   0.0800 
 30 H        4.9570    -0.4530     1.2950 H     1 <1>   0.0800 
 31 H        5.0980    -0.3750    -0.4450 H     1 <1>   0.0800 
 32 H        6.5220    -2.3330    -0.3800 H     1 <1>   0.4500 
 33 H        6.3700    -2.4350     1.2620 H     1 <1>   0.4500 
 34 H        7.3800    -0.1850     1.4260 H     1 <1>   0.0800 
 35 H        7.0060     0.5210    -0.9020 H     1 <1>   0.0800 
 36 H        7.9530    -0.8270    -1.4840 H     1 <1>   0.0800 
 37 H        8.9280    -2.5090     0.2540 H     1 <1>   0.0800 
 38 H        8.5880    -2.2430     1.9490 H     1 <1>   0.0800 
 39 H        8.9360     1.4960     0.1690 H     1 <1>   0.0800 
 40 H        9.2570     1.1980    -1.5110 H     1 <1>   0.0800 
 41 H       10.8500    -1.5680     1.3620 H     1 <1>   0.0800 
 42 H        9.9240    -0.2250     1.9550 H     1 <1>   0.0800 
 43 H       10.4800    -0.8460    -0.9490 H     1 <1>   0.0800 
 44 H       13.7930     0.3380     0.1020 H     1 <1>   0.0800 
 45 H       12.8990    -1.0270    -0.5040 H     1 <1>   0.0800 
 46 H       12.8290    -0.5990     1.1890 H     1 <1>   0.0800 
 47 H       11.9240     0.6670    -2.2580 H     1 <1>   0.0800 
 48 H       12.9250     1.8460    -1.4600 H     1 <1>   0.0800 
 49 H       11.2380     2.1640    -1.6720 H     1 <1>   0.0800 
 50 H       12.5720     2.3520     0.9740 H     1 <1>   0.0800 
 51 H       10.8570     2.5230     0.7880 H     1 <1>   0.0800 
 52 H       11.5070     1.3970     1.9540 H     1 <1>   0.0800 
@<TRIPOS>BOND
  1   1   2  1   
  2   1   3  1   
  3   2   4  1   
  4   2  20  1   
  5   2  21  1   
  6   3   5  1   
  7   3  22  1   
  8   3  23  1   
  9   4   6  1   
 10   4  24  1   
 11   4  25  1   
 12   5   6  1   
 13   5  26  1   
 14   5  27  1   
 15   6   7  1   
 16   7   8  1   
 17   7  28  1   
 18   7  29  1   
 19   8   9  1   
 20   8  30  1   
 21   8  31  1   
 22   9  10  1   
 23   9  32  1   
 24   9  33  1   
 25  10  11  1   
 26  10  12  1   
 27  10  34  1   
 28  11  13  1   
 29  11  35  1   
 30  11  36  1   
 31  12  14  1   
 32  12  37  1   
 33  12  38  1   
 34  13  15  1   
 35  13  39  1   
 36  13  40  1   
 37  14  15  1   
 38  14  41  1   
 39  14  42  1   
 40  15  16  1   
 41  15  43  1   
 42  16  17  1   
 43  16  18  1   
 44  16  19  1   
 45  17  44  1   
 46  17  45  1   
 47  17  46  1   
 48  18  47  1   
 49  18  48  1   
 50  18  49  1   
 51  19  50  1   
 52  19  51  1   
 53  19  52  1   
@<TRIPOS>SUBSTRUCTURE
  1 ****  10 GROUP 4 **** **** 0

# MOE 2024.06 (io_trps.svl 2023.06)
