@<TRIPOS>MOLECULE
NONAME
43 45 1 0 0 
SMALL
USER_CHARGES


@<TRIPOS>ATOM
  1 O        0.3650     1.2230     2.7010 O.2   1 <1>  -0.5700 
  2 C       -0.0720     1.7150     1.6860 C.2   1 <1>   0.5690 
  3 N        0.7080     1.9140     0.5540 N.am  1 <1>  -0.4770 
  4 C       -1.5460     2.1110     1.7270 C.3   1 <1>   0.0450 
  5 C        1.9610     1.2850     0.3130 C.ar  1 <1>   0.1170 
  6 C        0.2970     2.9060    -0.4800 C.3   1 <1>   0.1400 
  7 C       -2.3670     1.4990     0.5880 C.ar  1 <1>  -0.1440 
  8 C        2.9340     1.9000    -0.4840 C.ar  1 <1>  -0.1440 
  9 C        2.2560     0.0270     0.8360 C.ar  1 <1>  -0.1500 
 10 C        1.4190     3.9270    -0.6560 C.3   1 <1>  -0.1600 
 11 C       -3.1450     2.2780    -0.2680 C.ar  1 <1>   0.0830 
 12 C       -2.3320     0.1240     0.4130 C.ar  1 <1>  -0.1500 
 13 C        4.1540     1.2810    -0.7060 C.ar  1 <1>  -0.1500 
 14 C        2.6900     3.2430    -1.1600 C.3   1 <1>  -0.0170 
 15 C        3.4740    -0.5850     0.6110 C.ar  1 <1>  -0.1500 
 16 O       -3.1610     3.6240    -0.0710 O.3   1 <1>  -0.3630 
 17 C       -3.8690     1.6650    -1.2880 C.ar  1 <1>  -0.1500 
 18 C       -3.0530    -0.4790    -0.6010 C.ar  1 <1>  -0.1500 
 19 C        4.4350     0.0410    -0.1620 C.ar  1 <1>  -0.1430 
 20 C       -4.0400     4.4680    -0.7840 C.3   1 <1>   0.0400 
 21 C       -3.8220     0.2930    -1.4530 C.ar  1 <1>  -0.1500 
 22 C        5.7780    -0.6220    -0.4090 C.3   1 <1>  -0.0970 
 23 H       -1.6090     3.1810     1.7490 H     1 <1>   0.0800 
 24 H       -1.9630     1.7630     2.6550 H     1 <1>   0.0800 
 25 H       -0.5940     3.4310    -0.1980 H     1 <1>   0.0800 
 26 H        0.1070     2.3900    -1.4050 H     1 <1>   0.0800 
 27 H        1.5270    -0.4890     1.4320 H     1 <1>   0.1500 
 28 H        1.6110     4.3980     0.2930 H     1 <1>   0.0800 
 29 H        1.1160     4.6890    -1.3520 H     1 <1>   0.0800 
 30 H       -1.7370    -0.4900     1.0690 H     1 <1>   0.1500 
 31 H        4.8950     1.7690    -1.3150 H     1 <1>   0.1500 
 32 H        2.5980     3.0700    -2.2180 H     1 <1>   0.0800 
 33 H        3.5330     3.8920    -1.0010 H     1 <1>   0.0800 
 34 H        3.6680    -1.5510     1.0420 H     1 <1>   0.1500 
 35 H       -4.4740     2.2360    -1.9660 H     1 <1>   0.1500 
 36 H       -3.0150    -1.5470    -0.7270 H     1 <1>   0.1500 
 37 H       -3.9190     5.4680    -0.4090 H     1 <1>   0.0800 
 38 H       -5.0500     4.1370    -0.6210 H     1 <1>   0.0800 
 39 H       -3.7860     4.4360    -1.8280 H     1 <1>   0.0800 
 40 H       -4.3830    -0.1760    -2.2420 H     1 <1>   0.1500 
 41 H        6.1450    -0.3720    -1.3870 H     1 <1>   0.0800 
 42 H        5.6880    -1.6910    -0.3430 H     1 <1>   0.0800 
 43 H        6.4880    -0.2870     0.3260 H     1 <1>   0.0800 
@<TRIPOS>BOND
  1   1   2  2   
  2   2   3  am  
  3   2   4  1   
  4   3   5  1   
  5   3   6  1   
  6   4   7  1   
  7   4  23  1   
  8   4  24  1   
  9   5   8  ar  
 10   5   9  ar  
 11   6  10  1   
 12   6  25  1   
 13   6  26  1   
 14   7  11  ar  
 15   7  12  ar  
 16   8  13  ar  
 17   8  14  1   
 18   9  15  ar  
 19   9  27  1   
 20  10  14  1   
 21  10  28  1   
 22  10  29  1   
 23  11  16  1   
 24  11  17  ar  
 25  12  18  ar  
 26  12  30  1   
 27  13  19  ar  
 28  13  31  1   
 29  14  32  1   
 30  14  33  1   
 31  15  19  ar  
 32  15  34  1   
 33  16  20  1   
 34  17  21  ar  
 35  17  35  1   
 36  18  21  ar  
 37  18  36  1   
 38  19  22  1   
 39  20  37  1   
 40  20  38  1   
 41  20  39  1   
 42  21  40  1   
 43  22  41  1   
 44  22  42  1   
 45  22  43  1   
@<TRIPOS>SUBSTRUCTURE
  1 ****   3 GROUP 4 **** **** 0

# MOE 2024.06 (io_trps.svl 2023.06)
