@<TRIPOS>MOLECULE
NONAME
35 36 1 0 0 
SMALL
USER_CHARGES


@<TRIPOS>ATOM
  1 S       -0.1370     0.0600     0.3020 S.o2  1 <1>   1.5760 
  2 O       -0.3170    -1.0090    -0.6490 O.2   1 <1>  -0.6500 
  3 O        0.1240    -0.2000     1.6980 O.2   1 <1>  -0.6500 
  4 N        0.9830     1.1620    -0.2970 N.am  1 <1>  -0.8490 
  5 N       -1.5000     0.9950     0.1810 N.am  1 <1>  -0.9140 
  6 C        1.2370     2.2450     0.6590 C.3   1 <1>   0.1960 
  7 C        2.2270     0.4860    -0.6710 C.3   1 <1>   0.1960 
  8 C       -2.6450     0.2990     0.7130 C.3   1 <1>   0.3390 
  9 C        2.1580     3.2980     0.0350 C.3   1 <1>  -0.1600 
 10 C        3.1890     1.4740    -1.3400 C.3   1 <1>  -0.1600 
 11 C       -3.8990     1.0100     0.2360 C.ar  1 <1>  -0.1430 
 12 C        3.4790     2.6770    -0.4350 C.3   1 <1>  -0.1600 
 13 C       -4.7270     0.4210    -0.7090 C.ar  1 <1>  -0.1500 
 14 C       -4.2260     2.2600     0.7400 C.ar  1 <1>  -0.1500 
 15 C       -5.8700     1.0720    -1.1390 C.ar  1 <1>  -0.1500 
 16 C       -5.3690     2.9120     0.3110 C.ar  1 <1>  -0.1500 
 17 C       -6.1920     2.3170    -0.6290 C.ar  1 <1>  -0.1500 
 18 H       -1.6420     1.0540    -0.8220 H     1 <1>   0.4200 
 19 H        1.6890     1.8480     1.5540 H     1 <1>   0.0800 
 20 H        0.3070     2.7140     0.9340 H     1 <1>   0.0800 
 21 H        2.0120    -0.3100    -1.3650 H     1 <1>   0.0800 
 22 H        2.6880     0.0560     0.2040 H     1 <1>   0.0800 
 23 H       -2.6040     0.3020     1.7900 H     1 <1>   0.0800 
 24 H       -2.6620    -0.7250     0.3760 H     1 <1>   0.0800 
 25 H        2.3570     4.0710     0.7560 H     1 <1>   0.0800 
 26 H        1.6490     3.7490    -0.8000 H     1 <1>   0.0800 
 27 H        2.7490     1.8110    -2.2620 H     1 <1>   0.0800 
 28 H        4.1090     0.9700    -1.5790 H     1 <1>   0.0800 
 29 H        4.0460     2.3530     0.4210 H     1 <1>   0.0800 
 30 H        4.0620     3.4080    -0.9670 H     1 <1>   0.0800 
 31 H       -4.4880    -0.5470    -1.1150 H     1 <1>   0.1500 
 32 H       -3.5850     2.7290     1.4670 H     1 <1>   0.1500 
 33 H       -6.5090     0.6100    -1.8710 H     1 <1>   0.1500 
 34 H       -5.6160     3.8810     0.7070 H     1 <1>   0.1500 
 35 H       -7.0810     2.8230    -0.9640 H     1 <1>   0.1500 
@<TRIPOS>BOND
  1   1   2  2   
  2   1   3  2   
  3   1   4  am  
  4   1   5  am  
  5   4   6  1   
  6   4   7  1   
  7   5   8  1   
  8   5  18  1   
  9   6   9  1   
 10   6  19  1   
 11   6  20  1   
 12   7  10  1   
 13   7  21  1   
 14   7  22  1   
 15   8  11  1   
 16   8  23  1   
 17   8  24  1   
 18   9  12  1   
 19   9  25  1   
 20   9  26  1   
 21  10  12  1   
 22  10  27  1   
 23  10  28  1   
 24  11  13  ar  
 25  11  14  ar  
 26  12  29  1   
 27  12  30  1   
 28  13  15  ar  
 29  13  31  1   
 30  14  16  ar  
 31  14  32  1   
 32  15  17  ar  
 33  15  33  1   
 34  16  17  ar  
 35  16  34  1   
 36  17  35  1   
@<TRIPOS>SUBSTRUCTURE
  1 ****   5 GROUP 4 **** **** 0

# MOE 2024.06 (io_trps.svl 2023.06)
