@<TRIPOS>MOLECULE
NONAME
40 40 1 0 0 
SMALL
USER_CHARGES


@<TRIPOS>ATOM
  1 O        0.4950     0.5430    -0.8830 O.2   1 <1>  -0.5700 
  2 C        1.5290     1.0750    -0.5560 C.2   1 <1>   0.6900 
  3 N        1.5840     2.3950    -0.2740 N.am  1 <1>  -0.4900 
  4 N        2.6840     0.3570    -0.4530 N.am  1 <1>  -0.5390 
  5 C        2.7370     3.0240     0.0880 C.2   1 <1>   0.6160 
  6 C        3.8860     0.9110    -0.0820 C.2   1 <1>  -0.0290 
  7 O        2.6620     4.2130     0.3290 O.2   1 <1>  -0.5700 
  8 C        3.9670     2.2630     0.1610 C.2   1 <1>   0.0140 
  9 C        5.0240    -0.0910     0.0490 C.3   1 <1>  -0.1020 
 10 C        5.1760     2.9780     0.4790 C.2   1 <1>  -0.1500 
 11 C        6.4260     2.7750    -0.0060 C.2   1 <1>  -0.1360 
 12 C        7.6240     3.4730     0.3330 C.2   1 <1>   0.7060 
 13 O        7.6770     4.3760     1.1430 O.2   1 <1>  -0.5700 
 14 O        8.7390     3.0600    -0.2660 O.3   1 <1>  -0.4300 
 15 C       10.0050     3.5780     0.0750 C.3   1 <1>   0.1200 
 16 C       11.0970     2.7300    -0.5930 C.3   1 <1>  -0.1600 
 17 C       11.3110     1.3360     0.0300 C.3   1 <1>  -0.1600 
 18 C       10.1190     0.3810    -0.1430 C.3   1 <1>  -0.1600 
 19 C       10.4690    -1.0410     0.3060 C.3   1 <1>  -0.1600 
 20 C        9.2640    -1.9740     0.1610 C.3   1 <1>  -0.2400 
 21 H        0.7320     2.9400    -0.3330 H     1 <1>   0.3700 
 22 H        2.5750    -0.6380    -0.6570 H     1 <1>   0.3700 
 23 H        4.6630    -1.0070     0.4820 H     1 <1>   0.0800 
 24 H        5.8020     0.2780     0.6910 H     1 <1>   0.0800 
 25 H        5.4380    -0.3100    -0.9190 H     1 <1>   0.0800 
 26 H        5.0360     3.7890     1.1790 H     1 <1>   0.1500 
 27 H        6.5930     2.0100    -0.7390 H     1 <1>   0.1500 
 28 H       10.0470     4.5970    -0.2710 H     1 <1>   0.0800 
 29 H       10.1110     3.5610     1.1470 H     1 <1>   0.0800 
 30 H       10.8840     2.6400    -1.6440 H     1 <1>   0.0800 
 31 H       12.0230     3.2700    -0.5040 H     1 <1>   0.0800 
 32 H       12.1740     0.8940    -0.4390 H     1 <1>   0.0800 
 33 H       11.5340     1.4410     1.0780 H     1 <1>   0.0800 
 34 H        9.2900     0.7290     0.4460 H     1 <1>   0.0800 
 35 H        9.8180     0.3670    -1.1770 H     1 <1>   0.0800 
 36 H       11.2830    -1.4190    -0.2890 H     1 <1>   0.0800 
 37 H       10.7860    -1.0280     1.3350 H     1 <1>   0.0800 
 38 H        8.9410    -2.0150    -0.8640 H     1 <1>   0.0800 
 39 H        8.4470    -1.6310     0.7710 H     1 <1>   0.0800 
 40 H        9.5300    -2.9680     0.4750 H     1 <1>   0.0800 
@<TRIPOS>BOND
  1   1   2  2   
  2   2   3  am  
  3   2   4  am  
  4   3   5  am  
  5   3  21  1   
  6   4   6  1   
  7   4  22  1   
  8   5   7  2   
  9   5   8  1   
 10   6   8  2   
 11   6   9  1   
 12   8  10  1   
 13   9  23  1   
 14   9  24  1   
 15   9  25  1   
 16  10  11  2   
 17  10  26  1   
 18  11  12  1   
 19  11  27  1   
 20  12  13  2   
 21  12  14  1   
 22  14  15  1   
 23  15  16  1   
 24  15  28  1   
 25  15  29  1   
 26  16  17  1   
 27  16  30  1   
 28  16  31  1   
 29  17  18  1   
 30  17  32  1   
 31  17  33  1   
 32  18  19  1   
 33  18  34  1   
 34  18  35  1   
 35  19  20  1   
 36  19  36  1   
 37  19  37  1   
 38  20  38  1   
 39  20  39  1   
 40  20  40  1   
@<TRIPOS>SUBSTRUCTURE
  1 ****  11 GROUP 4 **** **** 0

# MOE 2024.06 (io_trps.svl 2023.06)
