@<TRIPOS>MOLECULE
NONAME
53 55 1 0 0 
SMALL
USER_CHARGES


@<TRIPOS>ATOM
  1 O       -1.2140    -0.3290    -0.5520 O.2   1 <1>  -0.5700 
  2 C       -1.0320     0.8510    -0.7200 C.2   1 <1>   0.5940 
  3 C       -1.8810     1.8760    -0.1900 C.2   1 <1>  -0.2370 
  4 C        0.1310     1.3160    -1.5860 C.3   1 <1>  -0.0990 
  5 N       -2.8780     1.7650     0.7590 N.pl3 1 <1>   0.0480 
  6 C       -1.8070     3.1790    -0.5780 C.2   1 <1>  -0.1810 
  7 C       -0.2390     2.5520    -2.4380 C.3   1 <1>  -0.1600 
  8 C       -3.4310     3.0100     0.9470 C.ar  1 <1>  -0.1520 
  9 C       -3.3300     0.5540     1.4820 C.3   1 <1>   0.0960 
 10 C       -2.7780     3.9150     0.1170 C.ar  1 <1>   0.0000 
 11 C       -0.8050     3.7070    -1.5890 C.3   1 <1>   0.0210 
 12 C       -4.4620     3.4460     1.7880 C.ar  1 <1>  -0.1500 
 13 C       -4.6230     0.0260     0.8480 C.3   1 <1>   0.2000 
 14 C       -3.1580     5.2630     0.1140 C.ar  1 <1>  -0.1500 
 15 C       -4.8260     4.7710     1.7730 C.ar  1 <1>  -0.1500 
 16 O       -5.1660    -0.9720     1.6690 O.3   1 <1>  -0.6800 
 17 C       -4.4180    -0.5250    -0.5880 C.3   1 <1>   0.3430 
 18 C       -4.1760     5.6880     0.9350 C.ar  1 <1>  -0.1430 
 19 N       -4.4090    -2.0280    -0.6150 N.4   1 <1>  -0.9590 
 20 C       -4.6130     7.1410     0.9560 C.3   1 <1>  -0.0970 
 21 C       -3.0430    -2.5650    -0.3850 C.3   1 <1>   0.3430 
 22 C       -5.0520    -2.5840    -1.8320 C.3   1 <1>   0.3430 
 23 C       -3.1250    -4.0190     0.0650 C.3   1 <1>  -0.2400 
 24 C       -6.5630    -2.4080    -1.7350 C.3   1 <1>  -0.2400 
 25 H        0.4360     0.5120    -2.2310 H     1 <1>   0.0800 
 26 H        0.9550     1.5560    -0.9400 H     1 <1>   0.0800 
 27 H       -0.9860     2.2610    -3.1570 H     1 <1>   0.0800 
 28 H        0.6240     2.8940    -2.9830 H     1 <1>   0.0800 
 29 H       -2.5570    -0.1900     1.4670 H     1 <1>   0.0800 
 30 H       -3.5090     0.8310     2.5050 H     1 <1>   0.0800 
 31 H       -0.0070     4.1970    -1.0580 H     1 <1>   0.0800 
 32 H       -1.2770     4.4310    -2.2300 H     1 <1>   0.0800 
 33 H       -4.9640     2.7600     2.4440 H     1 <1>   0.1500 
 34 H       -5.3400     0.8300     0.8080 H     1 <1>   0.0800 
 35 H       -2.6400     5.9440    -0.5340 H     1 <1>   0.1500 
 36 H       -5.6170     5.1210     2.4140 H     1 <1>   0.1500 
 37 H       -5.4630    -0.6020     2.5290 H     1 <1>   0.4000 
 38 H       -3.5130    -0.1310    -1.0170 H     1 <1>   0.0800 
 39 H       -5.2320    -0.1610    -1.1900 H     1 <1>   0.0800 
 40 H       -4.9710    -2.2840     0.2180 H     1 <1>   0.4500 
 41 H       -4.0310     7.7270     0.2680 H     1 <1>   0.0800 
 42 H       -4.4850     7.5470     1.9440 H     1 <1>   0.0800 
 43 H       -5.6490     7.2160     0.6800 H     1 <1>   0.0800 
 44 H       -2.5590    -1.9970     0.3920 H     1 <1>   0.0800 
 45 H       -2.4470    -2.4760    -1.2800 H     1 <1>   0.0800 
 46 H       -4.8350    -3.6360    -1.9140 H     1 <1>   0.0800 
 47 H       -4.6710    -2.0920    -2.7130 H     1 <1>   0.0800 
 48 H       -3.7370    -4.1090     0.9440 H     1 <1>   0.0800 
 49 H       -2.1360    -4.3620     0.3120 H     1 <1>   0.0800 
 50 H       -3.5050    -4.6550    -0.7130 H     1 <1>   0.0800 
 51 H       -6.9440    -2.8850    -0.8490 H     1 <1>   0.0800 
 52 H       -6.8440    -1.3710    -1.7370 H     1 <1>   0.0800 
 53 H       -7.0260    -2.8740    -2.5870 H     1 <1>   0.0800 
@<TRIPOS>BOND
  1   1   2  2   
  2   2   3  1   
  3   2   4  1   
  4   3   5  1   
  5   3   6  2   
  6   4   7  1   
  7   4  25  1   
  8   4  26  1   
  9   5   8  1   
 10   5   9  1   
 11   6  10  1   
 12   6  11  1   
 13   7  11  1   
 14   7  27  1   
 15   7  28  1   
 16   8  10  ar  
 17   8  12  ar  
 18   9  13  1   
 19   9  29  1   
 20   9  30  1   
 21  10  14  ar  
 22  11  31  1   
 23  11  32  1   
 24  12  15  ar  
 25  12  33  1   
 26  13  16  1   
 27  13  17  1   
 28  13  34  1   
 29  14  18  ar  
 30  14  35  1   
 31  15  18  ar  
 32  15  36  1   
 33  16  37  1   
 34  17  19  1   
 35  17  38  1   
 36  17  39  1   
 37  18  20  1   
 38  19  21  1   
 39  19  22  1   
 40  19  40  1   
 41  20  41  1   
 42  20  42  1   
 43  20  43  1   
 44  21  23  1   
 45  21  44  1   
 46  21  45  1   
 47  22  24  1   
 48  22  46  1   
 49  22  47  1   
 50  23  48  1   
 51  23  49  1   
 52  23  50  1   
 53  24  51  1   
 54  24  52  1   
 55  24  53  1   
@<TRIPOS>SUBSTRUCTURE
  1 ****   5 GROUP 4 **** **** 0

# MOE 2024.06 (io_trps.svl 2023.06)
