@<TRIPOS>MOLECULE
NONAME
41 42 1 0 0 
SMALL
USER_CHARGES


@<TRIPOS>ATOM
  1 O        0.1010     2.4600    -2.2690 O.2   1 <1>  -0.5700 
  2 C        0.0370     2.4690    -1.0640 C.2   1 <1>   0.5690 
  3 N        1.0170     1.9610    -0.2780 N.am  1 <1>  -0.7300 
  4 C       -1.1830     3.0660    -0.3920 C.3   1 <1>  -0.0990 
  5 C        2.2510     1.3230    -0.7600 C.3   1 <1>   0.2200 
  6 C       -2.1360     1.9770     0.1340 C.3   1 <1>  -0.1600 
  7 C        2.3000    -0.1060    -0.2340 C.3   1 <1>  -0.1600 
  8 C        3.4430     1.9870    -0.0820 C.3   1 <1>  -0.1600 
  9 C       -3.3170     2.5340     0.9520 C.3   1 <1>  -0.0800 
 10 C        2.8120    -0.0030     1.2070 C.3   1 <1>  -0.1600 
 11 C        3.5510     1.3390     1.3030 C.3   1 <1>  -0.1600 
 12 C       -4.1060     1.3690     1.5760 C.3   1 <1>  -0.1600 
 13 C       -4.2520     3.4140     0.0990 C.3   1 <1>  -0.1600 
 14 C       -5.3090     1.8660     2.3880 C.3   1 <1>  -0.1600 
 15 C       -5.4610     3.9060     0.9060 C.3   1 <1>  -0.1600 
 16 C       -6.2320     2.7360     1.5270 C.3   1 <1>  -0.1600 
 17 H        0.9170     1.9710     0.7350 H     1 <1>   0.3700 
 18 H       -1.6870     3.6830    -1.1130 H     1 <1>   0.0800 
 19 H       -0.8580     3.6960     0.4150 H     1 <1>   0.0800 
 20 H        2.3110     1.3680    -1.8360 H     1 <1>   0.0800 
 21 H       -1.5730     1.3040     0.7580 H     1 <1>   0.0800 
 22 H       -2.5090     1.4060    -0.6990 H     1 <1>   0.0800 
 23 H        3.0140    -0.6580    -0.8200 H     1 <1>   0.0800 
 24 H        1.3450    -0.5970    -0.3060 H     1 <1>   0.0800 
 25 H        3.3400     3.0570    -0.0370 H     1 <1>   0.0800 
 26 H        4.3280     1.7520    -0.6470 H     1 <1>   0.0800 
 27 H       -2.9240     3.1360     1.7540 H     1 <1>   0.0800 
 28 H        3.4620    -0.8280     1.4420 H     1 <1>   0.0800 
 29 H        1.9810    -0.0100     1.8920 H     1 <1>   0.0800 
 30 H        3.0740     1.9640     2.0390 H     1 <1>   0.0800 
 31 H        4.5820     1.2010     1.5820 H     1 <1>   0.0800 
 32 H       -3.4610     0.7970     2.2210 H     1 <1>   0.0800 
 33 H       -4.4560     0.7150     0.7960 H     1 <1>   0.0800 
 34 H       -4.6010     2.8490    -0.7490 H     1 <1>   0.0800 
 35 H       -3.7220     4.2720    -0.2720 H     1 <1>   0.0800 
 36 H       -4.9600     2.4400     3.2290 H     1 <1>   0.0800 
 37 H       -5.8600     1.0240     2.7690 H     1 <1>   0.0800 
 38 H       -6.1180     4.4680     0.2640 H     1 <1>   0.0800 
 39 H       -5.1230     4.5640     1.6880 H     1 <1>   0.0800 
 40 H       -7.0390     3.1150     2.1320 H     1 <1>   0.0800 
 41 H       -6.6600     2.1350     0.7440 H     1 <1>   0.0800 
@<TRIPOS>BOND
  1   1   2  2   
  2   2   3  am  
  3   2   4  1   
  4   3   5  1   
  5   3  17  1   
  6   4   6  1   
  7   4  18  1   
  8   4  19  1   
  9   5   7  1   
 10   5   8  1   
 11   5  20  1   
 12   6   9  1   
 13   6  21  1   
 14   6  22  1   
 15   7  10  1   
 16   7  23  1   
 17   7  24  1   
 18   8  11  1   
 19   8  25  1   
 20   8  26  1   
 21   9  12  1   
 22   9  13  1   
 23   9  27  1   
 24  10  11  1   
 25  10  28  1   
 26  10  29  1   
 27  11  30  1   
 28  11  31  1   
 29  12  14  1   
 30  12  32  1   
 31  12  33  1   
 32  13  15  1   
 33  13  34  1   
 34  13  35  1   
 35  14  16  1   
 36  14  36  1   
 37  14  37  1   
 38  15  16  1   
 39  15  38  1   
 40  15  39  1   
 41  16  40  1   
 42  16  41  1   
@<TRIPOS>SUBSTRUCTURE
  1 ****   6 GROUP 4 **** **** 0

# MOE 2024.06 (io_trps.svl 2023.06)
