@<TRIPOS>MOLECULE
NONAME
50 53 1 0 0 
SMALL
USER_CHARGES


@<TRIPOS>ATOM
  1 O        1.1080     1.1980     2.3740 O.2   1 <1>  -0.5700 
  2 C        1.1860     1.8160     1.3170 C.2   1 <1>   0.7160 
  3 N        2.3030     1.6920     0.5000 N.am  1 <1>  -0.2290 
  4 C        0.1500     2.6720     0.8750 C.2   1 <1>  -0.0860 
  5 C        2.3340     2.4040    -0.7120 C.2   1 <1>   0.4960 
  6 C        3.3850     0.8810     0.8470 C.2   1 <1>  -0.0410 
  7 C        0.2890     3.3210    -0.3250 C.2   1 <1>  -0.0260 
  8 C       -1.0900     3.0600     1.3930 C.2   1 <1>  -0.1500 
  9 N        1.3720     3.1900    -1.1280 N.2   1 <1>  -0.5760 
 10 C        3.4910     2.2470    -1.5270 C.2   1 <1>  -0.1360 
 11 C        4.4740     0.7520     0.0500 C.2   1 <1>  -0.1500 
 12 N       -0.8120     4.0870    -0.5530 N.pl3 1 <1>   0.0480 
 13 C       -1.6820     3.9240     0.5070 C.2   1 <1>  -0.2370 
 14 C        4.5340     1.4530    -1.1750 C.2   1 <1>  -0.1500 
 15 C       -1.0240     4.9470    -1.7360 C.3   1 <1>   0.0160 
 16 C       -2.9580     4.5840     0.6000 C.2   1 <1>   0.7150 
 17 O       -3.0520     5.7580     0.2860 O.2   1 <1>  -0.5700 
 18 N       -4.0870     3.9180     1.0330 N.am  1 <1>  -0.6600 
 19 C       -5.3210     4.6520     1.4250 C.3   1 <1>   0.1400 
 20 C       -4.2310     2.4380     0.9830 C.3   1 <1>   0.1400 
 21 C       -6.4560     4.2990     0.4610 C.3   1 <1>  -0.1600 
 22 C       -5.3670     2.0640     0.0270 C.3   1 <1>  -0.1600 
 23 C       -6.6860     2.7760     0.3870 C.3   1 <1>  -0.0190 
 24 C       -7.8000     2.3880    -0.5840 C.2   1 <1>   0.6590 
 25 O       -8.2410     3.1460    -1.4090 O.2   1 <1>  -0.5700 
 26 O       -8.2530     1.1470    -0.4590 O.3   1 <1>  -0.4300 
 27 C       -9.2730     0.6510    -1.2940 C.3   1 <1>   0.1200 
 28 C       -9.5440    -0.7970    -0.9000 C.3   1 <1>  -0.2400 
 29 H        3.3170     0.3550     1.7870 H     1 <1>   0.1500 
 30 H       -1.4830     2.7230     2.3370 H     1 <1>   0.1500 
 31 H        3.4960     2.7980    -2.4500 H     1 <1>   0.1500 
 32 H        5.3050     0.1240     0.3250 H     1 <1>   0.1500 
 33 H        5.4060     1.3410    -1.7980 H     1 <1>   0.1500 
 34 H       -0.2650     4.7530    -2.4710 H     1 <1>   0.0800 
 35 H       -0.9750     5.9770    -1.4340 H     1 <1>   0.0800 
 36 H       -1.9910     4.7430    -2.1570 H     1 <1>   0.0800 
 37 H       -5.1550     5.7160     1.4150 H     1 <1>   0.0800 
 38 H       -5.5910     4.3710     2.4290 H     1 <1>   0.0800 
 39 H       -4.4440     2.0720     1.9730 H     1 <1>   0.0800 
 40 H       -3.3250     1.9710     0.6400 H     1 <1>   0.0800 
 41 H       -6.2090     4.6820    -0.5150 H     1 <1>   0.0800 
 42 H       -7.3590     4.7880     0.7810 H     1 <1>   0.0800 
 43 H       -5.5110     0.9980     0.0540 H     1 <1>   0.0800 
 44 H       -5.0770     2.3280    -0.9760 H     1 <1>   0.0800 
 45 H       -6.9930     2.4410     1.3620 H     1 <1>   0.0800 
 46 H       -8.9390     0.7180    -2.3160 H     1 <1>   0.0800 
 47 H      -10.1500     1.2610    -1.1590 H     1 <1>   0.0800 
 48 H       -8.6560    -1.3900    -1.0290 H     1 <1>   0.0800 
 49 H      -10.3200    -1.2020    -1.5240 H     1 <1>   0.0800 
 50 H       -9.8670    -0.8490     0.1240 H     1 <1>   0.0800 
@<TRIPOS>BOND
  1   1   2  2   
  2   2   3  am  
  3   2   4  1   
  4   3   5  1   
  5   3   6  1   
  6   4   7  2   
  7   4   8  1   
  8   5   9  2   
  9   5  10  1   
 10   6  11  2   
 11   6  29  1   
 12   7   9  1   
 13   7  12  1   
 14   8  13  2   
 15   8  30  1   
 16  10  14  2   
 17  10  31  1   
 18  11  14  1   
 19  11  32  1   
 20  12  13  1   
 21  12  15  1   
 22  13  16  1   
 23  14  33  1   
 24  15  34  1   
 25  15  35  1   
 26  15  36  1   
 27  16  17  2   
 28  16  18  am  
 29  18  19  1   
 30  18  20  1   
 31  19  21  1   
 32  19  37  1   
 33  19  38  1   
 34  20  22  1   
 35  20  39  1   
 36  20  40  1   
 37  21  23  1   
 38  21  41  1   
 39  21  42  1   
 40  22  23  1   
 41  22  43  1   
 42  22  44  1   
 43  23  24  1   
 44  23  45  1   
 45  24  25  2   
 46  24  26  1   
 47  26  27  1   
 48  27  28  1   
 49  27  46  1   
 50  27  47  1   
 51  28  48  1   
 52  28  49  1   
 53  28  50  1   
@<TRIPOS>SUBSTRUCTURE
  1 ****  13 GROUP 4 **** **** 0

# MOE 2024.06 (io_trps.svl 2023.06)
