@<TRIPOS>MOLECULE
NONAME
24 25 1 0 0 
SMALL
USER_CHARGES


@<TRIPOS>ATOM
  1 N       -0.4000     0.3230     0.2580 N.1   1 <1>  -0.5570 
  2 C       -1.4090     0.8530     0.1880 C.1   1 <1>   0.4840 
  3 C       -2.6760     1.5060     0.0700 C.ar  1 <1>   0.0730 
  4 C       -2.7160     2.9060     0.0030 C.ar  1 <1>   0.4100 
  5 C       -3.8720     0.8010     0.0200 C.ar  1 <1>  -0.1440 
  6 N       -3.8210     3.6180    -0.1090 N.ar  1 <1>  -0.6200 
  7 N       -1.6020     3.6920     0.0440 N.pl3 1 <1>  -0.9000 
  8 C       -5.0370     1.5470    -0.0880 C.ar  1 <1>  -0.1430 
  9 C       -3.9050    -0.7280     0.1050 C.3   1 <1>  -0.0170 
 10 C       -4.9440     2.9290    -0.1480 C.ar  1 <1>   0.1600 
 11 C       -6.4150     0.8980    -0.1560 C.3   1 <1>  -0.0170 
 12 C       -5.2550    -1.3230    -0.3130 C.3   1 <1>  -0.1600 
 13 C       -6.4070    -0.5530     0.3350 C.3   1 <1>  -0.1600 
 14 H       -1.7870     4.6760    -0.1610 H     1 <1>   0.4000 
 15 H       -0.7110     3.3440    -0.3160 H     1 <1>   0.4000 
 16 H       -3.7000    -1.0150     1.1220 H     1 <1>   0.0800 
 17 H       -3.1380    -1.1560    -0.5180 H     1 <1>   0.0800 
 18 H       -5.8520     3.5020    -0.2370 H     1 <1>   0.1500 
 19 H       -6.7490     0.9210    -1.1790 H     1 <1>   0.0800 
 20 H       -7.1160     1.4640     0.4330 H     1 <1>   0.0800 
 21 H       -5.2950    -2.3590    -0.0240 H     1 <1>   0.0800 
 22 H       -5.3500    -1.2740    -1.3850 H     1 <1>   0.0800 
 23 H       -7.3450    -1.0210     0.0930 H     1 <1>   0.0800 
 24 H       -6.2920    -0.5690     1.4060 H     1 <1>   0.0800 
@<TRIPOS>BOND
  1   1   2  3   
  2   2   3  1   
  3   3   4  ar  
  4   3   5  ar  
  5   4   6  ar  
  6   4   7  1   
  7   5   8  ar  
  8   5   9  1   
  9   6  10  ar  
 10   7  14  1   
 11   7  15  1   
 12   8  10  ar  
 13   8  11  1   
 14   9  12  1   
 15   9  16  1   
 16   9  17  1   
 17  10  18  1   
 18  11  13  1   
 19  11  19  1   
 20  11  20  1   
 21  12  13  1   
 22  12  21  1   
 23  12  22  1   
 24  13  23  1   
 25  13  24  1   
@<TRIPOS>SUBSTRUCTURE
  1 ****   5 GROUP 4 **** **** 0

# MOE 2024.06 (io_trps.svl 2023.06)
