@<TRIPOS>MOLECULE
NONAME
30 30 1 0 0 
SMALL
USER_CHARGES


@<TRIPOS>ATOM
  1 CL       0.0330    -0.2260    -1.4300 Cl    1 <1>  -0.1770 
  2 C        1.3770     0.6380    -0.7080 C.ar  1 <1>   0.1770 
  3 C        1.2490     1.9530    -0.2400 C.ar  1 <1>   0.4270 
  4 C        2.5920    -0.0020    -0.6550 C.ar  1 <1>  -0.1500 
  5 N        2.2810     2.6600     0.2020 N.ar  1 <1>  -0.6200 
  6 N        0.0590     2.6500    -0.2180 N.am  1 <1>  -0.5470 
  7 C        3.6640     0.7220    -0.1510 C.ar  1 <1>  -0.1430 
  8 C        3.4460     2.0320     0.2470 C.ar  1 <1>   0.1600 
  9 C       -1.1050     2.2840     0.3890 C.2   1 <1>   0.5690 
 10 C        5.0710     0.1490    -0.0260 C.3   1 <1>   1.1640 
 11 O       -1.2060     1.2330     0.9760 O.2   1 <1>  -0.5700 
 12 C       -2.2940     3.2760     0.3370 C.3   1 <1>   0.0610 
 13 F        5.9290     0.7770    -0.8170 F     1 <1>  -0.3400 
 14 F        5.1420    -1.1380    -0.3420 F     1 <1>  -0.3400 
 15 F        5.5470     0.2610     1.2060 F     1 <1>  -0.3400 
 16 C       -1.9220     4.5920     1.0480 C.3   1 <1>  -0.2400 
 17 C       -3.5490     2.7030     1.0280 C.3   1 <1>  -0.2400 
 18 C       -2.6650     3.5910    -1.1250 C.3   1 <1>  -0.2400 
 19 H        2.6850    -1.0180    -1.0030 H     1 <1>   0.1500 
 20 H        0.1690     3.6400    -0.4080 H     1 <1>   0.3700 
 21 H        4.2770     2.6060     0.6280 H     1 <1>   0.1500 
 22 H       -1.6470     4.3940     2.0690 H     1 <1>   0.0800 
 23 H       -2.7550     5.2730     1.0470 H     1 <1>   0.0800 
 24 H       -1.0930     5.0770     0.5630 H     1 <1>   0.0800 
 25 H       -3.3400     2.4890     2.0620 H     1 <1>   0.0800 
 26 H       -3.8490     1.7860     0.5530 H     1 <1>   0.0800 
 27 H       -4.3690     3.3970     0.9820 H     1 <1>   0.0800 
 28 H       -1.8450     4.0550    -1.6440 H     1 <1>   0.0800 
 29 H       -3.5090     4.2560    -1.1690 H     1 <1>   0.0800 
 30 H       -2.9220     2.6830    -1.6440 H     1 <1>   0.0800 
@<TRIPOS>BOND
  1   1   2  1   
  2   2   3  ar  
  3   2   4  ar  
  4   3   5  ar  
  5   3   6  1   
  6   4   7  ar  
  7   4  19  1   
  8   5   8  ar  
  9   6   9  am  
 10   6  20  1   
 11   7   8  ar  
 12   7  10  1   
 13   8  21  1   
 14   9  11  2   
 15   9  12  1   
 16  10  13  1   
 17  10  14  1   
 18  10  15  1   
 19  12  16  1   
 20  12  17  1   
 21  12  18  1   
 22  16  22  1   
 23  16  23  1   
 24  16  24  1   
 25  17  25  1   
 26  17  26  1   
 27  17  27  1   
 28  18  28  1   
 29  18  29  1   
 30  18  30  1   
@<TRIPOS>SUBSTRUCTURE
  1 ****   3 GROUP 4 **** **** 0

# MOE 2024.06 (io_trps.svl 2023.06)
