@<TRIPOS>MOLECULE
NONAME
49 51 1 0 0 
SMALL
USER_CHARGES


@<TRIPOS>ATOM
  1 N        0.3120     0.9510    -1.0690 N.pl3 1 <1>  -0.8380 
  2 C       -0.8750     1.1280    -0.3580 C.ar  1 <1>   0.1000 
  3 C        1.5860     1.3560    -0.4060 C.3   1 <1>   0.2090 
  4 C        0.3760    -0.1910    -2.0250 C.3   1 <1>   0.2090 
  5 C       -1.7800     2.1250    -0.7190 C.ar  1 <1>  -0.1440 
  6 C       -1.1730     0.3050     0.7250 C.ar  1 <1>  -0.1500 
  7 C        2.3640     0.1380     0.1320 C.3   1 <1>   0.3430 
  8 C        1.1740    -1.3770    -1.4440 C.3   1 <1>   0.3430 
  9 C       -2.9540     2.2790     0.0000 C.ar  1 <1>  -0.1500 
 10 C       -1.4950     3.0500    -1.8930 C.3   1 <1>  -0.0970 
 11 C       -2.3460     0.4600     1.4420 C.ar  1 <1>  -0.1440 
 12 N        2.5150    -0.9600    -0.8960 N.4   1 <1>  -0.9590 
 13 C       -3.2370     1.4520     1.0730 C.ar  1 <1>  -0.1500 
 14 C       -2.6730    -0.4370     2.6230 C.3   1 <1>  -0.0970 
 15 C        3.2860    -2.1140    -0.3620 C.3   1 <1>   0.4860 
 16 C        4.6770    -1.6340    -0.0030 C.ar  1 <1>  -0.1440 
 17 C        5.6040    -1.3600    -0.9980 C.ar  1 <1>  -0.1500 
 18 C        5.0320    -1.4570     1.3260 C.ar  1 <1>  -0.1500 
 19 C        6.8650    -0.8980    -0.6660 C.ar  1 <1>  -0.1500 
 20 C        6.2950    -0.9950     1.6540 C.ar  1 <1>  -0.1500 
 21 C        7.2150    -0.7100     0.6600 C.ar  1 <1>  -0.1440 
 22 C        8.6020    -0.2060     1.0220 C.3   1 <1>  -0.0970 
 23 H        1.3670     2.0270     0.4080 H     1 <1>   0.0800 
 24 H        2.1940     1.8930    -1.1130 H     1 <1>   0.0800 
 25 H        0.8300     0.1440    -2.9410 H     1 <1>   0.0800 
 26 H       -0.6250    -0.5150    -2.2600 H     1 <1>   0.0800 
 27 H       -0.4820    -0.4620     1.0070 H     1 <1>   0.1500 
 28 H        1.8380    -0.2420     0.9900 H     1 <1>   0.0800 
 29 H        3.3360     0.4680     0.4630 H     1 <1>   0.0800 
 30 H        1.3040    -2.1180    -2.2150 H     1 <1>   0.0800 
 31 H        0.5850    -1.8180    -0.6580 H     1 <1>   0.0800 
 32 H       -3.6590     3.0450    -0.2700 H     1 <1>   0.1500 
 33 H       -1.4090     2.4750    -2.7970 H     1 <1>   0.0800 
 34 H       -0.5710     3.5730    -1.7270 H     1 <1>   0.0800 
 35 H       -2.2800     3.7730    -2.0200 H     1 <1>   0.0800 
 36 H        3.0700    -0.5610    -1.6630 H     1 <1>   0.4500 
 37 H       -4.1540     1.5870     1.6190 H     1 <1>   0.1500 
 38 H       -1.8900    -1.1520     2.7970 H     1 <1>   0.0800 
 39 H       -3.5880    -0.9690     2.4340 H     1 <1>   0.0800 
 40 H       -2.7960     0.1590     3.5090 H     1 <1>   0.0800 
 41 H        3.3590    -2.8910    -1.1060 H     1 <1>   0.0800 
 42 H        2.7990    -2.5200     0.5100 H     1 <1>   0.0800 
 43 H        5.3660    -1.5040    -2.0380 H     1 <1>   0.1500 
 44 H        4.3400    -1.6750     2.1220 H     1 <1>   0.1500 
 45 H        7.5810    -0.6890    -1.4430 H     1 <1>   0.1500 
 46 H        6.5640    -0.8620     2.6880 H     1 <1>   0.1500 
 47 H        9.2710    -1.0390     1.1420 H     1 <1>   0.0800 
 48 H        8.5740     0.3510     1.9410 H     1 <1>   0.0800 
 49 H        8.9840     0.4360     0.2490 H     1 <1>   0.0800 
@<TRIPOS>BOND
  1   1   2  1   
  2   1   3  1   
  3   1   4  1   
  4   2   5  ar  
  5   2   6  ar  
  6   3   7  1   
  7   3  23  1   
  8   3  24  1   
  9   4   8  1   
 10   4  25  1   
 11   4  26  1   
 12   5   9  ar  
 13   5  10  1   
 14   6  11  ar  
 15   6  27  1   
 16   7  12  1   
 17   7  28  1   
 18   7  29  1   
 19   8  12  1   
 20   8  30  1   
 21   8  31  1   
 22   9  13  ar  
 23   9  32  1   
 24  10  33  1   
 25  10  34  1   
 26  10  35  1   
 27  11  13  ar  
 28  11  14  1   
 29  12  15  1   
 30  12  36  1   
 31  13  37  1   
 32  14  38  1   
 33  14  39  1   
 34  14  40  1   
 35  15  16  1   
 36  15  41  1   
 37  15  42  1   
 38  16  17  ar  
 39  16  18  ar  
 40  17  19  ar  
 41  17  43  1   
 42  18  20  ar  
 43  18  44  1   
 44  19  21  ar  
 45  19  45  1   
 46  20  21  ar  
 47  20  46  1   
 48  21  22  1   
 49  22  47  1   
 50  22  48  1   
 51  22  49  1   
@<TRIPOS>SUBSTRUCTURE
  1 ****   7 GROUP 4 **** **** 0

# MOE 2024.06 (io_trps.svl 2023.06)
