@<TRIPOS>MOLECULE
NONAME
46 47 1 0 0 
SMALL
USER_CHARGES


@<TRIPOS>ATOM
  1 O        0.4120     1.6050     1.8160 O.2   1 <1>  -0.5700 
  2 C        0.4770     2.1370     0.7240 C.2   1 <1>   0.6160 
  3 N        1.6150     1.9400    -0.0170 N.am  1 <1>  -0.7300 
  4 C       -0.6270     2.9400     0.2500 C.2   1 <1>   0.0790 
  5 C        2.7820     1.1430     0.3870 C.3   1 <1>   0.2200 
  6 C       -0.4610     3.4500    -1.0730 C.1   1 <1>   0.4920 
  7 C       -1.7470     3.1870     0.9880 C.2   1 <1>  -0.1780 
  8 C        2.8350    -0.1070    -0.5020 C.3   1 <1>  -0.1600 
  9 C        4.0150     2.0320     0.2390 C.3   1 <1>  -0.2400 
 10 N       -0.2620     3.8500    -2.1230 N.1   1 <1>  -0.5570 
 11 C       -2.9090     3.9650     0.6550 C.ar  1 <1>   0.0280 
 12 C        3.9470    -1.0890    -0.1050 C.3   1 <1>  -0.2400 
 13 C       -4.2210     3.4570     0.8890 C.ar  1 <1>   0.0000 
 14 C       -2.7730     5.2310     0.1240 C.ar  1 <1>  -0.1500 
 15 C       -5.3470     4.2630     0.5910 C.ar  1 <1>   0.0000 
 16 C       -4.4560     2.1580     1.4000 C.ar  1 <1>  -0.1500 
 17 C       -3.8760     6.0190    -0.1850 C.ar  1 <1>  -0.1500 
 18 C       -5.1500     5.5550     0.0430 C.ar  1 <1>   0.0820 
 19 C       -6.6370     3.7440     0.8450 C.ar  1 <1>  -0.1500 
 20 C       -5.7180     1.6850     1.6300 C.ar  1 <1>  -0.1500 
 21 O       -6.2540     6.2870    -0.2370 O.3   1 <1>  -0.3630 
 22 C       -6.8240     2.4890     1.3530 C.ar  1 <1>  -0.1500 
 23 C       -6.1980     7.5750    -0.8040 C.3   1 <1>   0.1200 
 24 C       -7.6290     8.0720    -0.9820 C.3   1 <1>  -0.2400 
 25 H        1.6960     2.3530    -0.9500 H     1 <1>   0.3700 
 26 H        2.6820     0.8440     1.4190 H     1 <1>   0.0800 
 27 H       -1.8040     2.7460     1.9700 H     1 <1>   0.1500 
 28 H        1.8920    -0.6210    -0.4170 H     1 <1>   0.0800 
 29 H        2.9690     0.1810    -1.5300 H     1 <1>   0.0800 
 30 H        4.1750     2.2980    -0.7900 H     1 <1>   0.0800 
 31 H        4.8880     1.5190     0.6000 H     1 <1>   0.0800 
 32 H        3.8950     2.9250     0.8250 H     1 <1>   0.0800 
 33 H        3.8520    -1.3660     0.9300 H     1 <1>   0.0800 
 34 H        4.9190    -0.6570    -0.2640 H     1 <1>   0.0800 
 35 H        3.8760    -1.9810    -0.7030 H     1 <1>   0.0800 
 36 H       -1.7970     5.6460    -0.0540 H     1 <1>   0.1500 
 37 H       -3.6240     1.5140     1.6140 H     1 <1>   0.1500 
 38 H       -3.6930     6.9930    -0.6000 H     1 <1>   0.1500 
 39 H       -7.4910     4.3600     0.6290 H     1 <1>   0.1500 
 40 H       -5.8760     0.6950     2.0230 H     1 <1>   0.1500 
 41 H       -7.8130     2.1100     1.5400 H     1 <1>   0.1500 
 42 H       -5.6520     8.2180    -0.1370 H     1 <1>   0.0800 
 43 H       -5.6970     7.5070    -1.7550 H     1 <1>   0.0800 
 44 H       -8.1250     8.1180    -0.0290 H     1 <1>   0.0800 
 45 H       -8.1700     7.4120    -1.6370 H     1 <1>   0.0800 
 46 H       -7.6220     9.0560    -1.4150 H     1 <1>   0.0800 
@<TRIPOS>BOND
  1   1   2  2   
  2   2   3  am  
  3   2   4  1   
  4   3   5  1   
  5   3  25  1   
  6   4   6  1   
  7   4   7  2   
  8   5   8  1   
  9   5   9  1   
 10   5  26  1   
 11   6  10  3   
 12   7  11  1   
 13   7  27  1   
 14   8  12  1   
 15   8  28  1   
 16   8  29  1   
 17   9  30  1   
 18   9  31  1   
 19   9  32  1   
 20  11  13  ar  
 21  11  14  ar  
 22  12  33  1   
 23  12  34  1   
 24  12  35  1   
 25  13  15  ar  
 26  13  16  ar  
 27  14  17  ar  
 28  14  36  1   
 29  15  18  ar  
 30  15  19  ar  
 31  16  20  ar  
 32  16  37  1   
 33  17  18  ar  
 34  17  38  1   
 35  18  21  1   
 36  19  22  ar  
 37  19  39  1   
 38  20  22  ar  
 39  20  40  1   
 40  21  23  1   
 41  22  41  1   
 42  23  24  1   
 43  23  42  1   
 44  23  43  1   
 45  24  44  1   
 46  24  45  1   
 47  24  46  1   
@<TRIPOS>SUBSTRUCTURE
  1 ****  11 GROUP 4 **** **** 0

# MOE 2024.06 (io_trps.svl 2023.06)
