@<TRIPOS>MOLECULE
NONAME
27 28 1 0 0 
SMALL
USER_CHARGES


@<TRIPOS>ATOM
  1 S        0.1590    -0.0810     0.3720 S.3   1 <1>  -0.4600 
  2 C       -1.0710    -1.3850     0.2260 C.3   1 <1>   0.0700 
  3 C       -0.9320     1.3330     0.1600 C.3   1 <1>   0.0700 
  4 C       -2.3330    -0.6740    -0.2910 C.3   1 <1>   0.4230 
  5 C       -2.3370     0.7440     0.3040 C.3   1 <1>  -0.1600 
  6 N       -3.5880    -1.4090     0.0690 N.4   1 <1>  -0.9590 
  7 C       -3.5690    -2.8400    -0.4140 C.3   1 <1>   0.3430 
  8 C       -4.8260    -0.7190    -0.4520 C.3   1 <1>   0.3430 
  9 C       -4.9010    -3.5600    -0.1270 C.3   1 <1>   0.1200 
 10 C       -6.1020    -1.5350    -0.1640 C.3   1 <1>   0.1200 
 11 O       -5.9660    -2.8330    -0.6620 O.3   1 <1>  -0.5600 
 12 H       -1.2000    -1.7920     1.2130 H     1 <1>   0.0800 
 13 H       -0.6900    -2.1200    -0.4600 H     1 <1>   0.0800 
 14 H       -0.7490     1.7290    -0.8250 H     1 <1>   0.0800 
 15 H       -0.6960     2.0660     0.9140 H     1 <1>   0.0800 
 16 H       -2.2530    -0.5940    -1.3630 H     1 <1>   0.0800 
 17 H       -3.0380     1.3870    -0.1950 H     1 <1>   0.0800 
 18 H       -2.5740     0.7020     1.3520 H     1 <1>   0.0800 
 19 H       -3.6570    -1.4290     1.0940 H     1 <1>   0.4500 
 20 H       -2.7700    -3.3840     0.0620 H     1 <1>   0.0800 
 21 H       -3.3980    -2.8640    -1.4780 H     1 <1>   0.0800 
 22 H       -4.7470    -0.5830    -1.5180 H     1 <1>   0.0800 
 23 H       -4.9270     0.2540    -0.0010 H     1 <1>   0.0800 
 24 H       -5.0600    -3.6850     0.9310 H     1 <1>   0.0800 
 25 H       -4.9050    -4.5320    -0.5900 H     1 <1>   0.0800 
 26 H       -6.9480    -1.0850    -0.6550 H     1 <1>   0.0800 
 27 H       -6.3060    -1.5860     0.8910 H     1 <1>   0.0800 
@<TRIPOS>BOND
  1   1   2  1   
  2   1   3  1   
  3   2   4  1   
  4   2  12  1   
  5   2  13  1   
  6   3   5  1   
  7   3  14  1   
  8   3  15  1   
  9   4   5  1   
 10   4   6  1   
 11   4  16  1   
 12   5  17  1   
 13   5  18  1   
 14   6   7  1   
 15   6   8  1   
 16   6  19  1   
 17   7   9  1   
 18   7  20  1   
 19   7  21  1   
 20   8  10  1   
 21   8  22  1   
 22   8  23  1   
 23   9  11  1   
 24   9  24  1   
 25   9  25  1   
 26  10  11  1   
 27  10  26  1   
 28  10  27  1   
@<TRIPOS>SUBSTRUCTURE
  1 ****   6 GROUP 4 **** **** 0

# MOE 2024.06 (io_trps.svl 2023.06)
