@<TRIPOS>MOLECULE
NONAME
43 44 1 0 0 
SMALL
USER_CHARGES


@<TRIPOS>ATOM
  1 O       -0.6140     0.3420    -0.0180 O.3   1 <1>  -0.3630 
  2 C        0.6320     0.8980    -0.0200 C.ar  1 <1>   0.0830 
  3 C       -1.7810     1.1290    -0.0180 C.3   1 <1>   0.1200 
  4 C        1.7340     0.0380    -0.0190 C.ar  1 <1>   0.0830 
  5 C        0.8360     2.2760    -0.0210 C.ar  1 <1>  -0.1500 
  6 C       -2.9830     0.1870    -0.0150 C.3   1 <1>  -0.1600 
  7 O        1.4990    -1.3070    -0.0180 O.3   1 <1>  -0.3630 
  8 C        3.0210     0.5720    -0.0200 C.ar  1 <1>  -0.1500 
  9 C        2.1190     2.7930    -0.0220 C.ar  1 <1>  -0.1500 
 10 C       -4.3050     0.9680    -0.0140 C.3   1 <1>  -0.1600 
 11 C        2.5520    -2.2440    -0.0170 C.3   1 <1>   0.0400 
 12 C        3.2100     1.9430    -0.0220 C.ar  1 <1>  -0.1500 
 13 C       -5.5030     0.0190    -0.0120 C.3   1 <1>   0.1200 
 14 O       -6.6770     0.7980    -0.0110 O.3   1 <1>  -0.3630 
 15 C       -7.9120     0.2280    -0.0090 C.ar  1 <1>   0.0830 
 16 C       -9.0140     1.0780    -0.0080 C.ar  1 <1>  -0.1430 
 17 C       -8.1070    -1.1520    -0.0070 C.ar  1 <1>  -0.1500 
 18 C      -10.2930     0.5430    -0.0060 C.ar  1 <1>  -0.1500 
 19 C       -8.8270     2.5880    -0.0100 C.3   1 <1>  -0.0970 
 20 C       -9.3880    -1.6750    -0.0040 C.ar  1 <1>  -0.1500 
 21 C      -10.4810    -0.8280    -0.0040 C.ar  1 <1>  -0.1500 
 22 H       -1.7770     1.7420    -0.9030 H     1 <1>   0.0800 
 23 H       -1.7750     1.7430     0.8660 H     1 <1>   0.0800 
 24 H        0.0130     2.9640    -0.0220 H     1 <1>   0.1500 
 25 H       -2.9330    -0.4380     0.8600 H     1 <1>   0.0800 
 26 H       -2.9350    -0.4390    -0.8900 H     1 <1>   0.0800 
 27 H        3.8870    -0.0600    -0.0200 H     1 <1>   0.1500 
 28 H        2.2700     3.8590    -0.0240 H     1 <1>   0.1500 
 29 H       -4.3550     1.5910    -0.8900 H     1 <1>   0.0800 
 30 H       -4.3530     1.5930     0.8610 H     1 <1>   0.0800 
 31 H        2.1200    -3.2290    -0.0160 H     1 <1>   0.0800 
 32 H        3.1440    -2.1040     0.8690 H     1 <1>   0.0800 
 33 H        3.1430    -2.1060    -0.9050 H     1 <1>   0.0800 
 34 H        4.2070     2.3480    -0.0230 H     1 <1>   0.1500 
 35 H       -5.5020    -0.5940     0.8730 H     1 <1>   0.0800 
 36 H       -5.5040    -0.5960    -0.8950 H     1 <1>   0.0800 
 37 H       -7.2800    -1.8350    -0.0070 H     1 <1>   0.1500 
 38 H      -11.1510     1.1920    -0.0050 H     1 <1>   0.1500 
 39 H       -8.2750     2.8860     0.8630 H     1 <1>   0.0800 
 40 H       -9.7730     3.0990    -0.0090 H     1 <1>   0.0800 
 41 H       -8.2770     2.8840    -0.8850 H     1 <1>   0.0800 
 42 H       -9.5360    -2.7410    -0.0030 H     1 <1>   0.1500 
 43 H      -11.4780    -1.2330    -0.0020 H     1 <1>   0.1500 
@<TRIPOS>BOND
  1   1   2  1   
  2   1   3  1   
  3   2   4  ar  
  4   2   5  ar  
  5   3   6  1   
  6   3  22  1   
  7   3  23  1   
  8   4   7  1   
  9   4   8  ar  
 10   5   9  ar  
 11   5  24  1   
 12   6  10  1   
 13   6  25  1   
 14   6  26  1   
 15   7  11  1   
 16   8  12  ar  
 17   8  27  1   
 18   9  12  ar  
 19   9  28  1   
 20  10  13  1   
 21  10  29  1   
 22  10  30  1   
 23  11  31  1   
 24  11  32  1   
 25  11  33  1   
 26  12  34  1   
 27  13  14  1   
 28  13  35  1   
 29  13  36  1   
 30  14  15  1   
 31  15  16  ar  
 32  15  17  ar  
 33  16  18  ar  
 34  16  19  1   
 35  17  20  ar  
 36  17  37  1   
 37  18  21  ar  
 38  18  38  1   
 39  19  39  1   
 40  19  40  1   
 41  19  41  1   
 42  20  21  ar  
 43  20  42  1   
 44  21  43  1   
@<TRIPOS>SUBSTRUCTURE
  1 ****   6 GROUP 4 **** **** 0

# MOE 2024.06 (io_trps.svl 2023.06)
