@<TRIPOS>MOLECULE
NONAME
56 59 1 0 0 
SMALL
USER_CHARGES


@<TRIPOS>ATOM
  1 CL       0.8490    -1.5390    -2.1950 Cl    1 <1>  -0.1770 
  2 C        1.9270    -1.4240    -0.8270 C.ar  1 <1>   0.1770 
  3 C        3.0940    -0.6980    -0.9450 C.ar  1 <1>  -0.1500 
  4 C        1.5920    -2.0640     0.3520 C.ar  1 <1>  -0.1500 
  5 C        3.9580    -0.6000     0.1360 C.ar  1 <1>   0.1000 
  6 C        2.4500    -1.9710     1.4360 C.ar  1 <1>  -0.1500 
  7 N        5.1320     0.1330     0.0110 N.pl3 1 <1>  -0.8380 
  8 C        3.6230    -1.2440     1.3250 C.ar  1 <1>  -0.1500 
  9 C        6.4000    -0.6420    -0.0130 C.3   1 <1>   0.2090 
 10 C        5.2030     1.4090     0.7700 C.3   1 <1>   0.2090 
 11 C        7.5560     0.2430    -0.5260 C.3   1 <1>   0.3430 
 12 C        6.3710     2.2740     0.2500 C.3   1 <1>   0.3430 
 13 N        7.7130     1.5510     0.2420 N.4   1 <1>  -0.9590 
 14 C        8.8360     2.4040    -0.2760 C.3   1 <1>   0.4230 
 15 C       10.1630     1.6290    -0.2500 C.3   1 <1>  -0.1600 
 16 C        8.9740     3.6870     0.5610 C.3   1 <1>  -0.1600 
 17 C       11.3460     2.4990    -0.6740 C.3   1 <1>   0.3430 
 18 C       10.1740     4.5340     0.1290 C.3   1 <1>   0.3430 
 19 N       11.4140     3.7180     0.1790 N.4   1 <1>  -0.9590 
 20 C       12.6160     4.5430    -0.1630 C.3   1 <1>   0.4860 
 21 C       13.8500     3.7200     0.1440 C.ar  1 <1>  -0.1430 
 22 C       14.2390     3.5050     1.4590 C.ar  1 <1>  -0.1500 
 23 C       14.5940     3.1650    -0.8880 C.ar  1 <1>  -0.1500 
 24 C       15.3490     2.7270     1.7370 C.ar  1 <1>  -0.1500 
 25 C       15.7040     2.3890    -0.6070 C.ar  1 <1>  -0.1500 
 26 C       16.0790     2.1670     0.7050 C.ar  1 <1>  -0.1500 
 27 H        3.3310    -0.2100    -1.8710 H     1 <1>   0.1500 
 28 H        0.6760    -2.6240     0.4160 H     1 <1>   0.1500 
 29 H        2.2020    -2.4650     2.3600 H     1 <1>   0.1500 
 30 H        4.2830    -1.1770     2.1700 H     1 <1>   0.1500 
 31 H        6.2810    -1.4910    -0.6660 H     1 <1>   0.0800 
 32 H        6.6210    -1.0120     0.9730 H     1 <1>   0.0800 
 33 H        5.3280     1.2040     1.8190 H     1 <1>   0.0800 
 34 H        4.2760     1.9440     0.6450 H     1 <1>   0.0800 
 35 H        7.3670     0.4560    -1.5650 H     1 <1>   0.0800 
 36 H        8.4630    -0.3350    -0.4670 H     1 <1>   0.0800 
 37 H        6.4270     3.1560     0.8640 H     1 <1>   0.0800 
 38 H        6.1240     2.5850    -0.7520 H     1 <1>   0.0800 
 39 H        7.9100     1.2910     1.2180 H     1 <1>   0.4500 
 40 H        8.6200     2.6800    -1.2970 H     1 <1>   0.0800 
 41 H       10.1300     0.8020    -0.9360 H     1 <1>   0.0800 
 42 H       10.3560     1.2410     0.7360 H     1 <1>   0.0800 
 43 H        9.0790     3.4460     1.6050 H     1 <1>   0.0800 
 44 H        8.1030     4.3050     0.4450 H     1 <1>   0.0800 
 45 H       11.2410     2.7840    -1.7100 H     1 <1>   0.0800 
 46 H       12.2590     1.9300    -0.5780 H     1 <1>   0.0800 
 47 H       10.2670     5.3870     0.7830 H     1 <1>   0.0800 
 48 H       10.0190     4.9000    -0.8750 H     1 <1>   0.0800 
 49 H       11.5920     3.4110     1.1470 H     1 <1>   0.4500 
 50 H       12.6370     5.4430     0.4300 H     1 <1>   0.0800 
 51 H       12.6050     4.8180    -1.2050 H     1 <1>   0.0800 
 52 H       13.7000     3.9390     2.2840 H     1 <1>   0.1500 
 53 H       14.3310     3.3290    -1.9200 H     1 <1>   0.1500 
 54 H       15.6540     2.5590     2.7570 H     1 <1>   0.1500 
 55 H       16.2830     1.9570    -1.4070 H     1 <1>   0.1500 
 56 H       16.9450     1.5630     0.9240 H     1 <1>   0.1500 
@<TRIPOS>BOND
  1   1   2  1   
  2   2   3  ar  
  3   2   4  ar  
  4   3   5  ar  
  5   3  27  1   
  6   4   6  ar  
  7   4  28  1   
  8   5   7  1   
  9   5   8  ar  
 10   6   8  ar  
 11   6  29  1   
 12   7   9  1   
 13   7  10  1   
 14   8  30  1   
 15   9  11  1   
 16   9  31  1   
 17   9  32  1   
 18  10  12  1   
 19  10  33  1   
 20  10  34  1   
 21  11  13  1   
 22  11  35  1   
 23  11  36  1   
 24  12  13  1   
 25  12  37  1   
 26  12  38  1   
 27  13  14  1   
 28  13  39  1   
 29  14  15  1   
 30  14  16  1   
 31  14  40  1   
 32  15  17  1   
 33  15  41  1   
 34  15  42  1   
 35  16  18  1   
 36  16  43  1   
 37  16  44  1   
 38  17  19  1   
 39  17  45  1   
 40  17  46  1   
 41  18  19  1   
 42  18  47  1   
 43  18  48  1   
 44  19  20  1   
 45  19  49  1   
 46  20  21  1   
 47  20  50  1   
 48  20  51  1   
 49  21  22  ar  
 50  21  23  ar  
 51  22  24  ar  
 52  22  52  1   
 53  23  25  ar  
 54  23  53  1   
 55  24  26  ar  
 56  24  54  1   
 57  25  26  ar  
 58  25  55  1   
 59  26  56  1   
@<TRIPOS>SUBSTRUCTURE
  1 ****  13 GROUP 4 **** **** 0

# MOE 2024.06 (io_trps.svl 2023.06)
