@<TRIPOS>MOLECULE
NONAME
44 47 1 0 0 
SMALL
USER_CHARGES


@<TRIPOS>ATOM
  1 BR      -0.6040     0.3100    -2.0750 Br    1 <1>  -0.1110 
  2 C       -1.9360    -0.7350    -1.1620 C.ar  1 <1>   0.1110 
  3 C       -1.8000    -0.9490     0.1960 C.ar  1 <1>  -0.1500 
  4 C       -2.9950    -1.2450    -1.8860 C.ar  1 <1>  -0.1500 
  5 C       -2.7620    -1.7020     0.8480 C.ar  1 <1>  -0.1500 
  6 C       -3.9500    -1.9950    -1.2220 C.ar  1 <1>  -0.1500 
  7 C       -3.8410    -2.2290     0.1470 C.ar  1 <1>  -0.1430 
  8 C       -4.8890    -3.0590     0.8980 C.3   1 <1>   0.3640 
  9 N       -5.4090    -4.1780     0.0720 N.am  1 <1>  -0.2980 
 10 C       -6.1650    -2.2800     1.2470 C.3   1 <1>  -0.0190 
 11 N       -6.7330    -3.9680    -0.2470 N.2   1 <1>  -0.5120 
 12 C       -4.6440    -5.2680    -0.3240 C.2   1 <1>   0.5690 
 13 C       -7.1750    -2.9270     0.3340 C.2   1 <1>   0.3030 
 14 C       -6.1910    -0.7520     1.0580 C.3   1 <1>  -0.1600 
 15 O       -5.0750    -6.1640    -1.0100 O.2   1 <1>  -0.5700 
 16 C       -3.1970    -5.3870     0.1110 C.3   1 <1>  -0.1790 
 17 C       -8.4720    -2.3120     0.2070 C.ar  1 <1>   0.0860 
 18 C       -7.5950    -0.2200     1.3860 C.3   1 <1>  -0.0170 
 19 C       -8.7030    -1.0170     0.6960 C.ar  1 <1>  -0.1430 
 20 C       -9.5220    -2.9820    -0.4180 C.ar  1 <1>  -0.1500 
 21 C       -9.9530    -0.4370     0.5630 C.ar  1 <1>  -0.1500 
 22 C      -10.7740    -2.3960    -0.5520 C.ar  1 <1>   0.0830 
 23 C      -10.9830    -1.1210    -0.0560 C.ar  1 <1>  -0.1500 
 24 O      -11.8320    -3.0010    -1.1490 O.3   1 <1>  -0.3620 
 25 C      -11.7100    -4.2870    -1.7170 C.3   1 <1>   0.0400 
 26 H       -0.9600    -0.5350     0.7250 H     1 <1>   0.1500 
 27 H       -3.0710    -1.0610    -2.9430 H     1 <1>   0.1500 
 28 H       -2.6610    -1.8710     1.9070 H     1 <1>   0.1500 
 29 H       -4.7820    -2.3980    -1.7800 H     1 <1>   0.1500 
 30 H       -4.4630    -3.4610     1.7990 H     1 <1>   0.0800 
 31 H       -6.4340    -2.5130     2.2620 H     1 <1>   0.0800 
 32 H       -5.9620    -0.5050     0.0350 H     1 <1>   0.0800 
 33 H       -5.4610    -0.2800     1.6910 H     1 <1>   0.0800 
 34 H       -2.6050    -4.6370    -0.3770 H     1 <1>   0.0800 
 35 H       -2.8180    -6.3530    -0.1710 H     1 <1>   0.0800 
 36 H       -3.1140    -5.2880     1.1760 H     1 <1>   0.0800 
 37 H       -7.6550     0.8140     1.0920 H     1 <1>   0.0800 
 38 H       -7.7540    -0.2670     2.4490 H     1 <1>   0.0800 
 39 H       -9.3300    -3.9690    -0.7950 H     1 <1>   0.1500 
 40 H      -10.1360     0.5550     0.9400 H     1 <1>   0.1500 
 41 H      -11.9540    -0.6720    -0.1600 H     1 <1>   0.1500 
 42 H      -12.6600    -4.5560    -2.1420 H     1 <1>   0.0800 
 43 H      -11.4440    -4.9870    -0.9450 H     1 <1>   0.0800 
 44 H      -10.9590    -4.2600    -2.4870 H     1 <1>   0.0800 
@<TRIPOS>BOND
  1   1   2  1   
  2   2   3  ar  
  3   2   4  ar  
  4   3   5  ar  
  5   3  26  1   
  6   4   6  ar  
  7   4  27  1   
  8   5   7  ar  
  9   5  28  1   
 10   6   7  ar  
 11   6  29  1   
 12   7   8  1   
 13   8   9  1   
 14   8  10  1   
 15   8  30  1   
 16   9  11  1   
 17   9  12  am  
 18  10  13  1   
 19  10  14  1   
 20  10  31  1   
 21  11  13  2   
 22  12  15  2   
 23  12  16  1   
 24  13  17  1   
 25  14  18  1   
 26  14  32  1   
 27  14  33  1   
 28  16  34  1   
 29  16  35  1   
 30  16  36  1   
 31  17  19  ar  
 32  17  20  ar  
 33  18  19  1   
 34  18  37  1   
 35  18  38  1   
 36  19  21  ar  
 37  20  22  ar  
 38  20  39  1   
 39  21  23  ar  
 40  21  40  1   
 41  22  23  ar  
 42  22  24  1   
 43  23  41  1   
 44  24  25  1   
 45  25  42  1   
 46  25  43  1   
 47  25  44  1   
@<TRIPOS>SUBSTRUCTURE
  1 ****  13 GROUP 4 **** **** 0

# MOE 2024.06 (io_trps.svl 2023.06)
