@<TRIPOS>MOLECULE
NONAME
43 43 1 0 0 
SMALL
USER_CHARGES


@<TRIPOS>ATOM
  1 O        0.1320     0.1400     1.8110 O.2   1 <1>  -0.5700 
  2 C        0.4360     0.0580     0.6470 C.2   1 <1>   0.5690 
  3 N       -0.0040     0.9190    -0.3050 N.am  1 <1>  -0.7300 
  4 C        1.3570    -1.0630     0.2110 C.3   1 <1>  -0.0990 
  5 C       -0.8810     2.0950    -0.1370 C.3   1 <1>   0.3000 
  6 C        2.7790    -0.5570    -0.0820 C.3   1 <1>  -0.1600 
  7 C       -1.1220     2.6820    -1.5300 C.3   1 <1>  -0.1600 
  8 C       -2.2830     1.6320     0.2590 C.3   1 <1>  -0.1600 
  9 C       -0.2720     3.1160     0.8460 C.3   1 <1>  -0.1600 
 10 C        3.7020    -1.7020    -0.5180 C.3   1 <1>  -0.1600 
 11 C       -2.2020     1.8070    -2.1810 C.3   1 <1>  -0.1600 
 12 C       -2.9310     1.1080    -1.0270 C.3   1 <1>  -0.1600 
 13 C        1.1400     3.6030     0.4710 C.3   1 <1>  -0.1600 
 14 C        5.1170    -1.1900    -0.8070 C.3   1 <1>  -0.1600 
 15 C        1.6560     4.6230     1.4900 C.3   1 <1>  -0.2400 
 16 C        6.0380    -2.3320    -1.2420 C.3   1 <1>  -0.2400 
 17 H        0.2620     0.7550    -1.2720 H     1 <1>   0.3700 
 18 H        0.9430    -1.5310    -0.6630 H     1 <1>   0.0800 
 19 H        1.3910    -1.7980     0.9950 H     1 <1>   0.0800 
 20 H        3.1740    -0.0950     0.8080 H     1 <1>   0.0800 
 21 H        2.7430     0.1910    -0.8550 H     1 <1>   0.0800 
 22 H       -0.2240     2.7340    -2.1190 H     1 <1>   0.0800 
 23 H       -1.5150     3.6780    -1.4240 H     1 <1>   0.0800 
 24 H       -2.8470     2.4800     0.6070 H     1 <1>   0.0800 
 25 H       -2.2680     0.8950     1.0420 H     1 <1>   0.0800 
 26 H       -0.2470     2.6780     1.8280 H     1 <1>   0.0800 
 27 H       -0.9260     3.9670     0.9040 H     1 <1>   0.0800 
 28 H        3.3030    -2.1680    -1.4040 H     1 <1>   0.0800 
 29 H        3.7430    -2.4440     0.2610 H     1 <1>   0.0800 
 30 H       -1.7480     1.0700    -2.8200 H     1 <1>   0.0800 
 31 H       -2.8780     2.4070    -2.7660 H     1 <1>   0.0800 
 32 H       -3.9880     1.3130    -1.0400 H     1 <1>   0.0800 
 33 H       -2.7810     0.0440    -1.0980 H     1 <1>   0.0800 
 34 H        1.1280     4.0570    -0.5040 H     1 <1>   0.0800 
 35 H        1.8170     2.7670     0.4440 H     1 <1>   0.0800 
 36 H        5.5220    -0.7270     0.0780 H     1 <1>   0.0800 
 37 H        5.0830    -0.4470    -1.5860 H     1 <1>   0.0800 
 38 H        1.0100     5.4820     1.5260 H     1 <1>   0.0800 
 39 H        2.6450     4.9480     1.2180 H     1 <1>   0.0800 
 40 H        1.7000     4.1800     2.4700 H     1 <1>   0.0800 
 41 H        6.1060    -3.0770    -0.4680 H     1 <1>   0.0800 
 42 H        7.0260    -1.9540    -1.4390 H     1 <1>   0.0800 
 43 H        5.6660    -2.7960    -2.1390 H     1 <1>   0.0800 
@<TRIPOS>BOND
  1   1   2  2   
  2   2   3  am  
  3   2   4  1   
  4   3   5  1   
  5   3  17  1   
  6   4   6  1   
  7   4  18  1   
  8   4  19  1   
  9   5   7  1   
 10   5   8  1   
 11   5   9  1   
 12   6  10  1   
 13   6  20  1   
 14   6  21  1   
 15   7  11  1   
 16   7  22  1   
 17   7  23  1   
 18   8  12  1   
 19   8  24  1   
 20   8  25  1   
 21   9  13  1   
 22   9  26  1   
 23   9  27  1   
 24  10  14  1   
 25  10  28  1   
 26  10  29  1   
 27  11  12  1   
 28  11  30  1   
 29  11  31  1   
 30  12  32  1   
 31  12  33  1   
 32  13  15  1   
 33  13  34  1   
 34  13  35  1   
 35  14  16  1   
 36  14  36  1   
 37  14  37  1   
 38  15  38  1   
 39  15  39  1   
 40  15  40  1   
 41  16  41  1   
 42  16  42  1   
 43  16  43  1   
@<TRIPOS>SUBSTRUCTURE
  1 ****   3 GROUP 4 **** **** 0

# MOE 2024.06 (io_trps.svl 2023.06)
