@<TRIPOS>MOLECULE
NONAME
38 39 1 0 0 
SMALL
USER_CHARGES


@<TRIPOS>ATOM
  1 O       -0.3140     0.0870    -0.8770 O.3   1 <1>  -0.3630 
  2 C       -0.3600    -0.8860     0.0550 C.ar  1 <1>   0.0830 
  3 C       -0.1210    -0.3300    -2.2100 C.3   1 <1>   0.0400 
  4 C       -1.5820    -1.2700     0.5920 C.ar  1 <1>  -0.1440 
  5 C        0.8190    -1.4800     0.4780 C.ar  1 <1>  -0.1500 
  6 C       -1.6030    -2.2600     1.5680 C.ar  1 <1>  -0.1500 
  7 C       -2.8540    -0.6100     0.0740 C.3   1 <1>   0.5660 
  8 C        0.7850    -2.4700     1.4430 C.ar  1 <1>  -0.1500 
  9 C       -0.4260    -2.8580     1.9890 C.ar  1 <1>  -0.1500 
 10 N       -3.8120    -0.3740     1.1550 N.2   1 <1>  -0.6960 
 11 N       -3.5240    -1.5430    -0.8640 N.4   1 <1>  -0.1220 
 12 C       -4.9110    -0.8990     0.8800 C.2   1 <1>   0.3280 
 13 O       -3.3420    -1.1970    -2.1860 O.2   1 <1>  -0.7500 
 14 C       -4.9510    -1.6470    -0.4480 C.3   1 <1>   0.3170 
 15 C       -6.1290    -0.8200     1.7940 C.3   1 <1>  -0.0990 
 16 C       -5.2850    -3.1390    -0.2860 C.3   1 <1>  -0.2400 
 17 C       -5.9260    -0.9910    -1.4450 C.3   1 <1>  -0.2400 
 18 C       -6.9400     0.4670     1.5830 C.3   1 <1>  -0.2400 
 19 H       -0.2330     0.5260    -2.8500 H     1 <1>   0.0800 
 20 H       -0.8630    -1.0680    -2.4590 H     1 <1>   0.0800 
 21 H        0.8660    -0.7430    -2.3090 H     1 <1>   0.0800 
 22 H        1.7540    -1.1610     0.0560 H     1 <1>   0.1500 
 23 H       -2.5330    -2.5660     2.0140 H     1 <1>   0.1500 
 24 H       -2.6350     0.3160    -0.4310 H     1 <1>   0.0800 
 25 H        1.6990    -2.9330     1.7730 H     1 <1>   0.1500 
 26 H       -0.4520    -3.6230     2.7460 H     1 <1>   0.1500 
 27 H       -3.0590    -2.4400    -0.7160 H     1 <1>   0.3600 
 28 H       -5.7800    -0.8330     2.8110 H     1 <1>   0.0800 
 29 H       -6.7610    -1.6780     1.6580 H     1 <1>   0.0800 
 30 H       -4.6610    -3.5930     0.4620 H     1 <1>   0.0800 
 31 H       -5.1440    -3.6480    -1.2240 H     1 <1>   0.0800 
 32 H       -6.3110    -3.2650     0.0060 H     1 <1>   0.0800 
 33 H       -5.6840     0.0500    -1.5690 H     1 <1>   0.0800 
 34 H       -6.9390    -1.0730    -1.0990 H     1 <1>   0.0800 
 35 H       -5.8620    -1.4750    -2.4040 H     1 <1>   0.0800 
 36 H       -6.3100     1.3270     1.7360 H     1 <1>   0.0800 
 37 H       -7.7530     0.5100     2.2860 H     1 <1>   0.0800 
 38 H       -7.3460     0.5140     0.5890 H     1 <1>   0.0800 
@<TRIPOS>BOND
  1   1   2  1   
  2   1   3  1   
  3   2   4  ar  
  4   2   5  ar  
  5   3  19  1   
  6   3  20  1   
  7   3  21  1   
  8   4   6  ar  
  9   4   7  1   
 10   5   8  ar  
 11   5  22  1   
 12   6   9  ar  
 13   6  23  1   
 14   7  10  1   
 15   7  11  1   
 16   7  24  1   
 17   8   9  ar  
 18   8  25  1   
 19   9  26  1   
 20  10  12  2   
 21  11  13  2   
 22  11  14  1   
 23  11  27  1   
 24  12  14  1   
 25  12  15  1   
 26  14  16  1   
 27  14  17  1   
 28  15  18  1   
 29  15  28  1   
 30  15  29  1   
 31  16  30  1   
 32  16  31  1   
 33  16  32  1   
 34  17  33  1   
 35  17  34  1   
 36  17  35  1   
 37  18  36  1   
 38  18  37  1   
 39  18  38  1   
@<TRIPOS>SUBSTRUCTURE
  1 ****   7 GROUP 4 **** **** 0

# MOE 2024.06 (io_trps.svl 2023.06)
