@<TRIPOS>MOLECULE
NONAME
29 30 1 0 0 
SMALL
USER_CHARGES


@<TRIPOS>ATOM
  1 S       -0.0850    -0.1670     0.0330 S.3   1 <1>  -0.0800 
  2 C       -0.9250     1.3740    -0.1310 C.2   1 <1>   0.1240 
  3 C        1.4690     0.6450     0.1040 C.2   1 <1>  -0.1400 
  4 N       -2.2990     1.3230    -0.2330 N.pl3 1 <1>  -0.8840 
  5 C       -0.0380     2.4090    -0.1310 C.2   1 <1>   0.0190 
  6 C        1.3240     1.9710    -0.0030 C.2   1 <1>  -0.1810 
  7 C        2.7740    -0.1090     0.2670 C.3   1 <1>   0.3000 
  8 C       -0.3940     3.7870    -0.2440 C.1   1 <1>   0.5380 
  9 C        2.5690     2.8420     0.0260 C.3   1 <1>   0.0210 
 10 O        3.7890     0.8160     0.5670 O.3   1 <1>  -0.5600 
 11 N       -0.6630     4.8930    -0.3370 N.1   1 <1>  -0.5570 
 12 C        3.8220     1.9710    -0.2340 C.3   1 <1>   0.2000 
 13 C        5.1220     2.7330     0.0630 C.3   1 <1>  -0.1600 
 14 C        6.3780     1.9070    -0.2550 C.3   1 <1>  -0.1600 
 15 C        7.6510     2.7170     0.0000 C.3   1 <1>  -0.2400 
 16 H       -2.8870     2.1630    -0.2770 H     1 <1>   0.4000 
 17 H       -2.8000     0.4310    -0.1650 H     1 <1>   0.4000 
 18 H        3.0340    -0.6290    -0.6380 H     1 <1>   0.0800 
 19 H        2.7130    -0.8080     1.0820 H     1 <1>   0.0800 
 20 H        2.6480     3.3220     0.9850 H     1 <1>   0.0800 
 21 H        2.5080     3.6040    -0.7300 H     1 <1>   0.0800 
 22 H        3.8270     1.6530    -1.2630 H     1 <1>   0.0800 
 23 H        5.1310     3.0230     1.0990 H     1 <1>   0.0800 
 24 H        5.1370     3.6310    -0.5300 H     1 <1>   0.0800 
 25 H        6.3550     1.5930    -1.2850 H     1 <1>   0.0800 
 26 H        6.3930     1.0230     0.3600 H     1 <1>   0.0800 
 27 H        7.6720     3.5950    -0.6220 H     1 <1>   0.0800 
 28 H        8.5180     2.1200    -0.2230 H     1 <1>   0.0800 
 29 H        7.7030     3.0200     1.0310 H     1 <1>   0.0800 
@<TRIPOS>BOND
  1   1   2  1   
  2   1   3  1   
  3   2   4  1   
  4   2   5  2   
  5   3   6  2   
  6   3   7  1   
  7   4  16  1   
  8   4  17  1   
  9   5   6  1   
 10   5   8  1   
 11   6   9  1   
 12   7  10  1   
 13   7  18  1   
 14   7  19  1   
 15   8  11  3   
 16   9  12  1   
 17   9  20  1   
 18   9  21  1   
 19  10  12  1   
 20  12  13  1   
 21  12  22  1   
 22  13  14  1   
 23  13  23  1   
 24  13  24  1   
 25  14  15  1   
 26  14  25  1   
 27  14  26  1   
 28  15  27  1   
 29  15  28  1   
 30  15  29  1   
@<TRIPOS>SUBSTRUCTURE
  1 ****   6 GROUP 4 **** **** 0

# MOE 2024.06 (io_trps.svl 2023.06)
