@<TRIPOS>MOLECULE
NONAME
37 37 1 0 0 
SMALL
USER_CHARGES


@<TRIPOS>ATOM
  1 O       -4.5730    -4.8610    -0.7220 O.3   1 <1>  -0.3630 
  2 C       -3.5430    -5.6460    -0.3370 C.ar  1 <1>   0.0830 
  3 C       -5.0320    -3.9580     0.2500 C.3   1 <1>   0.1200 
  4 C       -3.8000    -6.8690     0.2790 C.ar  1 <1>  -0.1440 
  5 C       -2.2350    -5.2240    -0.5620 C.ar  1 <1>  -0.1440 
  6 C       -6.1530    -3.1310    -0.3850 C.3   1 <1>   0.3430 
  7 C       -2.7340    -7.6410     0.7100 C.ar  1 <1>  -0.1500 
  8 C       -5.2160    -7.3880     0.4840 C.3   1 <1>  -0.0970 
  9 C       -1.1870    -6.0150    -0.1210 C.ar  1 <1>  -0.1500 
 10 C       -1.9250    -3.9210    -1.2860 C.3   1 <1>  -0.0960 
 11 N       -6.7840    -2.1640     0.5790 N.4   1 <1>  -0.9590 
 12 C       -1.4290    -7.2180     0.5200 C.ar  1 <1>  -0.1430 
 13 C       -8.0030    -1.5500    -0.0350 C.3   1 <1>   0.2630 
 14 C       -5.8300    -1.0940     1.0170 C.3   1 <1>   0.2630 
 15 C       -0.2710    -8.0760     0.9970 C.3   1 <1>  -0.0970 
 16 H       -4.2030    -3.3410     0.5460 H     1 <1>   0.0800 
 17 H       -5.3930    -4.5270     1.0880 H     1 <1>   0.0800 
 18 H       -6.9050    -3.8130    -0.7460 H     1 <1>   0.0800 
 19 H       -5.7530    -2.5930    -1.2280 H     1 <1>   0.0800 
 20 H       -2.9170    -8.5840     1.1940 H     1 <1>   0.1500 
 21 H       -5.6400    -6.9630     1.3740 H     1 <1>   0.0800 
 22 H       -5.2140    -8.4580     0.5820 H     1 <1>   0.0800 
 23 H       -5.8330    -7.1350    -0.3600 H     1 <1>   0.0800 
 24 H       -0.1720    -5.6980    -0.2810 H     1 <1>   0.1500 
 25 H       -2.0060    -3.0930    -0.6080 H     1 <1>   0.0800 
 26 H       -2.6060    -3.7790    -2.1060 H     1 <1>   0.0800 
 27 H       -0.9270    -3.9410    -1.6860 H     1 <1>   0.0800 
 28 H       -7.0850    -2.6950     1.4130 H     1 <1>   0.4500 
 29 H       -7.7370    -0.9870    -0.9150 H     1 <1>   0.0800 
 30 H       -8.4820    -0.8860     0.6670 H     1 <1>   0.0800 
 31 H       -8.7070    -2.3160    -0.3160 H     1 <1>   0.0800 
 32 H       -5.4810    -0.5320     0.1660 H     1 <1>   0.0800 
 33 H       -4.9790    -1.5270     1.5170 H     1 <1>   0.0800 
 34 H       -6.3160    -0.4160     1.7000 H     1 <1>   0.0800 
 35 H       -0.5560    -8.6450     1.8630 H     1 <1>   0.0800 
 36 H        0.5700    -7.4600     1.2600 H     1 <1>   0.0800 
 37 H        0.0250    -8.7530     0.2170 H     1 <1>   0.0800 
@<TRIPOS>BOND
  1   1   2  1   
  2   1   3  1   
  3   2   4  ar  
  4   2   5  ar  
  5   3   6  1   
  6   3  16  1   
  7   3  17  1   
  8   4   7  ar  
  9   4   8  1   
 10   5   9  ar  
 11   5  10  1   
 12   6  11  1   
 13   6  18  1   
 14   6  19  1   
 15   7  12  ar  
 16   7  20  1   
 17   8  21  1   
 18   8  22  1   
 19   8  23  1   
 20   9  12  ar  
 21   9  24  1   
 22  10  25  1   
 23  10  26  1   
 24  10  27  1   
 25  11  13  1   
 26  11  14  1   
 27  11  28  1   
 28  12  15  1   
 29  13  29  1   
 30  13  30  1   
 31  13  31  1   
 32  14  32  1   
 33  14  33  1   
 34  14  34  1   
 35  15  35  1   
 36  15  36  1   
 37  15  37  1   
@<TRIPOS>SUBSTRUCTURE
  1 ****   2 GROUP 4 **** **** 0

# MOE 2024.06 (io_trps.svl 2023.06)
