@<TRIPOS>MOLECULE
NONAME
32 33 1 0 0 
SMALL
USER_CHARGES


@<TRIPOS>ATOM
  1 S       -0.0910     0.0150     0.4690 S.3   1 <1>  -0.4600 
  2 C        0.2730     1.2100    -0.8430 C.3   1 <1>   0.0700 
  3 C        1.5380    -0.7060     0.8010 C.3   1 <1>   0.0700 
  4 C        1.4010     2.1390    -0.3720 C.3   1 <1>   0.3430 
  5 C        2.5290     0.4260     1.1010 C.3   1 <1>   0.3430 
  6 N        2.6630     1.3910    -0.0480 N.4   1 <1>  -0.9590 
  7 C        3.8340     2.2960     0.1500 C.3   1 <1>   0.5230 
  8 C        5.1110     1.5130    -0.1170 C.2   1 <1>   0.0060 
  9 N        5.1220     0.3610    -0.7090 N.2   1 <1>  -0.3380 
 10 N        6.3510     1.9120     0.2180 N.pl3 1 <1>   0.0480 
 11 N        6.3900    -0.0410    -0.7750 N.2   1 <1>  -0.3380 
 12 C        7.0840     0.8920    -0.2240 C.2   1 <1>   0.2430 
 13 C        6.8490     3.1340     0.8890 C.3   1 <1>   0.0160 
 14 S        8.8710     0.8570    -0.0480 S.3   1 <1>  -0.2860 
 15 C        9.3550    -0.7400    -0.8410 C.3   1 <1>  -0.0100 
 16 H       -0.6330     1.7600    -1.0270 H     1 <1>   0.0800 
 17 H        0.5470     0.6600    -1.7250 H     1 <1>   0.0800 
 18 H        1.8330    -1.2790    -0.0610 H     1 <1>   0.0800 
 19 H        1.4270    -1.3610     1.6480 H     1 <1>   0.0800 
 20 H        1.0640     2.6770     0.4990 H     1 <1>   0.0800 
 21 H        1.5970     2.8560    -1.1530 H     1 <1>   0.0800 
 22 H        3.4890    -0.0170     1.3120 H     1 <1>   0.0800 
 23 H        2.2000     0.9500     1.9840 H     1 <1>   0.0800 
 24 H        2.9400     0.8150    -0.8620 H     1 <1>   0.4500 
 25 H        3.8360     2.6880     1.1540 H     1 <1>   0.0800 
 26 H        3.7850     3.1180    -0.5450 H     1 <1>   0.0800 
 27 H        6.0380     3.8000     1.1180 H     1 <1>   0.0800 
 28 H        7.5470     3.6340     0.2400 H     1 <1>   0.0800 
 29 H        7.3550     2.8590     1.7970 H     1 <1>   0.0800 
 30 H       10.4240    -0.8310    -0.7750 H     1 <1>   0.0800 
 31 H        9.0320    -0.7100    -1.8660 H     1 <1>   0.0800 
 32 H        8.8650    -1.5340    -0.3080 H     1 <1>   0.0800 
@<TRIPOS>BOND
  1   1   2  1   
  2   1   3  1   
  3   2   4  1   
  4   2  16  1   
  5   2  17  1   
  6   3   5  1   
  7   3  18  1   
  8   3  19  1   
  9   4   6  1   
 10   4  20  1   
 11   4  21  1   
 12   5   6  1   
 13   5  22  1   
 14   5  23  1   
 15   6   7  1   
 16   6  24  1   
 17   7   8  1   
 18   7  25  1   
 19   7  26  1   
 20   8   9  2   
 21   8  10  1   
 22   9  11  1   
 23  10  12  1   
 24  10  13  1   
 25  11  12  2   
 26  12  14  1   
 27  13  27  1   
 28  13  28  1   
 29  13  29  1   
 30  14  15  1   
 31  15  30  1   
 32  15  31  1   
 33  15  32  1   
@<TRIPOS>SUBSTRUCTURE
  1 ****   8 GROUP 4 **** **** 0

# MOE 2024.06 (io_trps.svl 2023.06)
