@<TRIPOS>MOLECULE
NONAME
41 43 1 0 0 
SMALL
USER_CHARGES


@<TRIPOS>ATOM
  1 S        0.5310     0.4480    -1.5130 S.3   1 <1>  -0.0800 
  2 C        1.1020     1.7320    -0.4700 C.2   1 <1>   0.1040 
  3 C       -1.0520     1.1820    -1.6380 C.2   1 <1>  -0.1100 
  4 N        2.4250     1.6460    -0.0770 N.am  1 <1>  -0.4940 
  5 C        0.1030     2.6290    -0.2160 C.2   1 <1>  -0.0860 
  6 C       -1.1300     2.3160    -0.9080 C.2   1 <1>  -0.0540 
  7 C        3.3110     2.6540     0.1780 C.2   1 <1>   0.5690 
  8 C        0.2140     3.7450     0.6820 C.2   1 <1>   0.7160 
  9 C       -2.3160     3.1410    -0.8170 C.ar  1 <1>   0.0540 
 10 O        3.1090     3.8040    -0.1150 O.2   1 <1>  -0.5700 
 11 C        4.6260     2.2840     0.8140 C.3   1 <1>  -0.1790 
 12 O        0.3590     3.5280     1.8750 O.2   1 <1>  -0.5700 
 13 N        0.1170     5.0500     0.2450 N.am  1 <1>  -0.6600 
 14 C       -2.8980     3.4480     0.4100 C.ar  1 <1>  -0.1500 
 15 C       -2.9110     3.6490    -1.9680 C.ar  1 <1>  -0.1500 
 16 C        0.1690     6.2130     1.1780 C.3   1 <1>   0.1400 
 17 C        0.2120     5.4390    -1.1930 C.3   1 <1>   0.1400 
 18 C       -4.0260     4.2440     0.4870 C.ar  1 <1>  -0.1500 
 19 C       -4.0410     4.4450    -1.8980 C.ar  1 <1>  -0.1500 
 20 C        1.3350     7.1440     0.8120 C.3   1 <1>   0.1200 
 21 C        1.3590     6.4410    -1.4160 C.3   1 <1>   0.1200 
 22 C       -4.5990     4.7450    -0.6690 C.ar  1 <1>  -0.1500 
 23 O        1.2540     7.5230    -0.5330 O.3   1 <1>  -0.5600 
 24 H       -1.7820     0.6840    -2.2500 H     1 <1>   0.1500 
 25 H        2.8060     0.7030    -0.0220 H     1 <1>   0.3700 
 26 H        4.4510     1.7550     1.7320 H     1 <1>   0.0800 
 27 H        5.1850     3.1760     1.0310 H     1 <1>   0.0800 
 28 H        5.1970     1.6700     0.1440 H     1 <1>   0.0800 
 29 H       -2.4590     3.0610     1.3130 H     1 <1>   0.1500 
 30 H       -2.4810     3.4210    -2.9260 H     1 <1>   0.1500 
 31 H        0.2870     5.8840     2.1960 H     1 <1>   0.0800 
 32 H       -0.7550     6.7580     1.1120 H     1 <1>   0.0800 
 33 H       -0.7170     5.8900    -1.4960 H     1 <1>   0.0800 
 34 H        0.3830     4.5780    -1.8130 H     1 <1>   0.0800 
 35 H       -4.4570     4.4740     1.4460 H     1 <1>   0.1500 
 36 H       -4.4860     4.8320    -2.7980 H     1 <1>   0.1500 
 37 H        2.2770     6.6480     0.9770 H     1 <1>   0.0800 
 38 H        1.3010     8.0370     1.4090 H     1 <1>   0.0800 
 39 H        1.3240     6.8290    -2.4180 H     1 <1>   0.0800 
 40 H        2.3120     5.9630    -1.2640 H     1 <1>   0.0800 
 41 H       -5.4770     5.3660    -0.6100 H     1 <1>   0.1500 
@<TRIPOS>BOND
  1   1   2  1   
  2   1   3  1   
  3   2   4  1   
  4   2   5  2   
  5   3   6  2   
  6   3  24  1   
  7   4   7  am  
  8   4  25  1   
  9   5   6  1   
 10   5   8  1   
 11   6   9  1   
 12   7  10  2   
 13   7  11  1   
 14   8  12  2   
 15   8  13  am  
 16   9  14  ar  
 17   9  15  ar  
 18  11  26  1   
 19  11  27  1   
 20  11  28  1   
 21  13  16  1   
 22  13  17  1   
 23  14  18  ar  
 24  14  29  1   
 25  15  19  ar  
 26  15  30  1   
 27  16  20  1   
 28  16  31  1   
 29  16  32  1   
 30  17  21  1   
 31  17  33  1   
 32  17  34  1   
 33  18  22  ar  
 34  18  35  1   
 35  19  22  ar  
 36  19  36  1   
 37  20  23  1   
 38  20  37  1   
 39  20  38  1   
 40  21  23  1   
 41  21  39  1   
 42  21  40  1   
 43  22  41  1   
@<TRIPOS>SUBSTRUCTURE
  1 ****   8 GROUP 4 **** **** 0

# MOE 2024.06 (io_trps.svl 2023.06)
