@<TRIPOS>MOLECULE
NONAME
41 42 1 0 0 
SMALL
USER_CHARGES


@<TRIPOS>ATOM
  1 O       -2.3230     2.2640     0.6170 O.3   1 <1>  -0.5600 
  2 C       -2.9350     2.8630    -0.4920 C.3   1 <1>   0.1200 
  3 C       -2.1400     0.8780     0.4930 C.3   1 <1>   0.1200 
  4 C       -4.3370     2.2590    -0.7450 C.3   1 <1>   0.3430 
  5 C       -3.4790     0.1570     0.2090 C.3   1 <1>   0.3430 
  6 N       -4.6290     1.1240     0.2010 N.4   1 <1>  -0.9590 
  7 C       -5.9400     0.4400    -0.0440 C.3   1 <1>   0.3430 
  8 C       -7.1440     1.3460     0.2320 C.3   1 <1>   0.1200 
  9 O       -8.3010     0.5980    -0.0510 O.3   1 <1>  -0.3630 
 10 C       -9.5390     1.1390     0.0880 C.ar  1 <1>   0.0820 
 11 C      -10.6120     0.3380    -0.2700 C.ar  1 <1>  -0.1500 
 12 C       -9.7750     2.4280     0.5610 C.ar  1 <1>  -0.1500 
 13 C      -11.9100     0.8060    -0.1640 C.ar  1 <1>  -0.1500 
 14 C      -11.0740     2.8950     0.6660 C.ar  1 <1>  -0.1500 
 15 C      -12.1460     2.0950     0.3070 C.ar  1 <1>   0.0820 
 16 O      -13.3830     2.6390     0.4460 O.3   1 <1>  -0.3620 
 17 C      -14.5400     1.9130     0.1020 C.3   1 <1>   0.2580 
 18 C      -15.7460     2.7910     0.3740 C.2   1 <1>  -0.2880 
 19 C      -16.6760     3.1340    -0.5220 C.2   1 <1>  -0.3000 
 20 H       -2.3000     2.7300    -1.3520 H     1 <1>   0.0800 
 21 H       -3.0150     3.9180    -0.2950 H     1 <1>   0.0800 
 22 H       -1.7140     0.5210     1.4150 H     1 <1>   0.0800 
 23 H       -1.4310     0.6920    -0.2970 H     1 <1>   0.0800 
 24 H       -4.3880     1.9140    -1.7650 H     1 <1>   0.0800 
 25 H       -5.0750     3.0360    -0.6300 H     1 <1>   0.0800 
 26 H       -3.6350    -0.6000     0.9610 H     1 <1>   0.0800 
 27 H       -3.4110    -0.3420    -0.7430 H     1 <1>   0.0800 
 28 H       -4.6180     1.5450     1.1440 H     1 <1>   0.4500 
 29 H       -6.0180    -0.4210     0.5990 H     1 <1>   0.0800 
 30 H       -5.9860     0.1030    -1.0670 H     1 <1>   0.0800 
 31 H       -7.1440     2.2070    -0.4120 H     1 <1>   0.0800 
 32 H       -7.1780     1.6350     1.2680 H     1 <1>   0.0800 
 33 H      -10.4270    -0.6570    -0.6330 H     1 <1>   0.1500 
 34 H       -8.9780     3.0830     0.8530 H     1 <1>   0.1500 
 35 H      -12.7140     0.1560    -0.4520 H     1 <1>   0.1500 
 36 H      -11.2700     3.8880     1.0300 H     1 <1>   0.1500 
 37 H      -14.5780     1.0250     0.7080 H     1 <1>   0.0800 
 38 H      -14.4830     1.6520    -0.9410 H     1 <1>   0.0800 
 39 H      -15.7750     3.1240     1.3980 H     1 <1>   0.1500 
 40 H      -17.5210     3.7630    -0.2970 H     1 <1>   0.1500 
 41 H      -16.6730     2.8220    -1.5530 H     1 <1>   0.1500 
@<TRIPOS>BOND
  1   1   2  1   
  2   1   3  1   
  3   2   4  1   
  4   2  20  1   
  5   2  21  1   
  6   3   5  1   
  7   3  22  1   
  8   3  23  1   
  9   4   6  1   
 10   4  24  1   
 11   4  25  1   
 12   5   6  1   
 13   5  26  1   
 14   5  27  1   
 15   6   7  1   
 16   6  28  1   
 17   7   8  1   
 18   7  29  1   
 19   7  30  1   
 20   8   9  1   
 21   8  31  1   
 22   8  32  1   
 23   9  10  1   
 24  10  11  ar  
 25  10  12  ar  
 26  11  13  ar  
 27  11  33  1   
 28  12  14  ar  
 29  12  34  1   
 30  13  15  ar  
 31  13  35  1   
 32  14  15  ar  
 33  14  36  1   
 34  15  16  1   
 35  16  17  1   
 36  17  18  1   
 37  17  37  1   
 38  17  38  1   
 39  18  19  2   
 40  18  39  1   
 41  19  40  1   
 42  19  41  1   
@<TRIPOS>SUBSTRUCTURE
  1 ****  10 GROUP 4 **** **** 0

# MOE 2024.06 (io_trps.svl 2023.06)
