@<TRIPOS>MOLECULE
NONAME
44 45 1 0 0 
SMALL
USER_CHARGES


@<TRIPOS>ATOM
  1 CL       4.3470    -0.7950     1.8970 Cl    1 <1>  -0.1770 
  2 C        2.9980    -1.3920     0.9500 C.ar  1 <1>   0.1770 
  3 C        3.2270    -2.1310    -0.2050 C.ar  1 <1>   0.0830 
  4 C        1.7160    -1.1110     1.3790 C.ar  1 <1>  -0.1500 
  5 O        4.4990    -2.3940    -0.5880 O.3   1 <1>  -0.3630 
  6 C        2.1440    -2.5750    -0.9600 C.ar  1 <1>  -0.1440 
  7 C        0.6350    -1.5660     0.6410 C.ar  1 <1>  -0.1430 
  8 C        5.0090    -3.6650    -0.2640 C.3   1 <1>   0.1200 
  9 C        0.8580    -2.2910    -0.5200 C.ar  1 <1>  -0.1500 
 10 C        2.3240    -3.3520    -2.2570 C.3   1 <1>  -0.0960 
 11 C       -0.7850    -1.2750     1.0930 C.3   1 <1>  -0.0970 
 12 C        6.5400    -3.5970    -0.2650 C.3   1 <1>  -0.1600 
 13 C        7.0710    -2.5790     0.7530 C.3   1 <1>   0.3430 
 14 N        7.7090    -1.3910     0.1110 N.4   1 <1>  -0.9590 
 15 C        8.3380    -0.5380     1.1590 C.3   1 <1>   0.3430 
 16 C        6.7450    -0.5940    -0.7110 C.3   1 <1>   0.3430 
 17 C        9.1120     0.6090     0.5060 C.3   1 <1>  -0.1600 
 18 C        7.4730     0.5580    -1.4050 C.3   1 <1>  -0.1600 
 19 C        8.2080     1.4540    -0.4000 C.3   1 <1>  -0.1600 
 20 H        1.5690    -0.5420     2.2800 H     1 <1>   0.1500 
 21 H        4.6530    -4.3700    -0.9950 H     1 <1>   0.0800 
 22 H        4.6390    -3.9460     0.7090 H     1 <1>   0.0800 
 23 H        0.0130    -2.6380    -1.0900 H     1 <1>   0.1500 
 24 H        2.4360    -4.4000    -2.0460 H     1 <1>   0.0800 
 25 H        3.1910    -3.0050    -2.7890 H     1 <1>   0.0800 
 26 H        1.4700    -3.2220    -2.8970 H     1 <1>   0.0800 
 27 H       -0.8030    -0.4710     1.8070 H     1 <1>   0.0800 
 28 H       -1.2100    -2.1520     1.5490 H     1 <1>   0.0800 
 29 H       -1.3920    -0.9930     0.2510 H     1 <1>   0.0800 
 30 H        6.9040    -3.4030    -1.2580 H     1 <1>   0.0800 
 31 H        6.9000    -4.5690     0.0200 H     1 <1>   0.0800 
 32 H        7.8000    -3.0720     1.3750 H     1 <1>   0.0800 
 33 H        6.2650    -2.2600     1.3920 H     1 <1>   0.0800 
 34 H        8.4530    -1.7140    -0.5190 H     1 <1>   0.4500 
 35 H        9.0120    -1.1260     1.7610 H     1 <1>   0.0800 
 36 H        7.5730    -0.1330     1.8030 H     1 <1>   0.0800 
 37 H        5.9630    -0.2030    -0.0800 H     1 <1>   0.0800 
 38 H        6.2880    -1.2210    -1.4590 H     1 <1>   0.0800 
 39 H        9.9340     0.2090    -0.0620 H     1 <1>   0.0800 
 40 H        9.5280     1.2360     1.2760 H     1 <1>   0.0800 
 41 H        6.7550     1.1480    -1.9480 H     1 <1>   0.0800 
 42 H        8.1690     0.1600    -2.1220 H     1 <1>   0.0800 
 43 H        8.7960     2.1890    -0.9240 H     1 <1>   0.0800 
 44 H        7.4870     1.9800     0.2030 H     1 <1>   0.0800 
@<TRIPOS>BOND
  1   1   2  1   
  2   2   3  ar  
  3   2   4  ar  
  4   3   5  1   
  5   3   6  ar  
  6   4   7  ar  
  7   4  20  1   
  8   5   8  1   
  9   6   9  ar  
 10   6  10  1   
 11   7   9  ar  
 12   7  11  1   
 13   8  12  1   
 14   8  21  1   
 15   8  22  1   
 16   9  23  1   
 17  10  24  1   
 18  10  25  1   
 19  10  26  1   
 20  11  27  1   
 21  11  28  1   
 22  11  29  1   
 23  12  13  1   
 24  12  30  1   
 25  12  31  1   
 26  13  14  1   
 27  13  32  1   
 28  13  33  1   
 29  14  15  1   
 30  14  16  1   
 31  14  34  1   
 32  15  17  1   
 33  15  35  1   
 34  15  36  1   
 35  16  18  1   
 36  16  37  1   
 37  16  38  1   
 38  17  19  1   
 39  17  39  1   
 40  17  40  1   
 41  18  19  1   
 42  18  41  1   
 43  18  42  1   
 44  19  43  1   
 45  19  44  1   
@<TRIPOS>SUBSTRUCTURE
  1 ****   5 GROUP 4 **** **** 0

# MOE 2024.06 (io_trps.svl 2023.06)
