@<TRIPOS>MOLECULE
NONAME
36 36 1 0 0 
SMALL
USER_CHARGES


@<TRIPOS>ATOM
  1 O        0.8570     2.8160     2.5850 O.2   1 <1>  -0.5700 
  2 C        0.2690     2.4580     1.5930 C.2   1 <1>   0.5690 
  3 N        0.8780     1.7310     0.6190 N.am  1 <1>  -0.7300 
  4 C       -1.2000     2.8360     1.4420 C.3   1 <1>   0.1810 
  5 C        2.2930     1.3140     0.6060 C.3   1 <1>   0.1400 
  6 O       -1.7500     2.3270     0.2320 O.3   1 <1>  -0.3620 
  7 C        2.8940     1.6280    -0.7620 C.3   1 <1>  -0.1600 
  8 C       -3.0440     2.5590    -0.1010 C.ar  1 <1>   0.0820 
  9 C        4.3720     1.2480    -0.8030 C.3   1 <1>   0.1200 
 10 C       -3.4790     2.0400    -1.3100 C.ar  1 <1>  -0.1500 
 11 C       -3.9330     3.2770     0.6960 C.ar  1 <1>  -0.1500 
 12 O        4.8390     1.5120    -2.0830 O.3   1 <1>  -0.5600 
 13 C       -4.7850     2.2260    -1.7330 C.ar  1 <1>  -0.1430 
 14 C       -5.2370     3.4660     0.2750 C.ar  1 <1>  -0.1500 
 15 C        6.1890     1.2340    -2.2610 C.3   1 <1>   0.0400 
 16 C       -5.6610     2.9430    -0.9350 C.ar  1 <1>  -0.1500 
 17 C       -5.2560     1.6570    -3.0590 C.3   1 <1>  -0.0970 
 18 H        0.3110     1.4620    -0.1910 H     1 <1>   0.3700 
 19 H       -1.2890     3.9060     1.4320 H     1 <1>   0.0800 
 20 H       -1.7550     2.4270     2.2660 H     1 <1>   0.0800 
 21 H        2.3500     0.2570     0.8050 H     1 <1>   0.0800 
 22 H        2.8330     1.8380     1.3770 H     1 <1>   0.0800 
 23 H        2.8000     2.6810    -0.9580 H     1 <1>   0.0800 
 24 H        2.3700     1.0740    -1.5200 H     1 <1>   0.0800 
 25 H        4.5040     0.1990    -0.5980 H     1 <1>   0.0800 
 26 H        4.9350     1.8380    -0.0990 H     1 <1>   0.0800 
 27 H       -2.7840     1.4900    -1.9170 H     1 <1>   0.1500 
 28 H       -3.6360     3.6940     1.6390 H     1 <1>   0.1500 
 29 H       -5.9260     4.0200     0.8880 H     1 <1>   0.1500 
 30 H        6.4470     1.4690    -3.2780 H     1 <1>   0.0800 
 31 H        6.3650     0.1880    -2.0740 H     1 <1>   0.0800 
 32 H        6.7690     1.8430    -1.5900 H     1 <1>   0.0800 
 33 H       -6.6780     3.0970    -1.2530 H     1 <1>   0.1500 
 34 H       -4.6070     0.8640    -3.3840 H     1 <1>   0.0800 
 35 H       -5.2580     2.4300    -3.8060 H     1 <1>   0.0800 
 36 H       -6.2510     1.2630    -2.9620 H     1 <1>   0.0800 
@<TRIPOS>BOND
  1   1   2  2   
  2   2   3  am  
  3   2   4  1   
  4   3   5  1   
  5   3  18  1   
  6   4   6  1   
  7   4  19  1   
  8   4  20  1   
  9   5   7  1   
 10   5  21  1   
 11   5  22  1   
 12   6   8  1   
 13   7   9  1   
 14   7  23  1   
 15   7  24  1   
 16   8  10  ar  
 17   8  11  ar  
 18   9  12  1   
 19   9  25  1   
 20   9  26  1   
 21  10  13  ar  
 22  10  27  1   
 23  11  14  ar  
 24  11  28  1   
 25  12  15  1   
 26  13  16  ar  
 27  13  17  1   
 28  14  16  ar  
 29  14  29  1   
 30  15  30  1   
 31  15  31  1   
 32  15  32  1   
 33  16  33  1   
 34  17  34  1   
 35  17  35  1   
 36  17  36  1   
@<TRIPOS>SUBSTRUCTURE
  1 ****   6 GROUP 4 **** **** 0

# MOE 2024.06 (io_trps.svl 2023.06)
