@<TRIPOS>MOLECULE
NONAME
38 39 1 0 0 
SMALL
USER_CHARGES


@<TRIPOS>ATOM
  1 CL      -4.8840    -0.0290     1.0280 Cl    1 <1>  -0.1770 
  2 C       -3.5060     0.8960     0.4860 C.ar  1 <1>   0.1770 
  3 C       -2.7730     1.6220     1.4070 C.ar  1 <1>  -0.1500 
  4 C       -3.1690     0.8880    -0.8550 C.ar  1 <1>  -0.1500 
  5 C       -1.6790     2.3560     0.9800 C.ar  1 <1>  -0.1500 
  6 C       -2.0750     1.6230    -1.2780 C.ar  1 <1>  -0.1500 
  7 C       -1.3260     2.3580    -0.3700 C.ar  1 <1>   0.0830 
  8 O       -0.2730     3.0480    -0.8720 O.3   1 <1>  -0.3630 
  9 C        0.5560     3.8290    -0.0410 C.3   1 <1>   0.1200 
 10 C        1.6350     4.4700    -0.9140 C.3   1 <1>  -0.1600 
 11 C        2.5770     5.3440    -0.0740 C.3   1 <1>  -0.1600 
 12 C        3.6640     5.9940    -0.9370 C.3   1 <1>   0.0210 
 13 C        4.5690     6.8560    -0.0740 C.2   1 <1>  -0.1810 
 14 C        4.3920     8.2060     0.2270 C.2   1 <1>   0.1080 
 15 C        5.7050     6.5070     0.5690 C.2   1 <1>  -0.3320 
 16 N        5.3320     8.6670     0.9890 N.2   1 <1>  -0.7070 
 17 C        3.2570     9.0810    -0.2560 C.3   1 <1>  -0.0590 
 18 N        6.1440     7.6170     1.1990 N.pl3 1 <1>   0.3000 
 19 C        6.4270     5.1730     0.6410 C.3   1 <1>  -0.0600 
 20 H       -3.0590     1.6080     2.4440 H     1 <1>   0.1500 
 21 H       -3.7540     0.3160    -1.5510 H     1 <1>   0.1500 
 22 H       -1.1190     2.9150     1.7060 H     1 <1>   0.1500 
 23 H       -1.7940     1.6320    -2.3160 H     1 <1>   0.1500 
 24 H        0.9980     3.1850     0.7000 H     1 <1>   0.0800 
 25 H       -0.0500     4.5830     0.4300 H     1 <1>   0.0800 
 26 H        1.1610     5.0740    -1.6680 H     1 <1>   0.0800 
 27 H        2.2010     3.6920    -1.3970 H     1 <1>   0.0800 
 28 H        3.0490     4.7440     0.6850 H     1 <1>   0.0800 
 29 H        2.0120     6.1160     0.4190 H     1 <1>   0.0800 
 30 H        3.2170     6.5980    -1.7060 H     1 <1>   0.0800 
 31 H        4.2500     5.2330    -1.4200 H     1 <1>   0.0800 
 32 H        2.3190     8.5770    -0.1260 H     1 <1>   0.0800 
 33 H        3.3990     9.3140    -1.2950 H     1 <1>   0.0800 
 34 H        3.2400     9.9970     0.3070 H     1 <1>   0.0800 
 35 H        6.9880     7.6900     1.7770 H     1 <1>   0.2700 
 36 H        5.8830     4.4170     0.1050 H     1 <1>   0.0800 
 37 H        6.5230     4.8590     1.6650 H     1 <1>   0.0800 
 38 H        7.4080     5.2590     0.2080 H     1 <1>   0.0800 
@<TRIPOS>BOND
  1   1   2  1   
  2   2   3  ar  
  3   2   4  ar  
  4   3   5  ar  
  5   3  20  1   
  6   4   6  ar  
  7   4  21  1   
  8   5   7  ar  
  9   5  22  1   
 10   6   7  ar  
 11   6  23  1   
 12   7   8  1   
 13   8   9  1   
 14   9  10  1   
 15   9  24  1   
 16   9  25  1   
 17  10  11  1   
 18  10  26  1   
 19  10  27  1   
 20  11  12  1   
 21  11  28  1   
 22  11  29  1   
 23  12  13  1   
 24  12  30  1   
 25  12  31  1   
 26  13  14  1   
 27  13  15  2   
 28  14  16  2   
 29  14  17  1   
 30  15  18  1   
 31  15  19  1   
 32  16  18  1   
 33  17  32  1   
 34  17  33  1   
 35  17  34  1   
 36  18  35  1   
 37  19  36  1   
 38  19  37  1   
 39  19  38  1   
@<TRIPOS>SUBSTRUCTURE
  1 ****   9 GROUP 4 **** **** 0

# MOE 2024.06 (io_trps.svl 2023.06)
