@<TRIPOS>MOLECULE
NONAME
48 50 1 0 0 
SMALL
USER_CHARGES


@<TRIPOS>ATOM
  1 F       -0.6920    -3.0070     1.3720 F     1 <1>  -0.1900 
  2 C       -1.6500    -2.2100     0.9830 C.ar  1 <1>   0.1900 
  3 C       -1.5550    -1.5750    -0.2540 C.ar  1 <1>   0.0860 
  4 C       -2.7230    -2.0410     1.8380 C.ar  1 <1>  -0.1500 
  5 C       -0.4240    -1.7450    -1.1370 C.2   1 <1>   0.5440 
  6 C       -2.6250    -0.7540    -0.6140 C.ar  1 <1>  -0.1500 
  7 C       -3.7620    -1.2110     1.4550 C.ar  1 <1>  -0.1500 
  8 O       -0.6030    -2.2380    -2.2350 O.2   1 <1>  -0.5700 
  9 N        0.8440    -1.3270    -0.7960 N.am  1 <1>  -0.6600 
 10 C       -3.7100    -0.5700     0.2270 C.ar  1 <1>  -0.1500 
 11 C        1.1370    -0.5200     0.4330 C.3   1 <1>   0.1400 
 12 C        2.0110    -1.6200    -1.6880 C.3   1 <1>   0.1400 
 13 C        2.3870     0.3570     0.2700 C.3   1 <1>   0.1400 
 14 C        3.3380    -1.6860    -0.9130 C.3   1 <1>   0.1400 
 15 N        3.5860    -0.4530    -0.1020 N.am  1 <1>  -0.6600 
 16 C        4.8470    -0.1060     0.3340 C.2   1 <1>   0.5440 
 17 O        4.9940     0.9500     0.9260 O.2   1 <1>  -0.5700 
 18 C        5.9870    -0.9590     0.0950 C.ar  1 <1>   0.0860 
 19 C        6.3300    -1.9700     1.0020 C.ar  1 <1>   0.0830 
 20 C        6.7740    -0.8130    -1.0530 C.ar  1 <1>   0.0830 
 21 O        5.5460    -2.1230     2.0980 O.3   1 <1>  -0.3630 
 22 C        7.4340    -2.7860     0.7630 C.ar  1 <1>  -0.1500 
 23 O        6.4760     0.1100    -1.9880 O.3   1 <1>  -0.3630 
 24 C        7.8630    -1.6340    -1.2870 C.ar  1 <1>  -0.1500 
 25 C        5.8560    -3.0220     3.1390 C.3   1 <1>   0.0400 
 26 C        8.1980    -2.6180    -0.3770 C.ar  1 <1>  -0.1500 
 27 C        6.9500     1.4200    -1.7680 C.3   1 <1>   0.0400 
 28 H       -2.7440    -2.5540     2.7840 H     1 <1>   0.1500 
 29 H       -2.5960    -0.2600    -1.5700 H     1 <1>   0.1500 
 30 H       -4.6080    -1.0660     2.1060 H     1 <1>   0.1500 
 31 H       -4.5210     0.0700    -0.0760 H     1 <1>   0.1500 
 32 H        1.2920    -1.1880     1.2630 H     1 <1>   0.0800 
 33 H        0.2980     0.1130     0.6630 H     1 <1>   0.0800 
 34 H        2.0790    -0.8530    -2.4390 H     1 <1>   0.0800 
 35 H        1.8540    -2.5590    -2.1900 H     1 <1>   0.0800 
 36 H        2.5720     0.8750     1.1950 H     1 <1>   0.0800 
 37 H        2.2120     1.0950    -0.4930 H     1 <1>   0.0800 
 38 H        4.1400    -1.8240    -1.6170 H     1 <1>   0.0800 
 39 H        3.3180    -2.5380    -0.2560 H     1 <1>   0.0800 
 40 H        7.7140    -3.5610     1.4510 H     1 <1>   0.1500 
 41 H        8.4430    -1.5000    -2.1830 H     1 <1>   0.1500 
 42 H        5.1090    -2.9130     3.9050 H     1 <1>   0.0800 
 43 H        6.8250    -2.7760     3.5360 H     1 <1>   0.0800 
 44 H        5.8370    -4.0260     2.7530 H     1 <1>   0.0800 
 45 H        9.0480    -3.2530    -0.5580 H     1 <1>   0.1500 
 46 H        6.6670     2.0260    -2.6090 H     1 <1>   0.0800 
 47 H        8.0210     1.3920    -1.6750 H     1 <1>   0.0800 
 48 H        6.5090     1.8140    -0.8700 H     1 <1>   0.0800 
@<TRIPOS>BOND
  1   1   2  1   
  2   2   3  ar  
  3   2   4  ar  
  4   3   5  1   
  5   3   6  ar  
  6   4   7  ar  
  7   4  28  1   
  8   5   8  2   
  9   5   9  am  
 10   6  10  ar  
 11   6  29  1   
 12   7  10  ar  
 13   7  30  1   
 14   9  11  1   
 15   9  12  1   
 16  10  31  1   
 17  11  13  1   
 18  11  32  1   
 19  11  33  1   
 20  12  14  1   
 21  12  34  1   
 22  12  35  1   
 23  13  15  1   
 24  13  36  1   
 25  13  37  1   
 26  14  15  1   
 27  14  38  1   
 28  14  39  1   
 29  15  16  am  
 30  16  17  2   
 31  16  18  1   
 32  18  19  ar  
 33  18  20  ar  
 34  19  21  1   
 35  19  22  ar  
 36  20  23  1   
 37  20  24  ar  
 38  21  25  1   
 39  22  26  ar  
 40  22  40  1   
 41  23  27  1   
 42  24  26  ar  
 43  24  41  1   
 44  25  42  1   
 45  25  43  1   
 46  25  44  1   
 47  26  45  1   
 48  27  46  1   
 49  27  47  1   
 50  27  48  1   
@<TRIPOS>SUBSTRUCTURE
  1 ****  15 GROUP 4 **** **** 0

# MOE 2024.06 (io_trps.svl 2023.06)
