@<TRIPOS>MOLECULE
NONAME
38 40 1 0 0 
SMALL
USER_CHARGES


@<TRIPOS>ATOM
  1 S        0.1170     0.3720     0.5680 S.3   1 <1>  -0.0800 
  2 C       -0.5830    -1.2160     0.2920 C.2   1 <1>   0.1040 
  3 C       -1.4650     1.1260     0.6860 C.2   1 <1>  -0.1400 
  4 N        0.2410    -2.3350     0.1090 N.am  1 <1>  -0.4940 
  5 C       -1.9400    -1.1250     0.2950 C.2   1 <1>   0.0190 
  6 C       -2.4410     0.2120     0.5170 C.2   1 <1>  -0.1810 
  7 C       -1.4620     2.6250     0.9270 C.3   1 <1>   0.0200 
  8 C        1.6090    -2.5210     0.0930 C.2   1 <1>   0.5440 
  9 C       -2.7820    -2.2640     0.0930 C.1   1 <1>   0.5380 
 10 C       -3.9380     0.5280     0.5500 C.3   1 <1>   0.0210 
 11 C       -1.7930     3.3640    -0.3780 C.3   1 <1>  -0.1600 
 12 O        2.3670    -1.5860     0.2630 O.2   1 <1>  -0.5700 
 13 C        2.1210    -3.8660    -0.1320 C.ar  1 <1>   0.3960 
 14 N       -3.4330    -3.1870    -0.0680 N.1   1 <1>  -0.5570 
 15 C       -4.3700     1.5880    -0.4830 C.3   1 <1>  -0.1600 
 16 C       -3.2230     3.9280    -0.4620 C.3   1 <1>  -0.1600 
 17 N        1.2480    -4.8750    -0.3150 N.ar  1 <1>  -0.6200 
 18 C        3.5040    -4.0910    -0.1550 C.ar  1 <1>   0.1600 
 19 C       -4.3610     3.0310     0.0580 C.3   1 <1>  -0.1600 
 20 C        1.8350    -6.0420    -0.5090 C.ar  1 <1>   0.1600 
 21 N        4.0900    -5.2630    -0.3490 N.ar  1 <1>  -0.6200 
 22 C        3.2110    -6.2320    -0.5250 C.ar  1 <1>   0.1600 
 23 H       -0.2470    -3.2240    -0.0490 H     1 <1>   0.3700 
 24 H       -0.4820     2.9190     1.2610 H     1 <1>   0.0800 
 25 H       -2.1500     2.8800     1.7120 H     1 <1>   0.0800 
 26 H       -4.2120     0.8330     1.5440 H     1 <1>   0.0800 
 27 H       -4.5060    -0.3600     0.3450 H     1 <1>   0.0800 
 28 H       -1.6210     2.7050    -1.2130 H     1 <1>   0.0800 
 29 H       -1.1060     4.1850    -0.4920 H     1 <1>   0.0800 
 30 H       -5.3850     1.3610    -0.7610 H     1 <1>   0.0800 
 31 H       -3.7800     1.5020    -1.3790 H     1 <1>   0.0800 
 32 H       -3.4220     4.1750    -1.4910 H     1 <1>   0.0800 
 33 H       -3.2560     4.8510     0.0910 H     1 <1>   0.0800 
 34 H        4.1550    -3.2460    -0.0020 H     1 <1>   0.1500 
 35 H       -4.3580     3.0300     1.1340 H     1 <1>   0.0800 
 36 H       -5.2860     3.5000    -0.2320 H     1 <1>   0.0800 
 37 H        1.1980    -6.8970    -0.6620 H     1 <1>   0.1500 
 38 H        3.5970    -7.2230    -0.6910 H     1 <1>   0.1500 
@<TRIPOS>BOND
  1   1   2  1   
  2   1   3  1   
  3   2   4  1   
  4   2   5  2   
  5   3   6  2   
  6   3   7  1   
  7   4   8  am  
  8   4  23  1   
  9   5   6  1   
 10   5   9  1   
 11   6  10  1   
 12   7  11  1   
 13   7  24  1   
 14   7  25  1   
 15   8  12  2   
 16   8  13  1   
 17   9  14  3   
 18  10  15  1   
 19  10  26  1   
 20  10  27  1   
 21  11  16  1   
 22  11  28  1   
 23  11  29  1   
 24  13  17  ar  
 25  13  18  ar  
 26  15  19  1   
 27  15  30  1   
 28  15  31  1   
 29  16  19  1   
 30  16  32  1   
 31  16  33  1   
 32  17  20  ar  
 33  18  21  ar  
 34  18  34  1   
 35  19  35  1   
 36  19  36  1   
 37  20  22  ar  
 38  20  37  1   
 39  21  22  ar  
 40  22  38  1   
@<TRIPOS>SUBSTRUCTURE
  1 ****   2 GROUP 4 **** **** 0

# MOE 2024.06 (io_trps.svl 2023.06)
