@<TRIPOS>MOLECULE
NONAME
36 37 1 0 0 
SMALL
USER_CHARGES


@<TRIPOS>ATOM
  1 O       -0.5870    -0.0510     0.9830 O.2   1 <1>  -0.5700 
  2 C       -1.5220     0.6910     0.7490 C.2   1 <1>   0.7060 
  3 O       -2.7280     0.1310     0.6640 O.3   1 <1>  -0.2330 
  4 C       -1.4040     2.1150     0.5590 C.2   1 <1>  -0.1240 
  5 C       -3.8500     0.8360     0.4220 C.ar  1 <1>   0.0820 
  6 C       -2.5060     2.8670     0.2850 C.2   1 <1>  -0.1670 
  7 C        0.0130     2.6890     0.6850 C.3   1 <1>  -0.0220 
  8 C       -3.7940     2.2210     0.2290 C.ar  1 <1>   0.0280 
  9 C       -5.0470     0.1450     0.3760 C.ar  1 <1>  -0.1500 
 10 C       -2.4650     4.3730     0.0140 C.3   1 <1>  -0.1020 
 11 C        0.7260     2.6810    -0.6700 C.3   1 <1>  -0.2400 
 12 C       -5.0110     2.8760     0.0010 C.ar  1 <1>  -0.1500 
 13 C       -6.2370     0.8170     0.1400 C.ar  1 <1>   0.0830 
 14 C       -6.2220     2.2020    -0.0480 C.ar  1 <1>  -0.1440 
 15 O       -7.4350     0.1820     0.0850 O.3   1 <1>  -0.3630 
 16 C       -7.5580     2.9120    -0.3000 C.3   1 <1>  -0.0170 
 17 C       -7.5550    -1.2130     0.2610 C.3   1 <1>   0.0400 
 18 C       -7.4900     4.4310    -0.4980 C.3   1 <1>  -0.2400 
 19 H        0.5870     2.1100     1.3890 H     1 <1>   0.0800 
 20 H       -0.0110     3.6870     1.0800 H     1 <1>   0.0800 
 21 H       -5.0190    -0.9160     0.5280 H     1 <1>   0.1500 
 22 H       -2.9760     4.9000     0.8010 H     1 <1>   0.0800 
 23 H       -2.9510     4.5880    -0.9210 H     1 <1>   0.0800 
 24 H       -1.4700     4.7640    -0.0600 H     1 <1>   0.0800 
 25 H        0.8110     1.6730    -1.0370 H     1 <1>   0.0800 
 26 H        1.7150     3.0930    -0.5690 H     1 <1>   0.0800 
 27 H        0.1790     3.2650    -1.3880 H     1 <1>   0.0800 
 28 H       -5.0000     3.9370    -0.1380 H     1 <1>   0.1500 
 29 H       -8.2100     2.7070     0.5310 H     1 <1>   0.0800 
 30 H       -8.0100     2.4760    -1.1740 H     1 <1>   0.0800 
 31 H       -8.5940    -1.4720     0.1710 H     1 <1>   0.0800 
 32 H       -7.1960    -1.4740     1.2410 H     1 <1>   0.0800 
 33 H       -6.9870    -1.7110    -0.5040 H     1 <1>   0.0800 
 34 H       -7.0850     4.9060     0.3770 H     1 <1>   0.0800 
 35 H       -8.4790     4.8190    -0.6660 H     1 <1>   0.0800 
 36 H       -6.8830     4.6720    -1.3520 H     1 <1>   0.0800 
@<TRIPOS>BOND
  1   1   2  2   
  2   2   3  1   
  3   2   4  1   
  4   3   5  1   
  5   4   6  2   
  6   4   7  1   
  7   5   8  ar  
  8   5   9  ar  
  9   6   8  1   
 10   6  10  1   
 11   7  11  1   
 12   7  19  1   
 13   7  20  1   
 14   8  12  ar  
 15   9  13  ar  
 16   9  21  1   
 17  10  22  1   
 18  10  23  1   
 19  10  24  1   
 20  11  25  1   
 21  11  26  1   
 22  11  27  1   
 23  12  14  ar  
 24  12  28  1   
 25  13  14  ar  
 26  13  15  1   
 27  14  16  1   
 28  15  17  1   
 29  16  18  1   
 30  16  29  1   
 31  16  30  1   
 32  17  31  1   
 33  17  32  1   
 34  17  33  1   
 35  18  34  1   
 36  18  35  1   
 37  18  36  1   
@<TRIPOS>SUBSTRUCTURE
  1 ****   8 GROUP 4 **** **** 0

# MOE 2024.06 (io_trps.svl 2023.06)
