@<TRIPOS>MOLECULE
NONAME
42 44 1 0 0 
SMALL
USER_CHARGES


@<TRIPOS>ATOM
  1 CL       2.0290     3.7060    -0.2320 Cl    1 <1>  -0.1770 
  2 C        1.3580     2.2770     0.5190 C.ar  1 <1>   0.1770 
  3 C        0.0010     2.2340     0.8500 C.ar  1 <1>   0.0530 
  4 C        2.2110     1.2190     0.7660 C.ar  1 <1>  -0.1500 
  5 C       -0.8980     3.3290     0.5920 C.2   1 <1>   0.1330 
  6 C       -0.4730     1.0740     1.4650 C.ar  1 <1>  -0.1500 
  7 C        1.7010     0.0850     1.3660 C.ar  1 <1>   0.1770 
  8 N       -1.4780     4.0430     1.5170 N.2   1 <1>  -0.3380 
  9 N       -1.2800     3.7420    -0.6340 N.pl3 1 <1>   0.0480 
 10 C        0.3670     0.0030     1.7200 C.ar  1 <1>  -0.1500 
 11 CL       2.7570    -1.2650     1.6840 Cl    1 <1>  -0.1770 
 12 N       -2.2430     4.9500     0.9150 N.2   1 <1>  -0.3380 
 13 C       -2.1090     4.7410    -0.3470 C.2   1 <1>   0.2420 
 14 C       -0.9440     3.1830    -1.9640 C.3   1 <1>   0.0960 
 15 S       -2.9660     5.6730    -1.6220 S.3   1 <1>  -0.2860 
 16 C       -1.9090     2.0510    -2.3300 C.3   1 <1>  -0.2400 
 17 C       -4.0590     6.8590    -0.6970 C.3   1 <1>   0.1310 
 18 C       -5.5240     6.4920    -0.8880 C.2   1 <1>   0.5690 
 19 O       -6.1610     7.1320    -1.6920 O.2   1 <1>  -0.5700 
 20 N       -6.1060     5.4880    -0.1600 N.am  1 <1>  -0.6600 
 21 C       -7.5210     5.1010    -0.3360 C.3   1 <1>   0.1400 
 22 C       -5.4460     4.6400     0.8590 C.3   1 <1>   0.1400 
 23 C       -7.6700     3.8000     0.4430 C.3   1 <1>  -0.1600 
 24 C       -6.5830     3.8650     1.5120 C.3   1 <1>  -0.1600 
 25 H        3.2510     1.2760     0.5010 H     1 <1>   0.1500 
 26 H       -1.5120     1.0210     1.7470 H     1 <1>   0.1500 
 27 H       -0.0050    -0.8890     2.1930 H     1 <1>   0.1500 
 28 H        0.0640     2.8130    -1.9500 H     1 <1>   0.0800 
 29 H       -1.0000     3.9660    -2.6990 H     1 <1>   0.0800 
 30 H       -1.8460     1.2520    -1.6120 H     1 <1>   0.0800 
 31 H       -1.6560     1.6580    -3.2980 H     1 <1>   0.0800 
 32 H       -2.9200     2.4190    -2.3680 H     1 <1>   0.0800 
 33 H       -3.8720     7.8330    -1.1080 H     1 <1>   0.0800 
 34 H       -3.7870     6.8530     0.3400 H     1 <1>   0.0800 
 35 H       -7.7560     4.9730    -1.3800 H     1 <1>   0.0800 
 36 H       -8.1480     5.8700     0.0820 H     1 <1>   0.0800 
 37 H       -4.9110     5.2330     1.5810 H     1 <1>   0.0800 
 38 H       -4.7700     3.9610     0.3690 H     1 <1>   0.0800 
 39 H       -7.4820     2.9740    -0.2200 H     1 <1>   0.0800 
 40 H       -8.6550     3.6960     0.8620 H     1 <1>   0.0800 
 41 H       -6.9390     4.4190     2.3630 H     1 <1>   0.0800 
 42 H       -6.2650     2.8900     1.8380 H     1 <1>   0.0800 
@<TRIPOS>BOND
  1   1   2  1   
  2   2   3  ar  
  3   2   4  ar  
  4   3   5  1   
  5   3   6  ar  
  6   4   7  ar  
  7   4  25  1   
  8   5   8  2   
  9   5   9  1   
 10   6  10  ar  
 11   6  26  1   
 12   7  10  ar  
 13   7  11  1   
 14   8  12  1   
 15   9  13  1   
 16   9  14  1   
 17  10  27  1   
 18  12  13  2   
 19  13  15  1   
 20  14  16  1   
 21  14  28  1   
 22  14  29  1   
 23  15  17  1   
 24  16  30  1   
 25  16  31  1   
 26  16  32  1   
 27  17  18  1   
 28  17  33  1   
 29  17  34  1   
 30  18  19  2   
 31  18  20  am  
 32  20  21  1   
 33  20  22  1   
 34  21  23  1   
 35  21  35  1   
 36  21  36  1   
 37  22  24  1   
 38  22  37  1   
 39  22  38  1   
 40  23  24  1   
 41  23  39  1   
 42  23  40  1   
 43  24  41  1   
 44  24  42  1   
@<TRIPOS>SUBSTRUCTURE
  1 ****   9 GROUP 4 **** **** 0

# MOE 2024.06 (io_trps.svl 2023.06)
