@<TRIPOS>MOLECULE
NONAME
26 27 1 0 0 
SMALL
USER_CHARGES


@<TRIPOS>ATOM
  1 O       -0.0760    -0.7690     1.7400 O.2   1 <1>  -0.5700 
  2 C       -0.1430    -1.5650     0.8200 C.2   1 <1>   0.4230 
  3 C       -1.2620    -2.2940     0.3150 C.ar  1 <1>   0.0860 
  4 C        1.1860    -1.8370     0.1540 C.3   1 <1>  -0.0990 
  5 C       -1.0100    -3.4300    -0.4940 C.ar  1 <1>   0.0820 
  6 C       -2.6340    -1.9700     0.5390 C.ar  1 <1>  -0.1710 
  7 C        1.3630    -3.3380    -0.0690 C.3   1 <1>   0.2800 
  8 O        0.2560    -3.8310    -0.7880 O.3   1 <1>  -0.3630 
  9 C       -2.0230    -4.1950    -1.0280 C.ar  1 <1>  -0.1500 
 10 O       -3.0040    -0.9720     1.1900 O.3   1 <1>  -0.8290 
 11 C       -3.6470    -2.7720    -0.0050 C.ar  1 <1>  -0.1500 
 12 C        1.4590    -4.1250     1.2450 C.3   1 <1>  -0.2400 
 13 C        2.5980    -3.6120    -0.9300 C.3   1 <1>  -0.2400 
 14 C       -3.3480    -3.8630    -0.7750 C.ar  1 <1>   0.0820 
 15 O       -4.3290    -4.6160    -1.2910 O.3   1 <1>  -0.5330 
 16 H        1.9830    -1.4620     0.7680 H     1 <1>   0.0800 
 17 H        1.2100    -1.3130    -0.7830 H     1 <1>   0.0800 
 18 H       -1.8020    -5.0490    -1.6380 H     1 <1>   0.1500 
 19 H       -4.6550    -2.4770     0.2110 H     1 <1>   0.1500 
 20 H        0.5790    -3.9810     1.8460 H     1 <1>   0.0800 
 21 H        2.3080    -3.7920     1.8140 H     1 <1>   0.0800 
 22 H        1.5710    -5.1740     1.0430 H     1 <1>   0.0800 
 23 H        2.5130    -3.1040    -1.8740 H     1 <1>   0.0800 
 24 H        2.7000    -4.6670    -1.1090 H     1 <1>   0.0800 
 25 H        3.4840    -3.2620    -0.4320 H     1 <1>   0.0800 
 26 H       -5.1990    -4.2630    -1.0330 H     1 <1>   0.4500 
@<TRIPOS>BOND
  1   1   2  2   
  2   2   3  1   
  3   2   4  1   
  4   3   5  ar  
  5   3   6  ar  
  6   4   7  1   
  7   4  16  1   
  8   4  17  1   
  9   5   8  1   
 10   5   9  ar  
 11   6  10  1   
 12   6  11  ar  
 13   7   8  1   
 14   7  12  1   
 15   7  13  1   
 16   9  14  ar  
 17   9  18  1   
 18  11  14  ar  
 19  11  19  1   
 20  12  20  1   
 21  12  21  1   
 22  12  22  1   
 23  13  23  1   
 24  13  24  1   
 25  13  25  1   
 26  14  15  1   
 27  15  26  1   
@<TRIPOS>SUBSTRUCTURE
  1 ****   3 GROUP 4 **** **** 0

# MOE 2024.06 (io_trps.svl 2023.06)
