@<TRIPOS>MOLECULE
NONAME
44 45 1 0 0 
SMALL
USER_CHARGES


@<TRIPOS>ATOM
  1 O        1.0940     1.5590     1.6160 O.2   1 <1>  -0.5700 
  2 C        0.5000     2.2380     0.8090 C.2   1 <1>   0.5690 
  3 N        1.0500     2.5570    -0.4190 N.am  1 <1>  -0.6600 
  4 C       -0.8880     2.7090     1.2390 C.3   1 <1>   0.1810 
  5 C        2.0050     1.6350    -1.1060 C.3   1 <1>   0.2200 
  6 C        0.8780     3.8620    -1.1260 C.3   1 <1>   0.2200 
  7 O       -1.8990     2.1280     0.4290 O.3   1 <1>  -0.3630 
  8 C        1.5110     0.1870    -1.0820 C.3   1 <1>  -0.2400 
  9 C        3.4050     1.7770    -0.5100 C.3   1 <1>  -0.2400 
 10 C        1.2160     5.0390    -0.2090 C.3   1 <1>  -0.2400 
 11 C       -0.5020     3.9880    -1.7690 C.3   1 <1>  -0.2400 
 12 C       -3.1800     2.5610     0.4920 C.ar  1 <1>   0.0820 
 13 C       -4.0030     2.2600    -0.5590 C.ar  1 <1>  -0.1500 
 14 C       -3.6830     3.3000     1.5790 C.ar  1 <1>  -0.1500 
 15 C       -5.3460     2.6830    -0.5910 C.ar  1 <1>   0.0000 
 16 C       -4.9830     3.7230     1.5720 C.ar  1 <1>  -0.1500 
 17 C       -5.8460     3.4330     0.4950 C.ar  1 <1>   0.0000 
 18 C       -6.2090     2.3890    -1.6660 C.ar  1 <1>  -0.1500 
 19 C       -7.1890     3.8600     0.4620 C.ar  1 <1>  -0.1500 
 20 C       -7.5080     2.8160    -1.6720 C.ar  1 <1>  -0.1500 
 21 C       -8.0030     3.5610    -0.5960 C.ar  1 <1>  -0.1500 
 22 H       -0.9700     3.7740     1.1780 H     1 <1>   0.0800 
 23 H       -1.0620     2.3980     2.2520 H     1 <1>   0.0800 
 24 H        2.0610     1.9110    -2.1460 H     1 <1>   0.0800 
 25 H        1.5940     3.9040    -1.9290 H     1 <1>   0.0800 
 26 H        1.5600    -0.2270    -0.0920 H     1 <1>   0.0800 
 27 H        2.1280    -0.4160    -1.7220 H     1 <1>   0.0800 
 28 H        0.4980     0.1370    -1.4390 H     1 <1>   0.0800 
 29 H        3.4150     1.4580     0.5170 H     1 <1>   0.0800 
 30 H        3.7310     2.7990    -0.5640 H     1 <1>   0.0800 
 31 H        4.0990     1.1670    -1.0580 H     1 <1>   0.0800 
 32 H        0.4920     5.1720     0.5690 H     1 <1>   0.0800 
 33 H        1.2460     5.9450    -0.7880 H     1 <1>   0.0800 
 34 H        2.1860     4.8910     0.2320 H     1 <1>   0.0800 
 35 H       -1.2630     4.2020    -1.0440 H     1 <1>   0.0800 
 36 H       -0.7520     3.0810    -2.2910 H     1 <1>   0.0800 
 37 H       -0.4950     4.7960    -2.4780 H     1 <1>   0.0800 
 38 H       -3.6200     1.6900    -1.3840 H     1 <1>   0.1500 
 39 H       -3.0560     3.5290     2.4190 H     1 <1>   0.1500 
 40 H       -5.3750     4.2880     2.3990 H     1 <1>   0.1500 
 41 H       -5.8220     1.8160    -2.4900 H     1 <1>   0.1500 
 42 H       -7.5660     4.4310     1.2910 H     1 <1>   0.1500 
 43 H       -8.1620     2.5890    -2.4960 H     1 <1>   0.1500 
 44 H       -9.0280     3.8900    -0.6150 H     1 <1>   0.1500 
@<TRIPOS>BOND
  1   1   2  2   
  2   2   3  am  
  3   2   4  1   
  4   3   5  1   
  5   3   6  1   
  6   4   7  1   
  7   4  22  1   
  8   4  23  1   
  9   5   8  1   
 10   5   9  1   
 11   5  24  1   
 12   6  10  1   
 13   6  11  1   
 14   6  25  1   
 15   7  12  1   
 16   8  26  1   
 17   8  27  1   
 18   8  28  1   
 19   9  29  1   
 20   9  30  1   
 21   9  31  1   
 22  10  32  1   
 23  10  33  1   
 24  10  34  1   
 25  11  35  1   
 26  11  36  1   
 27  11  37  1   
 28  12  13  ar  
 29  12  14  ar  
 30  13  15  ar  
 31  13  38  1   
 32  14  16  ar  
 33  14  39  1   
 34  15  17  ar  
 35  15  18  ar  
 36  16  17  ar  
 37  16  40  1   
 38  17  19  ar  
 39  18  20  ar  
 40  18  41  1   
 41  19  21  ar  
 42  19  42  1   
 43  20  21  ar  
 44  20  43  1   
 45  21  44  1   
@<TRIPOS>SUBSTRUCTURE
  1 ****   7 GROUP 4 **** **** 0

# MOE 2024.06 (io_trps.svl 2023.06)
