@<TRIPOS>MOLECULE
NONAME
40 41 1 0 0 
SMALL
USER_CHARGES


@<TRIPOS>ATOM
  1 S        0.2320     0.9260     1.3460 S.2   1 <1>  -0.3800 
  2 C        1.1500     2.1160     0.7650 C.2   1 <1>   0.5810 
  3 S        0.2740     3.5060     0.0820 S.3   1 <1>  -0.3710 
  4 N        2.5040     2.1290     0.7680 N.am  1 <1>  -0.6600 
  5 C       -1.5310     3.1580     0.3080 C.3   1 <1>   0.0700 
  6 C        3.3040     3.2470     0.1740 C.3   1 <1>   0.1400 
  7 C        3.2830     1.0410     1.4280 C.3   1 <1>   0.1400 
  8 C       -2.3190     4.3170    -0.2990 C.3   1 <1>   0.1400 
  9 C        4.6520     2.8240    -0.4310 C.3   1 <1>  -0.1600 
 10 C        3.6130    -0.0640     0.4180 C.3   1 <1>  -0.1600 
 11 N       -3.7750     4.0450    -0.2150 N.am  1 <1>  -0.6600 
 12 C        4.5830     1.5760    -1.3260 C.3   1 <1>  -0.1600 
 13 C        4.7680     0.2720    -0.5370 C.3   1 <1>  -0.1600 
 14 C       -4.6150     4.5720     0.7030 C.2   1 <1>   0.5690 
 15 C       -4.4600     3.1980    -1.2030 C.3   1 <1>   0.1400 
 16 O       -4.3030     5.3040     1.6100 O.2   1 <1>  -0.5700 
 17 C       -6.0280     4.1270     0.4500 C.3   1 <1>  -0.0990 
 18 C       -5.8830     3.0530    -0.6430 C.3   1 <1>  -0.1600 
 19 H       -1.7170     3.0750     1.3650 H     1 <1>   0.0800 
 20 H       -1.7450     2.2330    -0.1950 H     1 <1>   0.0800 
 21 H        3.4730     3.9920     0.9320 H     1 <1>   0.0800 
 22 H        2.7430     3.7090    -0.6170 H     1 <1>   0.0800 
 23 H        2.7060     0.6190     2.2320 H     1 <1>   0.0800 
 24 H        4.1830     1.4370     1.8670 H     1 <1>   0.0800 
 25 H       -2.0400     4.4550    -1.3290 H     1 <1>   0.0800 
 26 H       -2.0930     5.2210     0.2420 H     1 <1>   0.0800 
 27 H        5.3810     2.6890     0.3490 H     1 <1>   0.0800 
 28 H        4.9990     3.6480    -1.0280 H     1 <1>   0.0800 
 29 H        2.7280    -0.3040    -0.1460 H     1 <1>   0.0800 
 30 H        3.8850    -0.9470     0.9680 H     1 <1>   0.0800 
 31 H        5.3780     1.6360    -2.0490 H     1 <1>   0.0800 
 32 H        3.6540     1.5550    -1.8700 H     1 <1>   0.0800 
 33 H        4.8700    -0.5390    -1.2370 H     1 <1>   0.0800 
 34 H        5.6870     0.3240     0.0220 H     1 <1>   0.0800 
 35 H       -3.9740     2.2410    -1.2930 H     1 <1>   0.0800 
 36 H       -4.4710     3.6980    -2.1580 H     1 <1>   0.0800 
 37 H       -6.5990     4.9660     0.1000 H     1 <1>   0.0800 
 38 H       -6.4650     3.7310     1.3490 H     1 <1>   0.0800 
 39 H       -5.9850     2.0750    -0.2040 H     1 <1>   0.0800 
 40 H       -6.6220     3.1630    -1.4160 H     1 <1>   0.0800 
@<TRIPOS>BOND
  1   1   2  2   
  2   2   3  1   
  3   2   4  am  
  4   3   5  1   
  5   4   6  1   
  6   4   7  1   
  7   5   8  1   
  8   5  19  1   
  9   5  20  1   
 10   6   9  1   
 11   6  21  1   
 12   6  22  1   
 13   7  10  1   
 14   7  23  1   
 15   7  24  1   
 16   8  11  1   
 17   8  25  1   
 18   8  26  1   
 19   9  12  1   
 20   9  27  1   
 21   9  28  1   
 22  10  13  1   
 23  10  29  1   
 24  10  30  1   
 25  11  14  am  
 26  11  15  1   
 27  12  13  1   
 28  12  31  1   
 29  12  32  1   
 30  13  33  1   
 31  13  34  1   
 32  14  16  2   
 33  14  17  1   
 34  15  18  1   
 35  15  35  1   
 36  15  36  1   
 37  17  18  1   
 38  17  37  1   
 39  17  38  1   
 40  18  39  1   
 41  18  40  1   
@<TRIPOS>SUBSTRUCTURE
  1 ****   3 GROUP 4 **** **** 0

# MOE 2024.06 (io_trps.svl 2023.06)
