@<TRIPOS>MOLECULE
NONAME
44 45 1 0 0 
SMALL
USER_CHARGES


@<TRIPOS>ATOM
  1 O       -1.4760     3.3160    -0.7950 O.2   1 <1>  -0.5700 
  2 C       -0.5630     2.5290    -0.8680 C.2   1 <1>   0.5690 
  3 N       -0.6860     1.3470    -1.5370 N.am  1 <1>  -0.7300 
  4 C        0.7500     2.8580    -0.1740 C.3   1 <1>   0.0440 
  5 C       -1.7360     0.8500    -2.4870 C.3   1 <1>   0.1400 
  6 C        1.7280     1.6870    -0.2060 C.ar  1 <1>  -0.1430 
  7 C       -3.1420     1.4850    -2.3630 C.3   1 <1>   0.3430 
  8 C        2.6060     1.5390    -1.2680 C.ar  1 <1>  -0.1500 
  9 C        1.7290     0.7470     0.8120 C.ar  1 <1>  -0.1500 
 10 N       -3.6130     1.6160    -0.9510 N.4   1 <1>  -0.9590 
 11 C        3.4680     0.4580    -1.3150 C.ar  1 <1>  -0.1500 
 12 C        2.5920    -0.3340     0.7630 C.ar  1 <1>  -0.1500 
 13 C       -3.6550     0.3360    -0.1910 C.3   1 <1>   0.3430 
 14 C       -4.8770     2.3930    -0.8600 C.3   1 <1>   0.3430 
 15 C        3.4630    -0.4860    -0.3020 C.ar  1 <1>  -0.1430 
 16 C       -3.9380     0.6260     1.2840 C.3   1 <1>  -0.1600 
 17 C       -5.1760     2.7120     0.6060 C.3   1 <1>  -0.1600 
 18 C        4.4120    -1.6700    -0.3500 C.3   1 <1>  -0.0970 
 19 C       -5.2220     1.4450     1.4690 C.3   1 <1>  -0.1600 
 20 H        0.1650     0.7630    -1.5140 H     1 <1>   0.3700 
 21 H        0.5440     3.1330     0.8440 H     1 <1>   0.0800 
 22 H        1.1880     3.7120    -0.6570 H     1 <1>   0.0800 
 23 H       -1.8330    -0.2140    -2.3540 H     1 <1>   0.0800 
 24 H       -1.3840     1.0050    -3.4920 H     1 <1>   0.0800 
 25 H       -3.8460     0.9020    -2.9330 H     1 <1>   0.0800 
 26 H       -3.0980     2.4680    -2.8040 H     1 <1>   0.0800 
 27 H        2.6290     2.2630    -2.0650 H     1 <1>   0.1500 
 28 H        1.0620     0.8470     1.6510 H     1 <1>   0.1500 
 29 H       -2.8810     2.2130    -0.5130 H     1 <1>   0.4500 
 30 H        4.1480     0.3560    -2.1440 H     1 <1>   0.1500 
 31 H        2.5870    -1.0560     1.5610 H     1 <1>   0.1500 
 32 H       -2.7090    -0.1750    -0.2750 H     1 <1>   0.0800 
 33 H       -4.4280    -0.3000    -0.5900 H     1 <1>   0.0800 
 34 H       -5.6890     1.8220    -1.2790 H     1 <1>   0.0800 
 35 H       -4.7830     3.3140    -1.4130 H     1 <1>   0.0800 
 36 H       -3.1020     1.1580     1.7050 H     1 <1>   0.0800 
 37 H       -4.0270    -0.3050     1.8150 H     1 <1>   0.0800 
 38 H       -6.1210     3.2230     0.6690 H     1 <1>   0.0800 
 39 H       -4.4220     3.3840     0.9800 H     1 <1>   0.0800 
 40 H        3.9560    -2.5360     0.0950 H     1 <1>   0.0800 
 41 H        5.3120    -1.4360     0.1900 H     1 <1>   0.0800 
 42 H        4.6700    -1.9080    -1.3670 H     1 <1>   0.0800 
 43 H       -5.3390     1.7130     2.5060 H     1 <1>   0.0800 
 44 H       -6.0740     0.8480     1.1870 H     1 <1>   0.0800 
@<TRIPOS>BOND
  1   1   2  2   
  2   2   3  am  
  3   2   4  1   
  4   3   5  1   
  5   3  20  1   
  6   4   6  1   
  7   4  21  1   
  8   4  22  1   
  9   5   7  1   
 10   5  23  1   
 11   5  24  1   
 12   6   8  ar  
 13   6   9  ar  
 14   7  10  1   
 15   7  25  1   
 16   7  26  1   
 17   8  11  ar  
 18   8  27  1   
 19   9  12  ar  
 20   9  28  1   
 21  10  13  1   
 22  10  14  1   
 23  10  29  1   
 24  11  15  ar  
 25  11  30  1   
 26  12  15  ar  
 27  12  31  1   
 28  13  16  1   
 29  13  32  1   
 30  13  33  1   
 31  14  17  1   
 32  14  34  1   
 33  14  35  1   
 34  15  18  1   
 35  16  19  1   
 36  16  36  1   
 37  16  37  1   
 38  17  19  1   
 39  17  38  1   
 40  17  39  1   
 41  18  40  1   
 42  18  41  1   
 43  18  42  1   
 44  19  43  1   
 45  19  44  1   
@<TRIPOS>SUBSTRUCTURE
  1 ****   3 GROUP 4 **** **** 0

# MOE 2024.06 (io_trps.svl 2023.06)
