@<TRIPOS>MOLECULE
NONAME
44 46 1 0 0 
SMALL
USER_CHARGES


@<TRIPOS>ATOM
  1 S       -1.6050     2.3210    -1.6450 S.3   1 <1>  -0.0800 
  2 C       -1.7610     1.0890    -0.4010 C.2   1 <1>  -0.1400 
  3 C       -0.0600     2.8410    -0.9980 C.2   1 <1>  -0.1100 
  4 C       -0.6940     1.1090     0.4210 C.2   1 <1>  -0.1500 
  5 C       -3.0120     0.2380    -0.4350 C.3   1 <1>   0.5230 
  6 C        0.2730     2.1080     0.0800 C.2   1 <1>  -0.1500 
  7 N       -4.1850     1.1350    -0.2890 N.4   1 <1>  -0.9590 
  8 C       -4.2000     1.8290     1.0520 C.3   1 <1>   0.3430 
  9 C       -5.4900     0.4270    -0.5440 C.3   1 <1>   0.3430 
 10 C       -5.4000     2.7830     1.2010 C.3   1 <1>   0.2090 
 11 C       -6.7010     1.3720    -0.4100 C.3   1 <1>   0.2090 
 12 N       -6.6870     2.0850     0.9020 N.pl3 1 <1>  -0.8380 
 13 C       -7.8300     2.8620     1.1420 C.ar  1 <1>   0.1000 
 14 C       -8.1640     4.0140     0.4050 C.ar  1 <1>   0.0830 
 15 C       -8.6710     2.4600     2.1690 C.ar  1 <1>  -0.1500 
 16 O       -7.3240     4.4030    -0.6060 O.3   1 <1>  -0.3620 
 17 C       -9.3230     4.7190     0.7180 C.ar  1 <1>  -0.1500 
 18 C       -9.8200     3.1660     2.4740 C.ar  1 <1>  -0.1500 
 19 C       -7.5520     5.5880    -1.3340 C.3   1 <1>   0.1200 
 20 C      -10.1460     4.2960     1.7480 C.ar  1 <1>  -0.1500 
 21 C       -6.4140     5.7500    -2.3370 C.3   1 <1>  -0.2400 
 22 H        0.4450     3.6500    -1.4990 H     1 <1>   0.1500 
 23 H       -0.5230     0.4630     1.2660 H     1 <1>   0.1500 
 24 H       -2.9900    -0.4850     0.3640 H     1 <1>   0.0800 
 25 H       -3.0580    -0.2850    -1.3760 H     1 <1>   0.0800 
 26 H        1.1750     2.2270     0.6570 H     1 <1>   0.1500 
 27 H       -4.0780     1.8730    -0.9970 H     1 <1>   0.4500 
 28 H       -3.2910     2.3910     1.1860 H     1 <1>   0.0800 
 29 H       -4.2570     1.0960     1.8390 H     1 <1>   0.0800 
 30 H       -5.6130    -0.3730     0.1680 H     1 <1>   0.0800 
 31 H       -5.4910    -0.0020    -1.5320 H     1 <1>   0.0800 
 32 H       -5.2730     3.6230     0.5410 H     1 <1>   0.0800 
 33 H       -5.4330     3.1620     2.2090 H     1 <1>   0.0800 
 34 H       -7.6100     0.8010    -0.4880 H     1 <1>   0.0800 
 35 H       -6.6920     2.0830    -1.2170 H     1 <1>   0.0800 
 36 H       -8.4180     1.5810     2.7330 H     1 <1>   0.1500 
 37 H       -9.6120     5.5990     0.1780 H     1 <1>   0.1500 
 38 H      -10.4590     2.8360     3.2750 H     1 <1>   0.1500 
 39 H       -7.5720     6.4150    -0.6440 H     1 <1>   0.0800 
 40 H       -8.4980     5.5010    -1.8410 H     1 <1>   0.0800 
 41 H      -11.0400     4.8460     1.9850 H     1 <1>   0.1500 
 42 H       -5.4730     5.8230    -1.8230 H     1 <1>   0.0800 
 43 H       -6.5620     6.6490    -2.9070 H     1 <1>   0.0800 
 44 H       -6.3960     4.9160    -3.0150 H     1 <1>   0.0800 
@<TRIPOS>BOND
  1   1   2  1   
  2   1   3  1   
  3   2   4  2   
  4   2   5  1   
  5   3   6  2   
  6   3  22  1   
  7   4   6  1   
  8   4  23  1   
  9   5   7  1   
 10   5  24  1   
 11   5  25  1   
 12   6  26  1   
 13   7   8  1   
 14   7   9  1   
 15   7  27  1   
 16   8  10  1   
 17   8  28  1   
 18   8  29  1   
 19   9  11  1   
 20   9  30  1   
 21   9  31  1   
 22  10  12  1   
 23  10  32  1   
 24  10  33  1   
 25  11  12  1   
 26  11  34  1   
 27  11  35  1   
 28  12  13  1   
 29  13  14  ar  
 30  13  15  ar  
 31  14  16  1   
 32  14  17  ar  
 33  15  18  ar  
 34  15  36  1   
 35  16  19  1   
 36  17  20  ar  
 37  17  37  1   
 38  18  20  ar  
 39  18  38  1   
 40  19  21  1   
 41  19  39  1   
 42  19  40  1   
 43  20  41  1   
 44  21  42  1   
 45  21  43  1   
 46  21  44  1   
@<TRIPOS>SUBSTRUCTURE
  1 ****  10 GROUP 4 **** **** 0

# MOE 2024.06 (io_trps.svl 2023.06)
