@<TRIPOS>MOLECULE
NONAME
43 45 1 0 0 
SMALL
USER_CHARGES


@<TRIPOS>ATOM
  1 S       -0.0070    -0.3260     0.2910 S.3   1 <1>  -0.0800 
  2 C        0.1000     1.4060     0.0620 C.2   1 <1>  -0.1400 
  3 C        1.7310    -0.4860     0.2010 C.2   1 <1>  -0.1100 
  4 C        1.3830     1.7830    -0.0660 C.2   1 <1>  -0.1500 
  5 C       -1.1990     2.1850     0.0400 C.3   1 <1>  -0.0600 
  6 C        2.3450     0.7110     0.0150 C.2   1 <1>  -0.0860 
  7 C        3.7690     0.9540    -0.1000 C.2   1 <1>   0.7160 
  8 O        4.1910     2.0390    -0.4450 O.2   1 <1>  -0.5700 
  9 N        4.6390    -0.0610     0.2140 N.am  1 <1>  -0.5470 
 10 C        6.0290    -0.1510     0.1080 C.ar  1 <1>   0.1170 
 11 C        6.7130    -1.0360     0.9340 C.ar  1 <1>  -0.1500 
 12 C        6.7710     0.5920    -0.8060 C.ar  1 <1>  -0.1500 
 13 C        8.0870    -1.1640     0.8580 C.ar  1 <1>  -0.1500 
 14 C        8.1450     0.4610    -0.8800 C.ar  1 <1>  -0.1500 
 15 C        8.8410    -0.4110    -0.0420 C.ar  1 <1>   0.0860 
 16 C       10.2830    -0.5480    -0.1010 C.2   1 <1>   0.5440 
 17 O       10.7690    -1.6630    -0.1590 O.2   1 <1>  -0.5700 
 18 N       11.1270     0.5440    -0.0820 N.am  1 <1>  -0.6600 
 19 C       10.6860     1.8940     0.3870 C.3   1 <1>   0.1400 
 20 C       12.5840     0.3610    -0.3570 C.3   1 <1>   0.1400 
 21 C       11.8130     2.5900     1.1550 C.3   1 <1>  -0.1600 
 22 C       13.2280     1.6860    -0.7770 C.3   1 <1>  -0.1600 
 23 C       13.0780     2.7760     0.2980 C.3   1 <1>  -0.1600 
 24 H        2.1220    -1.4820     0.2930 H     1 <1>   0.1500 
 25 H        1.7170     2.7970    -0.2190 H     1 <1>   0.1500 
 26 H       -1.7190     2.0570     0.9720 H     1 <1>   0.0800 
 27 H       -1.8240     1.8320    -0.7610 H     1 <1>   0.0800 
 28 H       -1.0010     3.2310    -0.1080 H     1 <1>   0.0800 
 29 H        4.1870    -0.8550     0.6590 H     1 <1>   0.3700 
 30 H        6.1690    -1.6310     1.6450 H     1 <1>   0.1500 
 31 H        6.2740     1.2730    -1.4720 H     1 <1>   0.1500 
 32 H        8.6010    -1.8570     1.5010 H     1 <1>   0.1500 
 33 H        8.6950     1.0390    -1.6020 H     1 <1>   0.1500 
 34 H        9.8270     1.7980     1.0290 H     1 <1>   0.0800 
 35 H       10.4100     2.4890    -0.4660 H     1 <1>   0.0800 
 36 H       12.7110    -0.3680    -1.1400 H     1 <1>   0.0800 
 37 H       13.0610    -0.0150     0.5320 H     1 <1>   0.0800 
 38 H       12.0480     1.9920     2.0190 H     1 <1>   0.0800 
 39 H       11.4730     3.5480     1.5090 H     1 <1>   0.0800 
 40 H       12.7580     2.0100    -1.6900 H     1 <1>   0.0800 
 41 H       14.2710     1.5290    -0.9900 H     1 <1>   0.0800 
 42 H       13.9370     2.7660     0.9470 H     1 <1>   0.0800 
 43 H       13.0490     3.7370    -0.1870 H     1 <1>   0.0800 
@<TRIPOS>BOND
  1   1   2  1   
  2   1   3  1   
  3   2   4  2   
  4   2   5  1   
  5   3   6  2   
  6   3  24  1   
  7   4   6  1   
  8   4  25  1   
  9   5  26  1   
 10   5  27  1   
 11   5  28  1   
 12   6   7  1   
 13   7   8  2   
 14   7   9  am  
 15   9  10  1   
 16   9  29  1   
 17  10  11  ar  
 18  10  12  ar  
 19  11  13  ar  
 20  11  30  1   
 21  12  14  ar  
 22  12  31  1   
 23  13  15  ar  
 24  13  32  1   
 25  14  15  ar  
 26  14  33  1   
 27  15  16  1   
 28  16  17  2   
 29  16  18  am  
 30  18  19  1   
 31  18  20  1   
 32  19  21  1   
 33  19  34  1   
 34  19  35  1   
 35  20  22  1   
 36  20  36  1   
 37  20  37  1   
 38  21  23  1   
 39  21  38  1   
 40  21  39  1   
 41  22  23  1   
 42  22  40  1   
 43  22  41  1   
 44  23  42  1   
 45  23  43  1   
@<TRIPOS>SUBSTRUCTURE
  1 ****  12 GROUP 4 **** **** 0

# MOE 2024.06 (io_trps.svl 2023.06)
