@<TRIPOS>MOLECULE
NONAME
48 49 1 0 0 
SMALL
USER_CHARGES


@<TRIPOS>ATOM
  1 CL       1.0920    -1.1570    -0.1750 Cl    1 <1>  -0.1770 
  2 C        0.7310    -2.8690    -0.1490 C.ar  1 <1>   0.1770 
  3 C        1.6480    -3.7850    -0.6470 C.ar  1 <1>   0.0830 
  4 C       -0.4720    -3.2790     0.3910 C.ar  1 <1>  -0.1500 
  5 O        2.8160    -3.3300    -1.1570 O.3   1 <1>  -0.3630 
  6 C        1.3300    -5.1380    -0.6010 C.ar  1 <1>  -0.1500 
  7 C       -0.7970    -4.6290     0.4480 C.ar  1 <1>  -0.0090 
  8 C        4.0010    -4.1000    -1.0110 C.3   1 <1>   0.1810 
  9 C        0.1230    -5.5450    -0.0560 C.ar  1 <1>  -0.1500 
 10 S       -2.3650    -5.1710     1.1740 S.o2  1 <1>   1.4470 
 11 C        5.2480    -3.2840    -1.3430 C.2   1 <1>   0.5690 
 12 O       -2.3940    -4.8230     2.5760 O.2   1 <1>  -0.6500 
 13 O       -2.6810    -6.5110     0.7410 O.2   1 <1>  -0.6500 
 14 N       -3.4970    -4.2160     0.3920 N.am  1 <1>  -0.9140 
 15 O        6.0100    -3.7660    -2.1500 O.2   1 <1>  -0.5700 
 16 N        5.5150    -2.0770    -0.7400 N.am  1 <1>  -0.6600 
 17 C       -4.7260    -4.0640     1.1530 C.3   1 <1>   0.1960 
 18 C        4.6480    -1.4010     0.2750 C.3   1 <1>   0.1400 
 19 C        6.6900    -1.2490    -1.1460 C.3   1 <1>   0.1400 
 20 C       -5.7970    -3.3680     0.2970 C.3   1 <1>  -0.0800 
 21 C        5.4920    -0.8100     1.4190 C.3   1 <1>   0.1200 
 22 C        7.4180    -0.6880     0.0860 C.3   1 <1>   0.1200 
 23 C       -7.0640    -3.1380     1.1300 C.3   1 <1>  -0.2400 
 24 C       -6.1520    -4.1730    -0.9650 C.3   1 <1>  -0.2400 
 25 O        6.5240    -0.0070     0.9200 O.3   1 <1>  -0.5600 
 26 H       -1.1590    -2.5430     0.7730 H     1 <1>   0.1500 
 27 H        2.0040    -5.8790    -0.9900 H     1 <1>   0.1500 
 28 H        3.9420    -4.9380    -1.6790 H     1 <1>   0.0800 
 29 H        4.0640    -4.4460     0.0040 H     1 <1>   0.0800 
 30 H       -0.1130    -6.5970    -0.0240 H     1 <1>   0.1500 
 31 H       -3.7420    -4.7660    -0.4290 H     1 <1>   0.4200 
 32 H       -4.5280    -3.4750     2.0340 H     1 <1>   0.0800 
 33 H       -5.0860    -5.0310     1.4670 H     1 <1>   0.0800 
 34 H        3.9380    -2.0880     0.6960 H     1 <1>   0.0800 
 35 H        4.0980    -0.6090    -0.2030 H     1 <1>   0.0800 
 36 H        6.3500    -0.4330    -1.7590 H     1 <1>   0.0800 
 37 H        7.3820    -1.8330    -1.7270 H     1 <1>   0.0800 
 38 H       -5.4150    -2.4040     0.0010 H     1 <1>   0.0800 
 39 H        5.9260    -1.5950     2.0130 H     1 <1>   0.0800 
 40 H        4.8770    -0.1970     2.0530 H     1 <1>   0.0800 
 41 H        8.1780     0.0090    -0.2190 H     1 <1>   0.0800 
 42 H        7.8800    -1.4810     0.6460 H     1 <1>   0.0800 
 43 H       -7.4870    -4.0750     1.4490 H     1 <1>   0.0800 
 44 H       -7.8010    -2.6090     0.5510 H     1 <1>   0.0800 
 45 H       -6.8380    -2.5480     2.0020 H     1 <1>   0.0800 
 46 H       -6.4830    -5.1630    -0.7040 H     1 <1>   0.0800 
 47 H       -5.3060    -4.2500    -1.6220 H     1 <1>   0.0800 
 48 H       -6.9420    -3.6820    -1.5060 H     1 <1>   0.0800 
@<TRIPOS>BOND
  1   1   2  1   
  2   2   3  ar  
  3   2   4  ar  
  4   3   5  1   
  5   3   6  ar  
  6   4   7  ar  
  7   4  26  1   
  8   5   8  1   
  9   6   9  ar  
 10   6  27  1   
 11   7   9  ar  
 12   7  10  1   
 13   8  11  1   
 14   8  28  1   
 15   8  29  1   
 16   9  30  1   
 17  10  12  2   
 18  10  13  2   
 19  10  14  am  
 20  11  15  2   
 21  11  16  am  
 22  14  17  1   
 23  14  31  1   
 24  16  18  1   
 25  16  19  1   
 26  17  20  1   
 27  17  32  1   
 28  17  33  1   
 29  18  21  1   
 30  18  34  1   
 31  18  35  1   
 32  19  22  1   
 33  19  36  1   
 34  19  37  1   
 35  20  23  1   
 36  20  24  1   
 37  20  38  1   
 38  21  25  1   
 39  21  39  1   
 40  21  40  1   
 41  22  25  1   
 42  22  41  1   
 43  22  42  1   
 44  23  43  1   
 45  23  44  1   
 46  23  45  1   
 47  24  46  1   
 48  24  47  1   
 49  24  48  1   
@<TRIPOS>SUBSTRUCTURE
  1 ****   2 GROUP 4 **** **** 0

# MOE 2024.06 (io_trps.svl 2023.06)
