@<TRIPOS>MOLECULE
NONAME
44 46 1 0 0 
SMALL
USER_CHARGES


@<TRIPOS>ATOM
  1 F       -3.8670    -7.7240     0.6280 F     1 <1>  -0.1900 
  2 C       -3.7570    -7.0200    -0.4670 C.ar  1 <1>   0.1900 
  3 C       -3.5490    -5.6590    -0.3630 C.ar  1 <1>  -0.1500 
  4 C       -3.8520    -7.6650    -1.6830 C.ar  1 <1>  -0.1500 
  5 C       -3.4310    -4.8920    -1.5200 C.ar  1 <1>  -0.1440 
  6 C       -3.7310    -6.9110    -2.8360 C.ar  1 <1>  -0.1500 
  7 C       -3.5210    -5.5420    -2.7520 C.ar  1 <1>  -0.1500 
  8 C       -3.1850    -3.3760    -1.4100 C.3   1 <1>   0.7670 
  9 O       -3.5930    -2.7460    -2.5660 O.3   1 <1>  -0.6800 
 10 C       -1.7170    -3.1130    -1.3190 C.1   1 <1>  -0.2000 
 11 C       -3.9990    -2.7360    -0.2670 C.ar  1 <1>  -0.1430 
 12 C       -0.5540    -2.9000    -1.1820 C.1   1 <1>  -0.2000 
 13 C       -5.3890    -2.7990    -0.3190 C.ar  1 <1>  -0.1500 
 14 C       -3.4110    -2.1020     0.8260 C.ar  1 <1>  -0.1500 
 15 C        0.8910    -2.6370    -0.9280 C.3   1 <1>   0.3100 
 16 C       -6.1680    -2.2470     0.6830 C.ar  1 <1>  -0.1500 
 17 C       -4.1890    -1.5490     1.8290 C.ar  1 <1>  -0.1500 
 18 N        1.1250    -2.4780     0.5150 N.3   1 <1>  -0.8100 
 19 C       -5.5680    -1.6210     1.7590 C.ar  1 <1>  -0.1500 
 20 C        2.4820    -1.9610     0.7740 C.3   1 <1>   0.1100 
 21 C        0.9340    -3.7480     1.2520 C.3   1 <1>   0.1100 
 22 C        2.7530    -1.8430     2.2840 C.3   1 <1>   0.1200 
 23 C        1.2600    -3.5780     2.7470 C.3   1 <1>   0.1200 
 24 O        2.5560    -3.0760     2.9140 O.3   1 <1>  -0.5600 
 25 H       -3.4820    -5.2140     0.6140 H     1 <1>   0.1500 
 26 H       -4.0160    -8.7270    -1.7230 H     1 <1>   0.1500 
 27 H       -3.7990    -7.3840    -3.8010 H     1 <1>   0.1500 
 28 H       -3.4250    -4.9790    -3.6650 H     1 <1>   0.1500 
 29 H       -3.4270    -1.7990    -2.4270 H     1 <1>   0.4000 
 30 H       -5.8720    -3.2850    -1.1510 H     1 <1>   0.1500 
 31 H       -2.3410    -2.0250     0.9220 H     1 <1>   0.1500 
 32 H        1.1670    -1.7310    -1.4390 H     1 <1>   0.0800 
 33 H        1.4870    -3.4460    -1.3160 H     1 <1>   0.0800 
 34 H       -7.2410    -2.3070     0.6240 H     1 <1>   0.1500 
 35 H       -3.7190    -1.0620     2.6650 H     1 <1>   0.1500 
 36 H       -6.1720    -1.1910     2.5390 H     1 <1>   0.1500 
 37 H        2.5870    -0.9890     0.3240 H     1 <1>   0.0800 
 38 H        3.2180    -2.6160     0.3400 H     1 <1>   0.0800 
 39 H        1.5700    -4.5140     0.8420 H     1 <1>   0.0800 
 40 H       -0.0870    -4.0750     1.1580 H     1 <1>   0.0800 
 41 H        2.0940    -1.1180     2.7300 H     1 <1>   0.0800 
 42 H        3.7710    -1.5430     2.4600 H     1 <1>   0.0800 
 43 H        1.2080    -4.5270     3.2500 H     1 <1>   0.0800 
 44 H        0.5640    -2.9000     3.2080 H     1 <1>   0.0800 
@<TRIPOS>BOND
  1   1   2  1   
  2   2   3  ar  
  3   2   4  ar  
  4   3   5  ar  
  5   3  25  1   
  6   4   6  ar  
  7   4  26  1   
  8   5   7  ar  
  9   5   8  1   
 10   6   7  ar  
 11   6  27  1   
 12   7  28  1   
 13   8   9  1   
 14   8  10  1   
 15   8  11  1   
 16   9  29  1   
 17  10  12  3   
 18  11  13  ar  
 19  11  14  ar  
 20  12  15  1   
 21  13  16  ar  
 22  13  30  1   
 23  14  17  ar  
 24  14  31  1   
 25  15  18  1   
 26  15  32  1   
 27  15  33  1   
 28  16  19  ar  
 29  16  34  1   
 30  17  19  ar  
 31  17  35  1   
 32  18  20  1   
 33  18  21  1   
 34  19  36  1   
 35  20  22  1   
 36  20  37  1   
 37  20  38  1   
 38  21  23  1   
 39  21  39  1   
 40  21  40  1   
 41  22  24  1   
 42  22  41  1   
 43  22  42  1   
 44  23  24  1   
 45  23  43  1   
 46  23  44  1   
@<TRIPOS>SUBSTRUCTURE
  1 ****  10 GROUP 4 **** **** 0

# MOE 2024.06 (io_trps.svl 2023.06)
