@<TRIPOS>MOLECULE
NONAME
43 44 1 0 0 
SMALL
USER_CHARGES


@<TRIPOS>ATOM
  1 O        0.2270    -0.1220    -0.3860 O.3   1 <1>  -0.3630 
  2 C       -0.9910    -0.7130    -0.2620 C.ar  1 <1>   0.0830 
  3 C        1.4150    -0.8550    -0.1820 C.3   1 <1>   0.1200 
  4 C       -2.0970     0.0920    -0.4820 C.ar  1 <1>  -0.1500 
  5 C       -1.1750    -2.0530     0.0680 C.ar  1 <1>  -0.1500 
  6 C        2.5930     0.0900    -0.3970 C.3   1 <1>   0.1200 
  7 C       -3.3740    -0.4290    -0.3760 C.ar  1 <1>  -0.1500 
  8 C       -2.4530    -2.5750     0.1740 C.ar  1 <1>  -0.1500 
  9 O        3.7820    -0.6170    -0.1960 O.3   1 <1>  -0.5600 
 10 C       -3.5620    -1.7620    -0.0480 C.ar  1 <1>   0.0830 
 11 C        4.9330     0.1400    -0.3680 C.3   1 <1>   0.1200 
 12 O       -4.8480    -2.1940     0.0350 O.3   1 <1>  -0.3630 
 13 C        6.1310    -0.7870    -0.1310 C.3   1 <1>   0.3430 
 14 C       -5.1470    -3.5330     0.3620 C.3   1 <1>   0.0400 
 15 N        7.4470    -0.0910    -0.3090 N.4   1 <1>  -0.9590 
 16 C        8.5900    -1.0320    -0.2290 C.3   1 <1>   0.3430 
 17 C        7.7230     0.9610     0.7030 C.3   1 <1>   0.3430 
 18 C        9.7940    -0.1420     0.0440 C.3   1 <1>  -0.1600 
 19 C        9.2330     1.1450     0.6560 C.3   1 <1>  -0.1600 
 20 H        1.4430    -1.6600    -0.8950 H     1 <1>   0.0800 
 21 H        1.4120    -1.2300     0.8260 H     1 <1>   0.0800 
 22 H       -1.9530     1.1260    -0.7360 H     1 <1>   0.1500 
 23 H       -0.3400    -2.7050     0.2440 H     1 <1>   0.1500 
 24 H        2.5460     0.9000     0.3110 H     1 <1>   0.0800 
 25 H        2.5790     0.4690    -1.4040 H     1 <1>   0.0800 
 26 H       -4.2320     0.1950    -0.5460 H     1 <1>   0.1500 
 27 H       -2.5660    -3.6110     0.4290 H     1 <1>   0.1500 
 28 H        4.9170     0.9450     0.3460 H     1 <1>   0.0800 
 29 H        4.9400     0.5230    -1.3740 H     1 <1>   0.0800 
 30 H        6.0630    -1.6060    -0.8280 H     1 <1>   0.0800 
 31 H        6.0660    -1.1870     0.8670 H     1 <1>   0.0800 
 32 H       -6.2160    -3.6430     0.3700 H     1 <1>   0.0800 
 33 H       -4.7500    -3.7510     1.3380 H     1 <1>   0.0800 
 34 H       -4.7180    -4.1780    -0.3840 H     1 <1>   0.0800 
 35 H        7.4830     0.3470    -1.2400 H     1 <1>   0.4500 
 36 H        8.7090    -1.6000    -1.1390 H     1 <1>   0.0800 
 37 H        8.4500    -1.7090     0.6000 H     1 <1>   0.0800 
 38 H        7.4350     0.6100     1.6820 H     1 <1>   0.0800 
 39 H        7.2020     1.8790     0.4820 H     1 <1>   0.0800 
 40 H       10.3060     0.0730    -0.8790 H     1 <1>   0.0800 
 41 H       10.4830    -0.6340     0.7080 H     1 <1>   0.0800 
 42 H        9.6200     1.3190     1.6460 H     1 <1>   0.0800 
 43 H        9.4800     1.9930     0.0410 H     1 <1>   0.0800 
@<TRIPOS>BOND
  1   1   2  1   
  2   1   3  1   
  3   2   4  ar  
  4   2   5  ar  
  5   3   6  1   
  6   3  20  1   
  7   3  21  1   
  8   4   7  ar  
  9   4  22  1   
 10   5   8  ar  
 11   5  23  1   
 12   6   9  1   
 13   6  24  1   
 14   6  25  1   
 15   7  10  ar  
 16   7  26  1   
 17   8  10  ar  
 18   8  27  1   
 19   9  11  1   
 20  10  12  1   
 21  11  13  1   
 22  11  28  1   
 23  11  29  1   
 24  12  14  1   
 25  13  15  1   
 26  13  30  1   
 27  13  31  1   
 28  14  32  1   
 29  14  33  1   
 30  14  34  1   
 31  15  16  1   
 32  15  17  1   
 33  15  35  1   
 34  16  18  1   
 35  16  36  1   
 36  16  37  1   
 37  17  19  1   
 38  17  38  1   
 39  17  39  1   
 40  18  19  1   
 41  18  40  1   
 42  18  41  1   
 43  19  42  1   
 44  19  43  1   
@<TRIPOS>SUBSTRUCTURE
  1 ****   3 GROUP 4 **** **** 0

# MOE 2024.06 (io_trps.svl 2023.06)
