@<TRIPOS>MOLECULE
NONAME
36 36 1 0 0 
SMALL
USER_CHARGES


@<TRIPOS>ATOM
  1 S        0.6590     0.1220    -0.4930 S.3   1 <1>  -0.3320 
  2 C       -0.9760     0.8260    -0.4140 C.ar  1 <1>   0.7220 
  3 C        1.6750     1.2170     0.6200 C.3   1 <1>   0.1310 
  4 N       -1.1050     1.8930     0.3580 N.ar  1 <1>  -0.6200 
  5 N       -1.8820     0.1990    -1.1420 N.ar  1 <1>  -0.6200 
  6 C        3.1280     0.7730     0.6870 C.2   1 <1>   0.5690 
  7 C       -2.3190     2.3910     0.3970 C.ar  1 <1>   0.1660 
  8 C       -3.0850     0.7190    -1.0830 C.ar  1 <1>   0.1660 
  9 O        3.8800     1.4140     1.3820 O.2   1 <1>  -0.5700 
 10 N        3.5250    -0.3160    -0.0270 N.am  1 <1>  -0.7300 
 11 C       -3.3550     1.8310    -0.3160 C.ar  1 <1>  -0.1500 
 12 C       -2.5310     3.6140     1.2640 C.3   1 <1>  -0.0970 
 13 C       -4.1660     0.0410    -1.8970 C.3   1 <1>  -0.0970 
 14 C        4.8460    -0.9370    -0.1300 C.3   1 <1>   0.3000 
 15 C        5.8410     0.0640    -0.7180 C.3   1 <1>  -0.2400 
 16 C        5.2940    -1.4260     1.2470 C.3   1 <1>  -0.2400 
 17 C        4.6940    -2.1270    -1.0740 C.3   1 <1>  -0.2400 
 18 H        1.2320     1.1790     1.5970 H     1 <1>   0.0800 
 19 H        1.6120     2.2160     0.2290 H     1 <1>   0.0800 
 20 H        2.8080    -0.7860    -0.5830 H     1 <1>   0.3700 
 21 H       -4.3440     2.2470    -0.2760 H     1 <1>   0.1500 
 22 H       -2.2760     3.3820     2.2820 H     1 <1>   0.0800 
 23 H       -3.5530     3.9420     1.2280 H     1 <1>   0.0800 
 24 H       -1.8970     4.4120     0.9220 H     1 <1>   0.0800 
 25 H       -4.2690    -0.9800    -1.5770 H     1 <1>   0.0800 
 26 H       -3.8910     0.0500    -2.9360 H     1 <1>   0.0800 
 27 H       -5.1100     0.5400    -1.7820 H     1 <1>   0.0800 
 28 H        5.9810     0.8950    -0.0510 H     1 <1>   0.0800 
 29 H        5.4890     0.4310    -1.6650 H     1 <1>   0.0800 
 30 H        6.7960    -0.4060    -0.8660 H     1 <1>   0.0800 
 31 H        5.4330    -0.5960     1.9160 H     1 <1>   0.0800 
 32 H        6.2290    -1.9490     1.1690 H     1 <1>   0.0800 
 33 H        4.5620    -2.0930     1.6660 H     1 <1>   0.0800 
 34 H        4.3650    -1.8000    -2.0450 H     1 <1>   0.0800 
 35 H        3.9850    -2.8340    -0.6800 H     1 <1>   0.0800 
 36 H        5.6370    -2.6290    -1.1920 H     1 <1>   0.0800 
@<TRIPOS>BOND
  1   1   2  1   
  2   1   3  1   
  3   2   4  ar  
  4   2   5  ar  
  5   3   6  1   
  6   3  18  1   
  7   3  19  1   
  8   4   7  ar  
  9   5   8  ar  
 10   6   9  2   
 11   6  10  am  
 12   7  11  ar  
 13   7  12  1   
 14   8  11  ar  
 15   8  13  1   
 16  10  14  1   
 17  10  20  1   
 18  11  21  1   
 19  12  22  1   
 20  12  23  1   
 21  12  24  1   
 22  13  25  1   
 23  13  26  1   
 24  13  27  1   
 25  14  15  1   
 26  14  16  1   
 27  14  17  1   
 28  15  28  1   
 29  15  29  1   
 30  15  30  1   
 31  16  31  1   
 32  16  32  1   
 33  16  33  1   
 34  17  34  1   
 35  17  35  1   
 36  17  36  1   
@<TRIPOS>SUBSTRUCTURE
  1 ****   1 GROUP 4 **** **** 0

# MOE 2024.06 (io_trps.svl 2023.06)
