@<TRIPOS>MOLECULE
NONAME
49 51 1 0 0 
SMALL
USER_CHARGES


@<TRIPOS>ATOM
  1 O       -1.4510     1.3790     0.5080 O.2   1 <1>  -0.5700 
  2 C       -1.1950     2.5490     0.1760 C.2   1 <1>   0.6160 
  3 N       -0.0920     3.2750     0.5280 N.am  1 <1>  -0.1570 
  4 C       -2.0420     3.3580    -0.5910 C.2   1 <1>  -0.1240 
  5 N       -0.3000     4.5810    -0.0220 N.pl3 1 <1>  -0.4890 
  6 C        1.1910     2.6980     0.5710 C.ar  1 <1>   0.1170 
  7 C       -1.4770     4.5890    -0.6910 C.2   1 <1>  -0.0380 
  8 C       -3.3330     2.8130    -1.1460 C.3   1 <1>   0.4810 
  9 C        0.5870     5.7110     0.3640 C.3   1 <1>   0.1290 
 10 C        2.0620     2.7900    -0.5110 C.ar  1 <1>  -0.1500 
 11 C        1.6080     2.0120     1.7060 C.ar  1 <1>  -0.1500 
 12 C       -2.0000     5.8270    -1.3950 C.3   1 <1>  -0.1020 
 13 N       -4.0880     2.1240    -0.0590 N.4   1 <1>  -0.9590 
 14 C        3.3200     2.2170    -0.4570 C.ar  1 <1>  -0.1500 
 15 C        2.8650     1.4370     1.7630 C.ar  1 <1>  -0.1500 
 16 C       -5.1520     1.1770    -0.5380 C.3   1 <1>   0.4230 
 17 C       -4.5890     3.1270     0.9270 C.3   1 <1>   0.3430 
 18 C        3.7220     1.5400     0.6820 C.ar  1 <1>  -0.1500 
 19 C       -5.8010     0.4880     0.6780 C.3   1 <1>  -0.1600 
 20 C       -4.6000     0.1060    -1.5150 C.3   1 <1>   0.1200 
 21 C       -5.1840     2.4250     2.1440 C.3   1 <1>  -0.1600 
 22 C       -6.3110     1.4770     1.7310 C.3   1 <1>  -0.1600 
 23 O       -5.6470    -0.6550    -2.0170 O.3   1 <1>  -0.6800 
 24 H       -3.0840     2.1180    -1.9290 H     1 <1>   0.0800 
 25 H       -3.9250     3.6070    -1.5700 H     1 <1>   0.0800 
 26 H        0.7080     5.7240     1.4330 H     1 <1>   0.0800 
 27 H        0.1660     6.6480     0.0470 H     1 <1>   0.0800 
 28 H        1.5520     5.5870    -0.0950 H     1 <1>   0.0800 
 29 H        1.7500     3.3120    -1.3970 H     1 <1>   0.1500 
 30 H        0.9410     1.9270     2.5450 H     1 <1>   0.1500 
 31 H       -2.9180     5.6230    -1.9140 H     1 <1>   0.0800 
 32 H       -2.1770     6.6110    -0.6800 H     1 <1>   0.0800 
 33 H       -1.2740     6.1720    -2.1110 H     1 <1>   0.0800 
 34 H       -3.3810     1.5440     0.4360 H     1 <1>   0.4500 
 35 H        3.9860     2.2940    -1.2990 H     1 <1>   0.1500 
 36 H        3.1770     0.9080     2.6480 H     1 <1>   0.1500 
 37 H       -5.9080     1.7430    -1.0580 H     1 <1>   0.0800 
 38 H       -5.3440     3.7450     0.4670 H     1 <1>   0.0800 
 39 H       -3.7810     3.7650     1.2510 H     1 <1>   0.0800 
 40 H        4.7000     1.0920     0.7250 H     1 <1>   0.1500 
 41 H       -5.0910    -0.1820     1.1300 H     1 <1>   0.0800 
 42 H       -6.6310    -0.1110     0.3440 H     1 <1>   0.0800 
 43 H       -3.9190    -0.5560    -1.0080 H     1 <1>   0.0800 
 44 H       -4.1120     0.5520    -2.3620 H     1 <1>   0.0800 
 45 H       -5.5710     3.1640     2.8240 H     1 <1>   0.0800 
 46 H       -4.4110     1.8830     2.6600 H     1 <1>   0.0800 
 47 H       -6.6710     0.9390     2.5930 H     1 <1>   0.0800 
 48 H       -7.1360     2.0420     1.3290 H     1 <1>   0.0800 
 49 H       -5.3250    -1.3930    -2.5760 H     1 <1>   0.4000 
@<TRIPOS>BOND
  1   1   2  2   
  2   2   3  am  
  3   2   4  1   
  4   3   5  1   
  5   3   6  1   
  6   4   7  2   
  7   4   8  1   
  8   5   7  1   
  9   5   9  1   
 10   6  10  ar  
 11   6  11  ar  
 12   7  12  1   
 13   8  13  1   
 14   8  24  1   
 15   8  25  1   
 16   9  26  1   
 17   9  27  1   
 18   9  28  1   
 19  10  14  ar  
 20  10  29  1   
 21  11  15  ar  
 22  11  30  1   
 23  12  31  1   
 24  12  32  1   
 25  12  33  1   
 26  13  16  1   
 27  13  17  1   
 28  13  34  1   
 29  14  18  ar  
 30  14  35  1   
 31  15  18  ar  
 32  15  36  1   
 33  16  19  1   
 34  16  20  1   
 35  16  37  1   
 36  17  21  1   
 37  17  38  1   
 38  17  39  1   
 39  18  40  1   
 40  19  22  1   
 41  19  41  1   
 42  19  42  1   
 43  20  23  1   
 44  20  43  1   
 45  20  44  1   
 46  21  22  1   
 47  21  45  1   
 48  21  46  1   
 49  22  47  1   
 50  22  48  1   
 51  23  49  1   
@<TRIPOS>SUBSTRUCTURE
  1 ****   2 GROUP 4 **** **** 0

# MOE 2024.06 (io_trps.svl 2023.06)
