@<TRIPOS>MOLECULE
NONAME
48 51 1 0 0 
SMALL
USER_CHARGES


@<TRIPOS>ATOM
  1 S       -0.0620    -0.2520     0.3300 S.3   1 <1>  -0.0800 
  2 C        1.4580     0.5520    -0.0090 C.2   1 <1>   0.1040 
  3 C       -0.9850     1.1080    -0.2880 C.2   1 <1>  -0.1400 
  4 N        2.6700    -0.0870     0.1970 N.am  1 <1>  -0.4940 
  5 C        1.2410     1.8040    -0.5070 C.2   1 <1>  -0.0860 
  6 C       -0.1650     2.0900    -0.7020 C.2   1 <1>  -0.1810 
  7 C       -2.4930     0.9550    -0.2940 C.3   1 <1>   0.0200 
  8 C        3.0350    -1.2410     0.8490 C.2   1 <1>   0.7150 
  9 C        2.3380     2.6940    -0.7810 C.2   1 <1>   0.7160 
 10 C       -0.6720     3.3590    -1.3780 C.3   1 <1>   0.0210 
 11 C       -3.2020     2.1700     0.3170 C.3   1 <1>  -0.1600 
 12 O        2.2500    -1.8120     1.5790 O.2   1 <1>  -0.5700 
 13 C        4.3800    -1.7230     0.6570 C.2   1 <1>  -0.0450 
 14 O        3.2780     2.2940    -1.4510 O.2   1 <1>  -0.5700 
 15 N        2.4140     3.9610    -0.2440 N.am  1 <1>  -0.6600 
 16 C       -1.7210     4.1060    -0.5410 C.3   1 <1>  -0.1600 
 17 C       -3.1110     3.4480    -0.5310 C.3   1 <1>  -0.1600 
 18 S        4.9320    -3.1230     1.5870 S.3   1 <1>  -0.0800 
 19 C        5.4010    -1.3090    -0.1420 C.2   1 <1>  -0.1500 
 20 C        1.7090     4.3600     1.0110 C.3   1 <1>   0.1400 
 21 C        3.4490     4.9430    -0.6820 C.3   1 <1>   0.1400 
 22 C        6.5200    -3.0810     0.8530 C.2   1 <1>  -0.1100 
 23 C        6.6010    -2.0700    -0.0310 C.2   1 <1>  -0.1500 
 24 C        1.2480     5.8250     0.9340 C.3   1 <1>   0.1200 
 25 C        2.8850     6.3740    -0.6590 C.3   1 <1>   0.1200 
 26 O        2.3140     6.6620     0.5860 O.3   1 <1>  -0.5600 
 27 H        3.4530     0.3810    -0.2630 H     1 <1>   0.3700 
 28 H       -2.7560     0.0840     0.2810 H     1 <1>   0.0800 
 29 H       -2.8310     0.7920    -1.3020 H     1 <1>   0.0800 
 30 H       -1.0930     3.0980    -2.3330 H     1 <1>   0.0800 
 31 H        0.1430     4.0280    -1.5770 H     1 <1>   0.0800 
 32 H       -2.8070     2.3540     1.3010 H     1 <1>   0.0800 
 33 H       -4.2420     1.9190     0.4320 H     1 <1>   0.0800 
 34 H       -1.8310     5.0920    -0.9600 H     1 <1>   0.0800 
 35 H       -1.3700     4.2230     0.4680 H     1 <1>   0.0800 
 36 H       -3.8060     4.1600    -0.1200 H     1 <1>   0.0800 
 37 H       -3.4300     3.2430    -1.5390 H     1 <1>   0.0800 
 38 H        5.3550    -0.4780    -0.8250 H     1 <1>   0.1500 
 39 H        2.3860     4.2540     1.8410 H     1 <1>   0.0800 
 40 H        0.8630     3.7250     1.1970 H     1 <1>   0.0800 
 41 H        3.7850     4.7100    -1.6780 H     1 <1>   0.0800 
 42 H        4.2960     4.8840    -0.0210 H     1 <1>   0.0800 
 43 H        7.2320    -3.8250     1.1640 H     1 <1>   0.1500 
 44 H        7.4700    -1.8270    -0.6180 H     1 <1>   0.1500 
 45 H        0.8760     6.1480     1.8900 H     1 <1>   0.0800 
 46 H        0.4680     5.9430     0.2020 H     1 <1>   0.0800 
 47 H        2.1340     6.4970    -1.4200 H     1 <1>   0.0800 
 48 H        3.6720     7.0850    -0.8320 H     1 <1>   0.0800 
@<TRIPOS>BOND
  1   1   2  1   
  2   1   3  1   
  3   2   4  1   
  4   2   5  2   
  5   3   6  2   
  6   3   7  1   
  7   4   8  am  
  8   4  27  1   
  9   5   6  1   
 10   5   9  1   
 11   6  10  1   
 12   7  11  1   
 13   7  28  1   
 14   7  29  1   
 15   8  12  2   
 16   8  13  1   
 17   9  14  2   
 18   9  15  am  
 19  10  16  1   
 20  10  30  1   
 21  10  31  1   
 22  11  17  1   
 23  11  32  1   
 24  11  33  1   
 25  13  18  1   
 26  13  19  2   
 27  15  20  1   
 28  15  21  1   
 29  16  17  1   
 30  16  34  1   
 31  16  35  1   
 32  17  36  1   
 33  17  37  1   
 34  18  22  1   
 35  19  23  1   
 36  19  38  1   
 37  20  24  1   
 38  20  39  1   
 39  20  40  1   
 40  21  25  1   
 41  21  41  1   
 42  21  42  1   
 43  22  23  2   
 44  22  43  1   
 45  23  44  1   
 46  24  26  1   
 47  24  45  1   
 48  24  46  1   
 49  25  26  1   
 50  25  47  1   
 51  25  48  1   
@<TRIPOS>SUBSTRUCTURE
  1 ****   5 GROUP 4 **** **** 0

# MOE 2024.06 (io_trps.svl 2023.06)
