@<TRIPOS>MOLECULE
NONAME
49 50 1 0 0 
SMALL
USER_CHARGES


@<TRIPOS>ATOM
  1 CL       1.2320    -2.3750     3.3900 Cl    1 <1>  -0.1770 
  2 C        2.0540    -2.0720     1.8740 C.ar  1 <1>   0.1770 
  3 C        2.4260    -0.7860     1.5130 C.ar  1 <1>   0.0830 
  4 C        2.3270    -3.1470     1.0490 C.ar  1 <1>  -0.1500 
  5 O        2.1690     0.2770     2.3050 O.3   1 <1>  -0.5330 
  6 C        3.0860    -0.5730     0.3070 C.ar  1 <1>   0.0830 
  7 C        2.9770    -2.9480    -0.1640 C.ar  1 <1>  -0.1430 
  8 O        3.4480     0.7090     0.0080 O.3   1 <1>  -0.3630 
  9 C        3.3520    -1.6580    -0.5250 C.ar  1 <1>  -0.1500 
 10 C        3.2890    -4.1260    -1.0920 C.3   1 <1>   0.5020 
 11 C        4.3300     0.9800    -1.0600 C.3   1 <1>   0.0400 
 12 N        2.0290    -4.8030    -1.3930 N.am  1 <1>  -0.7300 
 13 C        4.3150    -5.0700    -0.4670 C.2   1 <1>  -0.1240 
 14 C        1.6320    -5.9240    -0.7750 C.2   1 <1>   0.6900 
 15 C        3.8840    -6.2420     0.0920 C.2   1 <1>  -0.0290 
 16 C        5.6440    -4.5350    -0.5930 C.2   1 <1>   0.7060 
 17 O        0.4620    -6.2320    -0.8680 O.2   1 <1>  -0.5700 
 18 N        2.5490    -6.6590    -0.0390 N.am  1 <1>  -0.4690 
 19 C        4.8000    -7.1790     0.8880 C.3   1 <1>  -0.1020 
 20 O        5.8750    -3.3950    -0.9560 O.2   1 <1>  -0.5700 
 21 O        6.6950    -5.3280    -0.3730 O.3   1 <1>  -0.4300 
 22 C        2.0710    -7.9550     0.5440 C.3   1 <1>   0.0600 
 23 C        8.0240    -4.8730    -0.5170 C.3   1 <1>   0.1200 
 24 C        8.9640    -6.0260    -0.1670 C.3   1 <1>  -0.1600 
 25 C       10.4310    -5.6030    -0.3030 C.3   1 <1>  -0.1600 
 26 C       11.3720    -6.7590     0.0480 C.3   1 <1>  -0.2400 
 27 H        2.0250    -4.1300     1.3640 H     1 <1>   0.1500 
 28 H        2.5090     1.0900     1.8810 H     1 <1>   0.4500 
 29 H        3.8630    -1.5140    -1.4590 H     1 <1>   0.1500 
 30 H        3.6760    -3.7570    -2.0280 H     1 <1>   0.0800 
 31 H        4.5610     2.0300    -1.0460 H     1 <1>   0.0800 
 32 H        3.8470     0.7260    -1.9870 H     1 <1>   0.0800 
 33 H        5.2310     0.4070    -0.9250 H     1 <1>   0.0800 
 34 H        1.2800    -4.2190    -1.7570 H     1 <1>   0.3700 
 35 H        4.3070    -7.5410     1.7710 H     1 <1>   0.0800 
 36 H        5.6830    -6.6890     1.2450 H     1 <1>   0.0800 
 37 H        5.0900    -8.0160     0.2790 H     1 <1>   0.0800 
 38 H        1.1080    -8.2330     0.1550 H     1 <1>   0.0800 
 39 H        1.9900    -7.8600     1.6120 H     1 <1>   0.0800 
 40 H        2.7580    -8.7460     0.3010 H     1 <1>   0.0800 
 41 H        8.1720    -4.0390     0.1480 H     1 <1>   0.0800 
 42 H        8.1660    -4.5540    -1.5360 H     1 <1>   0.0800 
 43 H        8.7680    -6.8520    -0.8290 H     1 <1>   0.0800 
 44 H        8.7750    -6.3390     0.8450 H     1 <1>   0.0800 
 45 H       10.6320    -4.7720     0.3530 H     1 <1>   0.0800 
 46 H       10.6250    -5.2840    -1.3140 H     1 <1>   0.0800 
 47 H       11.2130    -7.0800     1.0620 H     1 <1>   0.0800 
 48 H       12.3960    -6.4440    -0.0540 H     1 <1>   0.0800 
 49 H       11.2060    -7.5940    -0.6100 H     1 <1>   0.0800 
@<TRIPOS>BOND
  1   1   2  1   
  2   2   3  ar  
  3   2   4  ar  
  4   3   5  1   
  5   3   6  ar  
  6   4   7  ar  
  7   4  27  1   
  8   5  28  1   
  9   6   8  1   
 10   6   9  ar  
 11   7   9  ar  
 12   7  10  1   
 13   8  11  1   
 14   9  29  1   
 15  10  12  1   
 16  10  13  1   
 17  10  30  1   
 18  11  31  1   
 19  11  32  1   
 20  11  33  1   
 21  12  14  am  
 22  12  34  1   
 23  13  15  2   
 24  13  16  1   
 25  14  17  2   
 26  14  18  am  
 27  15  18  1   
 28  15  19  1   
 29  16  20  2   
 30  16  21  1   
 31  18  22  1   
 32  19  35  1   
 33  19  36  1   
 34  19  37  1   
 35  21  23  1   
 36  22  38  1   
 37  22  39  1   
 38  22  40  1   
 39  23  24  1   
 40  23  41  1   
 41  23  42  1   
 42  24  25  1   
 43  24  43  1   
 44  24  44  1   
 45  25  26  1   
 46  25  45  1   
 47  25  46  1   
 48  26  47  1   
 49  26  48  1   
 50  26  49  1   
@<TRIPOS>SUBSTRUCTURE
  1 ****  13 GROUP 4 **** **** 0

# MOE 2024.06 (io_trps.svl 2023.06)
