@<TRIPOS>MOLECULE
NONAME
48 49 1 0 0 
SMALL
USER_CHARGES


@<TRIPOS>ATOM
  1 O       -6.6970    10.1170     0.2800 O.3   1 <1>  -0.5600 
  2 C       -7.1600     8.8020     0.4300 C.3   1 <1>   0.1200 
  3 C       -6.0380    10.3590    -0.9340 C.3   1 <1>   0.1200 
  4 C       -6.0050     7.7810     0.2930 C.3   1 <1>   0.3430 
  5 C       -4.8110     9.4310    -1.0970 C.3   1 <1>   0.3430 
  6 N       -4.6900     8.4670     0.0530 N.4   1 <1>  -0.9590 
  7 C       -3.5540     7.5110    -0.0590 C.3   1 <1>   0.3430 
  8 C       -2.2240     8.2550     0.0290 C.3   1 <1>  -0.1600 
  9 C       -1.0500     7.2770     0.0400 C.3   1 <1>   0.1200 
 10 O        0.1250     8.0430     0.1000 O.3   1 <1>  -0.3630 
 11 C        1.3500     7.4600     0.1260 C.ar  1 <1>   0.0820 
 12 C        2.4410     8.3100     0.1900 C.ar  1 <1>  -0.1500 
 13 C        1.5550     6.0830     0.0920 C.ar  1 <1>  -0.1500 
 14 C        3.7340     7.8120     0.2220 C.ar  1 <1>  -0.1430 
 15 C        2.8410     5.5710     0.1210 C.ar  1 <1>  -0.1430 
 16 C        3.9210     6.4370     0.1870 C.ar  1 <1>  -0.1500 
 17 C        4.9190     8.7720     0.2940 C.3   1 <1>   0.0630 
 18 C        3.0780     4.0720     0.0860 C.3   1 <1>  -0.0970 
 19 C        5.8160     8.6290    -0.9400 C.3   1 <1>  -0.2400 
 20 C        5.7230     8.5540     1.5800 C.3   1 <1>  -0.2400 
 21 H       -7.9220     8.6180    -0.3090 H     1 <1>   0.0800 
 22 H       -7.6110     8.7240     1.4040 H     1 <1>   0.0800 
 23 H       -5.7260    11.3900    -0.9390 H     1 <1>   0.0800 
 24 H       -6.7360    10.2160    -1.7400 H     1 <1>   0.0800 
 25 H       -6.2270     7.1120    -0.5220 H     1 <1>   0.0800 
 26 H       -5.9550     7.1890     1.1930 H     1 <1>   0.0800 
 27 H       -3.9250    10.0410    -1.1620 H     1 <1>   0.0800 
 28 H       -4.9020     8.8920    -2.0250 H     1 <1>   0.0800 
 29 H       -4.5510     9.0650     0.8830 H     1 <1>   0.4500 
 30 H       -3.6130     6.9720    -0.9920 H     1 <1>   0.0800 
 31 H       -3.6060     6.7970     0.7470 H     1 <1>   0.0800 
 32 H       -2.1900     8.8340     0.9350 H     1 <1>   0.0800 
 33 H       -2.1040     8.9060    -0.8190 H     1 <1>   0.0800 
 34 H       -1.0200     6.6880    -0.8610 H     1 <1>   0.0800 
 35 H       -1.0790     6.6390     0.9080 H     1 <1>   0.0800 
 36 H        2.2650     9.3690     0.2160 H     1 <1>   0.1500 
 37 H        0.7310     5.3990     0.0440 H     1 <1>   0.1500 
 38 H        4.9180     6.0340     0.2120 H     1 <1>   0.1500 
 39 H        4.5440     9.7820     0.3100 H     1 <1>   0.0800 
 40 H        2.2320     3.5610    -0.3350 H     1 <1>   0.0800 
 41 H        3.2440     3.7080     1.0840 H     1 <1>   0.0800 
 42 H        3.9420     3.8470    -0.5140 H     1 <1>   0.0800 
 43 H        6.2590     7.6500    -0.9800 H     1 <1>   0.0800 
 44 H        6.6020     9.3620    -0.9170 H     1 <1>   0.0800 
 45 H        5.2340     8.7780    -1.8320 H     1 <1>   0.0800 
 46 H        6.1630     7.5740     1.5950 H     1 <1>   0.0800 
 47 H        5.0760     8.6530     2.4340 H     1 <1>   0.0800 
 48 H        6.5070     9.2860     1.6580 H     1 <1>   0.0800 
@<TRIPOS>BOND
  1   1   2  1   
  2   1   3  1   
  3   2   4  1   
  4   2  21  1   
  5   2  22  1   
  6   3   5  1   
  7   3  23  1   
  8   3  24  1   
  9   4   6  1   
 10   4  25  1   
 11   4  26  1   
 12   5   6  1   
 13   5  27  1   
 14   5  28  1   
 15   6   7  1   
 16   6  29  1   
 17   7   8  1   
 18   7  30  1   
 19   7  31  1   
 20   8   9  1   
 21   8  32  1   
 22   8  33  1   
 23   9  10  1   
 24   9  34  1   
 25   9  35  1   
 26  10  11  1   
 27  11  12  ar  
 28  11  13  ar  
 29  12  14  ar  
 30  12  36  1   
 31  13  15  ar  
 32  13  37  1   
 33  14  16  ar  
 34  14  17  1   
 35  15  16  ar  
 36  15  18  1   
 37  16  38  1   
 38  17  19  1   
 39  17  20  1   
 40  17  39  1   
 41  18  40  1   
 42  18  41  1   
 43  18  42  1   
 44  19  43  1   
 45  19  44  1   
 46  19  45  1   
 47  20  46  1   
 48  20  47  1   
 49  20  48  1   
@<TRIPOS>SUBSTRUCTURE
  1 ****  10 GROUP 4 **** **** 0

# MOE 2024.06 (io_trps.svl 2023.06)
