@<TRIPOS>MOLECULE
NONAME
60 61 1 0 0 
SMALL
USER_CHARGES


@<TRIPOS>ATOM
  1 S        0.1530    -0.8060     0.1010 S.o2  1 <1>   1.4470 
  2 O       -0.4210    -1.4420    -1.0630 O.2   1 <1>  -0.6500 
  3 O        0.4210    -1.5750     1.2950 O.2   1 <1>  -0.6500 
  4 N       -0.9770     0.3630     0.5090 N.am  1 <1>  -0.9140 
  5 C        1.6130     0.1630    -0.3580 C.ar  1 <1>  -0.0090 
  6 C       -2.0600    -0.1670     1.3190 C.3   1 <1>   0.1960 
  7 C        2.2570    -0.0310    -1.5740 C.ar  1 <1>  -0.1500 
  8 C        2.1320     1.1210     0.5050 C.ar  1 <1>  -0.1500 
  9 C       -3.1680     0.8870     1.4790 C.3   1 <1>  -0.0800 
 10 C        3.3790     0.7030    -1.9170 C.ar  1 <1>  -0.1500 
 11 C        3.2530     1.8590     0.1690 C.ar  1 <1>  -0.1500 
 12 C       -4.2700     0.3520     2.4020 C.3   1 <1>  -0.2400 
 13 C       -3.7840     1.2990     0.1310 C.3   1 <1>  -0.2400 
 14 C        3.8850     1.6510    -1.0450 C.ar  1 <1>  -0.1430 
 15 C        5.1270     2.4460    -1.4100 C.3   1 <1>  -0.0170 
 16 C        6.3840     1.6990    -0.9430 C.3   1 <1>  -0.0990 
 17 C        7.6850     2.4150    -1.2720 C.2   1 <1>   0.5690 
 18 O        7.6250     3.5110    -1.7770 O.2   1 <1>  -0.5700 
 19 N        8.8890     1.8190    -0.9940 N.am  1 <1>  -0.6600 
 20 C       10.1830     2.4940    -1.3330 C.3   1 <1>   0.1400 
 21 C        9.0760     0.5030    -0.3030 C.3   1 <1>   0.1400 
 22 C       11.0640     2.6560    -0.0850 C.3   1 <1>   0.1400 
 23 C        9.9540     0.6590     0.9500 C.3   1 <1>   0.1400 
 24 N       11.2350     1.3470     0.6140 N.am  1 <1>  -0.6600 
 25 C       12.4700     0.7990     0.8320 C.2   1 <1>   0.7800 
 26 O       13.5010     1.3540     0.5020 O.2   1 <1>  -0.5700 
 27 O       12.5230    -0.3950     1.4230 O.3   1 <1>  -0.4300 
 28 C       13.7600    -1.0200     1.6780 C.3   1 <1>   0.1200 
 29 C       13.4820    -2.3610     2.3490 C.3   1 <1>  -0.2400 
 30 H       -1.3900     0.6130    -0.3860 H     1 <1>   0.4200 
 31 H       -1.6770    -0.4400     2.2890 H     1 <1>   0.0800 
 32 H       -2.4660    -1.0520     0.8550 H     1 <1>   0.0800 
 33 H        1.8760    -0.7670    -2.2630 H     1 <1>   0.1500 
 34 H        1.6490     1.2890     1.4540 H     1 <1>   0.1500 
 35 H       -2.7380     1.7570     1.9470 H     1 <1>   0.0800 
 36 H        3.8570     0.5300    -2.8660 H     1 <1>   0.1500 
 37 H        3.6310     2.5940     0.8590 H     1 <1>   0.1500 
 38 H       -4.7350    -0.5200     1.9750 H     1 <1>   0.0800 
 39 H       -5.0260     1.1020     2.5560 H     1 <1>   0.0800 
 40 H       -3.8610     0.0880     3.3610 H     1 <1>   0.0800 
 41 H       -4.1710     0.4390    -0.3880 H     1 <1>   0.0800 
 42 H       -3.0540     1.7820    -0.4920 H     1 <1>   0.0800 
 43 H       -4.5900     1.9930     0.2890 H     1 <1>   0.0800 
 44 H        5.0870     3.4180    -0.9490 H     1 <1>   0.0800 
 45 H        5.1660     2.5940    -2.4760 H     1 <1>   0.0800 
 46 H        6.3990     0.7320    -1.4100 H     1 <1>   0.0800 
 47 H        6.3300     1.5650     0.1210 H     1 <1>   0.0800 
 48 H       10.0080     3.4640    -1.7650 H     1 <1>   0.0800 
 49 H       10.7090     1.9040    -2.0620 H     1 <1>   0.0800 
 50 H        9.5540    -0.1830    -0.9800 H     1 <1>   0.0800 
 51 H        8.1340     0.0740    -0.0140 H     1 <1>   0.0800 
 52 H       10.6010     3.3580     0.5860 H     1 <1>   0.0800 
 53 H       12.0190     3.0590    -0.3760 H     1 <1>   0.0800 
 54 H       10.1390    -0.3110     1.3740 H     1 <1>   0.0800 
 55 H        9.4250     1.2430     1.6830 H     1 <1>   0.0800 
 56 H       14.3400    -0.3780     2.3190 H     1 <1>   0.0800 
 57 H       14.2730    -1.1550     0.7410 H     1 <1>   0.0800 
 58 H       12.9620    -2.2100     3.2780 H     1 <1>   0.0800 
 59 H       14.4110    -2.8620     2.5540 H     1 <1>   0.0800 
 60 H       12.8920    -2.9850     1.7020 H     1 <1>   0.0800 
@<TRIPOS>BOND
  1   1   2  2   
  2   1   3  2   
  3   1   4  am  
  4   1   5  1   
  5   4   6  1   
  6   4  30  1   
  7   5   7  ar  
  8   5   8  ar  
  9   6   9  1   
 10   6  31  1   
 11   6  32  1   
 12   7  10  ar  
 13   7  33  1   
 14   8  11  ar  
 15   8  34  1   
 16   9  12  1   
 17   9  13  1   
 18   9  35  1   
 19  10  14  ar  
 20  10  36  1   
 21  11  14  ar  
 22  11  37  1   
 23  12  38  1   
 24  12  39  1   
 25  12  40  1   
 26  13  41  1   
 27  13  42  1   
 28  13  43  1   
 29  14  15  1   
 30  15  16  1   
 31  15  44  1   
 32  15  45  1   
 33  16  17  1   
 34  16  46  1   
 35  16  47  1   
 36  17  18  2   
 37  17  19  am  
 38  19  20  1   
 39  19  21  1   
 40  20  22  1   
 41  20  48  1   
 42  20  49  1   
 43  21  23  1   
 44  21  50  1   
 45  21  51  1   
 46  22  24  1   
 47  22  52  1   
 48  22  53  1   
 49  23  24  1   
 50  23  54  1   
 51  23  55  1   
 52  24  25  am  
 53  25  26  2   
 54  25  27  1   
 55  27  28  1   
 56  28  29  1   
 57  28  56  1   
 58  28  57  1   
 59  29  58  1   
 60  29  59  1   
 61  29  60  1   
@<TRIPOS>SUBSTRUCTURE
  1 ****  16 GROUP 4 **** **** 0

# MOE 2024.06 (io_trps.svl 2023.06)
