@<TRIPOS>MOLECULE
NONAME
51 53 1 0 0 
SMALL
USER_CHARGES


@<TRIPOS>ATOM
  1 BR       0.2170    -1.3650     1.9050 Br    1 <1>  -0.1110 
  2 C       -1.5690    -1.6120     1.2260 C.ar  1 <1>   0.1110 
  3 C       -1.7390    -1.9020    -0.1140 C.ar  1 <1>  -0.1500 
  4 C       -2.6360    -1.4930     2.0940 C.ar  1 <1>  -0.1500 
  5 C       -3.0250    -2.0790    -0.5940 C.ar  1 <1>  -0.1500 
  6 C       -3.9160    -1.6720     1.5980 C.ar  1 <1>  -0.1500 
  7 C       -4.1280    -1.9700     0.2520 C.ar  1 <1>   0.1170 
  8 N       -5.4090    -2.1470    -0.2970 N.am  1 <1>  -0.5470 
  9 C       -6.5950    -2.4960     0.2900 C.2   1 <1>   0.5690 
 10 O       -6.7040    -2.7550     1.4640 O.2   1 <1>  -0.5700 
 11 C       -7.8280    -2.5760    -0.6120 C.3   1 <1>  -0.0190 
 12 C       -9.1070    -2.0780     0.0920 C.3   1 <1>  -0.1600 
 13 C       -8.0430    -4.0110    -1.1260 C.3   1 <1>  -0.1600 
 14 C      -10.3360    -2.1860    -0.8140 C.3   1 <1>   0.1400 
 15 C       -9.2720    -4.1050    -2.0330 C.3   1 <1>   0.1400 
 16 N      -10.4700    -3.5830    -1.3160 N.am  1 <1>  -0.6600 
 17 C      -11.5510    -4.3970    -1.0350 C.2   1 <1>   0.5440 
 18 O      -11.4480    -5.5970    -1.2040 O.2   1 <1>  -0.5700 
 19 C      -12.8050    -3.8690    -0.5310 C.ar  1 <1>   0.0860 
 20 C      -13.3800    -4.3900     0.6260 C.ar  1 <1>  -0.1500 
 21 C      -13.4770    -2.8380    -1.1830 C.ar  1 <1>  -0.1500 
 22 C      -14.5740    -3.8860     1.1270 C.ar  1 <1>   0.0830 
 23 C      -14.6630    -2.3210    -0.6940 C.ar  1 <1>   0.0830 
 24 O      -15.1750    -4.3530     2.2500 O.3   1 <1>  -0.3620 
 25 C      -15.2120    -2.8490     0.4680 C.ar  1 <1>  -0.1500 
 26 O      -15.2230    -1.3070    -1.4000 O.3   1 <1>  -0.3630 
 27 C      -14.6440    -5.4510     2.9600 C.3   1 <1>   0.0400 
 28 C      -16.4610    -0.7490    -1.0180 C.3   1 <1>   0.0400 
 29 H       -0.8830    -1.9870    -0.7600 H     1 <1>   0.1500 
 30 H       -2.4700    -1.2670     3.1320 H     1 <1>   0.1500 
 31 H       -3.1690    -2.3080    -1.6330 H     1 <1>   0.1500 
 32 H       -4.7510    -1.5750     2.2670 H     1 <1>   0.1500 
 33 H       -5.4460    -2.0440    -1.3080 H     1 <1>   0.3700 
 34 H       -7.6580    -1.9380    -1.4600 H     1 <1>   0.0800 
 35 H       -8.9770    -1.0550     0.3970 H     1 <1>   0.0800 
 36 H       -9.2850    -2.6600     0.9800 H     1 <1>   0.0800 
 37 H       -8.1780    -4.6790    -0.2920 H     1 <1>   0.0800 
 38 H       -7.1770    -4.3410    -1.6700 H     1 <1>   0.0800 
 39 H      -10.2370    -1.5200    -1.6540 H     1 <1>   0.0800 
 40 H      -11.2040    -1.8900    -0.2530 H     1 <1>   0.0800 
 41 H       -9.4200    -5.1280    -2.3330 H     1 <1>   0.0800 
 42 H       -9.1200    -3.5210    -2.9240 H     1 <1>   0.0800 
 43 H      -12.8640    -5.1960     1.1130 H     1 <1>   0.1500 
 44 H      -13.0690    -2.4320    -2.0910 H     1 <1>   0.1500 
 45 H      -16.1290    -2.4780     0.8820 H     1 <1>   0.1500 
 46 H      -15.2980    -5.6610     3.7870 H     1 <1>   0.0800 
 47 H      -13.6660    -5.1920     3.3250 H     1 <1>   0.0800 
 48 H      -14.5990    -6.3030     2.3050 H     1 <1>   0.0800 
 49 H      -16.7170     0.0150    -1.7290 H     1 <1>   0.0800 
 50 H      -16.3620    -0.3180    -0.0370 H     1 <1>   0.0800 
 51 H      -17.2090    -1.5220    -1.0260 H     1 <1>   0.0800 
@<TRIPOS>BOND
  1   1   2  1   
  2   2   3  ar  
  3   2   4  ar  
  4   3   5  ar  
  5   3  29  1   
  6   4   6  ar  
  7   4  30  1   
  8   5   7  ar  
  9   5  31  1   
 10   6   7  ar  
 11   6  32  1   
 12   7   8  1   
 13   8   9  am  
 14   8  33  1   
 15   9  10  2   
 16   9  11  1   
 17  11  12  1   
 18  11  13  1   
 19  11  34  1   
 20  12  14  1   
 21  12  35  1   
 22  12  36  1   
 23  13  15  1   
 24  13  37  1   
 25  13  38  1   
 26  14  16  1   
 27  14  39  1   
 28  14  40  1   
 29  15  16  1   
 30  15  41  1   
 31  15  42  1   
 32  16  17  am  
 33  17  18  2   
 34  17  19  1   
 35  19  20  ar  
 36  19  21  ar  
 37  20  22  ar  
 38  20  43  1   
 39  21  23  ar  
 40  21  44  1   
 41  22  24  1   
 42  22  25  ar  
 43  23  25  ar  
 44  23  26  1   
 45  24  27  1   
 46  25  45  1   
 47  26  28  1   
 48  27  46  1   
 49  27  47  1   
 50  27  48  1   
 51  28  49  1   
 52  28  50  1   
 53  28  51  1   
@<TRIPOS>SUBSTRUCTURE
  1 ****  12 GROUP 4 **** **** 0

# MOE 2024.06 (io_trps.svl 2023.06)
