@<TRIPOS>MOLECULE
NONAME
33 35 1 0 0 
SMALL
USER_CHARGES


@<TRIPOS>ATOM
  1 BR       0.3920    -0.8050     1.4450 Br    1 <1>  -0.1110 
  2 C        1.8330     0.1650     0.6050 C.ar  1 <1>   0.1110 
  3 C        2.7730    -0.5190    -0.1640 C.ar  1 <1>   0.1170 
  4 C        1.8790     1.5300     0.8160 C.ar  1 <1>  -0.1500 
  5 N        2.6740    -1.9080    -0.3650 N.am  1 <1>  -0.5470 
  6 C        3.7890     0.2450    -0.7320 C.ar  1 <1>  -0.1500 
  7 C        2.9040     2.2620     0.2410 C.ar  1 <1>  -0.1500 
  8 C        3.6390    -2.8600    -0.5350 C.2   1 <1>   0.5690 
  9 C        3.8570     1.6160    -0.5310 C.ar  1 <1>  -0.1500 
 10 O        4.8080    -2.5530    -0.6130 O.2   1 <1>  -0.5700 
 11 C        3.3320    -4.3600    -0.6810 C.3   1 <1>  -0.0190 
 12 C        1.9380    -5.0160    -0.4420 C.3   1 <1>  -0.1860 
 13 C        4.1490    -5.1030     0.3890 C.3   1 <1>   0.2000 
 14 C        0.6910    -4.1710    -0.3290 C.2   1 <1>   0.9060 
 15 C        2.2090    -5.8600     0.8130 C.3   1 <1>   0.2000 
 16 O        3.2400    -5.1700     1.4180 O.3   1 <1>  -0.5600 
 17 C        4.3230    -6.5920     0.0570 C.3   1 <1>  -0.1600 
 18 O        0.5180    -3.2880    -1.1730 O.co2 1 <1>  -0.9000 
 19 O       -0.1550    -4.4130     0.5330 O.co2 1 <1>  -0.9000 
 20 C        2.9420    -7.1460     0.4220 C.3   1 <1>  -0.1600 
 21 H        1.1280     2.0050     1.4190 H     1 <1>   0.1500 
 22 H        1.7020    -2.2610    -0.4700 H     1 <1>   0.3700 
 23 H        4.5320    -0.2360    -1.3400 H     1 <1>   0.1500 
 24 H        2.9610     3.3250     0.3930 H     1 <1>   0.1500 
 25 H        4.6560     2.1780    -0.9810 H     1 <1>   0.1500 
 26 H        3.6870    -4.6370    -1.6550 H     1 <1>   0.0800 
 27 H        1.7230    -5.6750    -1.2600 H     1 <1>   0.0800 
 28 H        5.0550    -4.6150     0.7070 H     1 <1>   0.0800 
 29 H        1.3780    -5.9980     1.4850 H     1 <1>   0.0800 
 30 H        5.0870    -7.0210     0.6800 H     1 <1>   0.0800 
 31 H        4.5730    -6.7420    -0.9780 H     1 <1>   0.0800 
 32 H        2.4610    -7.6590    -0.3910 H     1 <1>   0.0800 
 33 H        3.0000    -7.7980     1.2750 H     1 <1>   0.0800 
@<TRIPOS>BOND
  1   1   2  1   
  2   2   3  ar  
  3   2   4  ar  
  4   3   5  1   
  5   3   6  ar  
  6   4   7  ar  
  7   4  21  1   
  8   5   8  am  
  9   5  22  1   
 10   6   9  ar  
 11   6  23  1   
 12   7   9  ar  
 13   7  24  1   
 14   8  10  2   
 15   8  11  1   
 16   9  25  1   
 17  11  12  1   
 18  11  13  1   
 19  11  26  1   
 20  12  14  1   
 21  12  15  1   
 22  12  27  1   
 23  13  16  1   
 24  13  17  1   
 25  13  28  1   
 26  14  18  ar  
 27  14  19  ar  
 28  15  16  1   
 29  15  20  1   
 30  15  29  1   
 31  17  20  1   
 32  17  30  1   
 33  17  31  1   
 34  20  32  1   
 35  20  33  1   
@<TRIPOS>SUBSTRUCTURE
  1 ****   5 GROUP 4 **** **** 0

# MOE 2024.06 (io_trps.svl 2023.06)
