@<TRIPOS>MOLECULE
NONAME
38 42 1 0 0 
SMALL
USER_CHARGES


@<TRIPOS>ATOM
  1 O       -0.0930     0.8580     1.2800 O.2   1 <1>  -0.5700 
  2 C       -0.3810     1.8500     0.6610 C.2   1 <1>   0.5690 
  3 N        0.4380     2.6640    -0.1100 N.am  1 <1>  -0.2370 
  4 C       -1.7520     2.4610     0.6340 C.3   1 <1>  -0.0190 
  5 C        1.8510     2.6330    -0.1250 C.ar  1 <1>   0.1170 
  6 C       -0.3640     3.5160    -0.8570 C.2   1 <1>   0.5690 
  7 C       -3.2310     2.1340     0.9030 C.3   1 <1>   0.1530 
  8 C       -1.7590     2.9620    -0.8140 C.3   1 <1>  -0.0190 
  9 C        2.5920     3.8090    -0.0740 C.ar  1 <1>  -0.1500 
 10 C        2.5390     1.4260    -0.1920 C.ar  1 <1>  -0.1500 
 11 O       -0.0520     4.5110    -1.4590 O.2   1 <1>  -0.5700 
 12 C       -3.8770     1.3400    -0.2260 C.2   1 <1>  -0.2880 
 13 C       -3.7380     3.5070     0.4370 C.3   1 <1>  -0.1900 
 14 C       -3.2250     3.4290    -1.0010 C.3   1 <1>   0.1530 
 15 C        3.9750     3.7800    -0.0900 C.ar  1 <1>  -0.1500 
 16 C        3.9210     1.3940    -0.2070 C.ar  1 <1>  -0.1500 
 17 C       -3.9250     2.1120    -1.3170 C.2   1 <1>  -0.2880 
 18 C       -5.0690     4.0750     0.8030 C.3   1 <1>  -0.2000 
 19 C       -3.7960     4.7560     1.2560 C.3   1 <1>  -0.2000 
 20 C        4.6490     2.5720    -0.1580 C.ar  1 <1>  -0.1430 
 21 C        6.1660     2.5380    -0.1730 C.3   1 <1>  -0.0970 
 22 H       -1.5760     3.2950     1.2980 H     1 <1>   0.0800 
 23 H       -3.5120     1.8770     1.9100 H     1 <1>   0.0800 
 24 H       -1.6490     2.1230    -1.4850 H     1 <1>   0.0800 
 25 H        2.0890     4.7580    -0.0230 H     1 <1>   0.1500 
 26 H        1.9920     0.5000    -0.2290 H     1 <1>   0.1500 
 27 H       -4.2160     0.3320    -0.0570 H     1 <1>   0.1500 
 28 H       -3.4300     4.2570    -1.6570 H     1 <1>   0.0800 
 29 H        4.5260     4.7040    -0.0490 H     1 <1>   0.1500 
 30 H        4.4290     0.4470    -0.2560 H     1 <1>   0.1500 
 31 H       -4.3200     1.9230    -2.3010 H     1 <1>   0.1500 
 32 H       -5.6700     3.5570     1.5300 H     1 <1>   0.1000 
 33 H       -5.6630     4.5390     0.0340 H     1 <1>   0.1000 
 34 H       -3.5320     5.6960     0.8020 H     1 <1>   0.1000 
 35 H       -3.5530     4.7200     2.3040 H     1 <1>   0.1000 
 36 H        6.5570     3.4250    -0.6400 H     1 <1>   0.0800 
 37 H        6.5180     1.6840    -0.7220 H     1 <1>   0.0800 
 38 H        6.5380     2.4820     0.8340 H     1 <1>   0.0800 
@<TRIPOS>BOND
  1   1   2  2   
  2   2   3  am  
  3   2   4  1   
  4   3   5  1   
  5   3   6  am  
  6   4   7  1   
  7   4   8  1   
  8   4  22  1   
  9   5   9  ar  
 10   5  10  ar  
 11   6   8  1   
 12   6  11  2   
 13   7  12  1   
 14   7  13  1   
 15   7  23  1   
 16   8  14  1   
 17   8  24  1   
 18   9  15  ar  
 19   9  25  1   
 20  10  16  ar  
 21  10  26  1   
 22  12  17  2   
 23  12  27  1   
 24  13  14  1   
 25  13  18  1   
 26  13  19  1   
 27  14  17  1   
 28  14  28  1   
 29  15  20  ar  
 30  15  29  1   
 31  16  20  ar  
 32  16  30  1   
 33  17  31  1   
 34  18  19  1   
 35  18  32  1   
 36  18  33  1   
 37  19  34  1   
 38  19  35  1   
 39  20  21  1   
 40  21  36  1   
 41  21  37  1   
 42  21  38  1   
@<TRIPOS>SUBSTRUCTURE
  1 ****   3 GROUP 4 **** **** 0

# MOE 2024.06 (io_trps.svl 2023.06)
