@<TRIPOS>MOLECULE
NONAME
40 41 1 0 0 
SMALL
USER_CHARGES


@<TRIPOS>ATOM
  1 O        0.3320     1.0110    -1.7320 O.2   1 <1>  -0.5700 
  2 C        0.1620     1.6580    -0.7180 C.2   1 <1>   0.5440 
  3 N       -1.0690     1.6400    -0.1260 N.am  1 <1>  -0.7300 
  4 C        1.2470     2.4290    -0.1340 C.ar  1 <1>   0.0860 
  5 C       -2.2520     0.9120    -0.6140 C.3   1 <1>   0.2200 
  6 C        2.5720     2.0200    -0.2700 C.ar  1 <1>  -0.1500 
  7 C        1.0100     3.6040     0.5840 C.ar  1 <1>  -0.1500 
  8 C       -3.4260     1.8800    -0.6880 C.3   1 <1>  -0.1600 
  9 C       -2.6880    -0.0850     0.4520 C.3   1 <1>  -0.1600 
 10 C        3.6190     2.7320     0.2870 C.ar  1 <1>   0.0830 
 11 C        2.0470     4.3260     1.1480 C.ar  1 <1>  -0.1500 
 12 C       -3.9720     1.9850     0.7410 C.3   1 <1>  -0.1600 
 13 C       -3.5020     0.7200     1.4710 C.3   1 <1>  -0.1600 
 14 O        4.8660     2.2380     0.0910 O.3   1 <1>  -0.3630 
 15 C        3.3520     3.8940     1.0050 C.ar  1 <1>  -0.1500 
 16 C        6.0120     2.9280     0.5410 C.3   1 <1>   0.2580 
 17 C        7.2570     2.1560     0.1220 C.2   1 <1>  -0.2760 
 18 C        8.1380     1.6560     0.9950 C.2   1 <1>  -0.3000 
 19 C        7.4170     2.0000    -1.3830 C.3   1 <1>  -0.1020 
 20 H       -1.1990     2.0780     0.7840 H     1 <1>   0.3700 
 21 H       -2.0510     0.4390    -1.5620 H     1 <1>   0.0800 
 22 H        2.7900     1.1240    -0.8250 H     1 <1>   0.1500 
 23 H        0.0030     3.9630     0.6940 H     1 <1>   0.1500 
 24 H       -4.1820     1.4480    -1.3200 H     1 <1>   0.0800 
 25 H       -3.1410     2.8330    -1.0990 H     1 <1>   0.0800 
 26 H       -1.8510    -0.5970     0.8940 H     1 <1>   0.0800 
 27 H       -3.3290    -0.8150    -0.0100 H     1 <1>   0.0800 
 28 H        1.8370     5.2280     1.6970 H     1 <1>   0.1500 
 29 H       -5.0460     2.0600     0.7350 H     1 <1>   0.0800 
 30 H       -3.5660     2.8560     1.2250 H     1 <1>   0.0800 
 31 H       -2.8790     0.9920     2.3060 H     1 <1>   0.0800 
 32 H       -4.3360     0.1430     1.8350 H     1 <1>   0.0800 
 33 H        4.1380     4.4720     1.4550 H     1 <1>   0.1500 
 34 H        5.9580     3.0060     1.6130 H     1 <1>   0.0800 
 35 H        6.0140     3.9100     0.1000 H     1 <1>   0.0800 
 36 H        9.0210     1.1090     0.7140 H     1 <1>   0.1500 
 37 H        8.0520     1.7480     2.0630 H     1 <1>   0.1500 
 38 H        7.4540     2.9650    -1.8560 H     1 <1>   0.0800 
 39 H        6.5870     1.4480    -1.7890 H     1 <1>   0.0800 
 40 H        8.3220     1.4690    -1.6170 H     1 <1>   0.0800 
@<TRIPOS>BOND
  1   1   2  2   
  2   2   3  am  
  3   2   4  1   
  4   3   5  1   
  5   3  20  1   
  6   4   6  ar  
  7   4   7  ar  
  8   5   8  1   
  9   5   9  1   
 10   5  21  1   
 11   6  10  ar  
 12   6  22  1   
 13   7  11  ar  
 14   7  23  1   
 15   8  12  1   
 16   8  24  1   
 17   8  25  1   
 18   9  13  1   
 19   9  26  1   
 20   9  27  1   
 21  10  14  1   
 22  10  15  ar  
 23  11  15  ar  
 24  11  28  1   
 25  12  13  1   
 26  12  29  1   
 27  12  30  1   
 28  13  31  1   
 29  13  32  1   
 30  14  16  1   
 31  15  33  1   
 32  16  17  1   
 33  16  34  1   
 34  16  35  1   
 35  17  18  2   
 36  17  19  1   
 37  18  36  1   
 38  18  37  1   
 39  19  38  1   
 40  19  39  1   
 41  19  40  1   
@<TRIPOS>SUBSTRUCTURE
  1 ****   4 GROUP 4 **** **** 0

# MOE 2024.06 (io_trps.svl 2023.06)
