@<TRIPOS>MOLECULE
NONAME
44 45 1 0 0 
SMALL
USER_CHARGES


@<TRIPOS>ATOM
  1 O        0.0280     0.5080     0.4150 O.2   1 <1>  -0.5700 
  2 C        0.7440    -0.4550     0.2100 C.2   1 <1>   0.6340 
  3 O        0.1600    -1.6440     0.0260 O.3   1 <1>  -0.4300 
  4 C        2.1810    -0.4110     0.1530 C.ar  1 <1>   0.0860 
  5 C       -1.2420    -1.7990     0.0630 C.3   1 <1>   0.1200 
  6 C        2.9300     0.7590     0.2830 C.ar  1 <1>   0.4100 
  7 C        2.9350    -1.5520    -0.0370 C.ar  1 <1>   0.1600 
  8 C       -1.5610    -3.2710    -0.1820 C.3   1 <1>  -0.2400 
  9 N        4.2420     0.7750     0.2320 N.ar  1 <1>  -0.6200 
 10 N        2.3850     1.9840     0.4720 N.pl3 1 <1>  -0.9000 
 11 N        4.2450    -1.5590    -0.0920 N.ar  1 <1>  -0.6200 
 12 C        4.8670    -0.3810     0.0450 C.ar  1 <1>   0.6200 
 13 C        6.3220    -0.3740    -0.0160 C.ar  1 <1>   0.0000 
 14 C        7.0790    -1.5150     0.2770 C.ar  1 <1>  -0.1500 
 15 C        7.0390     0.7740    -0.3720 C.ar  1 <1>  -0.1500 
 16 C        8.4610    -1.5160     0.2190 C.ar  1 <1>  -0.1500 
 17 C        8.4200     0.7820    -0.4330 C.ar  1 <1>  -0.1500 
 18 C        9.1450    -0.3600    -0.1400 C.ar  1 <1>   0.0830 
 19 O       10.4930    -0.2720    -0.2230 O.3   1 <1>  -0.3630 
 20 C       11.3240    -1.3770     0.0490 C.3   1 <1>   0.1200 
 21 C       12.7770    -0.9400    -0.1400 C.3   1 <1>  -0.1600 
 22 C       13.7470    -2.0960     0.1400 C.3   1 <1>  -0.1600 
 23 C       15.2000    -1.6530    -0.0520 C.3   1 <1>  -0.2400 
 24 H       -1.6750    -1.1770    -0.7030 H     1 <1>   0.0800 
 25 H       -1.5970    -1.4820     1.0300 H     1 <1>   0.0800 
 26 H        2.4380    -2.5010    -0.1490 H     1 <1>   0.1500 
 27 H       -1.1930    -3.5750    -1.1450 H     1 <1>   0.0800 
 28 H       -2.6250    -3.4190    -0.1600 H     1 <1>   0.0800 
 29 H       -1.1150    -3.8800     0.5840 H     1 <1>   0.0800 
 30 H        2.9820     2.8010     0.6080 H     1 <1>   0.4000 
 31 H        1.3680     2.1120     0.5690 H     1 <1>   0.4000 
 32 H        6.5740    -2.4230     0.5580 H     1 <1>   0.1500 
 33 H        6.5050     1.6780    -0.6080 H     1 <1>   0.1500 
 34 H        8.9860    -2.4220     0.4540 H     1 <1>   0.1500 
 35 H        8.9480     1.6760    -0.7090 H     1 <1>   0.1500 
 36 H       11.0720    -2.1680    -0.6360 H     1 <1>   0.0800 
 37 H       11.1510    -1.6900     1.0640 H     1 <1>   0.0800 
 38 H       12.9870    -0.1250     0.5300 H     1 <1>   0.0800 
 39 H       12.9100    -0.5980    -1.1520 H     1 <1>   0.0800 
 40 H       13.5370    -2.9150    -0.5270 H     1 <1>   0.0800 
 41 H       13.6140    -2.4430     1.1510 H     1 <1>   0.0800 
 42 H       15.3610    -1.3210    -1.0620 H     1 <1>   0.0800 
 43 H       15.8650    -2.4740     0.1490 H     1 <1>   0.0800 
 44 H       15.4390    -0.8470     0.6200 H     1 <1>   0.0800 
@<TRIPOS>BOND
  1   1   2  2   
  2   2   3  1   
  3   2   4  1   
  4   3   5  1   
  5   4   6  ar  
  6   4   7  ar  
  7   5   8  1   
  8   5  24  1   
  9   5  25  1   
 10   6   9  ar  
 11   6  10  1   
 12   7  11  ar  
 13   7  26  1   
 14   8  27  1   
 15   8  28  1   
 16   8  29  1   
 17   9  12  ar  
 18  10  30  1   
 19  10  31  1   
 20  11  12  ar  
 21  12  13  1   
 22  13  14  ar  
 23  13  15  ar  
 24  14  16  ar  
 25  14  32  1   
 26  15  17  ar  
 27  15  33  1   
 28  16  18  ar  
 29  16  34  1   
 30  17  18  ar  
 31  17  35  1   
 32  18  19  1   
 33  19  20  1   
 34  20  21  1   
 35  20  36  1   
 36  20  37  1   
 37  21  22  1   
 38  21  38  1   
 39  21  39  1   
 40  22  23  1   
 41  22  40  1   
 42  22  41  1   
 43  23  42  1   
 44  23  43  1   
 45  23  44  1   
@<TRIPOS>SUBSTRUCTURE
  1 ****  13 GROUP 4 **** **** 0

# MOE 2024.06 (io_trps.svl 2023.06)
