@<TRIPOS>MOLECULE
NONAME
44 47 1 0 0 
SMALL
USER_CHARGES


@<TRIPOS>ATOM
  1 O        0.6750     2.1270    -1.0740 O.2   1 <1>  -0.5700 
  2 C       -0.3880     2.0110    -0.5090 C.2   1 <1>   0.5690 
  3 N       -1.2880     3.0480    -0.3880 N.am  1 <1>  -0.2980 
  4 C       -0.7550     0.6600     0.0590 C.3   1 <1>  -0.1790 
  5 N       -2.6130     2.9510    -0.0230 N.2   1 <1>  -0.5120 
  6 C       -0.9480     4.4100    -0.8580 C.3   1 <1>   0.3640 
  7 C       -3.1930     4.0690    -0.2090 C.2   1 <1>   0.3030 
  8 C        0.1670     5.0470    -0.0260 C.ar  1 <1>  -0.1440 
  9 C       -2.2680     5.1630    -0.6800 C.3   1 <1>  -0.0190 
 10 C       -4.5880     4.3930    -0.0850 C.ar  1 <1>   0.0860 
 11 C        1.2250     5.6840    -0.6590 C.ar  1 <1>  -0.1500 
 12 C        0.1380     5.0090     1.3630 C.ar  1 <1>  -0.1500 
 13 C       -2.8640     5.8140    -1.9350 C.3   1 <1>  -0.1600 
 14 C       -5.1140     5.5180    -0.7380 C.ar  1 <1>  -0.1440 
 15 C       -5.4580     3.5950     0.6580 C.ar  1 <1>  -0.1500 
 16 C        2.2310     6.2790     0.0810 C.ar  1 <1>  -0.1500 
 17 C        1.1430     5.6050     2.1040 C.ar  1 <1>  -0.1500 
 18 C       -4.2270     6.4370    -1.5830 C.3   1 <1>  -0.0170 
 19 C       -6.4600     5.8180    -0.6240 C.ar  1 <1>  -0.1500 
 20 C       -6.8010     3.8990     0.7680 C.ar  1 <1>  -0.1500 
 21 C        2.1900     6.2420     1.4630 C.ar  1 <1>  -0.1500 
 22 C       -7.3110     5.0210     0.1230 C.ar  1 <1>   0.0830 
 23 O       -8.6120     5.3960     0.1760 O.3   1 <1>  -0.3620 
 24 C       -9.5660     4.6460     0.8940 C.3   1 <1>   0.0400 
 25 H       -1.0200     0.7660     1.0940 H     1 <1>   0.0800 
 26 H        0.0780    -0.0130    -0.0250 H     1 <1>   0.0800 
 27 H       -1.5910     0.2600    -0.4820 H     1 <1>   0.0800 
 28 H       -0.6710     4.3550    -1.8960 H     1 <1>   0.0800 
 29 H       -2.1740     5.9010     0.0980 H     1 <1>   0.0800 
 30 H        1.2760     5.7140    -1.7330 H     1 <1>   0.1500 
 31 H       -0.6690     4.5100     1.8720 H     1 <1>   0.1500 
 32 H       -3.0000     5.0650    -2.6980 H     1 <1>   0.0800 
 33 H       -2.2000     6.5710    -2.3160 H     1 <1>   0.0800 
 34 H       -5.0650     2.7240     1.1540 H     1 <1>   0.1500 
 35 H        3.0490     6.7690    -0.4190 H     1 <1>   0.1500 
 36 H        1.1120     5.5690     3.1790 H     1 <1>   0.1500 
 37 H       -4.7400     6.6990    -2.4930 H     1 <1>   0.0800 
 38 H       -4.0640     7.3450    -1.0290 H     1 <1>   0.0800 
 39 H       -6.8730     6.6800    -1.1170 H     1 <1>   0.1500 
 40 H       -7.4310     3.2560     1.3530 H     1 <1>   0.1500 
 41 H        2.9740     6.7040     2.0380 H     1 <1>   0.1500 
 42 H      -10.5200     5.1300     0.7860 H     1 <1>   0.0800 
 43 H       -9.2830     4.6220     1.9310 H     1 <1>   0.0800 
 44 H       -9.6110     3.6530     0.4820 H     1 <1>   0.0800 
@<TRIPOS>BOND
  1   1   2  2   
  2   2   3  am  
  3   2   4  1   
  4   3   5  1   
  5   3   6  1   
  6   4  25  1   
  7   4  26  1   
  8   4  27  1   
  9   5   7  2   
 10   6   8  1   
 11   6   9  1   
 12   6  28  1   
 13   7   9  1   
 14   7  10  1   
 15   8  11  ar  
 16   8  12  ar  
 17   9  13  1   
 18   9  29  1   
 19  10  14  ar  
 20  10  15  ar  
 21  11  16  ar  
 22  11  30  1   
 23  12  17  ar  
 24  12  31  1   
 25  13  18  1   
 26  13  32  1   
 27  13  33  1   
 28  14  18  1   
 29  14  19  ar  
 30  15  20  ar  
 31  15  34  1   
 32  16  21  ar  
 33  16  35  1   
 34  17  21  ar  
 35  17  36  1   
 36  18  37  1   
 37  18  38  1   
 38  19  22  ar  
 39  19  39  1   
 40  20  22  ar  
 41  20  40  1   
 42  21  41  1   
 43  22  23  1   
 44  23  24  1   
 45  24  42  1   
 46  24  43  1   
 47  24  44  1   
@<TRIPOS>SUBSTRUCTURE
  1 ****   7 GROUP 4 **** **** 0

# MOE 2024.06 (io_trps.svl 2023.06)
