@<TRIPOS>MOLECULE
NONAME
33 35 1 0 0 
SMALL
USER_CHARGES


@<TRIPOS>ATOM
  1 O        0.2640     0.3530    -0.7120 O.2   1 <1>  -0.5700 
  2 C        0.8350     1.4100    -0.4790 C.2   1 <1>   0.6160 
  3 N        2.1790     1.4990    -0.6110 N.am  1 <1>  -0.5470 
  4 C        0.2970     2.6740    -0.0600 C.2   1 <1>  -0.0140 
  5 C        2.5700     2.7960    -0.3760 C.ar  1 <1>   0.1170 
  6 C       -1.0220     2.8930     0.2690 C.2   1 <1>  -0.0380 
  7 C        1.4460     3.5590    -0.0700 C.ar  1 <1>   0.0280 
  8 C        3.8440     3.3360    -0.4450 C.ar  1 <1>  -0.1500 
  9 N       -1.9720     1.9460     0.0380 N.pl3 1 <1>  -0.8690 
 10 C       -1.5340     4.1720     0.9190 C.3   1 <1>  -0.0220 
 11 C        1.6280     4.9330     0.1030 C.ar  1 <1>  -0.1500 
 12 C        4.0040     4.6920    -0.2300 C.ar  1 <1>  -0.1500 
 13 C       -3.4430     2.0910     0.0570 C.3   1 <1>   0.2090 
 14 C       -2.2670     5.0660    -0.0900 C.3   1 <1>  -0.1600 
 15 C        2.8950     5.4860     0.0350 C.ar  1 <1>  -0.1500 
 16 C       -3.8820     3.2060    -0.9000 C.3   1 <1>  -0.1600 
 17 C       -3.7210     4.6290    -0.3350 C.3   1 <1>  -0.1600 
 18 H        2.7420     0.7150    -0.9330 H     1 <1>   0.3700 
 19 H        4.6870     2.7080    -0.6670 H     1 <1>   0.1500 
 20 H       -1.6440     1.0360    -0.3360 H     1 <1>   0.4000 
 21 H       -2.1930     3.9210     1.7300 H     1 <1>   0.0800 
 22 H       -0.7270     4.7050     1.3740 H     1 <1>   0.0800 
 23 H        0.7940     5.5830     0.2740 H     1 <1>   0.1500 
 24 H        4.9830     5.1360    -0.2760 H     1 <1>   0.1500 
 25 H       -3.8770     1.1590    -0.2620 H     1 <1>   0.0800 
 26 H       -3.7800     2.2910     1.0600 H     1 <1>   0.0800 
 27 H       -2.2790     6.0730     0.2880 H     1 <1>   0.0800 
 28 H       -1.7260     5.0720    -1.0210 H     1 <1>   0.0800 
 29 H        3.0260     6.5450     0.1820 H     1 <1>   0.1500 
 30 H       -3.3460     3.1100    -1.8280 H     1 <1>   0.0800 
 31 H       -4.9240     3.0570    -1.1150 H     1 <1>   0.0800 
 32 H       -4.1650     5.3200    -1.0310 H     1 <1>   0.0800 
 33 H       -4.2730     4.7070     0.5860 H     1 <1>   0.0800 
@<TRIPOS>BOND
  1   1   2  2   
  2   2   3  am  
  3   2   4  1   
  4   3   5  1   
  5   3  18  1   
  6   4   6  2   
  7   4   7  1   
  8   5   7  ar  
  9   5   8  ar  
 10   6   9  1   
 11   6  10  1   
 12   7  11  ar  
 13   8  12  ar  
 14   8  19  1   
 15   9  13  1   
 16   9  20  1   
 17  10  14  1   
 18  10  21  1   
 19  10  22  1   
 20  11  15  ar  
 21  11  23  1   
 22  12  15  ar  
 23  12  24  1   
 24  13  16  1   
 25  13  25  1   
 26  13  26  1   
 27  14  17  1   
 28  14  27  1   
 29  14  28  1   
 30  15  29  1   
 31  16  17  1   
 32  16  30  1   
 33  16  31  1   
 34  17  32  1   
 35  17  33  1   
@<TRIPOS>SUBSTRUCTURE
  1 ****   4 GROUP 4 **** **** 0

# MOE 2024.06 (io_trps.svl 2023.06)
