@<TRIPOS>MOLECULE
NONAME
7 6 1 0 0 
SMALL
USER_CHARGES


@<TRIPOS>ATOM
  1 O       -3.6620    -1.1940     0.0020 O.co2 1 <1>  -0.9000 
  2 C       -2.4300    -1.1570     0.0020 C.2   1 <1>   0.9060 
  3 O       -1.7840    -0.1070     0.0020 O.co2 1 <1>  -0.9000 
  4 C       -1.6740    -2.4510     0.0010 C.3   1 <1>  -0.3460 
  5 H       -2.3670    -3.2690     0.0010 H     1 <1>   0.0800 
  6 H       -1.0600    -2.4900     0.8770 H     1 <1>   0.0800 
  7 H       -1.0610    -2.4900    -0.8770 H     1 <1>   0.0800 
@<TRIPOS>BOND
  1   1   2  ar  
  2   2   3  ar  
  3   2   4  1   
  4   4   5  1   
  5   4   6  1   
  6   4   7  1   
@<TRIPOS>SUBSTRUCTURE
  1 ****   2 GROUP 4 **** **** 0

# MOE 2024.06 (io_trps.svl 2023.06)
