@<TRIPOS>MOLECULE
NONAME
39 41 1 0 0 
SMALL
USER_CHARGES


@<TRIPOS>ATOM
  1 O       -0.3250     1.3010    -2.1370 O.2   1 <1>  -0.5700 
  2 C       -1.1550     1.8200    -1.4030 C.2   1 <1>   0.6160 
  3 N       -2.4770     1.5390    -1.5270 N.am  1 <1>  -0.5470 
  4 C       -0.9620     2.7570    -0.3400 C.2   1 <1>  -0.0140 
  5 C       -3.1830     2.2560    -0.5820 C.ar  1 <1>   0.1170 
  6 C       -2.2850     3.0110     0.1610 C.ar  1 <1>   0.0280 
  7 C        0.2070     3.3000     0.1140 C.2   1 <1>  -0.0500 
  8 C       -4.5460     2.2920    -0.3300 C.ar  1 <1>  -0.1500 
  9 C       -2.7640     3.8240     1.1840 C.ar  1 <1>  -0.1500 
 10 N        1.4360     3.0210    -0.4020 N.pl3 1 <1>  -0.8690 
 11 C       -5.0110     3.1040     0.6900 C.ar  1 <1>  -0.1500 
 12 C       -4.1230     3.8660     1.4420 C.ar  1 <1>  -0.1500 
 13 C        2.7240     3.5740     0.0440 C.3   1 <1>   0.2890 
 14 C        3.3050     4.3810    -1.1210 C.3   1 <1>  -0.1600 
 15 C        3.5960     2.4070     0.5210 C.3   1 <1>  -0.1600 
 16 C        4.7020     4.9750    -0.8710 C.3   1 <1>  -0.1600 
 17 C        4.8290     2.8780     1.3090 C.3   1 <1>  -0.1600 
 18 C        5.8050     3.9070    -0.8930 C.3   1 <1>  -0.1600 
 19 C        6.0610     3.2090     0.4520 C.3   1 <1>  -0.1600 
 20 H       -2.8310     0.8920    -2.2280 H     1 <1>   0.3700 
 21 H        0.1780     3.9990     0.9330 H     1 <1>   0.1500 
 22 H       -5.2210     1.6980    -0.9180 H     1 <1>   0.1500 
 23 H       -2.0780     4.4140     1.7660 H     1 <1>   0.1500 
 24 H        1.5070     2.3540    -1.1880 H     1 <1>   0.4000 
 25 H       -6.0660     3.1480     0.9040 H     1 <1>   0.1500 
 26 H       -4.5000     4.4930     2.2320 H     1 <1>   0.1500 
 27 H        2.5430     4.2380     0.8730 H     1 <1>   0.0800 
 28 H        3.3350     3.7630    -2.0010 H     1 <1>   0.0800 
 29 H        2.6270     5.1920    -1.3200 H     1 <1>   0.0800 
 30 H        2.9970     1.8080     1.1840 H     1 <1>   0.0800 
 31 H        3.8880     1.7880    -0.3080 H     1 <1>   0.0800 
 32 H        4.9030     5.6710    -1.6670 H     1 <1>   0.0800 
 33 H        4.7250     5.5300     0.0510 H     1 <1>   0.0800 
 34 H        4.5660     3.7370     1.9020 H     1 <1>   0.0800 
 35 H        5.1100     2.1020     2.0010 H     1 <1>   0.0800 
 36 H        5.5710     3.1670    -1.6400 H     1 <1>   0.0800 
 37 H        6.7260     4.3710    -1.2000 H     1 <1>   0.0800 
 38 H        6.7170     3.8260     1.0420 H     1 <1>   0.0800 
 39 H        6.5940     2.2950     0.2500 H     1 <1>   0.0800 
@<TRIPOS>BOND
  1   1   2  2   
  2   2   3  am  
  3   2   4  1   
  4   3   5  1   
  5   3  20  1   
  6   4   6  1   
  7   4   7  2   
  8   5   6  ar  
  9   5   8  ar  
 10   6   9  ar  
 11   7  10  1   
 12   7  21  1   
 13   8  11  ar  
 14   8  22  1   
 15   9  12  ar  
 16   9  23  1   
 17  10  13  1   
 18  10  24  1   
 19  11  12  ar  
 20  11  25  1   
 21  12  26  1   
 22  13  14  1   
 23  13  15  1   
 24  13  27  1   
 25  14  16  1   
 26  14  28  1   
 27  14  29  1   
 28  15  17  1   
 29  15  30  1   
 30  15  31  1   
 31  16  18  1   
 32  16  32  1   
 33  16  33  1   
 34  17  19  1   
 35  17  34  1   
 36  17  35  1   
 37  18  19  1   
 38  18  36  1   
 39  18  37  1   
 40  19  38  1   
 41  19  39  1   
@<TRIPOS>SUBSTRUCTURE
  1 ****   7 GROUP 4 **** **** 0

# MOE 2024.06 (io_trps.svl 2023.06)
