@<TRIPOS>MOLECULE
NONAME
48 50 1 0 0 
SMALL
USER_CHARGES


@<TRIPOS>ATOM
  1 O       -2.2600     2.0290    -2.0210 O.2   1 <1>  -0.5700 
  2 C       -1.3100     2.0930    -1.2790 C.2   1 <1>   0.5690 
  3 N       -1.0960     1.2410    -0.2320 N.am  1 <1>  -0.5470 
  4 C       -0.2470     3.1710    -1.4980 C.3   1 <1>   0.1710 
  5 C       -1.8200     0.1300     0.2390 C.ar  1 <1>   0.1170 
  6 N        1.0370     2.8720    -0.7990 N.3   1 <1>  -0.8100 
  7 C       -1.1630    -0.9410     0.8580 C.ar  1 <1>   0.0730 
  8 C       -3.2050     0.0830     0.1110 C.ar  1 <1>  -0.1500 
  9 C        1.8580     4.0920    -0.6230 C.3   1 <1>   0.1100 
 10 C        1.8340     1.8530    -1.5330 C.3   1 <1>   0.1100 
 11 C        0.2640    -0.9500     1.0010 C.1   1 <1>   0.4840 
 12 C       -1.9070    -2.0170     1.3310 C.ar  1 <1>  -0.1500 
 13 C       -3.9320    -0.9930     0.5820 C.ar  1 <1>  -0.1500 
 14 C        3.1800     3.7990     0.1130 C.3   1 <1>   0.2090 
 15 C        3.1510     1.5210    -0.8080 C.3   1 <1>   0.2090 
 16 N        1.4000    -0.9470     1.1060 N.1   1 <1>  -0.5570 
 17 C       -3.2820    -2.0470     1.1960 C.ar  1 <1>  -0.1500 
 18 N        3.9700     2.7490    -0.5970 N.pl3 1 <1>  -0.8380 
 19 C        5.2520     2.5190    -0.0790 C.ar  1 <1>   0.1000 
 20 C        5.5160     2.0310     1.2130 C.ar  1 <1>   0.0820 
 21 C        6.3320     2.7840    -0.9100 C.ar  1 <1>  -0.1500 
 22 O        4.4970     1.7540     2.0720 O.3   1 <1>  -0.3620 
 23 C        6.8210     1.8390     1.6390 C.ar  1 <1>  -0.1500 
 24 C        7.6340     2.5830    -0.4860 C.ar  1 <1>  -0.1500 
 25 C        4.3490     0.4060     2.4590 C.3   1 <1>   0.0400 
 26 C        7.8810     2.1110     0.7900 C.ar  1 <1>  -0.1500 
 27 H       -0.1830     1.4390     0.1990 H     1 <1>   0.3700 
 28 H       -0.6530     4.0920    -1.1200 H     1 <1>   0.0800 
 29 H       -0.0770     3.2920    -2.5530 H     1 <1>   0.0800 
 30 H       -3.7240     0.8980    -0.3620 H     1 <1>   0.1500 
 31 H        1.3040     4.8170    -0.0540 H     1 <1>   0.0800 
 32 H        2.0890     4.5220    -1.5830 H     1 <1>   0.0800 
 33 H        2.0710     2.2140    -2.5200 H     1 <1>   0.0800 
 34 H        1.2650     0.9460    -1.6380 H     1 <1>   0.0800 
 35 H       -1.4080    -2.8440     1.8090 H     1 <1>   0.1500 
 36 H       -5.0030    -1.0090     0.4700 H     1 <1>   0.1500 
 37 H        2.9580     3.4740     1.1150 H     1 <1>   0.0800 
 38 H        3.7670     4.6980     0.1760 H     1 <1>   0.0800 
 39 H        3.7160     0.8140    -1.3890 H     1 <1>   0.0800 
 40 H        2.9220     1.0700     0.1400 H     1 <1>   0.0800 
 41 H       -3.8480    -2.8870     1.5650 H     1 <1>   0.1500 
 42 H        6.1350     3.1530    -1.8990 H     1 <1>   0.1500 
 43 H        7.0110     1.4840     2.6340 H     1 <1>   0.1500 
 44 H        8.4530     2.7960    -1.1510 H     1 <1>   0.1500 
 45 H        3.4120     0.3060     2.9760 H     1 <1>   0.0800 
 46 H        5.1600     0.1330     3.1090 H     1 <1>   0.0800 
 47 H        4.3450    -0.2120     1.5780 H     1 <1>   0.0800 
 48 H        8.8930     1.9580     1.1240 H     1 <1>   0.1500 
@<TRIPOS>BOND
  1   1   2  2   
  2   2   3  am  
  3   2   4  1   
  4   3   5  1   
  5   3  27  1   
  6   4   6  1   
  7   4  28  1   
  8   4  29  1   
  9   5   7  ar  
 10   5   8  ar  
 11   6   9  1   
 12   6  10  1   
 13   7  11  1   
 14   7  12  ar  
 15   8  13  ar  
 16   8  30  1   
 17   9  14  1   
 18   9  31  1   
 19   9  32  1   
 20  10  15  1   
 21  10  33  1   
 22  10  34  1   
 23  11  16  3   
 24  12  17  ar  
 25  12  35  1   
 26  13  17  ar  
 27  13  36  1   
 28  14  18  1   
 29  14  37  1   
 30  14  38  1   
 31  15  18  1   
 32  15  39  1   
 33  15  40  1   
 34  17  41  1   
 35  18  19  1   
 36  19  20  ar  
 37  19  21  ar  
 38  20  22  1   
 39  20  23  ar  
 40  21  24  ar  
 41  21  42  1   
 42  22  25  1   
 43  23  26  ar  
 44  23  43  1   
 45  24  26  ar  
 46  24  44  1   
 47  25  45  1   
 48  25  46  1   
 49  25  47  1   
 50  26  48  1   
@<TRIPOS>SUBSTRUCTURE
  1 ****  15 GROUP 4 **** **** 0

# MOE 2024.06 (io_trps.svl 2023.06)
