@<TRIPOS>MOLECULE
NONAME
42 42 1 0 0 
SMALL
USER_CHARGES


@<TRIPOS>ATOM
  1 O       -0.2580     0.3150    -0.4240 O.3   1 <1>  -0.5600 
  2 C        0.2430     1.2260     0.4940 C.3   1 <1>   0.4800 
  3 C       -1.6280     0.2850    -0.2940 C.3   1 <1>   0.2000 
  4 O       -0.7240     2.2160     0.5660 O.3   1 <1>  -0.5600 
  5 C        1.5660     1.8320     0.0170 C.3   1 <1>  -0.1600 
  6 C       -1.9560     1.6260     0.3510 C.3   1 <1>   0.1200 
  7 C       -2.0040    -0.9260     0.5610 C.3   1 <1>  -0.2400 
  8 C        2.8190     0.9670     0.2850 C.3   1 <1>  -0.0800 
  9 C        4.0770     1.7870    -0.0730 C.3   1 <1>  -0.1600 
 10 C        2.7750    -0.3600    -0.4920 C.3   1 <1>  -0.2400 
 11 C        5.3990     1.1250     0.3510 C.3   1 <1>  -0.1600 
 12 C        6.5940     2.0590     0.0760 C.3   1 <1>  -0.1600 
 13 C        7.9760     1.5200     0.4970 C.3   1 <1>   0.2800 
 14 O        7.9580     1.2800     1.8460 O.3   1 <1>  -0.6800 
 15 C        9.0590     2.5690     0.2570 C.3   1 <1>  -0.2400 
 16 C        8.3440     0.2020    -0.1850 C.3   1 <1>  -0.2400 
 17 H        0.3330     0.7540     1.4590 H     1 <1>   0.0800 
 18 H       -2.0610     0.2090    -1.2770 H     1 <1>   0.0800 
 19 H        1.6880     2.7600     0.5460 H     1 <1>   0.0800 
 20 H        1.4840     2.0580    -1.0310 H     1 <1>   0.0800 
 21 H       -2.4610     1.5130     1.2930 H     1 <1>   0.0800 
 22 H       -2.5310     2.2540    -0.3060 H     1 <1>   0.0800 
 23 H       -1.5540    -0.8620     1.5360 H     1 <1>   0.0800 
 24 H       -1.6740    -1.8270     0.0760 H     1 <1>   0.0800 
 25 H       -3.0710    -0.9740     0.6770 H     1 <1>   0.0800 
 26 H        2.8530     0.7440     1.3390 H     1 <1>   0.0800 
 27 H        4.0140     2.7430     0.4180 H     1 <1>   0.0800 
 28 H        4.0930     1.9700    -1.1340 H     1 <1>   0.0800 
 29 H        2.7190    -0.1740    -1.5500 H     1 <1>   0.0800 
 30 H        1.9200    -0.9420    -0.2040 H     1 <1>   0.0800 
 31 H        3.6440    -0.9570    -0.2910 H     1 <1>   0.0800 
 32 H        5.5340     0.2090    -0.1930 H     1 <1>   0.0800 
 33 H        5.3630     0.8920     1.4020 H     1 <1>   0.0800 
 34 H        6.4290     2.9920     0.5860 H     1 <1>   0.0800 
 35 H        6.6220     2.2760    -0.9770 H     1 <1>   0.0800 
 36 H        8.8300     0.9510     2.1250 H     1 <1>   0.4000 
 37 H       10.0210     2.2090     0.5750 H     1 <1>   0.0800 
 38 H        8.8280     3.4740     0.7900 H     1 <1>   0.0800 
 39 H        9.1170     2.8020    -0.7910 H     1 <1>   0.0800 
 40 H        9.3420    -0.0970     0.0770 H     1 <1>   0.0800 
 41 H        8.2980     0.3190    -1.2520 H     1 <1>   0.0800 
 42 H        7.6630    -0.5790     0.1010 H     1 <1>   0.0800 
@<TRIPOS>BOND
  1   1   2  1   
  2   1   3  1   
  3   2   4  1   
  4   2   5  1   
  5   2  17  1   
  6   3   6  1   
  7   3   7  1   
  8   3  18  1   
  9   4   6  1   
 10   5   8  1   
 11   5  19  1   
 12   5  20  1   
 13   6  21  1   
 14   6  22  1   
 15   7  23  1   
 16   7  24  1   
 17   7  25  1   
 18   8   9  1   
 19   8  10  1   
 20   8  26  1   
 21   9  11  1   
 22   9  27  1   
 23   9  28  1   
 24  10  29  1   
 25  10  30  1   
 26  10  31  1   
 27  11  12  1   
 28  11  32  1   
 29  11  33  1   
 30  12  13  1   
 31  12  34  1   
 32  12  35  1   
 33  13  14  1   
 34  13  15  1   
 35  13  16  1   
 36  14  36  1   
 37  15  37  1   
 38  15  38  1   
 39  15  39  1   
 40  16  40  1   
 41  16  41  1   
 42  16  42  1   
@<TRIPOS>SUBSTRUCTURE
  1 ****   8 GROUP 4 **** **** 0

# MOE 2024.06 (io_trps.svl 2023.06)
