@<TRIPOS>MOLECULE
NONAME
27 27 1 0 0 
SMALL
USER_CHARGES


@<TRIPOS>ATOM
  1 F        0.2190    -0.8600    -1.4300 F     1 <1>  -0.3400 
  2 C        0.1670    -0.7670    -0.1020 C.3   1 <1>   1.0200 
  3 F        1.2620    -0.0880     0.2380 F     1 <1>  -0.3400 
  4 F       -0.8600     0.0370     0.1640 F     1 <1>  -0.3400 
  5 C        0.0770    -2.1790     0.6020 C.3   1 <1>   0.4240 
  6 O        0.1600    -2.0460     1.9990 O.3   1 <1>  -0.6800 
  7 C       -1.2480    -2.9050     0.2520 C.ar  1 <1>  -0.1440 
  8 C        1.2770    -3.0720     0.2180 C.3   1 <1>  -0.0990 
  9 C       -2.2340    -3.1530     1.2060 C.ar  1 <1>  -0.1500 
 10 C       -1.4870    -3.3350    -1.0520 C.ar  1 <1>  -0.1500 
 11 C        1.1810    -4.4480     0.8510 C.2   1 <1>   0.4480 
 12 C       -3.4030    -3.8150     0.8720 C.ar  1 <1>  -0.1500 
 13 C       -2.6550    -3.9960    -1.3870 C.ar  1 <1>  -0.1500 
 14 O        1.1650    -4.5770     2.0370 O.2   1 <1>  -0.5700 
 15 C        1.1110    -5.6490    -0.0660 C.3   1 <1>  -0.1790 
 16 C       -3.6140    -4.2400    -0.4250 C.ar  1 <1>  -0.1500 
 17 H        0.3480    -2.9360     2.3840 H     1 <1>   0.4000 
 18 H        2.1890    -2.6070     0.5440 H     1 <1>   0.0800 
 19 H        1.3370    -3.1760    -0.8490 H     1 <1>   0.0800 
 20 H       -2.1170    -2.8330     2.2270 H     1 <1>   0.1500 
 21 H       -0.7720    -3.1620    -1.8370 H     1 <1>   0.1500 
 22 H       -4.1490    -3.9970     1.6260 H     1 <1>   0.1500 
 23 H       -2.8210    -4.3200    -2.4010 H     1 <1>   0.1500 
 24 H        1.9640    -5.6700    -0.7170 H     1 <1>   0.0800 
 25 H        0.2110    -5.6160    -0.6510 H     1 <1>   0.0800 
 26 H        1.1030    -6.5500     0.5220 H     1 <1>   0.0800 
 27 H       -4.5240    -4.7540    -0.6830 H     1 <1>   0.1500 
@<TRIPOS>BOND
  1   1   2  1   
  2   2   3  1   
  3   2   4  1   
  4   2   5  1   
  5   5   6  1   
  6   5   7  1   
  7   5   8  1   
  8   6  17  1   
  9   7   9  ar  
 10   7  10  ar  
 11   8  11  1   
 12   8  18  1   
 13   8  19  1   
 14   9  12  ar  
 15   9  20  1   
 16  10  13  ar  
 17  10  21  1   
 18  11  14  2   
 19  11  15  1   
 20  12  16  ar  
 21  12  22  1   
 22  13  16  ar  
 23  13  23  1   
 24  15  24  1   
 25  15  25  1   
 26  15  26  1   
 27  16  27  1   
@<TRIPOS>SUBSTRUCTURE
  1 ****   7 GROUP 4 **** **** 0

# MOE 2024.06 (io_trps.svl 2023.06)
