@<TRIPOS>MOLECULE
NONAME
45 47 1 0 0 
SMALL
USER_CHARGES


@<TRIPOS>ATOM
  1 CL      -0.9240     0.1770    -1.2440 Cl    1 <1>  -0.1770 
  2 C       -0.8320    -1.4400    -0.5960 C.ar  1 <1>   0.1770 
  3 C       -0.4560    -2.4820    -1.4210 C.ar  1 <1>  -0.1500 
  4 C       -1.1410    -1.6550     0.7330 C.ar  1 <1>  -0.1500 
  5 C       -0.3930    -3.7650    -0.9040 C.ar  1 <1>  -0.1500 
  6 C       -1.0760    -2.9410     1.2440 C.ar  1 <1>  -0.1500 
  7 C       -0.7050    -4.0060     0.4300 C.ar  1 <1>  -0.1430 
  8 C       -0.6720    -5.4170     1.0150 C.3   1 <1>   0.5940 
  9 S        0.8690    -6.2490     0.5690 S.3   1 <1>  -0.4600 
 10 N       -1.7290    -6.2800     0.4500 N.am  1 <1>  -0.6600 
 11 C        0.1320    -7.6960    -0.2270 C.3   1 <1>   0.1310 
 12 C       -1.3550    -7.4370    -0.1590 C.2   1 <1>   0.5690 
 13 C       -3.1450    -5.8610     0.6180 C.3   1 <1>   0.1400 
 14 O       -2.1400    -8.2270    -0.6270 O.2   1 <1>  -0.5700 
 15 C       -3.7070    -5.3130    -0.6960 C.3   1 <1>  -0.0170 
 16 C       -4.9560    -4.4940    -0.4190 C.ar  1 <1>  -0.1430 
 17 C       -6.1920    -5.1110    -0.3110 C.ar  1 <1>  -0.1500 
 18 C       -4.8600    -3.1220    -0.2620 C.ar  1 <1>  -0.1500 
 19 C       -7.3360    -4.3640    -0.0430 C.ar  1 <1>   0.0820 
 20 C       -5.9880    -2.3670     0.0050 C.ar  1 <1>  -0.1500 
 21 O       -8.5710    -4.9340     0.0720 O.3   1 <1>  -0.3630 
 22 C       -7.2340    -2.9790     0.1170 C.ar  1 <1>   0.0820 
 23 C       -8.7800    -6.3080    -0.1590 C.3   1 <1>   0.0400 
 24 O       -8.3730    -2.2750     0.3800 O.3   1 <1>  -0.3630 
 25 C       -8.3710    -0.8700     0.4840 C.3   1 <1>   0.0400 
 26 H       -0.2170    -2.2900    -2.4520 H     1 <1>   0.1500 
 27 H       -1.4280    -0.8260     1.3540 H     1 <1>   0.1500 
 28 H       -0.1040    -4.5790    -1.5490 H     1 <1>   0.1500 
 29 H       -1.3200    -3.1040     2.2800 H     1 <1>   0.1500 
 30 H       -0.7250    -5.4050     2.0900 H     1 <1>   0.0800 
 31 H        0.4090    -8.5710     0.3300 H     1 <1>   0.0800 
 32 H        0.4820    -7.7430    -1.2410 H     1 <1>   0.0800 
 33 H       -3.2080    -5.1040     1.3810 H     1 <1>   0.0800 
 34 H       -3.7350    -6.7040     0.9350 H     1 <1>   0.0800 
 35 H       -3.9380    -6.1290    -1.3570 H     1 <1>   0.0800 
 36 H       -2.9810    -4.6880    -1.1810 H     1 <1>   0.0800 
 37 H       -6.2450    -6.1750    -0.4370 H     1 <1>   0.1500 
 38 H       -3.9040    -2.6330    -0.3450 H     1 <1>   0.1500 
 39 H       -5.8740    -1.3070     0.1200 H     1 <1>   0.1500 
 40 H       -9.8300    -6.5080    -0.0440 H     1 <1>   0.0800 
 41 H       -8.2190    -6.8730     0.5640 H     1 <1>   0.0800 
 42 H       -8.4700    -6.5440    -1.1620 H     1 <1>   0.0800 
 43 H       -9.3810    -0.5480     0.6600 H     1 <1>   0.0800 
 44 H       -8.0100    -0.4530    -0.4390 H     1 <1>   0.0800 
 45 H       -7.7460    -0.5820     1.3110 H     1 <1>   0.0800 
@<TRIPOS>BOND
  1   1   2  1   
  2   2   3  ar  
  3   2   4  ar  
  4   3   5  ar  
  5   3  26  1   
  6   4   6  ar  
  7   4  27  1   
  8   5   7  ar  
  9   5  28  1   
 10   6   7  ar  
 11   6  29  1   
 12   7   8  1   
 13   8   9  1   
 14   8  10  1   
 15   8  30  1   
 16   9  11  1   
 17  10  12  am  
 18  10  13  1   
 19  11  12  1   
 20  11  31  1   
 21  11  32  1   
 22  12  14  2   
 23  13  15  1   
 24  13  33  1   
 25  13  34  1   
 26  15  16  1   
 27  15  35  1   
 28  15  36  1   
 29  16  17  ar  
 30  16  18  ar  
 31  17  19  ar  
 32  17  37  1   
 33  18  20  ar  
 34  18  38  1   
 35  19  21  1   
 36  19  22  ar  
 37  20  22  ar  
 38  20  39  1   
 39  21  23  1   
 40  22  24  1   
 41  23  40  1   
 42  23  41  1   
 43  23  42  1   
 44  24  25  1   
 45  25  43  1   
 46  25  44  1   
 47  25  45  1   
@<TRIPOS>SUBSTRUCTURE
  1 ****  15 GROUP 4 **** **** 0

# MOE 2024.06 (io_trps.svl 2023.06)
