@<TRIPOS>MOLECULE
NONAME
41 41 1 0 0 
SMALL
USER_CHARGES


@<TRIPOS>ATOM
  1 BR       0.6870    -0.3240     0.5550 Br    1 <1>  -0.1110 
  2 C        0.4810     1.5890     0.4000 C.ar  1 <1>   0.1110 
  3 C        1.6070     2.3940     0.2810 C.ar  1 <1>   0.0830 
  4 C       -0.8020     2.1020     0.4120 C.ar  1 <1>  -0.1500 
  5 O        2.8300     1.7990     0.2780 O.3   1 <1>  -0.3630 
  6 C        1.4170     3.7700     0.1710 C.ar  1 <1>  -0.1500 
  7 C       -0.9720     3.4720     0.3010 C.ar  1 <1>  -0.1500 
  8 C        4.0160     2.5520     0.1610 C.3   1 <1>   0.1200 
  9 C        0.1350     4.2990     0.1810 C.ar  1 <1>  -0.1500 
 10 C        5.1910     1.5790     0.1930 C.3   1 <1>   0.1200 
 11 O        6.3810     2.3030     0.0790 O.3   1 <1>  -0.5600 
 12 C        7.5260     1.5200     0.0960 C.3   1 <1>   0.1200 
 13 C        8.7240     2.4640    -0.0380 C.3   1 <1>   0.3430 
 14 N       10.0240     1.7180    -0.0310 N.4   1 <1>  -0.9060 
 15 C       11.2380     2.5300    -0.1540 C.3   1 <1>   0.5030 
 16 C       12.4080     1.5530    -0.1210 C.3   1 <1>  -0.2400 
 17 C       11.3370     3.4970     1.0250 C.3   1 <1>  -0.2400 
 18 C       11.2270     3.2820    -1.4840 C.3   1 <1>  -0.2400 
 19 H       -1.6470     1.4440     0.5060 H     1 <1>   0.1500 
 20 H        2.2480     4.4440     0.0760 H     1 <1>   0.1500 
 21 H       -1.9620     3.8940     0.3090 H     1 <1>   0.1500 
 22 H        4.0680     3.2340     0.9920 H     1 <1>   0.0800 
 23 H        3.9900     3.0820    -0.7740 H     1 <1>   0.0800 
 24 H       -0.0040     5.3630     0.0960 H     1 <1>   0.1500 
 25 H        5.1190     0.8920    -0.6330 H     1 <1>   0.0800 
 26 H        5.1960     1.0440     1.1280 H     1 <1>   0.0800 
 27 H        7.4800     0.8350    -0.7340 H     1 <1>   0.0800 
 28 H        7.5580     0.9860     1.0310 H     1 <1>   0.0800 
 29 H        8.7000     3.1630     0.7820 H     1 <1>   0.0800 
 30 H        8.6230     3.0140    -0.9590 H     1 <1>   0.0800 
 31 H       10.0360     1.0430    -0.8020 H     1 <1>   0.4500 
 32 H       10.1080     1.1840     0.8390 H     1 <1>   0.4500 
 33 H       12.3600     0.8580    -0.9410 H     1 <1>   0.0800 
 34 H       12.4370     1.0080     0.8060 H     1 <1>   0.0800 
 35 H       13.3360     2.0920    -0.2080 H     1 <1>   0.0800 
 36 H       11.2930     2.9740     1.9630 H     1 <1>   0.0800 
 37 H       10.5610     4.2410     0.9960 H     1 <1>   0.0800 
 38 H       12.2770     4.0200     0.9860 H     1 <1>   0.0800 
 39 H       12.1630     3.7960    -1.6160 H     1 <1>   0.0800 
 40 H       11.1060     2.6060    -2.3120 H     1 <1>   0.0800 
 41 H       10.4510     4.0260    -1.5140 H     1 <1>   0.0800 
@<TRIPOS>BOND
  1   1   2  1   
  2   2   3  ar  
  3   2   4  ar  
  4   3   5  1   
  5   3   6  ar  
  6   4   7  ar  
  7   4  19  1   
  8   5   8  1   
  9   6   9  ar  
 10   6  20  1   
 11   7   9  ar  
 12   7  21  1   
 13   8  10  1   
 14   8  22  1   
 15   8  23  1   
 16   9  24  1   
 17  10  11  1   
 18  10  25  1   
 19  10  26  1   
 20  11  12  1   
 21  12  13  1   
 22  12  27  1   
 23  12  28  1   
 24  13  14  1   
 25  13  29  1   
 26  13  30  1   
 27  14  15  1   
 28  14  31  1   
 29  14  32  1   
 30  15  16  1   
 31  15  17  1   
 32  15  18  1   
 33  16  33  1   
 34  16  34  1   
 35  16  35  1   
 36  17  36  1   
 37  17  37  1   
 38  17  38  1   
 39  18  39  1   
 40  18  40  1   
 41  18  41  1   
@<TRIPOS>SUBSTRUCTURE
  1 ****  10 GROUP 4 **** **** 0

# MOE 2024.06 (io_trps.svl 2023.06)
