@<TRIPOS>MOLECULE
NONAME
28 29 1 0 0 
SMALL
USER_CHARGES


@<TRIPOS>ATOM
  1 O        0.2740    -0.9920     1.1500 O.2   1 <1>  -0.5700 
  2 C        0.2590    -1.6150     0.1170 C.2   1 <1>   0.6300 
  3 N        1.2750    -1.6200    -0.7830 N.am  1 <1>  -0.7300 
  4 C       -0.9610    -2.4600    -0.2100 C.3   1 <1>  -0.1000 
  5 C        2.6150    -1.0050    -0.7010 C.3   1 <1>   0.3640 
  6 C       -1.3580    -3.6020     0.6790 C.3   1 <1>  -0.2000 
  7 C       -0.8320    -3.8780    -0.6940 C.3   1 <1>  -0.2000 
  8 C        3.5650    -1.9480     0.0280 C.ar  1 <1>  -0.1440 
  9 C        2.5970     0.3940    -0.0850 C.3   1 <1>  -0.2400 
 10 C        4.6720    -2.4880    -0.5990 C.ar  1 <1>  -0.1500 
 11 C        3.3790    -2.3190     1.3460 C.ar  1 <1>  -0.1500 
 12 C        5.5080    -3.3440     0.0990 C.ar  1 <1>   0.1600 
 13 C        4.2750    -3.1830     1.9520 C.ar  1 <1>   0.1600 
 14 N        5.3360    -3.7060     1.3590 N.ar  1 <1>  -0.6200 
 15 H        1.1810    -2.2710    -1.5590 H     1 <1>   0.3700 
 16 H       -1.7580    -1.8580    -0.6070 H     1 <1>   0.1000 
 17 H        2.9670    -0.8910    -1.7120 H     1 <1>   0.0800 
 18 H       -2.4040    -3.7530     0.8820 H     1 <1>   0.1000 
 19 H       -0.7380    -3.8180     1.5330 H     1 <1>   0.1000 
 20 H        0.1410    -4.3330    -0.7720 H     1 <1>   0.1000 
 21 H       -1.5160    -4.2340    -1.4450 H     1 <1>   0.1000 
 22 H        2.3730     0.3550     0.9650 H     1 <1>   0.0800 
 23 H        1.8690     1.0090    -0.5810 H     1 <1>   0.0800 
 24 H        3.5650     0.8460    -0.1970 H     1 <1>   0.0800 
 25 H        4.8970    -2.2540    -1.6230 H     1 <1>   0.1500 
 26 H        2.5430    -1.9440     1.9090 H     1 <1>   0.1500 
 27 H        6.3660    -3.7540    -0.4080 H     1 <1>   0.1500 
 28 H        4.1080    -3.4580     2.9800 H     1 <1>   0.1500 
@<TRIPOS>BOND
  1   1   2  2   
  2   2   3  am  
  3   2   4  1   
  4   3   5  1   
  5   3  15  1   
  6   4   6  1   
  7   4   7  1   
  8   4  16  1   
  9   5   8  1   
 10   5   9  1   
 11   5  17  1   
 12   6   7  1   
 13   6  18  1   
 14   6  19  1   
 15   7  20  1   
 16   7  21  1   
 17   8  10  ar  
 18   8  11  ar  
 19   9  22  1   
 20   9  23  1   
 21   9  24  1   
 22  10  12  ar  
 23  10  25  1   
 24  11  13  ar  
 25  11  26  1   
 26  12  14  ar  
 27  12  27  1   
 28  13  14  ar  
 29  13  28  1   
@<TRIPOS>SUBSTRUCTURE
  1 ****   8 GROUP 4 **** **** 0

# MOE 2024.06 (io_trps.svl 2023.06)
