@<TRIPOS>MOLECULE
NONAME
48 50 1 0 0 
SMALL
USER_CHARGES


@<TRIPOS>ATOM
  1 O       -1.3580    -6.5750     2.7890 O.2   1 <1>  -0.5700 
  2 C       -1.2490    -5.8770     1.8100 C.2   1 <1>   0.5690 
  3 N       -0.2050    -6.0690     0.9290 N.am  1 <1>  -0.6600 
  4 C       -2.3070    -4.7950     1.6090 C.3   1 <1>   0.0440 
  5 C        0.0630    -5.2120    -0.2700 C.3   1 <1>   0.1400 
  6 C        0.6560    -7.2900     1.0450 C.3   1 <1>   0.1400 
  7 C       -2.9600    -4.8190     0.2280 C.ar  1 <1>  -0.1440 
  8 C        1.5690    -4.9490    -0.4680 C.3   1 <1>   0.3430 
  9 C        2.1450    -6.9610     0.8480 C.3   1 <1>   0.3430 
 10 C       -3.1030    -3.6470    -0.5010 C.ar  1 <1>  -0.1500 
 11 C       -3.4140    -6.0130    -0.3110 C.ar  1 <1>  -0.1500 
 12 N        2.3860    -6.2110    -0.4390 N.4   1 <1>  -0.9590 
 13 C       -3.6760    -3.6730    -1.7610 C.ar  1 <1>  -0.1500 
 14 C       -3.9860    -6.0400    -1.5710 C.ar  1 <1>  -0.1500 
 15 C        3.8230    -5.9410    -0.7370 C.3   1 <1>   0.4230 
 16 C       -4.1150    -4.8700    -2.2980 C.ar  1 <1>  -0.1500 
 17 C        4.5410    -7.2520    -1.0820 C.3   1 <1>  -0.1600 
 18 C        4.5410    -5.2030     0.4060 C.3   1 <1>  -0.1600 
 19 C        6.0080    -6.9860    -1.4540 C.3   1 <1>  -0.1600 
 20 C        6.0060    -4.9300     0.0360 C.3   1 <1>  -0.1600 
 21 C        6.7360    -6.2280    -0.3360 C.3   1 <1>  -0.1600 
 22 H       -1.8530    -3.8400     1.7950 H     1 <1>   0.0800 
 23 H       -3.0770    -4.9290     2.3470 H     1 <1>   0.0800 
 24 H       -0.4250    -4.2600    -0.1660 H     1 <1>   0.0800 
 25 H       -0.3440    -5.6920    -1.1440 H     1 <1>   0.0800 
 26 H        0.3430    -8.0110     0.3110 H     1 <1>   0.0800 
 27 H        0.5360    -7.7480     2.0130 H     1 <1>   0.0800 
 28 H        1.9000    -4.2880     0.3150 H     1 <1>   0.0800 
 29 H        1.7130    -4.4410    -1.4080 H     1 <1>   0.0800 
 30 H        2.7070    -7.8790     0.8530 H     1 <1>   0.0800 
 31 H        2.4730    -6.3670     1.6850 H     1 <1>   0.0800 
 32 H       -2.7780    -2.7050    -0.0950 H     1 <1>   0.1500 
 33 H       -3.3280    -6.9310     0.2470 H     1 <1>   0.1500 
 34 H        2.0380    -6.8080    -1.1990 H     1 <1>   0.4500 
 35 H       -3.7870    -2.7620    -2.3230 H     1 <1>   0.1500 
 36 H       -4.3380    -6.9700    -1.9830 H     1 <1>   0.1500 
 37 H        3.8760    -5.3120    -1.6120 H     1 <1>   0.0800 
 38 H       -4.5630    -4.8910    -3.2760 H     1 <1>   0.1500 
 39 H        4.0570    -7.7290    -1.9150 H     1 <1>   0.0800 
 40 H        4.5270    -7.9240    -0.2420 H     1 <1>   0.0800 
 41 H        4.5320    -5.7940     1.3050 H     1 <1>   0.0800 
 42 H        4.0620    -4.2620     0.6080 H     1 <1>   0.0800 
 43 H        6.0540    -6.4100    -2.3640 H     1 <1>   0.0800 
 44 H        6.5110    -7.9210    -1.6380 H     1 <1>   0.0800 
 45 H        6.5100    -4.4640     0.8670 H     1 <1>   0.0800 
 46 H        6.0510    -4.2460    -0.7950 H     1 <1>   0.0800 
 47 H        7.7390    -5.9960    -0.6550 H     1 <1>   0.0800 
 48 H        6.8120    -6.8590     0.5340 H     1 <1>   0.0800 
@<TRIPOS>BOND
  1   1   2  2   
  2   2   3  am  
  3   2   4  1   
  4   3   5  1   
  5   3   6  1   
  6   4   7  1   
  7   4  22  1   
  8   4  23  1   
  9   5   8  1   
 10   5  24  1   
 11   5  25  1   
 12   6   9  1   
 13   6  26  1   
 14   6  27  1   
 15   7  10  ar  
 16   7  11  ar  
 17   8  12  1   
 18   8  28  1   
 19   8  29  1   
 20   9  12  1   
 21   9  30  1   
 22   9  31  1   
 23  10  13  ar  
 24  10  32  1   
 25  11  14  ar  
 26  11  33  1   
 27  12  15  1   
 28  12  34  1   
 29  13  16  ar  
 30  13  35  1   
 31  14  16  ar  
 32  14  36  1   
 33  15  17  1   
 34  15  18  1   
 35  15  37  1   
 36  16  38  1   
 37  17  19  1   
 38  17  39  1   
 39  17  40  1   
 40  18  20  1   
 41  18  41  1   
 42  18  42  1   
 43  19  21  1   
 44  19  43  1   
 45  19  44  1   
 46  20  21  1   
 47  20  45  1   
 48  20  46  1   
 49  21  47  1   
 50  21  48  1   
@<TRIPOS>SUBSTRUCTURE
  1 ****   5 GROUP 4 **** **** 0

# MOE 2024.06 (io_trps.svl 2023.06)
