@<TRIPOS>MOLECULE
NONAME
43 44 1 0 0 
SMALL
USER_CHARGES


@<TRIPOS>ATOM
  1 S       -0.0820    -0.8900     0.4360 S.3   1 <1>  -0.0800 
  2 C       -1.3320     0.3170     0.4750 C.2   1 <1>   0.4420 
  3 C        0.8200     0.1840    -0.5760 C.2   1 <1>   0.1980 
  4 N       -1.0130     1.3630    -0.1920 N.2   1 <1>  -0.3380 
  5 N       -2.4900     0.1340     1.2000 N.am  1 <1>  -0.4940 
  6 N        0.2100     1.2770    -0.7980 N.2   1 <1>  -0.3380 
  7 C        2.1770    -0.2710    -1.0790 C.3   1 <1>   0.0200 
  8 C       -3.1550    -0.9560     1.6660 C.2   1 <1>   0.5690 
  9 C        3.2330    -0.2500     0.0350 C.3   1 <1>  -0.1600 
 10 O       -4.0170    -0.8030     2.4920 O.2   1 <1>  -0.5700 
 11 C       -2.8570    -2.3560     1.1680 C.3   1 <1>  -0.0990 
 12 C        4.6060    -0.6930    -0.4820 C.3   1 <1>  -0.2400 
 13 C       -4.1350    -3.1900     1.0480 C.3   1 <1>   0.3640 
 14 N       -3.9030    -4.6370     0.7970 N.am  1 <1>  -0.7300 
 15 C       -5.0470    -2.6480    -0.0490 C.ar  1 <1>  -0.1440 
 16 C       -2.8460    -5.2980     0.2020 C.2   1 <1>   0.5690 
 17 C       -4.7160    -2.7840    -1.3910 C.ar  1 <1>  -0.1500 
 18 C       -6.2240    -1.9980     0.2910 C.ar  1 <1>  -0.1500 
 19 O       -1.8620    -4.6810    -0.1540 O.2   1 <1>  -0.5700 
 20 C       -2.9080    -6.8490    -0.0300 C.3   1 <1>   1.0810 
 21 C       -5.5510    -2.2860    -2.3750 C.ar  1 <1>  -0.1500 
 22 C       -7.0610    -1.4990    -0.6920 C.ar  1 <1>  -0.1500 
 23 F       -2.7880    -7.1980    -1.3100 F     1 <1>  -0.3400 
 24 F       -4.0680    -7.3700     0.3760 F     1 <1>  -0.3400 
 25 F       -1.9650    -7.5190     0.6290 F     1 <1>  -0.3400 
 26 C       -6.7260    -1.6440    -2.0260 C.ar  1 <1>  -0.1500 
 27 H       -2.9610     1.0050     1.4370 H     1 <1>   0.3700 
 28 H        2.4820     0.3850    -1.8750 H     1 <1>   0.0800 
 29 H        2.0850    -1.2640    -1.4830 H     1 <1>   0.0800 
 30 H        2.9300    -0.9040     0.8350 H     1 <1>   0.0800 
 31 H        3.3070     0.7480     0.4330 H     1 <1>   0.0800 
 32 H       -2.1780    -2.8240     1.8550 H     1 <1>   0.0800 
 33 H       -2.4070    -2.2910     0.1980 H     1 <1>   0.0800 
 34 H        4.5610    -1.6980    -0.8650 H     1 <1>   0.0800 
 35 H        5.3260    -0.6660     0.3170 H     1 <1>   0.0800 
 36 H        4.9440    -0.0370    -1.2660 H     1 <1>   0.0800 
 37 H       -4.6560    -3.1250     1.9890 H     1 <1>   0.0800 
 38 H       -4.7500    -5.1830     0.9830 H     1 <1>   0.3700 
 39 H       -3.8030    -3.2770    -1.6790 H     1 <1>   0.1500 
 40 H       -6.4950    -1.8680     1.3260 H     1 <1>   0.1500 
 41 H       -5.2870    -2.3960    -3.4120 H     1 <1>   0.1500 
 42 H       -7.9720    -0.9950    -0.4180 H     1 <1>   0.1500 
 43 H       -7.3760    -1.2550    -2.7910 H     1 <1>   0.1500 
@<TRIPOS>BOND
  1   1   2  1   
  2   1   3  1   
  3   2   4  2   
  4   2   5  1   
  5   3   6  2   
  6   3   7  1   
  7   4   6  1   
  8   5   8  am  
  9   5  27  1   
 10   7   9  1   
 11   7  28  1   
 12   7  29  1   
 13   8  10  2   
 14   8  11  1   
 15   9  12  1   
 16   9  30  1   
 17   9  31  1   
 18  11  13  1   
 19  11  32  1   
 20  11  33  1   
 21  12  34  1   
 22  12  35  1   
 23  12  36  1   
 24  13  14  1   
 25  13  15  1   
 26  13  37  1   
 27  14  16  am  
 28  14  38  1   
 29  15  17  ar  
 30  15  18  ar  
 31  16  19  2   
 32  16  20  1   
 33  17  21  ar  
 34  17  39  1   
 35  18  22  ar  
 36  18  40  1   
 37  20  23  1   
 38  20  24  1   
 39  20  25  1   
 40  21  26  ar  
 41  21  41  1   
 42  22  26  ar  
 43  22  42  1   
 44  26  43  1   
@<TRIPOS>SUBSTRUCTURE
  1 ****  11 GROUP 4 **** **** 0

# MOE 2024.06 (io_trps.svl 2023.06)
