@<TRIPOS>MOLECULE
NONAME
48 49 1 0 0 
SMALL
USER_CHARGES


@<TRIPOS>ATOM
  1 O      -11.3640     2.5370     0.3300 O.3   1 <1>  -0.3630 
  2 C      -10.0760     2.4570    -0.1120 C.ar  1 <1>   0.0830 
  3 C      -12.3900     1.6930    -0.1420 C.3   1 <1>   0.1200 
  4 C       -9.1260     3.4130     0.2920 C.ar  1 <1>   0.0830 
  5 C       -9.6720     1.4270    -0.9600 C.ar  1 <1>  -0.1500 
  6 C      -13.7030     2.1360     0.5030 C.3   1 <1>  -0.1600 
  7 O       -9.3300     4.4840     1.1120 O.3   1 <1>  -0.3630 
  8 C       -7.8210     3.3050    -0.1600 C.ar  1 <1>  -0.1500 
  9 C       -8.3620     1.3350    -1.3980 C.ar  1 <1>  -0.1500 
 10 C      -14.8740     1.2620     0.0370 C.3   1 <1>  -0.1600 
 11 C      -10.6080     4.9140     1.5250 C.3   1 <1>   0.0400 
 12 C       -7.4270     2.2730    -0.9950 C.ar  1 <1>  -0.1430 
 13 C      -16.1870     1.7110     0.6840 C.3   1 <1>  -0.2400 
 14 C       -5.9870     2.1800    -1.4430 C.3   1 <1>   0.4860 
 15 N       -5.2400     1.5970    -0.3110 N.4   1 <1>  -0.9060 
 16 C       -3.7840     1.4920    -0.5060 C.3   1 <1>   0.4230 
 17 C       -3.2090     0.7330     0.6830 C.3   1 <1>  -0.1600 
 18 C       -3.1490     2.8720    -0.3610 C.3   1 <1>  -0.1600 
 19 C       -3.0970     1.7570     1.8200 C.3   1 <1>  -0.1600 
 20 C       -3.0610     3.1360     1.1470 C.3   1 <1>  -0.1600 
 21 H      -12.1550     0.6810     0.1380 H     1 <1>   0.0800 
 22 H      -12.4430     1.7860    -1.2130 H     1 <1>   0.0800 
 23 H      -10.3660     0.6780    -1.2930 H     1 <1>   0.1500 
 24 H      -13.8950     3.1620     0.2370 H     1 <1>   0.0800 
 25 H      -13.6090     2.0680     1.5730 H     1 <1>   0.0800 
 26 H       -7.1230     4.0590     0.1610 H     1 <1>   0.1500 
 27 H       -8.0920     0.5240    -2.0540 H     1 <1>   0.1500 
 28 H      -14.6860     0.2340     0.2980 H     1 <1>   0.0800 
 29 H      -14.9700     1.3230    -1.0340 H     1 <1>   0.0800 
 30 H      -10.4950     5.8400     2.0590 H     1 <1>   0.0800 
 31 H      -11.0340     4.1700     2.1750 H     1 <1>   0.0800 
 32 H      -11.2250     5.0640     0.6570 H     1 <1>   0.0800 
 33 H      -16.1230     1.6370     1.7560 H     1 <1>   0.0800 
 34 H      -16.9960     1.0870     0.3470 H     1 <1>   0.0800 
 35 H      -16.4080     2.7300     0.4200 H     1 <1>   0.0800 
 36 H       -5.6160     3.1630    -1.6810 H     1 <1>   0.0800 
 37 H       -5.9060     1.5520    -2.3160 H     1 <1>   0.0800 
 38 H       -5.6380     0.6780    -0.1000 H     1 <1>   0.4500 
 39 H       -5.4110     2.1720     0.5210 H     1 <1>   0.4500 
 40 H       -3.5450     1.0170    -1.4450 H     1 <1>   0.0800 
 41 H       -2.2170     0.4030     0.4240 H     1 <1>   0.0800 
 42 H       -3.7870    -0.1320     0.9590 H     1 <1>   0.0800 
 43 H       -3.6680     3.6530    -0.8870 H     1 <1>   0.0800 
 44 H       -2.1470     2.8210    -0.7540 H     1 <1>   0.0800 
 45 H       -2.2060     1.5850     2.4020 H     1 <1>   0.0800 
 46 H       -3.9480     1.6900     2.4770 H     1 <1>   0.0800 
 47 H       -3.8970     3.7300     1.4790 H     1 <1>   0.0800 
 48 H       -2.1540     3.6640     1.3910 H     1 <1>   0.0800 
@<TRIPOS>BOND
  1   1   2  1   
  2   1   3  1   
  3   2   4  ar  
  4   2   5  ar  
  5   3   6  1   
  6   3  21  1   
  7   3  22  1   
  8   4   7  1   
  9   4   8  ar  
 10   5   9  ar  
 11   5  23  1   
 12   6  10  1   
 13   6  24  1   
 14   6  25  1   
 15   7  11  1   
 16   8  12  ar  
 17   8  26  1   
 18   9  12  ar  
 19   9  27  1   
 20  10  13  1   
 21  10  28  1   
 22  10  29  1   
 23  11  30  1   
 24  11  31  1   
 25  11  32  1   
 26  12  14  1   
 27  13  33  1   
 28  13  34  1   
 29  13  35  1   
 30  14  15  1   
 31  14  36  1   
 32  14  37  1   
 33  15  16  1   
 34  15  38  1   
 35  15  39  1   
 36  16  17  1   
 37  16  18  1   
 38  16  40  1   
 39  17  19  1   
 40  17  41  1   
 41  17  42  1   
 42  18  20  1   
 43  18  43  1   
 44  18  44  1   
 45  19  20  1   
 46  19  45  1   
 47  19  46  1   
 48  20  47  1   
 49  20  48  1   
@<TRIPOS>SUBSTRUCTURE
  1 ****   8 GROUP 4 **** **** 0

# MOE 2024.06 (io_trps.svl 2023.06)
