@<TRIPOS>MOLECULE
NONAME
47 50 1 0 0 
SMALL
USER_CHARGES


@<TRIPOS>ATOM
  1 S       -0.1380     2.5120    -0.1530 S.o2  1 <1>   1.4470 
  2 O       -0.8560     3.5370     0.5650 O.2   1 <1>  -0.6500 
  3 O        0.7080     2.8600    -1.2690 O.2   1 <1>  -0.6500 
  4 N        0.9220     1.8690     1.0290 N.am  1 <1>  -0.7570 
  5 C       -1.2090     1.0990    -0.5260 C.ar  1 <1>  -0.0090 
  6 C        1.8320     0.8680     0.7300 C.ar  1 <1>   0.1990 
  7 C       -2.3030     0.7950     0.2750 C.ar  1 <1>  -0.1500 
  8 C       -0.9370     0.2570    -1.5960 C.ar  1 <1>  -0.1500 
  9 C        3.1180     1.1870     0.3200 C.ar  1 <1>  -0.1500 
 10 C        1.4470    -0.4710     0.8350 C.ar  1 <1>  -0.1500 
 11 C       -3.1070    -0.3060     0.0260 C.ar  1 <1>  -0.1430 
 12 C       -1.7300    -0.8450    -1.8580 C.ar  1 <1>  -0.1500 
 13 C        4.0000     0.1610     0.0180 C.ar  1 <1>   0.1170 
 14 C        2.3280    -1.4950     0.5350 C.ar  1 <1>  -0.1500 
 15 C       -2.8170    -1.1350    -1.0510 C.ar  1 <1>  -0.1430 
 16 C       -4.2790    -0.5790     0.9610 C.3   1 <1>  -0.0170 
 17 N        5.3200     0.1850    -0.4180 N.am  1 <1>  -0.4770 
 18 C        3.6110    -1.1650     0.1240 C.ar  1 <1>   0.1170 
 19 C       -3.6730    -2.3510    -1.3860 C.3   1 <1>  -0.0170 
 20 C       -5.2930    -1.5660     0.3710 C.3   1 <1>  -0.1600 
 21 C        5.7200    -1.1150    -0.5750 C.2   1 <1>   0.6900 
 22 C        6.1190     1.3880    -0.7310 C.3   1 <1>   0.0600 
 23 N        4.6950    -1.9580    -0.2440 N.am  1 <1>  -0.4770 
 24 C       -4.5720    -2.7810    -0.2210 C.3   1 <1>  -0.1600 
 25 O        6.8260    -1.4680    -0.9590 O.2   1 <1>  -0.5700 
 26 C        4.7280    -3.4350    -0.2880 C.3   1 <1>   0.0600 
 27 H        1.2740     2.6510     1.5730 H     1 <1>   0.4200 
 28 H       -2.5250     1.4350     1.1120 H     1 <1>   0.1500 
 29 H       -0.0920     0.4650    -2.2320 H     1 <1>   0.1500 
 30 H        3.4260     2.2100     0.2230 H     1 <1>   0.1500 
 31 H        0.4460    -0.7020     1.1550 H     1 <1>   0.1500 
 32 H       -1.4970    -1.4770    -2.6970 H     1 <1>   0.1500 
 33 H        2.0330    -2.5250     0.6140 H     1 <1>   0.1500 
 34 H       -4.7820     0.3430     1.1950 H     1 <1>   0.0800 
 35 H       -3.8900    -0.9850     1.8790 H     1 <1>   0.0800 
 36 H       -3.0430    -3.1760    -1.6680 H     1 <1>   0.0800 
 37 H       -4.2900    -2.1030    -2.2320 H     1 <1>   0.0800 
 38 H       -5.8600    -1.0750    -0.4020 H     1 <1>   0.0800 
 39 H       -5.9780    -1.8820     1.1390 H     1 <1>   0.0800 
 40 H        6.2340     1.9860     0.1550 H     1 <1>   0.0800 
 41 H        5.6220     1.9630    -1.4920 H     1 <1>   0.0800 
 42 H        7.0920     1.0980    -1.0890 H     1 <1>   0.0800 
 43 H       -3.9710    -3.2470     0.5400 H     1 <1>   0.0800 
 44 H       -5.2910    -3.5020    -0.5690 H     1 <1>   0.0800 
 45 H        3.9870    -3.7920    -0.9810 H     1 <1>   0.0800 
 46 H        4.5250    -3.8290     0.6920 H     1 <1>   0.0800 
 47 H        5.7000    -3.7700    -0.6070 H     1 <1>   0.0800 
@<TRIPOS>BOND
  1   1   2  2   
  2   1   3  2   
  3   1   4  am  
  4   1   5  1   
  5   4   6  1   
  6   4  27  1   
  7   5   7  ar  
  8   5   8  ar  
  9   6   9  ar  
 10   6  10  ar  
 11   7  11  ar  
 12   7  28  1   
 13   8  12  ar  
 14   8  29  1   
 15   9  13  ar  
 16   9  30  1   
 17  10  14  ar  
 18  10  31  1   
 19  11  15  ar  
 20  11  16  1   
 21  12  15  ar  
 22  12  32  1   
 23  13  17  1   
 24  13  18  ar  
 25  14  18  ar  
 26  14  33  1   
 27  15  19  1   
 28  16  20  1   
 29  16  34  1   
 30  16  35  1   
 31  17  21  am  
 32  17  22  1   
 33  18  23  1   
 34  19  24  1   
 35  19  36  1   
 36  19  37  1   
 37  20  24  1   
 38  20  38  1   
 39  20  39  1   
 40  21  23  am  
 41  21  25  2   
 42  22  40  1   
 43  22  41  1   
 44  22  42  1   
 45  23  26  1   
 46  24  43  1   
 47  24  44  1   
 48  26  45  1   
 49  26  46  1   
 50  26  47  1   
@<TRIPOS>SUBSTRUCTURE
  1 ****  10 GROUP 4 **** **** 0

# MOE 2024.06 (io_trps.svl 2023.06)
