@<TRIPOS>MOLECULE
NONAME
53 54 1 0 0 
SMALL
USER_CHARGES


@<TRIPOS>ATOM
  1 O        0.3700     1.1820    -1.4850 O.2   1 <1>  -0.5700 
  2 C        0.1440     2.3620    -1.2910 C.2   1 <1>   0.5440 
  3 N        1.1000     3.2910    -1.6540 N.am  1 <1>  -0.6600 
  4 C       -1.1110     2.7470    -0.6690 C.ar  1 <1>   0.0860 
  5 C        1.2110     4.6450    -1.0440 C.3   1 <1>   0.1400 
  6 C        2.2160     2.9390    -2.5740 C.3   1 <1>   0.1400 
  7 C       -1.8760     3.8020    -1.1610 C.ar  1 <1>  -0.1500 
  8 C       -1.5940     2.0590     0.4420 C.ar  1 <1>  -0.1500 
  9 C        2.5280     4.7460    -0.2720 C.3   1 <1>  -0.1600 
 10 C        3.5410     3.0100    -1.8150 C.3   1 <1>  -0.1600 
 11 C       -3.0590     4.1860    -0.5570 C.ar  1 <1>   0.0830 
 12 C       -2.7870     2.4260     1.0550 C.ar  1 <1>   0.0830 
 13 C        3.7380     4.3910    -1.1570 C.3   1 <1>  -0.0190 
 14 O       -3.7080     5.2410    -1.1080 O.3   1 <1>  -0.3630 
 15 C       -3.5140     3.4930     0.5580 C.ar  1 <1>  -0.1500 
 16 O       -3.3030     1.7910     2.1370 O.3   1 <1>  -0.3630 
 17 C        5.0450     4.4680    -0.3760 C.2   1 <1>   0.5690 
 18 C       -4.9480     5.6800    -0.5980 C.3   1 <1>   0.0400 
 19 C       -2.7120     0.6150     2.6460 C.3   1 <1>   0.0400 
 20 O        5.8510     5.3160    -0.6740 O.2   1 <1>  -0.5700 
 21 N        5.2640     3.5830     0.6310 N.am  1 <1>  -0.7300 
 22 C        6.5090     3.4840     1.4250 C.3   1 <1>   0.1400 
 23 C        7.0360     2.0390     1.4250 C.3   1 <1>  -0.0800 
 24 C        8.2780     1.9350     2.3190 C.3   1 <1>  -0.2400 
 25 C        7.3820     1.5530     0.0090 C.3   1 <1>  -0.2400 
 26 H        0.3960     4.8350    -0.3680 H     1 <1>   0.0800 
 27 H        1.1820     5.3870    -1.8240 H     1 <1>   0.0800 
 28 H        2.2240     3.6340    -3.3970 H     1 <1>   0.0800 
 29 H        2.0790     1.9500    -2.9790 H     1 <1>   0.0800 
 30 H       -1.5440     4.3360    -2.0330 H     1 <1>   0.1500 
 31 H       -1.0120     1.2340     0.8060 H     1 <1>   0.1500 
 32 H        2.4810     4.0830     0.5740 H     1 <1>   0.0800 
 33 H        2.6430     5.7480     0.1040 H     1 <1>   0.0800 
 34 H        4.3510     2.8180    -2.4970 H     1 <1>   0.0800 
 35 H        3.5470     2.2320    -1.0730 H     1 <1>   0.0800 
 36 H        3.7960     5.1230    -1.9440 H     1 <1>   0.0800 
 37 H       -4.4270     3.7570     1.0560 H     1 <1>   0.1500 
 38 H       -5.2820     6.5080    -1.1970 H     1 <1>   0.0800 
 39 H       -4.8150     5.9970     0.4210 H     1 <1>   0.0800 
 40 H       -5.6570     4.8740    -0.6610 H     1 <1>   0.0800 
 41 H       -3.3200     0.2600     3.4580 H     1 <1>   0.0800 
 42 H       -1.7240     0.8460     3.0030 H     1 <1>   0.0800 
 43 H       -2.6760    -0.1250     1.8650 H     1 <1>   0.0800 
 44 H        4.5550     2.8780     0.8320 H     1 <1>   0.3700 
 45 H        6.3030     3.7990     2.4330 H     1 <1>   0.0800 
 46 H        7.2570     4.1440     1.0160 H     1 <1>   0.0800 
 47 H        6.2760     1.3980     1.8380 H     1 <1>   0.0800 
 48 H        9.0690     2.5600     1.9430 H     1 <1>   0.0800 
 49 H        8.6300     0.9190     2.3530 H     1 <1>   0.0800 
 50 H        8.0450     2.2430     3.3230 H     1 <1>   0.0800 
 51 H        8.1160     2.1990    -0.4420 H     1 <1>   0.0800 
 52 H        6.5070     1.5470    -0.6160 H     1 <1>   0.0800 
 53 H        7.7760     0.5530     0.0410 H     1 <1>   0.0800 
@<TRIPOS>BOND
  1   1   2  2   
  2   2   3  am  
  3   2   4  1   
  4   3   5  1   
  5   3   6  1   
  6   4   7  ar  
  7   4   8  ar  
  8   5   9  1   
  9   5  26  1   
 10   5  27  1   
 11   6  10  1   
 12   6  28  1   
 13   6  29  1   
 14   7  11  ar  
 15   7  30  1   
 16   8  12  ar  
 17   8  31  1   
 18   9  13  1   
 19   9  32  1   
 20   9  33  1   
 21  10  13  1   
 22  10  34  1   
 23  10  35  1   
 24  11  14  1   
 25  11  15  ar  
 26  12  15  ar  
 27  12  16  1   
 28  13  17  1   
 29  13  36  1   
 30  14  18  1   
 31  15  37  1   
 32  16  19  1   
 33  17  20  2   
 34  17  21  am  
 35  18  38  1   
 36  18  39  1   
 37  18  40  1   
 38  19  41  1   
 39  19  42  1   
 40  19  43  1   
 41  21  22  1   
 42  21  44  1   
 43  22  23  1   
 44  22  45  1   
 45  22  46  1   
 46  23  24  1   
 47  23  25  1   
 48  23  47  1   
 49  24  48  1   
 50  24  49  1   
 51  24  50  1   
 52  25  51  1   
 53  25  52  1   
 54  25  53  1   
@<TRIPOS>SUBSTRUCTURE
  1 ****   3 GROUP 4 **** **** 0

# MOE 2024.06 (io_trps.svl 2023.06)
