@<TRIPOS>MOLECULE
NONAME
45 45 1 0 0 
SMALL
USER_CHARGES


@<TRIPOS>ATOM
  1 CL      -2.7350     1.8130     2.5220 Cl    1 <1>  -0.1770 
  2 C       -1.4880     2.6320     1.6100 C.ar  1 <1>   0.1770 
  3 C       -1.5550     2.6570     0.2220 C.ar  1 <1>  -0.1440 
  4 C       -0.4650     3.2530     2.3000 C.ar  1 <1>  -0.1500 
  5 C       -0.5610     3.3220    -0.4870 C.ar  1 <1>  -0.1500 
  6 C       -2.6900     1.9600    -0.5060 C.3   1 <1>   0.4870 
  7 C        0.5090     3.9110     1.5750 C.ar  1 <1>   0.1770 
  8 C        0.4710     3.9510     0.1930 C.ar  1 <1>  -0.1500 
  9 N       -3.9800     2.6400    -0.1620 N.4   1 <1>  -0.9590 
 10 CL       1.8090     4.7070     2.4190 Cl    1 <1>  -0.1770 
 11 C       -5.1550     1.7450    -0.4740 C.3   1 <1>   0.3430 
 12 C       -4.0310     3.9970    -0.7830 C.3   1 <1>   0.3430 
 13 C       -6.4950     2.1810     0.1870 C.3   1 <1>   0.3430 
 14 C       -4.5630     4.9900     0.2420 C.3   1 <1>  -0.2400 
 15 N       -7.6110     1.1680     0.0780 N.4   1 <1>  -0.9590 
 16 C       -8.0860     0.9730    -1.3250 C.3   1 <1>   0.3430 
 17 C       -8.7650     1.5500     0.9500 C.3   1 <1>   0.3430 
 18 C       -8.7440    -0.3960    -1.4480 C.3   1 <1>  -0.2400 
 19 C       -8.4180     1.2810     2.4100 C.3   1 <1>  -0.2400 
 20 H       -0.4200     3.2280     3.3740 H     1 <1>   0.1500 
 21 H       -0.5670     3.3580    -1.5650 H     1 <1>   0.1500 
 22 H       -2.7160     0.9290    -0.1880 H     1 <1>   0.0800 
 23 H       -2.5210     1.9840    -1.5700 H     1 <1>   0.0800 
 24 H        1.2500     4.4700    -0.3400 H     1 <1>   0.1500 
 25 H       -3.9060     2.7800     0.8600 H     1 <1>   0.4500 
 26 H       -4.9260     0.7530    -0.1210 H     1 <1>   0.0800 
 27 H       -5.2870     1.6960    -1.5430 H     1 <1>   0.0800 
 28 H       -4.6480     3.9940    -1.6670 H     1 <1>   0.0800 
 29 H       -3.0390     4.3110    -1.0710 H     1 <1>   0.0800 
 30 H       -6.8210     3.1080    -0.2560 H     1 <1>   0.0800 
 31 H       -6.2990     2.3650     1.2300 H     1 <1>   0.0800 
 32 H       -5.5740     4.7780     0.5300 H     1 <1>   0.0800 
 33 H       -4.5500     5.9760    -0.1910 H     1 <1>   0.0800 
 34 H       -3.9320     5.0140     1.1130 H     1 <1>   0.0800 
 35 H       -7.2990     0.2480     0.4260 H     1 <1>   0.4500 
 36 H       -7.2560     1.0130    -2.0120 H     1 <1>   0.0800 
 37 H       -8.7860     1.7470    -1.5980 H     1 <1>   0.0800 
 38 H       -9.6320     0.9610     0.6940 H     1 <1>   0.0800 
 39 H       -9.0190     2.5900     0.8110 H     1 <1>   0.0800 
 40 H       -8.0580    -1.1830    -1.1890 H     1 <1>   0.0800 
 41 H       -9.0480    -0.5500    -2.4690 H     1 <1>   0.0800 
 42 H       -9.6260    -0.4710    -0.8370 H     1 <1>   0.0800 
 43 H       -8.1530     0.2500     2.5600 H     1 <1>   0.0800 
 44 H       -9.2850     1.4840     3.0150 H     1 <1>   0.0800 
 45 H       -7.6280     1.9180     2.7620 H     1 <1>   0.0800 
@<TRIPOS>BOND
  1   1   2  1   
  2   2   3  ar  
  3   2   4  ar  
  4   3   5  ar  
  5   3   6  1   
  6   4   7  ar  
  7   4  20  1   
  8   5   8  ar  
  9   5  21  1   
 10   6   9  1   
 11   6  22  1   
 12   6  23  1   
 13   7   8  ar  
 14   7  10  1   
 15   8  24  1   
 16   9  11  1   
 17   9  12  1   
 18   9  25  1   
 19  11  13  1   
 20  11  26  1   
 21  11  27  1   
 22  12  14  1   
 23  12  28  1   
 24  12  29  1   
 25  13  15  1   
 26  13  30  1   
 27  13  31  1   
 28  14  32  1   
 29  14  33  1   
 30  14  34  1   
 31  15  16  1   
 32  15  17  1   
 33  15  35  1   
 34  16  18  1   
 35  16  36  1   
 36  16  37  1   
 37  17  19  1   
 38  17  38  1   
 39  17  39  1   
 40  18  40  1   
 41  18  41  1   
 42  18  42  1   
 43  19  43  1   
 44  19  44  1   
 45  19  45  1   
@<TRIPOS>SUBSTRUCTURE
  1 ****   9 GROUP 4 **** **** 0

# MOE 2024.06 (io_trps.svl 2023.06)
