@<TRIPOS>MOLECULE
NONAME
42 44 1 0 0 
SMALL
USER_CHARGES


@<TRIPOS>ATOM
  1 N       -0.0250     0.2610    -0.1140 N.4   1 <1>  -0.9590 
  2 C       -0.8770    -0.7460     0.6260 C.3   1 <1>   0.3430 
  3 C       -0.6410     0.6660    -1.4110 C.3   1 <1>   0.3430 
  4 C        1.3340    -0.3330    -0.3490 C.3   1 <1>   0.3430 
  5 C       -2.2380    -0.2340     1.1890 C.3   1 <1>   0.3430 
  6 C       -1.5630     1.8780    -1.2570 C.3   1 <1>  -0.1600 
  7 C        2.3780     0.7610    -0.6410 C.3   1 <1>  -0.0800 
  8 N       -3.0980     0.5840     0.2500 N.4   1 <1>  -0.9590 
  9 C       -2.5020     1.9190    -0.0500 C.3   1 <1>   0.3430 
 10 C        3.8850     0.0900    -0.7720 C.3   1 <1>   0.0580 
 11 C        2.4890     1.9580     0.5790 C.3   1 <1>  -0.1600 
 12 C       -4.4510     0.7870     0.8750 C.3   1 <1>   0.2630 
 13 C        5.3320     0.1370    -0.0600 C.2   1 <1>  -0.2880 
 14 C        3.8530     1.0820     0.1180 C.3   1 <1>  -0.1600 
 15 C        4.0590     1.9610     1.0980 C.3   1 <1>   0.0580 
 16 C        5.4230     1.1160     0.9190 C.2   1 <1>  -0.2880 
 17 H        0.1470     1.0960     0.4650 H     1 <1>   0.4500 
 18 H       -0.3120    -1.1370     1.4580 H     1 <1>   0.0800 
 19 H       -1.0760    -1.5810    -0.0260 H     1 <1>   0.0800 
 20 H       -1.1940    -0.1640    -1.8220 H     1 <1>   0.0800 
 21 H        0.1270     0.9190    -2.1250 H     1 <1>   0.0800 
 22 H        1.3040    -1.0360    -1.1670 H     1 <1>   0.0800 
 23 H        1.6540    -0.8670     0.5320 H     1 <1>   0.0800 
 24 H       -2.0380     0.3470     2.0740 H     1 <1>   0.0800 
 25 H       -2.7990    -1.0970     1.5110 H     1 <1>   0.0800 
 26 H       -2.1570     1.9540    -2.1510 H     1 <1>   0.0800 
 27 H       -0.9560     2.7670    -1.2360 H     1 <1>   0.0800 
 28 H        2.1300     1.2280    -1.5850 H     1 <1>   0.0800 
 29 H       -3.2670     0.0770    -0.6330 H     1 <1>   0.4500 
 30 H       -3.2860     2.6310    -0.2590 H     1 <1>   0.0800 
 31 H       -1.9690     2.2770     0.8170 H     1 <1>   0.0800 
 32 H        4.1420     0.2850    -1.8050 H     1 <1>   0.0800 
 33 H        1.8420     1.7480     1.4170 H     1 <1>   0.0800 
 34 H        2.2190     2.9310     0.1900 H     1 <1>   0.0800 
 35 H       -4.3640     1.3280     1.8050 H     1 <1>   0.0800 
 36 H       -4.9230    -0.1620     1.0750 H     1 <1>   0.0800 
 37 H       -5.0920     1.3480     0.2130 H     1 <1>   0.0800 
 38 H        6.0910    -0.5600    -0.3810 H     1 <1>   0.1500 
 39 H        4.2190     1.8520    -0.6820 H     1 <1>   0.0800 
 40 H        3.5670     0.2580     0.9700 H     1 <1>   0.0800 
 41 H        4.3840     2.9690     0.8770 H     1 <1>   0.0800 
 42 H        6.2670     1.3650     1.5430 H     1 <1>   0.1500 
@<TRIPOS>BOND
  1   1   2  1   
  2   1   3  1   
  3   1   4  1   
  4   1  17  1   
  5   2   5  1   
  6   2  18  1   
  7   2  19  1   
  8   3   6  1   
  9   3  20  1   
 10   3  21  1   
 11   4   7  1   
 12   4  22  1   
 13   4  23  1   
 14   5   8  1   
 15   5  24  1   
 16   5  25  1   
 17   6   9  1   
 18   6  26  1   
 19   6  27  1   
 20   7  10  1   
 21   7  11  1   
 22   7  28  1   
 23   8   9  1   
 24   8  12  1   
 25   8  29  1   
 26   9  30  1   
 27   9  31  1   
 28  10  13  1   
 29  10  14  1   
 30  10  32  1   
 31  11  15  1   
 32  11  33  1   
 33  11  34  1   
 34  12  35  1   
 35  12  36  1   
 36  12  37  1   
 37  13  16  2   
 38  13  38  1   
 39  14  15  1   
 40  14  39  1   
 41  14  40  1   
 42  15  16  1   
 43  15  41  1   
 44  16  42  1   
@<TRIPOS>SUBSTRUCTURE
  1 ****   1 GROUP 4 **** **** 0

# MOE 2024.06 (io_trps.svl 2023.06)
