@<TRIPOS>MOLECULE
NONAME
40 42 1 0 0 
SMALL
USER_CHARGES


@<TRIPOS>ATOM
  1 S       -0.8520    -0.2800     0.4870 S.3   1 <1>  -0.0800 
  2 C       -2.4060     0.4030     0.9790 C.2   1 <1>   0.0410 
  3 C       -0.1410     0.0070     2.0640 C.2   1 <1>  -0.1100 
  4 C       -3.5080     0.4750     0.0510 C.2   1 <1>   0.2880 
  5 C       -2.3050     0.8170     2.2660 C.2   1 <1>  -0.1500 
  6 C       -1.0370     0.5900     2.8810 C.2   1 <1>  -0.1500 
  7 N       -4.4110     1.4220     0.1340 N.2   1 <1>  -0.7070 
  8 C       -3.7930    -0.3960    -1.0190 C.2   1 <1>  -0.0860 
  9 N       -5.2440     1.2210    -0.8930 N.pl3 1 <1>   0.3140 
 10 C       -3.0820    -1.5890    -1.3940 C.2   1 <1>   0.7160 
 11 C       -4.9000     0.1400    -1.5970 C.2   1 <1>  -0.3020 
 12 C       -6.3820     2.1190    -1.1560 C.3   1 <1>   0.0960 
 13 O       -2.5570    -1.6400    -2.4920 O.2   1 <1>  -0.5700 
 14 N       -3.0040    -2.6890    -0.5630 N.am  1 <1>  -0.6600 
 15 C       -7.2580     2.2490     0.0930 C.3   1 <1>   0.0400 
 16 C       -2.0630    -3.8010    -0.8990 C.3   1 <1>   0.1400 
 17 C       -3.7790    -2.8190     0.7090 C.3   1 <1>   0.1400 
 18 C       -8.4510     3.0770    -0.2160 C.1   1 <1>   0.3570 
 19 C       -2.3340    -5.0500    -0.0530 C.3   1 <1>  -0.1600 
 20 C       -2.8740    -3.3770     1.8120 C.3   1 <1>  -0.1600 
 21 N       -9.3580     3.7040    -0.4860 N.1   1 <1>  -0.5570 
 22 C       -2.2850    -4.7550     1.4560 C.3   1 <1>  -0.1600 
 23 H        0.8810    -0.2920     2.2100 H     1 <1>   0.1500 
 24 H       -3.1070     1.2900     2.8050 H     1 <1>   0.1500 
 25 H       -0.8560     0.8760     3.9020 H     1 <1>   0.1500 
 26 H       -5.4340    -0.2110    -2.4610 H     1 <1>   0.1500 
 27 H       -6.9540     1.7190    -1.9740 H     1 <1>   0.0800 
 28 H       -5.9940     3.0800    -1.4400 H     1 <1>   0.0800 
 29 H       -6.7070     2.7220     0.8860 H     1 <1>   0.0800 
 30 H       -7.5870     1.2800     0.4200 H     1 <1>   0.0800 
 31 H       -1.0570    -3.4600    -0.7270 H     1 <1>   0.0800 
 32 H       -2.1580    -4.0480    -1.9430 H     1 <1>   0.0800 
 33 H       -4.6070    -3.4870     0.5460 H     1 <1>   0.0800 
 34 H       -4.1780    -1.8720     1.0230 H     1 <1>   0.0800 
 35 H       -1.6130    -5.8100    -0.2960 H     1 <1>   0.0800 
 36 H       -3.3040    -5.4340    -0.3170 H     1 <1>   0.0800 
 37 H       -3.4290    -3.4490     2.7300 H     1 <1>   0.0800 
 38 H       -2.0740    -2.6770     1.9760 H     1 <1>   0.0800 
 39 H       -1.2640    -4.7890     1.7950 H     1 <1>   0.0800 
 40 H       -2.8260    -5.5270     1.9760 H     1 <1>   0.0800 
@<TRIPOS>BOND
  1   1   2  1   
  2   1   3  1   
  3   2   4  1   
  4   2   5  2   
  5   3   6  2   
  6   3  23  1   
  7   4   7  2   
  8   4   8  1   
  9   5   6  1   
 10   5  24  1   
 11   6  25  1   
 12   7   9  1   
 13   8  10  1   
 14   8  11  2   
 15   9  11  1   
 16   9  12  1   
 17  10  13  2   
 18  10  14  am  
 19  11  26  1   
 20  12  15  1   
 21  12  27  1   
 22  12  28  1   
 23  14  16  1   
 24  14  17  1   
 25  15  18  1   
 26  15  29  1   
 27  15  30  1   
 28  16  19  1   
 29  16  31  1   
 30  16  32  1   
 31  17  20  1   
 32  17  33  1   
 33  17  34  1   
 34  18  21  3   
 35  19  22  1   
 36  19  35  1   
 37  19  36  1   
 38  20  22  1   
 39  20  37  1   
 40  20  38  1   
 41  22  39  1   
 42  22  40  1   
@<TRIPOS>SUBSTRUCTURE
  1 ****   4 GROUP 4 **** **** 0

# MOE 2024.06 (io_trps.svl 2023.06)
