@<TRIPOS>MOLECULE
NONAME
33 34 1 0 0 
SMALL
USER_CHARGES


@<TRIPOS>ATOM
  1 N        0.3610     2.5210    -2.8660 N.1   1 <1>  -0.5570 
  2 C        0.2490     2.7620    -1.7610 C.1   1 <1>   0.3570 
  3 C        0.0520     3.0540    -0.3020 C.3   1 <1>   0.3800 
  4 C       -1.4270     2.8500     0.0610 C.2   1 <1>   0.0060 
  5 C        0.8760     2.0520     0.5480 C.3   1 <1>  -0.1600 
  6 C        0.4850     4.5140    -0.0040 C.3   1 <1>  -0.1600 
  7 N       -1.9550     3.2860     1.1550 N.2   1 <1>  -0.5650 
  8 N       -2.3130     2.1770    -0.7310 N.pl3 1 <1>   0.0330 
  9 C        2.4020     2.0490     0.3100 C.3   1 <1>   0.0400 
 10 C       -0.4020     5.5980    -0.6570 C.3   1 <1>   0.0400 
 11 C       -3.2570     2.8900     1.0970 C.ar  1 <1>   0.2270 
 12 C       -3.4970     2.1990    -0.0750 C.ar  1 <1>  -0.1520 
 13 C        3.0690     1.0080     1.1420 C.1   1 <1>   0.3570 
 14 C        0.1450     6.9590    -0.3960 C.1   1 <1>   0.3570 
 15 C       -4.2890     3.0880     2.0120 C.ar  1 <1>  -0.1500 
 16 C       -4.7630     1.6880    -0.3710 C.ar  1 <1>  -0.1500 
 17 N        3.5680     0.2110     1.7780 N.1   1 <1>  -0.5570 
 18 N        0.5920     7.9850    -0.1980 N.1   1 <1>  -0.5570 
 19 C       -5.5420     2.5870     1.7300 C.ar  1 <1>  -0.1500 
 20 C       -5.7770     1.8880     0.5390 C.ar  1 <1>  -0.1500 
 21 H        0.5010     1.0600     0.3580 H     1 <1>   0.0800 
 22 H        0.6910     2.2560     1.5900 H     1 <1>   0.0800 
 23 H        1.4970     4.6640    -0.3370 H     1 <1>   0.0800 
 24 H        0.4700     4.6700     1.0620 H     1 <1>   0.0800 
 25 H       -2.1430     1.7450    -1.6460 H     1 <1>   0.2700 
 26 H        2.8310     2.9990     0.5720 H     1 <1>   0.0800 
 27 H        2.6310     1.8420    -0.7200 H     1 <1>   0.0800 
 28 H       -1.4020     5.5630    -0.2620 H     1 <1>   0.0800 
 29 H       -0.4540     5.4630    -1.7220 H     1 <1>   0.0800 
 30 H       -4.0820     3.6270     2.9170 H     1 <1>   0.1500 
 31 H       -4.9370     1.1520    -1.2870 H     1 <1>   0.1500 
 32 H       -6.3510     2.7300     2.4250 H     1 <1>   0.1500 
 33 H       -6.7650     1.5080     0.3440 H     1 <1>   0.1500 
@<TRIPOS>BOND
  1   1   2  3   
  2   2   3  1   
  3   3   4  1   
  4   3   5  1   
  5   3   6  1   
  6   4   7  2   
  7   4   8  1   
  8   5   9  1   
  9   5  21  1   
 10   5  22  1   
 11   6  10  1   
 12   6  23  1   
 13   6  24  1   
 14   7  11  1   
 15   8  12  1   
 16   8  25  1   
 17   9  13  1   
 18   9  26  1   
 19   9  27  1   
 20  10  14  1   
 21  10  28  1   
 22  10  29  1   
 23  11  12  ar  
 24  11  15  ar  
 25  12  16  ar  
 26  13  17  3   
 27  14  18  3   
 28  15  19  ar  
 29  15  30  1   
 30  16  20  ar  
 31  16  31  1   
 32  19  20  ar  
 33  19  32  1   
 34  20  33  1   
@<TRIPOS>SUBSTRUCTURE
  1 ****   4 GROUP 4 **** **** 0

# MOE 2024.06 (io_trps.svl 2023.06)
