@<TRIPOS>MOLECULE
NONAME
49 51 1 0 0 
SMALL
USER_CHARGES


@<TRIPOS>ATOM
  1 O       -1.2880    -0.5940     0.2050 O.2   1 <1>  -0.5700 
  2 C       -1.5080     0.5930     0.3210 C.2   1 <1>   0.5690 
  3 N       -2.7470     1.1480     0.4790 N.am  1 <1>  -0.4770 
  4 C       -0.4280     1.7000     0.3450 C.3   1 <1>   0.4850 
  5 C       -2.6350     2.5260     0.6450 C.ar  1 <1>   0.1170 
  6 C       -4.0110     0.3790     0.5010 C.3   1 <1>   0.1400 
  7 O        0.1790     1.8560    -0.8990 O.3   1 <1>  -0.6800 
  8 C       -1.3100     2.9210     0.5850 C.ar  1 <1>  -0.1430 
  9 C        0.6360     1.4230     1.4110 C.3   1 <1>  -0.0990 
 10 C       -3.6410     3.4600     0.8460 C.ar  1 <1>  -0.1500 
 11 C       -4.6880     0.4560    -0.8700 C.3   1 <1>  -0.1600 
 12 C       -0.9710     4.2560     0.7240 C.ar  1 <1>  -0.1500 
 13 C        1.7420     2.4590     1.4520 C.2   1 <1>   0.4230 
 14 C       -3.3030     4.7960     0.9870 C.ar  1 <1>  -0.1500 
 15 C       -6.0140    -0.3150    -0.8790 C.3   1 <1>  -0.1600 
 16 C       -1.9740     5.1910     0.9260 C.ar  1 <1>  -0.1500 
 17 O        1.6690     3.3040     2.3090 O.2   1 <1>  -0.5700 
 18 C        2.8480     2.3490     0.5310 C.ar  1 <1>   0.0860 
 19 C       -6.6870    -0.2330    -2.2520 C.3   1 <1>  -0.2400 
 20 C        3.1620     3.3670    -0.3810 C.ar  1 <1>   0.0830 
 21 C        3.6490     1.2030     0.5310 C.ar  1 <1>  -0.1500 
 22 O        2.3770     4.4710    -0.3930 O.3   1 <1>  -0.3630 
 23 C        4.2430     3.2230    -1.2490 C.ar  1 <1>  -0.1500 
 24 C        4.7160     1.0650    -0.3340 C.ar  1 <1>  -0.1500 
 25 C        2.6120     5.5730    -1.2390 C.3   1 <1>   0.0400 
 26 C        5.0150     2.0780    -1.2260 C.ar  1 <1>  -0.1500 
 27 H       -4.6570     0.7780     1.2640 H     1 <1>   0.0800 
 28 H       -3.7980    -0.6480     0.7440 H     1 <1>   0.0800 
 29 H       -0.4820     2.2190    -1.5170 H     1 <1>   0.4000 
 30 H        1.0530     0.4500     1.2340 H     1 <1>   0.0800 
 31 H        0.1560     1.3930     2.3720 H     1 <1>   0.0800 
 32 H       -4.6690     3.1520     0.8920 H     1 <1>   0.1500 
 33 H       -4.0270     0.0360    -1.6090 H     1 <1>   0.0800 
 34 H       -4.8730     1.4860    -1.1210 H     1 <1>   0.0800 
 35 H        0.0570     4.5720     0.6800 H     1 <1>   0.1500 
 36 H       -4.0720     5.5320     1.1450 H     1 <1>   0.1500 
 37 H       -6.6780     0.0930    -0.1350 H     1 <1>   0.0800 
 38 H       -5.8330    -1.3490    -0.6360 H     1 <1>   0.0800 
 39 H       -1.7160     6.2300     1.0400 H     1 <1>   0.1500 
 40 H       -6.8980     0.7910    -2.5080 H     1 <1>   0.0800 
 41 H       -7.6130    -0.7800    -2.2410 H     1 <1>   0.0800 
 42 H       -6.0500    -0.6560    -3.0090 H     1 <1>   0.0800 
 43 H        3.4340     0.4110     1.2250 H     1 <1>   0.1500 
 44 H        4.4970     3.9920    -1.9530 H     1 <1>   0.1500 
 45 H        5.3170     0.1720    -0.3150 H     1 <1>   0.1500 
 46 H        1.8600     6.3150    -1.0360 H     1 <1>   0.0800 
 47 H        2.5400     5.2500    -2.2620 H     1 <1>   0.0800 
 48 H        3.5870     5.9740    -1.0260 H     1 <1>   0.0800 
 49 H        5.8480     1.9720    -1.9010 H     1 <1>   0.1500 
@<TRIPOS>BOND
  1   1   2  2   
  2   2   3  am  
  3   2   4  1   
  4   3   5  1   
  5   3   6  1   
  6   4   7  1   
  7   4   8  1   
  8   4   9  1   
  9   5   8  ar  
 10   5  10  ar  
 11   6  11  1   
 12   6  27  1   
 13   6  28  1   
 14   7  29  1   
 15   8  12  ar  
 16   9  13  1   
 17   9  30  1   
 18   9  31  1   
 19  10  14  ar  
 20  10  32  1   
 21  11  15  1   
 22  11  33  1   
 23  11  34  1   
 24  12  16  ar  
 25  12  35  1   
 26  13  17  2   
 27  13  18  1   
 28  14  16  ar  
 29  14  36  1   
 30  15  19  1   
 31  15  37  1   
 32  15  38  1   
 33  16  39  1   
 34  18  20  ar  
 35  18  21  ar  
 36  19  40  1   
 37  19  41  1   
 38  19  42  1   
 39  20  22  1   
 40  20  23  ar  
 41  21  24  ar  
 42  21  43  1   
 43  22  25  1   
 44  23  26  ar  
 45  23  44  1   
 46  24  26  ar  
 47  24  45  1   
 48  25  46  1   
 49  25  47  1   
 50  25  48  1   
 51  26  49  1   
@<TRIPOS>SUBSTRUCTURE
  1 ****   4 GROUP 4 **** **** 0

# MOE 2024.06 (io_trps.svl 2023.06)
