@<TRIPOS>MOLECULE
NONAME
47 48 1 0 0 
SMALL
USER_CHARGES


@<TRIPOS>ATOM
  1 O        0.1550    -0.4080    -0.8630 O.2   1 <1>  -0.5700 
  2 C        0.0470    -1.5960    -0.6220 C.2   1 <1>   0.5440 
  3 N        1.1900    -2.3370    -0.4180 N.am  1 <1>  -0.6600 
  4 C       -1.2700    -2.1950    -0.5490 C.ar  1 <1>   0.0860 
  5 C        1.1890    -3.6950     0.2040 C.3   1 <1>   0.1400 
  6 C        2.5430    -1.7320    -0.6060 C.3   1 <1>   0.1400 
  7 C       -2.2340    -1.6960     0.3230 C.ar  1 <1>  -0.1500 
  8 C       -1.6230    -3.2870    -1.3420 C.ar  1 <1>  -0.1500 
  9 C        2.4960    -3.9510     0.9830 C.3   1 <1>   0.2000 
 10 C        3.6190    -2.8170    -0.8270 C.3   1 <1>   0.2000 
 11 C       -3.4910    -2.2630     0.4110 C.ar  1 <1>   0.0830 
 12 C       -2.8740    -3.8720    -1.2580 C.ar  1 <1>  -0.1500 
 13 O        3.6250    -3.8130     0.1650 O.3   1 <1>  -0.5600 
 14 C        2.5480    -5.3570     1.5730 C.3   1 <1>  -0.2400 
 15 C        5.0260    -2.2280    -0.8690 C.3   1 <1>  -0.2400 
 16 O       -4.3600    -1.7170     1.2970 O.3   1 <1>  -0.3630 
 17 C       -3.8250    -3.3720    -0.3730 C.ar  1 <1>   0.0830 
 18 C       -5.4920    -1.0490     0.7810 C.3   1 <1>   0.1200 
 19 O       -5.0610    -3.9230    -0.2350 O.3   1 <1>  -0.3630 
 20 C       -5.0910     0.3670     0.3650 C.3   1 <1>  -0.2400 
 21 C       -5.4590    -5.0680    -0.9500 C.3   1 <1>   0.1200 
 22 C       -6.8860    -5.4110    -0.5310 C.3   1 <1>  -0.2400 
 23 H        1.0850    -4.4410    -0.5640 H     1 <1>   0.0800 
 24 H        0.3560    -3.7850     0.8800 H     1 <1>   0.0800 
 25 H        2.7910    -1.1460     0.2610 H     1 <1>   0.0800 
 26 H        2.5250    -1.0710    -1.4550 H     1 <1>   0.0800 
 27 H       -1.9960    -0.8470     0.9390 H     1 <1>   0.1500 
 28 H       -0.8980    -3.6760    -2.0360 H     1 <1>   0.1500 
 29 H        2.5800    -3.2290     1.7770 H     1 <1>   0.0800 
 30 H        3.4160    -3.3100    -1.7630 H     1 <1>   0.0800 
 31 H       -3.0890    -4.7120    -1.8900 H     1 <1>   0.1500 
 32 H        2.4990    -6.0930     0.7910 H     1 <1>   0.0800 
 33 H        1.7220    -5.5080     2.2450 H     1 <1>   0.0800 
 34 H        3.4630    -5.4860     2.1240 H     1 <1>   0.0800 
 35 H        5.2610    -1.7580     0.0680 H     1 <1>   0.0800 
 36 H        5.0970    -1.4950    -1.6520 H     1 <1>   0.0800 
 37 H        5.7410    -3.0070    -1.0650 H     1 <1>   0.0800 
 38 H       -6.2290    -1.0160     1.5630 H     1 <1>   0.0800 
 39 H       -5.8880    -1.6020    -0.0520 H     1 <1>   0.0800 
 40 H       -4.6750     0.8950     1.2030 H     1 <1>   0.0800 
 41 H       -5.9580     0.9000     0.0180 H     1 <1>   0.0800 
 42 H       -4.3720     0.3330    -0.4340 H     1 <1>   0.0800 
 43 H       -4.7880    -5.8730    -0.7070 H     1 <1>   0.0800 
 44 H       -5.4160    -4.8470    -2.0030 H     1 <1>   0.0800 
 45 H       -6.9210    -5.6110     0.5250 H     1 <1>   0.0800 
 46 H       -7.2210    -6.2860    -1.0580 H     1 <1>   0.0800 
 47 H       -7.5460    -4.5950    -0.7640 H     1 <1>   0.0800 
@<TRIPOS>BOND
  1   1   2  2   
  2   2   3  am  
  3   2   4  1   
  4   3   5  1   
  5   3   6  1   
  6   4   7  ar  
  7   4   8  ar  
  8   5   9  1   
  9   5  23  1   
 10   5  24  1   
 11   6  10  1   
 12   6  25  1   
 13   6  26  1   
 14   7  11  ar  
 15   7  27  1   
 16   8  12  ar  
 17   8  28  1   
 18   9  13  1   
 19   9  14  1   
 20   9  29  1   
 21  10  13  1   
 22  10  15  1   
 23  10  30  1   
 24  11  16  1   
 25  11  17  ar  
 26  12  17  ar  
 27  12  31  1   
 28  14  32  1   
 29  14  33  1   
 30  14  34  1   
 31  15  35  1   
 32  15  36  1   
 33  15  37  1   
 34  16  18  1   
 35  17  19  1   
 36  18  20  1   
 37  18  38  1   
 38  18  39  1   
 39  19  21  1   
 40  20  40  1   
 41  20  41  1   
 42  20  42  1   
 43  21  22  1   
 44  21  43  1   
 45  21  44  1   
 46  22  45  1   
 47  22  46  1   
 48  22  47  1   
@<TRIPOS>SUBSTRUCTURE
  1 ****   4 GROUP 4 **** **** 0

# MOE 2024.06 (io_trps.svl 2023.06)
