@<TRIPOS>MOLECULE
NONAME
49 51 1 0 0 
SMALL
USER_CHARGES


@<TRIPOS>ATOM
  1 CL      -1.1790     0.6980     3.0550 Cl    1 <1>  -0.1770 
  2 C       -0.8570    -0.1570     1.5610 C.ar  1 <1>   0.1770 
  3 C       -1.4100    -1.4130     1.3000 C.ar  1 <1>   0.0820 
  4 C       -0.0100     0.4530     0.6570 C.ar  1 <1>  -0.1500 
  5 O       -2.2490    -2.0200     2.1770 O.3   1 <1>  -0.3630 
  6 C       -1.0780    -2.0830     0.1210 C.ar  1 <1>  -0.1440 
  7 C        0.2960    -0.2140    -0.5110 C.ar  1 <1>   0.1770 
  8 C       -3.5080    -1.4190     2.4070 C.3   1 <1>   0.0400 
  9 C       -0.2210    -1.4670    -0.7840 C.ar  1 <1>  -0.1500 
 10 C       -1.6310    -3.4750    -0.1980 C.3   1 <1>   0.4330 
 11 CL       1.3650     0.5380    -1.6680 Cl    1 <1>  -0.1770 
 12 P       -3.4320    -3.4850    -0.5210 P.3   1 <1>   1.2420 
 13 N       -1.0400    -4.3800     0.8550 N.pl3 1 <1>  -0.8690 
 14 O       -4.0220    -2.2260    -0.9830 O.2   1 <1>  -0.7000 
 15 O       -3.6990    -4.6780    -1.5690 O.3   1 <1>  -0.5510 
 16 O       -4.1840    -4.0400     0.7880 O.3   1 <1>  -0.5510 
 17 C       -1.3110    -5.7360     0.7830 C.ar  1 <1>   0.1000 
 18 C       -4.2930    -5.8570    -1.1340 C.3   1 <1>   0.1200 
 19 C       -5.5010    -4.4530     0.6470 C.3   1 <1>   0.1200 
 20 C       -0.8660    -6.5020    -0.2860 C.ar  1 <1>  -0.1500 
 21 C       -2.0420    -6.3500     1.7920 C.ar  1 <1>  -0.1500 
 22 C       -5.6390    -5.5700    -0.4250 C.3   1 <1>   0.0000 
 23 C       -1.1590    -7.8520    -0.3560 C.ar  1 <1>  -0.1500 
 24 C       -2.3360    -7.7000     1.7270 C.ar  1 <1>  -0.1500 
 25 C       -6.6860    -5.1460    -1.4710 C.3   1 <1>  -0.2400 
 26 C       -6.1180    -6.8680     0.2450 C.3   1 <1>  -0.2400 
 27 C       -1.8970    -8.4530     0.6510 C.ar  1 <1>  -0.1500 
 28 H        0.4070     1.4220     0.8610 H     1 <1>   0.1500 
 29 H       -4.1770    -2.1770     2.7740 H     1 <1>   0.0800 
 30 H       -3.8870    -1.0150     1.4840 H     1 <1>   0.0800 
 31 H       -3.4070    -0.6450     3.1450 H     1 <1>   0.0800 
 32 H        0.0590    -1.9470    -1.7050 H     1 <1>   0.1500 
 33 H       -1.1640    -3.7680    -1.1180 H     1 <1>   0.0800 
 34 H       -1.2700    -3.9660     1.7700 H     1 <1>   0.4000 
 35 H       -3.6150    -6.3430    -0.4580 H     1 <1>   0.0800 
 36 H       -4.4340    -6.4930    -1.9900 H     1 <1>   0.0800 
 37 H       -6.0810    -3.5860     0.3770 H     1 <1>   0.0800 
 38 H       -5.8360    -4.7940     1.6110 H     1 <1>   0.0800 
 39 H       -0.2810    -6.0390    -1.0590 H     1 <1>   0.1500 
 40 H       -2.3850    -5.7650     2.6260 H     1 <1>   0.1500 
 41 H       -0.8090    -8.4370    -1.1890 H     1 <1>   0.1500 
 42 H       -2.9030    -8.1660     2.5140 H     1 <1>   0.1500 
 43 H       -6.3760    -4.2420    -1.9670 H     1 <1>   0.0800 
 44 H       -7.6390    -4.9660    -1.0050 H     1 <1>   0.0800 
 45 H       -6.8110    -5.9110    -2.2170 H     1 <1>   0.0800 
 46 H       -5.4100    -7.1890     0.9890 H     1 <1>   0.0800 
 47 H       -6.2240    -7.6540    -0.4830 H     1 <1>   0.0800 
 48 H       -7.0700    -6.7200     0.7240 H     1 <1>   0.0800 
 49 H       -2.1230    -9.5040     0.5990 H     1 <1>   0.1500 
@<TRIPOS>BOND
  1   1   2  1   
  2   2   3  ar  
  3   2   4  ar  
  4   3   5  1   
  5   3   6  ar  
  6   4   7  ar  
  7   4  28  1   
  8   5   8  1   
  9   6   9  ar  
 10   6  10  1   
 11   7   9  ar  
 12   7  11  1   
 13   8  29  1   
 14   8  30  1   
 15   8  31  1   
 16   9  32  1   
 17  10  12  1   
 18  10  13  1   
 19  10  33  1   
 20  12  14  2   
 21  12  15  1   
 22  12  16  1   
 23  13  17  1   
 24  13  34  1   
 25  15  18  1   
 26  16  19  1   
 27  17  20  ar  
 28  17  21  ar  
 29  18  22  1   
 30  18  35  1   
 31  18  36  1   
 32  19  22  1   
 33  19  37  1   
 34  19  38  1   
 35  20  23  ar  
 36  20  39  1   
 37  21  24  ar  
 38  21  40  1   
 39  22  25  1   
 40  22  26  1   
 41  23  27  ar  
 42  23  41  1   
 43  24  27  ar  
 44  24  42  1   
 45  25  43  1   
 46  25  44  1   
 47  25  45  1   
 48  26  46  1   
 49  26  47  1   
 50  26  48  1   
 51  27  49  1   
@<TRIPOS>SUBSTRUCTURE
  1 ****  10 GROUP 4 **** **** 0

# MOE 2024.06 (io_trps.svl 2023.06)
