@<TRIPOS>MOLECULE
NONAME
34 34 1 0 0 
SMALL
USER_CHARGES


@<TRIPOS>ATOM
  1 O        0.0450    -0.6970    -1.4540 O.2   1 <1>  -0.5700 
  2 C        0.0690    -1.1720    -0.3360 C.2   1 <1>   0.6900 
  3 N        1.2420    -1.4150     0.3150 N.am  1 <1>  -0.5470 
  4 N       -1.0720    -1.5000     0.3230 N.am  1 <1>  -0.7300 
  5 C        2.5670    -1.0910    -0.0130 C.ar  1 <1>   0.1170 
  6 C       -2.4610    -1.3870    -0.1320 C.3   1 <1>   0.3000 
  7 C        3.5940    -1.8360     0.5510 C.ar  1 <1>  -0.1500 
  8 C        2.9040    -0.0430    -0.8640 C.ar  1 <1>  -0.1500 
  9 C       -2.6740    -2.2380    -1.3840 C.3   1 <1>  -0.2400 
 10 C       -2.8080     0.0810    -0.3860 C.3   1 <1>  -0.2400 
 11 C       -3.3320    -1.9260     1.0020 C.3   1 <1>  -0.2400 
 12 C        4.9210    -1.5560     0.2790 C.ar  1 <1>   0.0830 
 13 C        4.2270     0.2460    -1.1460 C.ar  1 <1>  -0.1500 
 14 O        5.8460    -2.3450     0.8820 O.3   1 <1>  -0.3630 
 15 C        5.2400    -0.5060    -0.5780 C.ar  1 <1>  -0.1500 
 16 C        7.2250    -2.1630     0.6490 C.3   1 <1>   0.0400 
 17 H        1.1420    -2.0320     1.1120 H     1 <1>   0.3700 
 18 H       -0.9990    -1.7240     1.3090 H     1 <1>   0.3700 
 19 H        3.3690    -2.6510     1.2120 H     1 <1>   0.1500 
 20 H        2.1300     0.5550    -1.3100 H     1 <1>   0.1500 
 21 H       -2.1040    -1.8510    -2.2090 H     1 <1>   0.0800 
 22 H       -3.7100    -2.2280    -1.6680 H     1 <1>   0.0800 
 23 H       -2.3770    -3.2550    -1.2030 H     1 <1>   0.0800 
 24 H       -2.6130     0.6730     0.4900 H     1 <1>   0.0800 
 25 H       -3.8470     0.1780    -0.6400 H     1 <1>   0.0800 
 26 H       -2.2300     0.4700    -1.2050 H     1 <1>   0.0800 
 27 H       -3.0920    -2.9550     1.2060 H     1 <1>   0.0800 
 28 H       -4.3690    -1.8750     0.7260 H     1 <1>   0.0800 
 29 H       -3.1960    -1.3440     1.8960 H     1 <1>   0.0800 
 30 H        4.4650     1.0590    -1.8100 H     1 <1>   0.1500 
 31 H        6.2580    -0.2620    -0.8120 H     1 <1>   0.1500 
 32 H        7.7610    -2.9010     1.2180 H     1 <1>   0.0800 
 33 H        7.5070    -1.1770     0.9740 H     1 <1>   0.0800 
 34 H        7.4220    -2.2960    -0.4000 H     1 <1>   0.0800 
@<TRIPOS>BOND
  1   1   2  2   
  2   2   3  am  
  3   2   4  am  
  4   3   5  1   
  5   3  17  1   
  6   4   6  1   
  7   4  18  1   
  8   5   7  ar  
  9   5   8  ar  
 10   6   9  1   
 11   6  10  1   
 12   6  11  1   
 13   7  12  ar  
 14   7  19  1   
 15   8  13  ar  
 16   8  20  1   
 17   9  21  1   
 18   9  22  1   
 19   9  23  1   
 20  10  24  1   
 21  10  25  1   
 22  10  26  1   
 23  11  27  1   
 24  11  28  1   
 25  11  29  1   
 26  12  14  1   
 27  12  15  ar  
 28  13  15  ar  
 29  13  30  1   
 30  14  16  1   
 31  15  31  1   
 32  16  32  1   
 33  16  33  1   
 34  16  34  1   
@<TRIPOS>SUBSTRUCTURE
  1 ****   3 GROUP 4 **** **** 0

# MOE 2024.06 (io_trps.svl 2023.06)
