@<TRIPOS>MOLECULE
NONAME
32 33 1 0 0 
SMALL
USER_CHARGES


@<TRIPOS>ATOM
  1 CL      -1.8270     0.6520     3.0690 Cl    1 <1>  -0.1770 
  2 C       -2.3680     1.2130     1.5100 C.ar  1 <1>   0.1770 
  3 C       -3.4540     0.5970     0.9150 C.ar  1 <1>  -0.1500 
  4 C       -1.7080     2.2590     0.8960 C.ar  1 <1>  -0.1500 
  5 C       -3.8990     1.0410    -0.3240 C.ar  1 <1>  -0.1430 
  6 C       -2.1460     2.6970    -0.3420 C.ar  1 <1>  -0.1500 
  7 C       -3.2340     2.0900    -0.9480 C.ar  1 <1>  -0.1500 
  8 C       -5.0990     0.3890    -0.9860 C.3   1 <1>   0.4870 
  9 N       -6.3350     0.8240    -0.2790 N.4   1 <1>  -0.9590 
 10 C       -7.5260     0.0380    -0.7540 C.3   1 <1>   0.3430 
 11 C       -6.5520     2.2980    -0.4050 C.3   1 <1>   0.3430 
 12 C       -8.8230     0.4440    -0.0280 C.3   1 <1>   0.2000 
 13 C       -7.7940     2.7110     0.3900 C.3   1 <1>  -0.1600 
 14 O       -9.8750    -0.1660    -0.6760 O.3   1 <1>  -0.6800 
 15 C       -9.0530     1.9580    -0.0710 C.3   1 <1>  -0.1600 
 16 H       -3.9250    -0.2200     1.4320 H     1 <1>   0.1500 
 17 H       -0.8650     2.7200     1.3800 H     1 <1>   0.1500 
 18 H       -1.6340     3.5100    -0.8330 H     1 <1>   0.1500 
 19 H       -3.5490     2.4470    -1.9150 H     1 <1>   0.1500 
 20 H       -4.9960    -0.6820    -0.9290 H     1 <1>   0.0800 
 21 H       -5.1450     0.6710    -2.0260 H     1 <1>   0.0800 
 22 H       -6.1870     0.6280     0.7180 H     1 <1>   0.4500 
 23 H       -7.3590    -1.0150    -0.5990 H     1 <1>   0.0800 
 24 H       -7.6680     0.2100    -1.8080 H     1 <1>   0.0800 
 25 H       -6.6880     2.5610    -1.4420 H     1 <1>   0.0800 
 26 H       -5.6940     2.8330    -0.0290 H     1 <1>   0.0800 
 27 H       -8.8060     0.0850     0.9870 H     1 <1>   0.0800 
 28 H       -7.9510     3.7690     0.2620 H     1 <1>   0.0800 
 29 H       -7.6220     2.5400     1.4390 H     1 <1>   0.0800 
 30 H      -10.7310     0.0520    -0.2510 H     1 <1>   0.4000 
 31 H       -9.8810     2.2210     0.5650 H     1 <1>   0.0800 
 32 H       -9.2890     2.2570    -1.0790 H     1 <1>   0.0800 
@<TRIPOS>BOND
  1   1   2  1   
  2   2   3  ar  
  3   2   4  ar  
  4   3   5  ar  
  5   3  16  1   
  6   4   6  ar  
  7   4  17  1   
  8   5   7  ar  
  9   5   8  1   
 10   6   7  ar  
 11   6  18  1   
 12   7  19  1   
 13   8   9  1   
 14   8  20  1   
 15   8  21  1   
 16   9  10  1   
 17   9  11  1   
 18   9  22  1   
 19  10  12  1   
 20  10  23  1   
 21  10  24  1   
 22  11  13  1   
 23  11  25  1   
 24  11  26  1   
 25  12  14  1   
 26  12  15  1   
 27  12  27  1   
 28  13  15  1   
 29  13  28  1   
 30  13  29  1   
 31  14  30  1   
 32  15  31  1   
 33  15  32  1   
@<TRIPOS>SUBSTRUCTURE
  1 ****   9 GROUP 4 **** **** 0

# MOE 2024.06 (io_trps.svl 2023.06)
