@<TRIPOS>MOLECULE
NONAME
33 35 1 0 0 
SMALL
USER_CHARGES


@<TRIPOS>ATOM
  1 S        0.0170     0.1480    -0.9410 S.3   1 <1>  -0.0800 
  2 C        1.1690     1.2130    -0.1670 C.2   1 <1>   0.1240 
  3 C       -1.3160     1.1520    -0.3660 C.2   1 <1>  -0.1400 
  4 N        2.5140     1.0460    -0.1800 N.pl3 1 <1>  -0.5340 
  5 C        0.5740     2.2510     0.4700 C.2   1 <1>  -0.0860 
  6 C       -0.8610     2.2080     0.3310 C.2   1 <1>  -0.1810 
  7 C       -2.7590     0.8030    -0.6880 C.3   1 <1>   0.1000 
  8 C        3.2840     1.9610     0.4770 C.2   1 <1>   0.4400 
  9 C        1.4500     3.1620     1.1420 C.2   1 <1>   0.8670 
 10 C       -1.8060     3.2510     0.9110 C.3   1 <1>   0.0210 
 11 C       -3.6880     1.7120     0.1480 C.3   1 <1>  -0.1600 
 12 C       -3.0660    -0.6720    -0.4010 C.3   1 <1>  -0.2400 
 13 N        2.8160     2.9740     1.1120 N.2   1 <1>  -0.6610 
 14 O        1.0250     4.1260     1.7600 O.2   1 <1>  -0.5700 
 15 C       -3.2120     3.1830     0.2570 C.3   1 <1>   0.0000 
 16 C       -3.1790     3.8390    -1.1360 C.3   1 <1>  -0.2400 
 17 C       -4.2100     3.9660     1.1240 C.3   1 <1>  -0.2400 
 18 H        2.9330     0.2530    -0.6700 H     1 <1>   0.4000 
 19 H       -2.9240     0.9930    -1.7340 H     1 <1>   0.0800 
 20 H        4.3480     1.8020     0.4470 H     1 <1>   0.0600 
 21 H       -1.3960     4.2360     0.7720 H     1 <1>   0.0800 
 22 H       -1.8810     3.0760     1.9700 H     1 <1>   0.0800 
 23 H       -3.7460     1.3100     1.1450 H     1 <1>   0.0800 
 24 H       -4.6780     1.6760    -0.2700 H     1 <1>   0.0800 
 25 H       -2.8280    -0.9110     0.6200 H     1 <1>   0.0800 
 26 H       -2.4860    -1.3070    -1.0460 H     1 <1>   0.0800 
 27 H       -4.1070    -0.8760    -0.5740 H     1 <1>   0.0800 
 28 H       -2.4420     3.3760    -1.7680 H     1 <1>   0.0800 
 29 H       -2.9300     4.8830    -1.0550 H     1 <1>   0.0800 
 30 H       -4.1380     3.7570    -1.6160 H     1 <1>   0.0800 
 31 H       -4.2810     3.5330     2.1070 H     1 <1>   0.0800 
 32 H       -5.1890     3.9540     0.6790 H     1 <1>   0.0800 
 33 H       -3.8980     4.9900     1.2290 H     1 <1>   0.0800 
@<TRIPOS>BOND
  1   1   2  1   
  2   1   3  1   
  3   2   4  1   
  4   2   5  2   
  5   3   6  2   
  6   3   7  1   
  7   4   8  1   
  8   4  18  1   
  9   5   6  1   
 10   5   9  1   
 11   6  10  1   
 12   7  11  1   
 13   7  12  1   
 14   7  19  1   
 15   8  13  2   
 16   8  20  1   
 17   9  13  1   
 18   9  14  2   
 19  10  15  1   
 20  10  21  1   
 21  10  22  1   
 22  11  15  1   
 23  11  23  1   
 24  11  24  1   
 25  12  25  1   
 26  12  26  1   
 27  12  27  1   
 28  15  16  1   
 29  15  17  1   
 30  16  28  1   
 31  16  29  1   
 32  16  30  1   
 33  17  31  1   
 34  17  32  1   
 35  17  33  1   
@<TRIPOS>SUBSTRUCTURE
  1 ****   6 GROUP 4 **** **** 0

# MOE 2024.06 (io_trps.svl 2023.06)
