@<TRIPOS>MOLECULE
NONAME
49 50 1 0 0 
SMALL
USER_CHARGES


@<TRIPOS>ATOM
  1 S       -0.8030     1.3940     1.0740 S.o2  1 <1>   1.4470 
  2 O       -1.6120     2.5860     1.2270 O.2   1 <1>  -0.6500 
  3 O       -0.8880     0.3640     2.0830 O.2   1 <1>  -0.6500 
  4 N       -1.2630     0.6860    -0.3970 N.am  1 <1>  -0.8490 
  5 C        0.9360     1.8350     0.8040 C.ar  1 <1>  -0.0090 
  6 C       -2.4560    -0.2060    -0.2720 C.3   1 <1>   0.2570 
  7 C       -1.3590     1.6510    -1.4980 C.3   1 <1>   0.1960 
  8 C        1.4050     3.1180     1.0590 C.ar  1 <1>  -0.1500 
  9 C        1.8450     0.8950     0.3320 C.ar  1 <1>  -0.1500 
 10 C       -3.8540     0.4400    -0.2850 C.2   1 <1>   0.5690 
 11 C       -1.4000     0.9340    -2.8460 C.3   1 <1>  -0.2400 
 12 C        2.7310     3.4530     0.8460 C.ar  1 <1>  -0.1500 
 13 C        3.1720     1.2230     0.1170 C.ar  1 <1>  -0.1500 
 14 O       -4.7120    -0.0830    -0.9560 O.2   1 <1>  -0.5700 
 15 N       -4.1080     1.5690     0.4290 N.am  1 <1>  -0.7300 
 16 C        3.6230     2.5060     0.3740 C.ar  1 <1>  -0.1430 
 17 C       -5.3850     2.2890     0.4840 C.3   1 <1>   0.2200 
 18 C        5.0780     2.8700     0.1390 C.3   1 <1>  -0.0970 
 19 C       -5.2100     3.6460    -0.2060 C.3   1 <1>  -0.1600 
 20 C       -5.7880     2.4600     1.9520 C.3   1 <1>  -0.1600 
 21 C       -6.4780     4.5020    -0.0790 C.3   1 <1>  -0.1600 
 22 C       -7.0580     3.3140     2.0840 C.3   1 <1>  -0.1600 
 23 C       -6.8860     4.6730     1.3910 C.3   1 <1>  -0.1600 
 24 H       -2.3800    -0.8020     0.6190 H     1 <1>   0.0800 
 25 H       -2.4310    -0.9050    -1.0880 H     1 <1>   0.0800 
 26 H       -0.4900     2.2880    -1.4870 H     1 <1>   0.0800 
 27 H       -2.2260     2.2820    -1.3820 H     1 <1>   0.0800 
 28 H        0.7250     3.8680     1.4280 H     1 <1>   0.1500 
 29 H        1.5070    -0.1080     0.1310 H     1 <1>   0.1500 
 30 H       -0.5750     0.2500    -2.9290 H     1 <1>   0.0800 
 31 H       -1.3230     1.6590    -3.6360 H     1 <1>   0.0800 
 32 H       -2.3270     0.4050    -2.9760 H     1 <1>   0.0800 
 33 H        3.0670     4.4560     1.0510 H     1 <1>   0.1500 
 34 H        3.8520     0.4740    -0.2500 H     1 <1>   0.1500 
 35 H       -3.3370     2.0430     0.9200 H     1 <1>   0.3700 
 36 H       -6.1460     1.7240    -0.0300 H     1 <1>   0.0800 
 37 H        5.3860     3.6470     0.8150 H     1 <1>   0.0800 
 38 H        5.2090     3.2160    -0.8700 H     1 <1>   0.0800 
 39 H        5.7100     2.0140     0.2980 H     1 <1>   0.0800 
 40 H       -4.9900     3.4870    -1.2470 H     1 <1>   0.0800 
 41 H       -4.3840     4.1710     0.2420 H     1 <1>   0.0800 
 42 H       -4.9870     2.9380     2.4900 H     1 <1>   0.0800 
 43 H       -5.9620     1.4920     2.3870 H     1 <1>   0.0800 
 44 H       -7.2810     4.0310    -0.6190 H     1 <1>   0.0800 
 45 H       -6.3060     5.4690    -0.5210 H     1 <1>   0.0800 
 46 H       -7.2840     3.4660     3.1250 H     1 <1>   0.0800 
 47 H       -7.8870     2.7900     1.6390 H     1 <1>   0.0800 
 48 H       -7.8080     5.2250     1.4470 H     1 <1>   0.0800 
 49 H       -6.1310     5.2420     1.9060 H     1 <1>   0.0800 
@<TRIPOS>BOND
  1   1   2  2   
  2   1   3  2   
  3   1   4  am  
  4   1   5  1   
  5   4   6  1   
  6   4   7  1   
  7   5   8  ar  
  8   5   9  ar  
  9   6  10  1   
 10   6  24  1   
 11   6  25  1   
 12   7  11  1   
 13   7  26  1   
 14   7  27  1   
 15   8  12  ar  
 16   8  28  1   
 17   9  13  ar  
 18   9  29  1   
 19  10  14  2   
 20  10  15  am  
 21  11  30  1   
 22  11  31  1   
 23  11  32  1   
 24  12  16  ar  
 25  12  33  1   
 26  13  16  ar  
 27  13  34  1   
 28  15  17  1   
 29  15  35  1   
 30  16  18  1   
 31  17  19  1   
 32  17  20  1   
 33  17  36  1   
 34  18  37  1   
 35  18  38  1   
 36  18  39  1   
 37  19  21  1   
 38  19  40  1   
 39  19  41  1   
 40  20  22  1   
 41  20  42  1   
 42  20  43  1   
 43  21  23  1   
 44  21  44  1   
 45  21  45  1   
 46  22  23  1   
 47  22  46  1   
 48  22  47  1   
 49  23  48  1   
 50  23  49  1   
@<TRIPOS>SUBSTRUCTURE
  1 ****   2 GROUP 4 **** **** 0

# MOE 2024.06 (io_trps.svl 2023.06)
