@<TRIPOS>MOLECULE
NONAME
45 46 1 0 0 
SMALL
USER_CHARGES


@<TRIPOS>ATOM
  1 N        0.0160    -0.0070    -0.2510 N.3   1 <1>  -0.8100 
  2 C       -0.1780     1.0060    -1.3200 C.3   1 <1>   0.1100 
  3 C       -1.1610    -0.9050    -0.1760 C.3   1 <1>   0.1100 
  4 C        1.2600    -0.7780    -0.4120 C.3   1 <1>   0.1100 
  5 C       -1.5280     1.7560    -1.1940 C.3   1 <1>   0.3430 
  6 C       -2.4790    -0.1290     0.0680 C.3   1 <1>   0.3430 
  7 C        2.4830     0.0970    -0.1150 C.3   1 <1>  -0.1600 
  8 N       -2.2500     1.3560     0.0570 N.4   1 <1>  -0.9590 
  9 C        3.7780    -0.7190     0.0380 C.3   1 <1>   0.0630 
 10 C       -3.4550     2.1780     0.3220 C.3   1 <1>   0.3430 
 11 C        4.9190     0.1990     0.4720 C.ar  1 <1>  -0.1440 
 12 C        4.1530    -1.4800    -1.2420 C.3   1 <1>  -0.2400 
 13 C       -3.9050     1.9820     1.7650 C.3   1 <1>  -0.2400 
 14 C        5.4250     1.1740    -0.3780 C.ar  1 <1>  -0.1500 
 15 C        5.4650     0.0690     1.7410 C.ar  1 <1>  -0.1500 
 16 C        6.4560     2.0010     0.0320 C.ar  1 <1>  -0.1500 
 17 C        6.4960     0.8960     2.1540 C.ar  1 <1>  -0.1500 
 18 C        6.9920     1.8630     1.2990 C.ar  1 <1>  -0.1500 
 19 H       -0.1240     0.5360    -2.2880 H     1 <1>   0.0800 
 20 H        0.6130     1.7340    -1.2720 H     1 <1>   0.0800 
 21 H       -1.0240    -1.6090     0.6280 H     1 <1>   0.0800 
 22 H       -1.2470    -1.4700    -1.0880 H     1 <1>   0.0800 
 23 H        1.3200    -1.1870    -1.4070 H     1 <1>   0.0800 
 24 H        1.2550    -1.5970     0.2880 H     1 <1>   0.0800 
 25 H       -2.1360     1.5360    -2.0550 H     1 <1>   0.0800 
 26 H       -1.3370     2.8160    -1.1880 H     1 <1>   0.0800 
 27 H       -2.8810    -0.4280     1.0220 H     1 <1>   0.0800 
 28 H       -3.1960    -0.4000    -0.6880 H     1 <1>   0.0800 
 29 H        2.3140     0.6250     0.8070 H     1 <1>   0.0800 
 30 H        2.6190     0.8180    -0.8980 H     1 <1>   0.0800 
 31 H       -1.5480     1.5030     0.8000 H     1 <1>   0.4500 
 32 H        3.6230    -1.4500     0.8140 H     1 <1>   0.0800 
 33 H       -4.2490     1.9060    -0.3560 H     1 <1>   0.0800 
 34 H       -3.2220     3.2200     0.1690 H     1 <1>   0.0800 
 35 H        4.2120    -0.8130    -2.0830 H     1 <1>   0.0800 
 36 H        3.4330    -2.2470    -1.4580 H     1 <1>   0.0800 
 37 H        5.1120    -1.9500    -1.1140 H     1 <1>   0.0800 
 38 H       -4.2470     0.9780     1.9370 H     1 <1>   0.0800 
 39 H       -4.7260     2.6450     1.9700 H     1 <1>   0.0800 
 40 H       -3.1090     2.2190     2.4480 H     1 <1>   0.0800 
 41 H        5.0210     1.2970    -1.3660 H     1 <1>   0.1500 
 42 H        5.0920    -0.6770     2.4200 H     1 <1>   0.1500 
 43 H        6.8420     2.7520    -0.6350 H     1 <1>   0.1500 
 44 H        6.9110     0.7860     3.1400 H     1 <1>   0.1500 
 45 H        7.7930     2.5060     1.6190 H     1 <1>   0.1500 
@<TRIPOS>BOND
  1   1   2  1   
  2   1   3  1   
  3   1   4  1   
  4   2   5  1   
  5   2  19  1   
  6   2  20  1   
  7   3   6  1   
  8   3  21  1   
  9   3  22  1   
 10   4   7  1   
 11   4  23  1   
 12   4  24  1   
 13   5   8  1   
 14   5  25  1   
 15   5  26  1   
 16   6   8  1   
 17   6  27  1   
 18   6  28  1   
 19   7   9  1   
 20   7  29  1   
 21   7  30  1   
 22   8  10  1   
 23   8  31  1   
 24   9  11  1   
 25   9  12  1   
 26   9  32  1   
 27  10  13  1   
 28  10  33  1   
 29  10  34  1   
 30  11  14  ar  
 31  11  15  ar  
 32  12  35  1   
 33  12  36  1   
 34  12  37  1   
 35  13  38  1   
 36  13  39  1   
 37  13  40  1   
 38  14  16  ar  
 39  14  41  1   
 40  15  17  ar  
 41  15  42  1   
 42  16  18  ar  
 43  16  43  1   
 44  17  18  ar  
 45  17  44  1   
 46  18  45  1   
@<TRIPOS>SUBSTRUCTURE
  1 ****   7 GROUP 4 **** **** 0

# MOE 2024.06 (io_trps.svl 2023.06)
