@<TRIPOS>MOLECULE
NONAME
49 51 1 0 0 
SMALL
USER_CHARGES


@<TRIPOS>ATOM
  1 F       -0.7600     1.5530     1.8050 F     1 <1>  -0.1900 
  2 C       -1.4760     1.5780     0.7040 C.ar  1 <1>   0.1900 
  3 C       -1.0590     2.3740    -0.3710 C.ar  1 <1>   0.1000 
  4 C       -2.6190     0.8050     0.6660 C.ar  1 <1>  -0.1500 
  5 N        0.0940     3.1720    -0.3710 N.pl3 1 <1>  -0.8380 
  6 C       -1.8570     2.3590    -1.5080 C.ar  1 <1>  -0.1500 
  7 C       -3.3930     0.8130    -0.4830 C.ar  1 <1>  -0.1500 
  8 C        1.3820     2.4190    -0.3390 C.3   1 <1>   0.2090 
  9 C        0.0570     4.3340     0.5630 C.3   1 <1>   0.2090 
 10 C       -3.0090     1.5900    -1.5650 C.ar  1 <1>  -0.1500 
 11 C        2.5860     3.3630    -0.5320 C.3   1 <1>   0.3430 
 12 C        1.2780     5.2550     0.3570 C.3   1 <1>   0.3430 
 13 N        2.6030     4.5230     0.4470 N.4   1 <1>  -0.9590 
 14 C        3.7780     5.4350     0.2810 C.3   1 <1>   0.4230 
 15 C        5.0910     4.6260     0.2690 C.3   1 <1>  -0.1600 
 16 C        3.7730     6.4580     1.4250 C.3   1 <1>  -0.2400 
 17 C        6.3730     5.4690     0.1700 C.3   1 <1>  -0.0170 
 18 C        7.5580     4.5500    -0.0670 C.ar  1 <1>  -0.1430 
 19 C        8.1860     3.9310     1.0030 C.ar  1 <1>  -0.1500 
 20 C        8.0160     4.3130    -1.3550 C.ar  1 <1>  -0.1500 
 21 C        9.2570     3.0810     0.7880 C.ar  1 <1>  -0.1500 
 22 C        9.0880     3.4640    -1.5700 C.ar  1 <1>  -0.1500 
 23 C        9.7080     2.8470    -0.4990 C.ar  1 <1>  -0.1500 
 24 H       -2.8990     0.2090     1.5160 H     1 <1>   0.1500 
 25 H       -1.5700     2.9580    -2.3530 H     1 <1>   0.1500 
 26 H       -4.2890     0.2180    -0.5360 H     1 <1>   0.1500 
 27 H        1.3780     1.6840    -1.1260 H     1 <1>   0.0800 
 28 H        1.4780     1.8970     0.5970 H     1 <1>   0.0800 
 29 H        0.0340     3.9860     1.5810 H     1 <1>   0.0800 
 30 H       -0.8450     4.8950     0.3870 H     1 <1>   0.0800 
 31 H       -3.6110     1.5950    -2.4580 H     1 <1>   0.1500 
 32 H        2.5550     3.7430    -1.5390 H     1 <1>   0.0800 
 33 H        3.4830     2.7770    -0.4270 H     1 <1>   0.0800 
 34 H        1.2310     6.0340     1.0970 H     1 <1>   0.0800 
 35 H        1.1880     5.7160    -0.6130 H     1 <1>   0.0800 
 36 H        2.6620     4.1180     1.3900 H     1 <1>   0.4500 
 37 H        3.6910     5.9610    -0.6580 H     1 <1>   0.0800 
 38 H        5.1020     3.9780    -0.5880 H     1 <1>   0.0800 
 39 H        5.1540     4.0170     1.1540 H     1 <1>   0.0800 
 40 H        3.8640     5.9690     2.3790 H     1 <1>   0.0800 
 41 H        2.8920     7.0700     1.4170 H     1 <1>   0.0800 
 42 H        4.5990     7.1380     1.3220 H     1 <1>   0.0800 
 43 H        6.5450     6.0210     1.0770 H     1 <1>   0.0800 
 44 H        6.2990     6.1730    -0.6410 H     1 <1>   0.0800 
 45 H        7.8500     4.1050     2.0090 H     1 <1>   0.1500 
 46 H        7.5480     4.7880    -2.1990 H     1 <1>   0.1500 
 47 H        9.7430     2.6040     1.6220 H     1 <1>   0.1500 
 48 H        9.4420     3.2850    -2.5700 H     1 <1>   0.1500 
 49 H       10.5410     2.1870    -0.6660 H     1 <1>   0.1500 
@<TRIPOS>BOND
  1   1   2  1   
  2   2   3  ar  
  3   2   4  ar  
  4   3   5  1   
  5   3   6  ar  
  6   4   7  ar  
  7   4  24  1   
  8   5   8  1   
  9   5   9  1   
 10   6  10  ar  
 11   6  25  1   
 12   7  10  ar  
 13   7  26  1   
 14   8  11  1   
 15   8  27  1   
 16   8  28  1   
 17   9  12  1   
 18   9  29  1   
 19   9  30  1   
 20  10  31  1   
 21  11  13  1   
 22  11  32  1   
 23  11  33  1   
 24  12  13  1   
 25  12  34  1   
 26  12  35  1   
 27  13  14  1   
 28  13  36  1   
 29  14  15  1   
 30  14  16  1   
 31  14  37  1   
 32  15  17  1   
 33  15  38  1   
 34  15  39  1   
 35  16  40  1   
 36  16  41  1   
 37  16  42  1   
 38  17  18  1   
 39  17  43  1   
 40  17  44  1   
 41  18  19  ar  
 42  18  20  ar  
 43  19  21  ar  
 44  19  45  1   
 45  20  22  ar  
 46  20  46  1   
 47  21  23  ar  
 48  21  47  1   
 49  22  23  ar  
 50  22  48  1   
 51  23  49  1   
@<TRIPOS>SUBSTRUCTURE
  1 ****  11 GROUP 4 **** **** 0

# MOE 2024.06 (io_trps.svl 2023.06)
