@<TRIPOS>MOLECULE
NONAME
37 39 1 0 0 
SMALL
USER_CHARGES


@<TRIPOS>ATOM
  1 S       -0.1270     0.9320     0.6870 S.3   1 <1>  -0.2860 
  2 C       -1.4270    -0.2880     0.5640 C.2   1 <1>   0.2420 
  3 C        1.1460     0.1630     1.8050 C.3   1 <1>   0.1310 
  4 N       -1.3860    -1.4490     1.1120 N.2   1 <1>  -0.5650 
  5 N       -2.5400    -0.0100    -0.1490 N.pl3 1 <1>   0.0330 
  6 C        2.5050     0.1250     1.1190 C.2   1 <1>   0.5690 
  7 C       -2.5750    -2.0040     0.7390 C.ar  1 <1>   0.2270 
  8 C       -3.3050    -1.1270    -0.0470 C.ar  1 <1>  -0.1520 
  9 O        3.3520     0.8790     1.5400 O.2   1 <1>  -0.5700 
 10 N        2.7680    -0.7370     0.0800 N.am  1 <1>  -0.6600 
 11 C       -3.0970    -3.2610     1.0360 C.ar  1 <1>  -0.1500 
 12 C       -4.5590    -1.4740    -0.5520 C.ar  1 <1>  -0.1500 
 13 C        4.0780    -0.7150    -0.6380 C.3   1 <1>   0.1400 
 14 C        1.8090    -1.7370    -0.4820 C.3   1 <1>   0.1400 
 15 C       -4.3350    -3.6100     0.5400 C.ar  1 <1>  -0.1500 
 16 C       -5.0700    -2.7200    -0.2540 C.ar  1 <1>  -0.1430 
 17 C        4.6260    -2.1390    -0.8190 C.3   1 <1>   0.1200 
 18 C        2.4910    -3.1000    -0.6870 C.3   1 <1>   0.1200 
 19 C       -6.4290    -3.1520    -0.7750 C.3   1 <1>  -0.0970 
 20 O        3.6710    -2.9630    -1.4270 O.3   1 <1>  -0.5600 
 21 H        0.8270    -0.8210     2.0820 H     1 <1>   0.0800 
 22 H        1.1940     0.7790     2.6830 H     1 <1>   0.0800 
 23 H       -2.7450     0.8590    -0.6450 H     1 <1>   0.2700 
 24 H       -2.5210    -3.9290     1.6470 H     1 <1>   0.1500 
 25 H       -5.1070    -0.7750    -1.1590 H     1 <1>   0.1500 
 26 H        4.7980    -0.1270    -0.0980 H     1 <1>   0.0800 
 27 H        3.9410    -0.2630    -1.6050 H     1 <1>   0.0800 
 28 H        1.4400    -1.3800    -1.4280 H     1 <1>   0.0800 
 29 H        0.9690    -1.8750     0.1690 H     1 <1>   0.0800 
 30 H       -4.7460    -4.5790     0.7650 H     1 <1>   0.1500 
 31 H        4.8960    -2.5640     0.1320 H     1 <1>   0.0800 
 32 H        5.4960    -2.1240    -1.4510 H     1 <1>   0.0800 
 33 H        1.8380    -3.7620    -1.2290 H     1 <1>   0.0800 
 34 H        2.7280    -3.5500     0.2610 H     1 <1>   0.0800 
 35 H       -6.8790    -2.3760    -1.3670 H     1 <1>   0.0800 
 36 H       -7.0820    -3.3760     0.0500 H     1 <1>   0.0800 
 37 H       -6.3250    -4.0320    -1.3840 H     1 <1>   0.0800 
@<TRIPOS>BOND
  1   1   2  1   
  2   1   3  1   
  3   2   4  2   
  4   2   5  1   
  5   3   6  1   
  6   3  21  1   
  7   3  22  1   
  8   4   7  1   
  9   5   8  1   
 10   5  23  1   
 11   6   9  2   
 12   6  10  am  
 13   7   8  ar  
 14   7  11  ar  
 15   8  12  ar  
 16  10  13  1   
 17  10  14  1   
 18  11  15  ar  
 19  11  24  1   
 20  12  16  ar  
 21  12  25  1   
 22  13  17  1   
 23  13  26  1   
 24  13  27  1   
 25  14  18  1   
 26  14  28  1   
 27  14  29  1   
 28  15  16  ar  
 29  15  30  1   
 30  16  19  1   
 31  17  20  1   
 32  17  31  1   
 33  17  32  1   
 34  18  20  1   
 35  18  33  1   
 36  18  34  1   
 37  19  35  1   
 38  19  36  1   
 39  19  37  1   
@<TRIPOS>SUBSTRUCTURE
  1 ****   4 GROUP 4 **** **** 0

# MOE 2024.06 (io_trps.svl 2023.06)
