@<TRIPOS>MOLECULE
NONAME
32 32 1 0 0 
SMALL
USER_CHARGES


@<TRIPOS>ATOM
  1 CL       0.2480     0.9780    -2.4530 Cl    1 <1>  -0.1770 
  2 C        1.6080     1.4930    -1.4920 C.ar  1 <1>   0.1770 
  3 C        1.5420     2.6900    -0.8060 C.ar  1 <1>  -0.1500 
  4 C        2.7360     0.6990    -1.4270 C.ar  1 <1>  -0.1500 
  5 C        2.6270     3.0950    -0.0450 C.ar  1 <1>  -0.1500 
  6 C        3.8130     1.1150    -0.6620 C.ar  1 <1>  -0.1500 
  7 C        3.7790     2.3170     0.0400 C.ar  1 <1>  -0.0090 
  8 S        5.2080     2.8580     1.0180 S.o2  1 <1>   1.4470 
  9 O        4.9540     4.1110     1.6850 O.2   1 <1>  -0.6500 
 10 O        5.8040     1.7520     1.7300 O.2   1 <1>  -0.6500 
 11 N        6.3370     3.3060    -0.1440 N.am  1 <1>  -0.9140 
 12 C        7.6680     3.4770     0.4340 C.3   1 <1>   0.1960 
 13 C        8.7220     3.7080    -0.6660 C.3   1 <1>   0.3430 
 14 N       10.1260     3.8040    -0.1320 N.4   1 <1>  -0.9590 
 15 C       11.0600     4.2450    -1.2160 C.3   1 <1>   0.2630 
 16 C       10.6010     2.5060     0.4520 C.3   1 <1>   0.2630 
 17 H        0.6520     3.2920    -0.8690 H     1 <1>   0.1500 
 18 H        2.7660    -0.2310    -1.9680 H     1 <1>   0.1500 
 19 H        2.5720     4.0290     0.4920 H     1 <1>   0.1500 
 20 H        4.6930     0.4950    -0.6070 H     1 <1>   0.1500 
 21 H        5.9910     4.2230    -0.4320 H     1 <1>   0.4200 
 22 H        7.9310     2.5830     0.9730 H     1 <1>   0.0800 
 23 H        7.6570     4.3050     1.1240 H     1 <1>   0.0800 
 24 H        8.4750     4.6200    -1.1840 H     1 <1>   0.0800 
 25 H        8.6630     2.8960    -1.3710 H     1 <1>   0.0800 
 26 H       10.1470     4.5210     0.6110 H     1 <1>   0.4500 
 27 H       11.0740     3.5240    -2.0170 H     1 <1>   0.0800 
 28 H       12.0620     4.3470    -0.8290 H     1 <1>   0.0800 
 29 H       10.7500     5.1980    -1.6150 H     1 <1>   0.0800 
 30 H       10.5710     1.7260    -0.2910 H     1 <1>   0.0800 
 31 H        9.9790     2.2130     1.2830 H     1 <1>   0.0800 
 32 H       11.6140     2.6040     0.8070 H     1 <1>   0.0800 
@<TRIPOS>BOND
  1   1   2  1   
  2   2   3  ar  
  3   2   4  ar  
  4   3   5  ar  
  5   3  17  1   
  6   4   6  ar  
  7   4  18  1   
  8   5   7  ar  
  9   5  19  1   
 10   6   7  ar  
 11   6  20  1   
 12   7   8  1   
 13   8   9  2   
 14   8  10  2   
 15   8  11  am  
 16  11  12  1   
 17  11  21  1   
 18  12  13  1   
 19  12  22  1   
 20  12  23  1   
 21  13  14  1   
 22  13  24  1   
 23  13  25  1   
 24  14  15  1   
 25  14  16  1   
 26  14  26  1   
 27  15  27  1   
 28  15  28  1   
 29  15  29  1   
 30  16  30  1   
 31  16  31  1   
 32  16  32  1   
@<TRIPOS>SUBSTRUCTURE
  1 ****  11 GROUP 4 **** **** 0

# MOE 2024.06 (io_trps.svl 2023.06)
