@<TRIPOS>MOLECULE
NONAME
48 50 1 0 0 
SMALL
USER_CHARGES


@<TRIPOS>ATOM
  1 BR       0.2750     0.9890    -1.7960 Br    1 <1>  -0.1110 
  2 C       -1.3900     0.2760    -1.1290 C.ar  1 <1>   0.1110 
  3 C       -2.1390     0.9960    -0.2120 C.ar  1 <1>   0.0830 
  4 C       -1.7950    -0.9610    -1.5940 C.ar  1 <1>  -0.1500 
  5 O       -1.7420     2.2040     0.2380 O.3   1 <1>  -0.5330 
  6 C       -3.3340     0.4590     0.2580 C.ar  1 <1>   0.0830 
  7 C       -2.9850    -1.5040    -1.1270 C.ar  1 <1>  -0.1430 
  8 O       -4.0430     1.2020     1.1570 O.3   1 <1>  -0.3630 
  9 C       -3.7460    -0.7900    -0.2050 C.ar  1 <1>  -0.1500 
 10 C       -3.4510    -2.8730    -1.6210 C.3   1 <1>   0.5020 
 11 C       -5.2810     0.7460     1.6600 C.3   1 <1>   0.0400 
 12 N       -4.7280    -2.6630    -2.3280 N.am  1 <1>  -0.7300 
 13 C       -3.5640    -3.8730    -0.4640 C.2   1 <1>  -0.1240 
 14 C       -5.9070    -3.1240    -1.8850 C.2   1 <1>   0.6900 
 15 C       -4.7910    -4.3720    -0.1390 C.2   1 <1>  -0.0290 
 16 C       -2.3040    -4.1580     0.1560 C.2   1 <1>   0.7060 
 17 O       -6.9420    -2.7770    -2.4040 O.2   1 <1>  -0.5700 
 18 N       -5.9170    -3.9690    -0.8270 N.am  1 <1>  -0.5390 
 19 C       -5.0890    -5.3900     0.9520 C.3   1 <1>  -0.1020 
 20 O       -2.1910    -4.6350     1.2690 O.2   1 <1>  -0.5700 
 21 O       -1.1880    -3.8790    -0.5320 O.3   1 <1>  -0.4300 
 22 C        0.0980    -4.3280    -0.1330 C.3   1 <1>   0.1200 
 23 C        0.4870    -5.6010    -0.9120 C.3   1 <1>   0.2000 
 24 O       -0.5660    -6.5140    -0.9260 O.3   1 <1>  -0.5600 
 25 C        1.6330    -6.3640    -0.2620 C.3   1 <1>  -0.1600 
 26 C       -0.5070    -7.3670     0.1760 C.3   1 <1>   0.1200 
 27 C        0.9240    -7.2970     0.7060 C.3   1 <1>  -0.1600 
 28 H       -1.1790    -1.4840    -2.3040 H     1 <1>   0.1500 
 29 H       -2.4010     2.5480     0.8740 H     1 <1>   0.4500 
 30 H       -4.6640    -1.2270     0.1440 H     1 <1>   0.1500 
 31 H       -2.7490    -3.2570    -2.3420 H     1 <1>   0.0800 
 32 H       -5.6630     1.4900     2.3350 H     1 <1>   0.0800 
 33 H       -5.1250    -0.1790     2.1870 H     1 <1>   0.0800 
 34 H       -5.9640     0.6110     0.8400 H     1 <1>   0.0800 
 35 H       -4.7540    -1.9210    -3.0230 H     1 <1>   0.3700 
 36 H       -6.8450    -4.3150    -0.5870 H     1 <1>   0.3700 
 37 H       -5.4690    -4.8910     1.8250 H     1 <1>   0.0800 
 38 H       -4.2180    -5.9530     1.2300 H     1 <1>   0.0800 
 39 H       -5.8240    -6.0960     0.6100 H     1 <1>   0.0800 
 40 H        0.1180    -4.5030     0.9280 H     1 <1>   0.0800 
 41 H        0.8000    -3.5440    -0.3520 H     1 <1>   0.0800 
 42 H        0.7220    -5.3440    -1.9300 H     1 <1>   0.0800 
 43 H        2.3430    -5.7180     0.2230 H     1 <1>   0.0800 
 44 H        2.1390    -6.9370    -1.0190 H     1 <1>   0.0800 
 45 H       -0.7670    -8.3580    -0.1520 H     1 <1>   0.0800 
 46 H       -1.2150    -7.0250     0.9110 H     1 <1>   0.0800 
 47 H        0.9150    -6.8870     1.7000 H     1 <1>   0.0800 
 48 H        1.3790    -8.2710     0.7330 H     1 <1>   0.0800 
@<TRIPOS>BOND
  1   1   2  1   
  2   2   3  ar  
  3   2   4  ar  
  4   3   5  1   
  5   3   6  ar  
  6   4   7  ar  
  7   4  28  1   
  8   5  29  1   
  9   6   8  1   
 10   6   9  ar  
 11   7   9  ar  
 12   7  10  1   
 13   8  11  1   
 14   9  30  1   
 15  10  12  1   
 16  10  13  1   
 17  10  31  1   
 18  11  32  1   
 19  11  33  1   
 20  11  34  1   
 21  12  14  am  
 22  12  35  1   
 23  13  15  2   
 24  13  16  1   
 25  14  17  2   
 26  14  18  am  
 27  15  18  1   
 28  15  19  1   
 29  16  20  2   
 30  16  21  1   
 31  18  36  1   
 32  19  37  1   
 33  19  38  1   
 34  19  39  1   
 35  21  22  1   
 36  22  23  1   
 37  22  40  1   
 38  22  41  1   
 39  23  24  1   
 40  23  25  1   
 41  23  42  1   
 42  24  26  1   
 43  25  27  1   
 44  25  43  1   
 45  25  44  1   
 46  26  27  1   
 47  26  45  1   
 48  26  46  1   
 49  27  47  1   
 50  27  48  1   
@<TRIPOS>SUBSTRUCTURE
  1 ****  13 GROUP 4 **** **** 0

# MOE 2024.06 (io_trps.svl 2023.06)
