@<TRIPOS>MOLECULE
NONAME
40 41 1 0 0 
SMALL
USER_CHARGES


@<TRIPOS>ATOM
  1 O      -11.6470     5.2950    -0.7710 O.3   1 <1>  -0.5600 
  2 C      -10.9520     6.2000     0.0440 C.3   1 <1>   0.2000 
  3 C      -11.7950     3.9770    -0.3060 C.3   1 <1>   0.2000 
  4 C       -9.5040     5.7030     0.2990 C.3   1 <1>   0.3430 
  5 C      -11.7490     6.4520     1.3310 C.3   1 <1>  -0.2400 
  6 C      -10.4970     3.4620     0.3710 C.3   1 <1>   0.3430 
  7 C      -12.1670     3.1390    -1.5280 C.3   1 <1>  -0.2400 
  8 N       -9.3070     4.2550    -0.0820 N.4   1 <1>  -0.9590 
  9 C       -8.0220     3.6630     0.4070 C.3   1 <1>   0.3430 
 10 C       -6.7860     4.2880    -0.2490 C.3   1 <1>   0.1200 
 11 O       -5.6670     3.6560     0.3190 O.3   1 <1>  -0.3630 
 12 C       -4.3870     3.9620    -0.0160 C.ar  1 <1>   0.0820 
 13 C       -3.3680     3.2940     0.6680 C.ar  1 <1>   0.0730 
 14 C       -4.0720     4.8990    -0.9980 C.ar  1 <1>  -0.1500 
 15 C       -3.6780     2.3270     1.6820 C.1   1 <1>   0.4840 
 16 C       -2.0460     3.5830     0.3500 C.ar  1 <1>  -0.1500 
 17 C       -2.7500     5.1720    -1.2980 C.ar  1 <1>  -0.1500 
 18 N       -3.9460     1.5640     2.4860 N.1   1 <1>  -0.5570 
 19 C       -1.7370     4.5140    -0.6240 C.ar  1 <1>  -0.1500 
 20 H      -10.9050     7.1280    -0.5010 H     1 <1>   0.0800 
 21 H      -12.6110     3.9540     0.3970 H     1 <1>   0.0800 
 22 H       -9.2730     5.8450     1.3410 H     1 <1>   0.0800 
 23 H       -8.8260     6.3210    -0.2660 H     1 <1>   0.0800 
 24 H      -11.7740     5.5880     1.9690 H     1 <1>   0.0800 
 25 H      -12.7560     6.7410     1.0840 H     1 <1>   0.0800 
 26 H      -11.3020     7.2600     1.8830 H     1 <1>   0.0800 
 27 H      -10.3680     2.4170     0.1380 H     1 <1>   0.0800 
 28 H      -10.6040     3.5460     1.4390 H     1 <1>   0.0800 
 29 H      -11.3870     3.1680    -2.2670 H     1 <1>   0.0800 
 30 H      -13.0750     3.5180    -1.9630 H     1 <1>   0.0800 
 31 H      -12.3370     2.1160    -1.2440 H     1 <1>   0.0800 
 32 H       -9.3510     4.2230    -1.1120 H     1 <1>   0.4500 
 33 H       -8.0130     2.6060     0.1930 H     1 <1>   0.0800 
 34 H       -7.9500     3.7900     1.4750 H     1 <1>   0.0800 
 35 H       -6.7150     5.3400    -0.0370 H     1 <1>   0.0800 
 36 H       -6.7750     4.1030    -1.3090 H     1 <1>   0.0800 
 37 H       -4.8320     5.4260    -1.5420 H     1 <1>   0.1500 
 38 H       -1.2490     3.0760     0.8700 H     1 <1>   0.1500 
 39 H       -2.5040     5.8960    -2.0570 H     1 <1>   0.1500 
 40 H       -0.7070     4.7290    -0.8600 H     1 <1>   0.1500 
@<TRIPOS>BOND
  1   1   2  1   
  2   1   3  1   
  3   2   4  1   
  4   2   5  1   
  5   2  20  1   
  6   3   6  1   
  7   3   7  1   
  8   3  21  1   
  9   4   8  1   
 10   4  22  1   
 11   4  23  1   
 12   5  24  1   
 13   5  25  1   
 14   5  26  1   
 15   6   8  1   
 16   6  27  1   
 17   6  28  1   
 18   7  29  1   
 19   7  30  1   
 20   7  31  1   
 21   8   9  1   
 22   8  32  1   
 23   9  10  1   
 24   9  33  1   
 25   9  34  1   
 26  10  11  1   
 27  10  35  1   
 28  10  36  1   
 29  11  12  1   
 30  12  13  ar  
 31  12  14  ar  
 32  13  15  1   
 33  13  16  ar  
 34  14  17  ar  
 35  14  37  1   
 36  15  18  3   
 37  16  19  ar  
 38  16  38  1   
 39  17  19  ar  
 40  17  39  1   
 41  19  40  1   
@<TRIPOS>SUBSTRUCTURE
  1 ****  10 GROUP 4 **** **** 0

# MOE 2024.06 (io_trps.svl 2023.06)
