@<TRIPOS>MOLECULE
NONAME
47 48 1 0 0 
SMALL
USER_CHARGES


@<TRIPOS>ATOM
  1 S        1.5710     0.8360    -0.1960 S.o2  1 <1>   1.4470 
  2 O        2.2940     2.0780    -0.3750 O.2   1 <1>  -0.6500 
  3 O        2.0270    -0.3450    -0.8950 O.2   1 <1>  -0.6500 
  4 N        1.6140     0.4950     1.4630 N.am  1 <1>  -0.8490 
  5 C       -0.1920     1.1190    -0.5190 C.ar  1 <1>  -0.0090 
  6 C        2.9870     0.5900     2.0300 C.3   1 <1>   0.2570 
  7 C        0.9820    -0.7840     1.8130 C.3   1 <1>   0.1160 
  8 C       -0.8760     2.1490     0.1160 C.ar  1 <1>  -0.1500 
  9 C       -0.9060     0.3110    -1.3960 C.ar  1 <1>  -0.1500 
 10 C        3.9840    -0.5380     1.6820 C.2   1 <1>   0.5690 
 11 C       -2.2230     2.3660    -0.1150 C.ar  1 <1>  -0.1500 
 12 C       -2.2540     0.5230    -1.6320 C.ar  1 <1>  -0.1500 
 13 O        3.8950    -1.5570     2.3320 O.2   1 <1>  -0.5700 
 14 N        4.9550    -0.3990     0.7180 N.am  1 <1>  -0.6600 
 15 C       -2.9200     1.5540    -0.9920 C.ar  1 <1>  -0.1430 
 16 C        5.1640     0.8160    -0.1350 C.3   1 <1>   0.1400 
 17 C        5.9460    -1.4870     0.4560 C.3   1 <1>   0.1400 
 18 C       -4.3980     1.7890    -1.2480 C.3   1 <1>  -0.0970 
 19 C        6.5320     0.8170    -0.8510 C.3   1 <1>   0.2000 
 20 C        7.4000    -0.9520     0.4800 C.3   1 <1>   0.2000 
 21 O        7.5260     0.3690     0.0190 O.3   1 <1>  -0.5600 
 22 C        6.9370     2.2120    -1.3200 C.3   1 <1>  -0.2400 
 23 C        8.3470    -1.8190    -0.3500 C.3   1 <1>  -0.2400 
 24 H        2.8950     0.5910     3.1020 H     1 <1>   0.0800 
 25 H        3.4130     1.5410     1.7740 H     1 <1>   0.0800 
 26 H       -0.0560    -0.7750     1.5260 H     1 <1>   0.0800 
 27 H        1.0380    -0.9480     2.8760 H     1 <1>   0.0800 
 28 H        1.4710    -1.6040     1.3110 H     1 <1>   0.0800 
 29 H       -0.3440     2.7880     0.8000 H     1 <1>   0.1500 
 30 H       -0.4020    -0.4950    -1.9030 H     1 <1>   0.1500 
 31 H       -2.7260     3.1720     0.3920 H     1 <1>   0.1500 
 32 H       -2.7800    -0.1190    -2.3160 H     1 <1>   0.1500 
 33 H        5.0930     1.7010     0.4710 H     1 <1>   0.0800 
 34 H        4.3990     0.8590    -0.8880 H     1 <1>   0.0800 
 35 H        5.8540    -2.2780     1.1790 H     1 <1>   0.0800 
 36 H        5.7330    -1.9130    -0.5080 H     1 <1>   0.0800 
 37 H       -4.6350     2.8330    -1.1460 H     1 <1>   0.0800 
 38 H       -4.9830     1.2290    -0.5410 H     1 <1>   0.0800 
 39 H       -4.6620     1.4780    -2.2430 H     1 <1>   0.0800 
 40 H        6.5020     0.1530    -1.6990 H     1 <1>   0.0800 
 41 H        7.7410    -0.9470     1.5010 H     1 <1>   0.0800 
 42 H        7.0200     2.8780    -0.4800 H     1 <1>   0.0800 
 43 H        6.2010     2.6000    -2.0000 H     1 <1>   0.0800 
 44 H        7.8830     2.1640    -1.8290 H     1 <1>   0.0800 
 45 H        8.0480    -1.8240    -1.3820 H     1 <1>   0.0800 
 46 H        8.3370    -2.8290     0.0180 H     1 <1>   0.0800 
 47 H        9.3490    -1.4370    -0.2720 H     1 <1>   0.0800 
@<TRIPOS>BOND
  1   1   2  2   
  2   1   3  2   
  3   1   4  am  
  4   1   5  1   
  5   4   6  1   
  6   4   7  1   
  7   5   8  ar  
  8   5   9  ar  
  9   6  10  1   
 10   6  24  1   
 11   6  25  1   
 12   7  26  1   
 13   7  27  1   
 14   7  28  1   
 15   8  11  ar  
 16   8  29  1   
 17   9  12  ar  
 18   9  30  1   
 19  10  13  2   
 20  10  14  am  
 21  11  15  ar  
 22  11  31  1   
 23  12  15  ar  
 24  12  32  1   
 25  14  16  1   
 26  14  17  1   
 27  15  18  1   
 28  16  19  1   
 29  16  33  1   
 30  16  34  1   
 31  17  20  1   
 32  17  35  1   
 33  17  36  1   
 34  18  37  1   
 35  18  38  1   
 36  18  39  1   
 37  19  21  1   
 38  19  22  1   
 39  19  40  1   
 40  20  21  1   
 41  20  23  1   
 42  20  41  1   
 43  22  42  1   
 44  22  43  1   
 45  22  44  1   
 46  23  45  1   
 47  23  46  1   
 48  23  47  1   
@<TRIPOS>SUBSTRUCTURE
  1 ****   1 GROUP 4 **** **** 0

# MOE 2024.06 (io_trps.svl 2023.06)
