@<TRIPOS>MOLECULE
NONAME
45 46 1 0 0 
SMALL
USER_CHARGES


@<TRIPOS>ATOM
  1 O       -1.6150     0.1360     0.9380 O.3   1 <1>  -0.3630 
  2 C       -2.1320     0.9480    -0.0280 C.ar  1 <1>   0.0830 
  3 C       -0.2700     0.1900     1.3530 C.3   1 <1>   0.1200 
  4 C       -1.5540     2.1190    -0.5510 C.ar  1 <1>   0.0830 
  5 C       -3.3620     0.5270    -0.5030 C.ar  1 <1>  -0.1500 
  6 C       -0.0030    -1.0190     2.2450 C.3   1 <1>  -0.2400 
  7 O       -0.3520     2.5630    -0.0800 O.3   1 <1>  -0.3620 
  8 C       -2.2370     2.8160    -1.5450 C.ar  1 <1>  -0.1500 
  9 C       -4.0430     1.2360    -1.4790 C.ar  1 <1>  -0.1440 
 10 C        0.2970     3.7030    -0.6000 C.3   1 <1>   0.0400 
 11 C       -3.4680     2.3810    -2.0040 C.ar  1 <1>  -0.1500 
 12 C       -5.4050     0.7620    -1.9480 C.3   1 <1>   0.4860 
 13 N       -6.3580     0.8860    -0.8120 N.4   1 <1>  -0.9590 
 14 C       -7.6040     0.1220    -1.0850 C.3   1 <1>   0.3430 
 15 C       -6.5780     2.3150    -0.4440 C.3   1 <1>   0.3430 
 16 C       -8.4810    -0.0160     0.1610 C.3   1 <1>  -0.1600 
 17 C       -6.8580     2.4210     1.0540 C.3   1 <1>  -0.1600 
 18 C       -9.1700     1.2950     0.5670 C.3   1 <1>  -0.1600 
 19 C       -8.3230     2.2030     1.4700 C.3   1 <1>  -0.1600 
 20 H       -0.1190     1.1040     1.9000 H     1 <1>   0.0800 
 21 H        0.3600     0.1680     0.4810 H     1 <1>   0.0800 
 22 H       -3.7680    -0.3780    -0.0870 H     1 <1>   0.1500 
 23 H       -0.6470    -0.9940     3.1050 H     1 <1>   0.0800 
 24 H        1.0180    -1.0030     2.5790 H     1 <1>   0.0800 
 25 H       -0.1700    -1.9280     1.6950 H     1 <1>   0.0800 
 26 H       -1.8290     3.7100    -1.9780 H     1 <1>   0.1500 
 27 H        1.2290     3.8220    -0.0770 H     1 <1>   0.0800 
 28 H       -0.3230     4.5660    -0.4360 H     1 <1>   0.0800 
 29 H        0.4850     3.5530    -1.6480 H     1 <1>   0.0800 
 30 H       -3.9650     2.9480    -2.7740 H     1 <1>   0.1500 
 31 H       -5.3290    -0.2670    -2.2600 H     1 <1>   0.0800 
 32 H       -5.7390     1.3520    -2.7850 H     1 <1>   0.0800 
 33 H       -5.8900     0.4560    -0.0050 H     1 <1>   0.4500 
 34 H       -7.3440    -0.8680    -1.4250 H     1 <1>   0.0800 
 35 H       -8.1670     0.6030    -1.8690 H     1 <1>   0.0800 
 36 H       -7.3860     2.7440    -1.0150 H     1 <1>   0.0800 
 37 H       -5.6830     2.8800    -0.6500 H     1 <1>   0.0800 
 38 H       -7.9230    -0.4320     0.9820 H     1 <1>   0.0800 
 39 H       -9.2550    -0.7240    -0.0800 H     1 <1>   0.0800 
 40 H       -6.5770     3.4100     1.3730 H     1 <1>   0.0800 
 41 H       -6.2190     1.7410     1.5890 H     1 <1>   0.0800 
 42 H      -10.0710     1.0540     1.1070 H     1 <1>   0.0800 
 43 H       -9.4770     1.8350    -0.3130 H     1 <1>   0.0800 
 44 H       -8.8150     3.1610     1.5200 H     1 <1>   0.0800 
 45 H       -8.3320     1.8050     2.4720 H     1 <1>   0.0800 
@<TRIPOS>BOND
  1   1   2  1   
  2   1   3  1   
  3   2   4  ar  
  4   2   5  ar  
  5   3   6  1   
  6   3  20  1   
  7   3  21  1   
  8   4   7  1   
  9   4   8  ar  
 10   5   9  ar  
 11   5  22  1   
 12   6  23  1   
 13   6  24  1   
 14   6  25  1   
 15   7  10  1   
 16   8  11  ar  
 17   8  26  1   
 18   9  11  ar  
 19   9  12  1   
 20  10  27  1   
 21  10  28  1   
 22  10  29  1   
 23  11  30  1   
 24  12  13  1   
 25  12  31  1   
 26  12  32  1   
 27  13  14  1   
 28  13  15  1   
 29  13  33  1   
 30  14  16  1   
 31  14  34  1   
 32  14  35  1   
 33  15  17  1   
 34  15  36  1   
 35  15  37  1   
 36  16  18  1   
 37  16  38  1   
 38  16  39  1   
 39  17  19  1   
 40  17  40  1   
 41  17  41  1   
 42  18  19  1   
 43  18  42  1   
 44  18  43  1   
 45  19  44  1   
 46  19  45  1   
@<TRIPOS>SUBSTRUCTURE
  1 ****   5 GROUP 4 **** **** 0

# MOE 2024.06 (io_trps.svl 2023.06)
