@<TRIPOS>MOLECULE
NONAME
39 39 1 0 0 
SMALL
USER_CHARGES


@<TRIPOS>ATOM
  1 CL       0.2220    -1.6150    -3.2550 Cl    1 <1>  -0.1770 
  2 C       -0.7200    -2.2100    -1.9030 C.ar  1 <1>   0.1770 
  3 C       -0.0630    -2.7590    -0.8030 C.ar  1 <1>   0.1170 
  4 C       -2.0930    -2.1120    -1.9670 C.ar  1 <1>  -0.1500 
  5 N        1.3380    -2.8360    -0.7730 N.am  1 <1>  -0.5470 
  6 C       -0.8560    -3.1950     0.2500 C.ar  1 <1>  -0.1500 
  7 C       -2.9010    -2.5570    -0.9170 C.ar  1 <1>   0.0860 
  8 C        2.2050    -3.7760    -0.3100 C.2   1 <1>   0.5690 
  9 C       -2.2390    -3.1170     0.1900 C.ar  1 <1>   0.0830 
 10 C       -4.3400    -2.4130    -1.0120 C.2   1 <1>   0.5440 
 11 O        3.3880    -3.5780    -0.3800 O.2   1 <1>  -0.5700 
 12 C        1.7250    -5.0880     0.2650 C.3   1 <1>  -0.1790 
 13 O       -2.9190    -3.5970     1.2520 O.3   1 <1>  -0.3620 
 14 O       -4.8800    -2.4480    -2.1010 O.2   1 <1>  -0.5700 
 15 N       -5.0980    -2.2240     0.1120 N.am  1 <1>  -0.7300 
 16 C       -3.4630    -4.8940     1.1250 C.3   1 <1>   0.0400 
 17 C       -6.5480    -2.0670     0.2630 C.3   1 <1>   0.3000 
 18 C       -6.8080    -1.8920     1.7580 C.3   1 <1>  -0.2400 
 19 C       -7.0180    -0.8220    -0.4880 C.3   1 <1>  -0.2400 
 20 C       -7.2580    -3.3260    -0.2350 C.3   1 <1>  -0.2400 
 21 H       -2.5520    -1.6820    -2.8400 H     1 <1>   0.1500 
 22 H        1.8300    -2.1000    -1.2860 H     1 <1>   0.3700 
 23 H       -0.4040    -3.5930     1.1380 H     1 <1>   0.1500 
 24 H        0.8530    -5.4320    -0.2580 H     1 <1>   0.0800 
 25 H        1.5050    -4.9670     1.3080 H     1 <1>   0.0800 
 26 H        2.4990    -5.8250     0.1610 H     1 <1>   0.0800 
 27 H       -4.6030    -2.2970     1.0030 H     1 <1>   0.3700 
 28 H       -3.9620    -5.1430     2.0440 H     1 <1>   0.0800 
 29 H       -2.6650    -5.5910     0.9390 H     1 <1>   0.0800 
 30 H       -4.1680    -4.9070     0.3110 H     1 <1>   0.0800 
 31 H       -6.4710    -2.7540     2.3050 H     1 <1>   0.0800 
 32 H       -7.8610    -1.7720     1.9380 H     1 <1>   0.0800 
 33 H       -6.3030    -1.0180     2.1290 H     1 <1>   0.0800 
 34 H       -6.4740     0.0440    -0.1580 H     1 <1>   0.0800 
 35 H       -8.0650    -0.6560    -0.3120 H     1 <1>   0.0800 
 36 H       -6.8760    -0.9420    -1.5460 H     1 <1>   0.0800 
 37 H       -6.8890    -4.1960     0.2760 H     1 <1>   0.0800 
 38 H       -7.1080    -3.4510    -1.2920 H     1 <1>   0.0800 
 39 H       -8.3150    -3.2480    -0.0590 H     1 <1>   0.0800 
@<TRIPOS>BOND
  1   1   2  1   
  2   2   3  ar  
  3   2   4  ar  
  4   3   5  1   
  5   3   6  ar  
  6   4   7  ar  
  7   4  21  1   
  8   5   8  am  
  9   5  22  1   
 10   6   9  ar  
 11   6  23  1   
 12   7   9  ar  
 13   7  10  1   
 14   8  11  2   
 15   8  12  1   
 16   9  13  1   
 17  10  14  2   
 18  10  15  am  
 19  12  24  1   
 20  12  25  1   
 21  12  26  1   
 22  13  16  1   
 23  15  17  1   
 24  15  27  1   
 25  16  28  1   
 26  16  29  1   
 27  16  30  1   
 28  17  18  1   
 29  17  19  1   
 30  17  20  1   
 31  18  31  1   
 32  18  32  1   
 33  18  33  1   
 34  19  34  1   
 35  19  35  1   
 36  19  36  1   
 37  20  37  1   
 38  20  38  1   
 39  20  39  1   
@<TRIPOS>SUBSTRUCTURE
  1 ****   9 GROUP 4 **** **** 0

# MOE 2024.06 (io_trps.svl 2023.06)
