@<TRIPOS>MOLECULE
NONAME
49 51 1 0 0 
SMALL
USER_CHARGES


@<TRIPOS>ATOM
  1 N        0.2310    -0.6700     1.2110 N.3   1 <1>  -0.8100 
  2 C        1.1590    -0.6040     2.3620 C.3   1 <1>   0.1100 
  3 C        0.0170    -2.0790     0.7890 C.3   1 <1>   0.1100 
  4 C       -1.0410     0.0270     1.4910 C.3   1 <1>   0.2540 
  5 C        2.5190    -1.2830     2.0540 C.3   1 <1>   0.3430 
  6 C        1.3460    -2.8320     0.5400 C.3   1 <1>   0.3430 
  7 C       -1.9280     0.0410     0.2550 C.ar  1 <1>  -0.1440 
  8 N        2.5210    -1.9140     0.6890 N.4   1 <1>  -0.9590 
  9 C       -3.1480    -0.6190     0.2530 C.ar  1 <1>  -0.1500 
 10 C       -1.5190     0.7140    -0.8870 C.ar  1 <1>  -0.1500 
 11 C        3.8050    -2.5440     0.2850 C.3   1 <1>   0.3430 
 12 C       -3.9470    -0.6090    -0.8770 C.ar  1 <1>  -0.1500 
 13 C       -2.3180     0.7240    -2.0180 C.ar  1 <1>  -0.1500 
 14 C        4.8990    -1.4860     0.1440 C.3   1 <1>  -0.1600 
 15 C       -3.5320     0.0620    -2.0130 C.ar  1 <1>  -0.1500 
 16 C        6.1900    -2.0950    -0.4140 C.3   1 <1>  -0.0170 
 17 C        7.2590    -1.0220    -0.5120 C.ar  1 <1>  -0.1440 
 18 C        8.1340    -0.8070     0.5420 C.ar  1 <1>  -0.1500 
 19 C        7.3650    -0.2430    -1.6540 C.ar  1 <1>  -0.1500 
 20 C        9.1030     0.1780     0.4560 C.ar  1 <1>  -0.1500 
 21 C        8.3340     0.7420    -1.7410 C.ar  1 <1>  -0.1500 
 22 C        9.2030     0.9530    -0.6850 C.ar  1 <1>  -0.1500 
 23 H        0.7130    -1.0800     3.2190 H     1 <1>   0.0800 
 24 H        1.3380     0.4260     2.6200 H     1 <1>   0.0800 
 25 H       -0.5540    -2.0970    -0.1250 H     1 <1>   0.0800 
 26 H       -0.5560    -2.6050     1.5340 H     1 <1>   0.0800 
 27 H       -0.8370     1.0460     1.7750 H     1 <1>   0.0800 
 28 H       -1.5530    -0.4520     2.3080 H     1 <1>   0.0800 
 29 H        2.7220    -2.0260     2.8070 H     1 <1>   0.0800 
 30 H        3.2930    -0.5370     2.1140 H     1 <1>   0.0800 
 31 H        1.3250    -3.2500    -0.4530 H     1 <1>   0.0800 
 32 H        1.4250    -3.6480     1.2390 H     1 <1>   0.0800 
 33 H        2.2930    -1.1290     0.0560 H     1 <1>   0.4500 
 34 H       -3.4870    -1.1430     1.1300 H     1 <1>   0.1500 
 35 H       -0.5760     1.2300    -0.8960 H     1 <1>   0.1500 
 36 H        3.6760    -3.0380    -0.6650 H     1 <1>   0.0800 
 37 H        4.1000    -3.2830     1.0120 H     1 <1>   0.0800 
 38 H       -4.8940    -1.1220    -0.8730 H     1 <1>   0.1500 
 39 H       -1.9960     1.2500    -2.9010 H     1 <1>   0.1500 
 40 H        5.1200    -1.0480     1.1010 H     1 <1>   0.0800 
 41 H        4.5710    -0.7090    -0.5240 H     1 <1>   0.0800 
 42 H       -4.1540     0.0710    -2.8920 H     1 <1>   0.1500 
 43 H        6.0160    -2.5140    -1.3910 H     1 <1>   0.0800 
 44 H        6.5390    -2.8880     0.2260 H     1 <1>   0.0800 
 45 H        8.0720    -1.4030     1.4350 H     1 <1>   0.1500 
 46 H        6.6990    -0.3960    -2.4850 H     1 <1>   0.1500 
 47 H        9.7810     0.3400     1.2750 H     1 <1>   0.1500 
 48 H        8.4140     1.3440    -2.6300 H     1 <1>   0.1500 
 49 H        9.9560     1.7190    -0.7530 H     1 <1>   0.1500 
@<TRIPOS>BOND
  1   1   2  1   
  2   1   3  1   
  3   1   4  1   
  4   2   5  1   
  5   2  23  1   
  6   2  24  1   
  7   3   6  1   
  8   3  25  1   
  9   3  26  1   
 10   4   7  1   
 11   4  27  1   
 12   4  28  1   
 13   5   8  1   
 14   5  29  1   
 15   5  30  1   
 16   6   8  1   
 17   6  31  1   
 18   6  32  1   
 19   7   9  ar  
 20   7  10  ar  
 21   8  11  1   
 22   8  33  1   
 23   9  12  ar  
 24   9  34  1   
 25  10  13  ar  
 26  10  35  1   
 27  11  14  1   
 28  11  36  1   
 29  11  37  1   
 30  12  15  ar  
 31  12  38  1   
 32  13  15  ar  
 33  13  39  1   
 34  14  16  1   
 35  14  40  1   
 36  14  41  1   
 37  15  42  1   
 38  16  17  1   
 39  16  43  1   
 40  16  44  1   
 41  17  18  ar  
 42  17  19  ar  
 43  18  20  ar  
 44  18  45  1   
 45  19  21  ar  
 46  19  46  1   
 47  20  22  ar  
 48  20  47  1   
 49  21  22  ar  
 50  21  48  1   
 51  22  49  1   
@<TRIPOS>SUBSTRUCTURE
  1 ****   8 GROUP 4 **** **** 0

# MOE 2024.06 (io_trps.svl 2023.06)
