@<TRIPOS>MOLECULE
NONAME
32 33 1 0 0 
SMALL
USER_CHARGES


@<TRIPOS>ATOM
  1 S        1.2010    -1.4370    -1.8770 S.3   1 <1>  -0.4600 
  2 C        1.5700     0.1810    -1.1330 C.3   1 <1>   0.0700 
  3 C        0.7350    -2.4370    -0.4270 C.3   1 <1>   0.0700 
  4 C        2.6930     0.0380    -0.0880 C.3   1 <1>   0.3430 
  5 C        1.4800    -1.9530     0.8330 C.3   1 <1>   0.3430 
  6 N        2.8080    -1.3540     0.4830 N.4   1 <1>  -0.9590 
  7 C        3.7930    -1.4300     1.5980 C.3   1 <1>   0.4860 
  8 C        5.1460    -0.9600     1.0950 C.ar  1 <1>  -0.1440 
  9 C        5.8930    -1.7520     0.2330 C.ar  1 <1>  -0.1500 
 10 C        5.6450     0.2710     1.4920 C.ar  1 <1>  -0.1500 
 11 C        7.1270    -1.3250    -0.2490 C.ar  1 <1>  -0.1440 
 12 C        6.8700     0.7060     1.0240 C.ar  1 <1>  -0.1500 
 13 C        7.6050    -0.0840     0.1590 C.ar  1 <1>  -0.1500 
 14 C        7.9400    -2.2180    -1.2040 C.3   1 <1>   1.1630 
 15 F        7.1620    -2.8300    -2.0890 F     1 <1>  -0.3400 
 16 F        8.5880    -3.1730    -0.5540 F     1 <1>  -0.3400 
 17 F        8.8480    -1.5500    -1.9050 F     1 <1>  -0.3400 
 18 H        0.6610     0.5370    -0.6820 H     1 <1>   0.0800 
 19 H        1.8560     0.8500    -1.9270 H     1 <1>   0.0800 
 20 H        0.9870    -3.4570    -0.6610 H     1 <1>   0.0800 
 21 H       -0.3310    -2.3580    -0.3030 H     1 <1>   0.0800 
 22 H        2.5240     0.7500     0.7030 H     1 <1>   0.0800 
 23 H        3.6280     0.2970    -0.5600 H     1 <1>   0.0800 
 24 H        1.6090    -2.7920     1.4980 H     1 <1>   0.0800 
 25 H        0.8780    -1.2180     1.3420 H     1 <1>   0.0800 
 26 H        3.1800    -1.9200    -0.2950 H     1 <1>   0.4500 
 27 H        3.8780    -2.4460     1.9490 H     1 <1>   0.0800 
 28 H        3.4730    -0.8110     2.4200 H     1 <1>   0.0800 
 29 H        5.5200    -2.7180    -0.0700 H     1 <1>   0.1500 
 30 H        5.0960     0.9030     2.1710 H     1 <1>   0.1500 
 31 H        7.2600     1.6620     1.3340 H     1 <1>   0.1500 
 32 H        8.5600     0.2780    -0.1890 H     1 <1>   0.1500 
@<TRIPOS>BOND
  1   1   2  1   
  2   1   3  1   
  3   2   4  1   
  4   2  18  1   
  5   2  19  1   
  6   3   5  1   
  7   3  20  1   
  8   3  21  1   
  9   4   6  1   
 10   4  22  1   
 11   4  23  1   
 12   5   6  1   
 13   5  24  1   
 14   5  25  1   
 15   6   7  1   
 16   6  26  1   
 17   7   8  1   
 18   7  27  1   
 19   7  28  1   
 20   8   9  ar  
 21   8  10  ar  
 22   9  11  ar  
 23   9  29  1   
 24  10  12  ar  
 25  10  30  1   
 26  11  13  ar  
 27  11  14  1   
 28  12  13  ar  
 29  12  31  1   
 30  13  32  1   
 31  14  15  1   
 32  14  16  1   
 33  14  17  1   
@<TRIPOS>SUBSTRUCTURE
  1 ****   9 GROUP 4 **** **** 0

# MOE 2024.06 (io_trps.svl 2023.06)
