@<TRIPOS>MOLECULE
NONAME
45 46 1 0 0 
SMALL
USER_CHARGES


@<TRIPOS>ATOM
  1 S       -0.3080     0.1490     2.1040 S.o2  1 <1>   1.4470 
  2 O       -1.0710     1.1020     2.8810 O.2   1 <1>  -0.6500 
  3 O        0.4130    -0.8710     2.8370 O.2   1 <1>  -0.6500 
  4 N       -1.3690    -0.6190     1.0090 N.am  1 <1>  -0.8490 
  5 C        0.8210     1.1440     1.0870 C.ar  1 <1>  -0.0090 
  6 C       -0.8430    -1.7850     0.2310 C.3   1 <1>   0.3560 
  7 C       -2.6860    -0.8180     1.6720 C.3   1 <1>   0.3390 
  8 C        0.3370     1.9500     0.0630 C.ar  1 <1>  -0.1500 
  9 C        2.1930     1.1380     1.3120 C.ar  1 <1>  -0.1500 
 10 C       -1.6220    -1.9180    -1.0870 C.3   1 <1>  -0.2400 
 11 C       -0.9500    -3.1090     1.0030 C.3   1 <1>  -0.2400 
 12 C        0.6230    -1.6080    -0.2080 C.3   1 <1>  -0.2400 
 13 C       -3.8680    -0.9470     0.7210 C.ar  1 <1>  -0.1440 
 14 C        1.1900     2.7110    -0.7180 C.ar  1 <1>  -0.1500 
 15 C        3.0520     1.8970     0.5350 C.ar  1 <1>  -0.1500 
 16 C       -4.1290     0.0530    -0.2040 C.ar  1 <1>  -0.1500 
 17 C       -4.7080    -2.0510     0.7810 C.ar  1 <1>  -0.1500 
 18 C        2.5540     2.6860    -0.4870 C.ar  1 <1>  -0.1440 
 19 C       -5.2080    -0.0520    -1.0650 C.ar  1 <1>  -0.1500 
 20 C       -5.7860    -2.1570    -0.0800 C.ar  1 <1>  -0.1500 
 21 C        3.4930     3.5200    -1.3400 C.3   1 <1>  -0.0970 
 22 C       -6.0360    -1.1580    -1.0040 C.ar  1 <1>  -0.1500 
 23 H       -2.9430     0.0320     2.2750 H     1 <1>   0.0800 
 24 H       -2.6420    -1.6540     2.3460 H     1 <1>   0.0800 
 25 H       -0.7230     1.9780    -0.1250 H     1 <1>   0.1500 
 26 H        2.5940     0.5300     2.1060 H     1 <1>   0.1500 
 27 H       -1.1200    -2.5840    -1.7640 H     1 <1>   0.0800 
 28 H       -1.7110    -0.9600    -1.5660 H     1 <1>   0.0800 
 29 H       -2.5980    -2.3330    -0.9390 H     1 <1>   0.0800 
 30 H       -1.9740    -3.3930     1.1570 H     1 <1>   0.0800 
 31 H       -0.4490    -3.0520     1.9500 H     1 <1>   0.0800 
 32 H       -0.4900    -3.8990     0.4380 H     1 <1>   0.0800 
 33 H        0.7430    -0.7160    -0.7940 H     1 <1>   0.0800 
 34 H        0.9240    -2.4330    -0.8280 H     1 <1>   0.0800 
 35 H        1.3030    -1.6050     0.6220 H     1 <1>   0.0800 
 36 H        0.7850     3.3240    -1.5040 H     1 <1>   0.1500 
 37 H        4.1090     1.8710     0.7330 H     1 <1>   0.1500 
 38 H       -3.4860     0.9140    -0.2540 H     1 <1>   0.1500 
 39 H       -4.5270    -2.8340     1.4970 H     1 <1>   0.1500 
 40 H       -5.4010     0.7270    -1.7820 H     1 <1>   0.1500 
 41 H       -6.4330    -3.0160    -0.0310 H     1 <1>   0.1500 
 42 H        3.1000     3.6290    -2.3350 H     1 <1>   0.0800 
 43 H        4.4580     3.0510    -1.4070 H     1 <1>   0.0800 
 44 H        3.6100     4.4950    -0.9040 H     1 <1>   0.0800 
 45 H       -6.8750    -1.2400    -1.6730 H     1 <1>   0.1500 
@<TRIPOS>BOND
  1   1   2  2   
  2   1   3  2   
  3   1   4  am  
  4   1   5  1   
  5   4   6  1   
  6   4   7  1   
  7   5   8  ar  
  8   5   9  ar  
  9   6  10  1   
 10   6  11  1   
 11   6  12  1   
 12   7  13  1   
 13   7  23  1   
 14   7  24  1   
 15   8  14  ar  
 16   8  25  1   
 17   9  15  ar  
 18   9  26  1   
 19  10  27  1   
 20  10  28  1   
 21  10  29  1   
 22  11  30  1   
 23  11  31  1   
 24  11  32  1   
 25  12  33  1   
 26  12  34  1   
 27  12  35  1   
 28  13  16  ar  
 29  13  17  ar  
 30  14  18  ar  
 31  14  36  1   
 32  15  18  ar  
 33  15  37  1   
 34  16  19  ar  
 35  16  38  1   
 36  17  20  ar  
 37  17  39  1   
 38  18  21  1   
 39  19  22  ar  
 40  19  40  1   
 41  20  22  ar  
 42  20  41  1   
 43  21  42  1   
 44  21  43  1   
 45  21  44  1   
 46  22  45  1   
@<TRIPOS>SUBSTRUCTURE
  1 ****   4 GROUP 4 **** **** 0

# MOE 2024.06 (io_trps.svl 2023.06)
