@<TRIPOS>MOLECULE
NONAME
41 42 1 0 0 
SMALL
USER_CHARGES


@<TRIPOS>ATOM
  1 CL       0.1670     0.3480     1.4490 Cl    1 <1>  -0.1770 
  2 C        1.6630     1.1050     0.9460 C.ar  1 <1>   0.1770 
  3 C        1.6550     2.3690     0.3680 C.ar  1 <1>  -0.1440 
  4 C        2.8370     0.4010     1.1460 C.ar  1 <1>  -0.1500 
  5 C        2.8780     2.9130    -0.0090 C.ar  1 <1>  -0.1500 
  6 C        0.3190     3.0910     0.1760 C.3   1 <1>  -0.0160 
  7 C        4.0450     0.9560     0.7660 C.ar  1 <1>  -0.1500 
  8 C        4.0660     2.2220     0.1840 C.ar  1 <1>   0.0830 
  9 C        0.4030     4.4800    -0.4690 C.3   1 <1>  -0.2400 
 10 O        5.2010     2.8450    -0.2210 O.3   1 <1>  -0.3620 
 11 C        6.4640     2.2440    -0.0750 C.3   1 <1>   0.1200 
 12 C        7.4960     3.2260    -0.6350 C.3   1 <1>   0.3430 
 13 N        8.8880     2.6900    -0.5310 N.4   1 <1>  -0.9060 
 14 C        9.9110     3.6180    -1.0520 C.3   1 <1>   0.4230 
 15 C       11.2410     2.8760    -1.0810 C.3   1 <1>  -0.1600 
 16 C       10.1650     4.7210    -0.0290 C.3   1 <1>  -0.1600 
 17 C       11.7750     2.9140     0.3570 C.3   1 <1>  -0.1600 
 18 C       11.0840     4.1060     1.0340 C.3   1 <1>  -0.1600 
 19 H        2.7950    -0.5750     1.5980 H     1 <1>   0.1500 
 20 H        2.9360     3.8850    -0.4610 H     1 <1>   0.1500 
 21 H       -0.1550     3.1940     1.1380 H     1 <1>   0.0800 
 22 H       -0.3190     2.4740    -0.4320 H     1 <1>   0.0800 
 23 H        4.9400     0.3900     0.9320 H     1 <1>   0.1500 
 24 H        0.9980     5.1410     0.1360 H     1 <1>   0.0800 
 25 H       -0.5830     4.8990    -0.5580 H     1 <1>   0.0800 
 26 H        0.8320     4.4120    -1.4530 H     1 <1>   0.0800 
 27 H        6.4600     1.3240    -0.6330 H     1 <1>   0.0800 
 28 H        6.6270     2.0640     0.9730 H     1 <1>   0.0800 
 29 H        7.4190     4.1500    -0.0860 H     1 <1>   0.0800 
 30 H        7.2600     3.4210    -1.6680 H     1 <1>   0.0800 
 31 H        8.9690     1.8050    -1.0430 H     1 <1>   0.4500 
 32 H        9.1380     2.5030     0.4470 H     1 <1>   0.4500 
 33 H        9.6380     4.0010    -2.0230 H     1 <1>   0.0800 
 34 H       11.9200     3.4280    -1.7090 H     1 <1>   0.0800 
 35 H       11.1670     1.8760    -1.4710 H     1 <1>   0.0800 
 36 H        9.2710     5.1440     0.3930 H     1 <1>   0.0800 
 37 H       10.7020     5.5150    -0.5220 H     1 <1>   0.0800 
 38 H       12.8470     3.0330     0.3630 H     1 <1>   0.0800 
 39 H       11.5340     2.0030     0.8780 H     1 <1>   0.0800 
 40 H       10.5140     3.7690     1.8830 H     1 <1>   0.0800 
 41 H       11.8070     4.8290     1.3770 H     1 <1>   0.0800 
@<TRIPOS>BOND
  1   1   2  1   
  2   2   3  ar  
  3   2   4  ar  
  4   3   5  ar  
  5   3   6  1   
  6   4   7  ar  
  7   4  19  1   
  8   5   8  ar  
  9   5  20  1   
 10   6   9  1   
 11   6  21  1   
 12   6  22  1   
 13   7   8  ar  
 14   7  23  1   
 15   8  10  1   
 16   9  24  1   
 17   9  25  1   
 18   9  26  1   
 19  10  11  1   
 20  11  12  1   
 21  11  27  1   
 22  11  28  1   
 23  12  13  1   
 24  12  29  1   
 25  12  30  1   
 26  13  14  1   
 27  13  31  1   
 28  13  32  1   
 29  14  15  1   
 30  14  16  1   
 31  14  33  1   
 32  15  17  1   
 33  15  34  1   
 34  15  35  1   
 35  16  18  1   
 36  16  36  1   
 37  16  37  1   
 38  17  18  1   
 39  17  38  1   
 40  17  39  1   
 41  18  40  1   
 42  18  41  1   
@<TRIPOS>SUBSTRUCTURE
  1 ****  10 GROUP 4 **** **** 0

# MOE 2024.06 (io_trps.svl 2023.06)
