@<TRIPOS>MOLECULE
NONAME
43 45 1 0 0 
SMALL
USER_CHARGES


@<TRIPOS>ATOM
  1 F       -2.1540     0.6640     0.5420 F     1 <1>  -0.1900 
  2 C       -3.3230     1.2340     0.4760 C.ar  1 <1>   0.1900 
  3 C       -4.3890     0.5210    -0.0340 C.ar  1 <1>  -0.1500 
  4 C       -3.4620     2.5340     0.9170 C.ar  1 <1>  -0.1500 
  5 C       -5.6290     1.1310    -0.1020 C.ar  1 <1>  -0.1500 
  6 C       -4.7090     3.1280     0.8420 C.ar  1 <1>  -0.1500 
  7 C       -5.8260     2.4500     0.3360 C.ar  1 <1>   0.0860 
  8 C       -7.1130     3.1190     0.2830 C.2   1 <1>   0.4230 
  9 O       -7.2520     4.2830     0.5600 O.2   1 <1>  -0.5700 
 10 C       -8.3690     2.3490    -0.1340 C.3   1 <1>  -0.0990 
 11 C       -9.6670     3.1700     0.0300 C.3   1 <1>  -0.1600 
 12 C      -10.9090     2.3900    -0.4020 C.3   1 <1>   0.3430 
 13 N      -12.1340     3.1740    -0.0940 N.4   1 <1>  -0.9590 
 14 C      -13.3570     2.3270    -0.1780 C.3   1 <1>   0.4860 
 15 C      -12.3060     4.3850    -0.9540 C.3   1 <1>   0.3430 
 16 C      -14.5830     3.1340     0.2160 C.ar  1 <1>  -0.1430 
 17 C      -13.3860     5.2970    -0.3670 C.3   1 <1>  -0.0170 
 18 C      -14.6040     4.5220     0.1170 C.ar  1 <1>  -0.1430 
 19 C      -15.7080     2.4650     0.6760 C.ar  1 <1>  -0.1500 
 20 C      -15.7450     5.2200     0.4760 C.ar  1 <1>  -0.1500 
 21 C      -16.8440     3.1680     1.0330 C.ar  1 <1>  -0.1500 
 22 C      -16.8630     4.5460     0.9330 C.ar  1 <1>  -0.1500 
 23 H       -4.2410    -0.4910    -0.3700 H     1 <1>   0.1500 
 24 H       -2.6110     3.0650     1.3080 H     1 <1>   0.1500 
 25 H       -6.4440     0.5600    -0.5060 H     1 <1>   0.1500 
 26 H       -4.8230     4.1440     1.1840 H     1 <1>   0.1500 
 27 H       -8.4360     1.4600     0.4670 H     1 <1>   0.0800 
 28 H       -8.2570     2.0610    -1.1640 H     1 <1>   0.0800 
 29 H       -9.5730     4.0640    -0.5610 H     1 <1>   0.0800 
 30 H       -9.7600     3.4530     1.0650 H     1 <1>   0.0800 
 31 H      -10.9350     1.4550     0.1370 H     1 <1>   0.0800 
 32 H      -10.8600     2.1720    -1.4570 H     1 <1>   0.0800 
 33 H      -12.0890     3.5000     0.8820 H     1 <1>   0.4500 
 34 H      -13.2650     1.4810     0.4840 H     1 <1>   0.0800 
 35 H      -13.4850     1.9610    -1.1830 H     1 <1>   0.0800 
 36 H      -12.5970     4.0830    -1.9480 H     1 <1>   0.0800 
 37 H      -11.3840     4.9380    -1.0250 H     1 <1>   0.0800 
 38 H      -13.6840     6.0110    -1.1150 H     1 <1>   0.0800 
 39 H      -12.9720     5.8480     0.4580 H     1 <1>   0.0800 
 40 H      -15.7190     1.3910     0.7610 H     1 <1>   0.1500 
 41 H      -15.7750     6.2950     0.4060 H     1 <1>   0.1500 
 42 H      -17.7160     2.6450     1.3900 H     1 <1>   0.1500 
 43 H      -17.7470     5.0940     1.2110 H     1 <1>   0.1500 
@<TRIPOS>BOND
  1   1   2  1   
  2   2   3  ar  
  3   2   4  ar  
  4   3   5  ar  
  5   3  23  1   
  6   4   6  ar  
  7   4  24  1   
  8   5   7  ar  
  9   5  25  1   
 10   6   7  ar  
 11   6  26  1   
 12   7   8  1   
 13   8   9  2   
 14   8  10  1   
 15  10  11  1   
 16  10  27  1   
 17  10  28  1   
 18  11  12  1   
 19  11  29  1   
 20  11  30  1   
 21  12  13  1   
 22  12  31  1   
 23  12  32  1   
 24  13  14  1   
 25  13  15  1   
 26  13  33  1   
 27  14  16  1   
 28  14  34  1   
 29  14  35  1   
 30  15  17  1   
 31  15  36  1   
 32  15  37  1   
 33  16  18  ar  
 34  16  19  ar  
 35  17  18  1   
 36  17  38  1   
 37  17  39  1   
 38  18  20  ar  
 39  19  21  ar  
 40  19  40  1   
 41  20  22  ar  
 42  20  41  1   
 43  21  22  ar  
 44  21  42  1   
 45  22  43  1   
@<TRIPOS>SUBSTRUCTURE
  1 ****  11 GROUP 4 **** **** 0

# MOE 2024.06 (io_trps.svl 2023.06)
