@<TRIPOS>MOLECULE
NONAME
27 28 1 0 0 
SMALL
USER_CHARGES


@<TRIPOS>ATOM
  1 S        0.6600     0.6350    -0.4540 S.3   1 <1>  -0.3310 
  2 C       -1.0700     1.1330    -0.3720 C.ar  1 <1>   0.1020 
  3 C        1.4420     1.1700     1.1500 C.3   1 <1>   0.1310 
  4 C       -1.8600     0.8350    -1.4680 C.ar  1 <1>  -0.1500 
  5 C       -1.6020     1.7850     0.7300 C.ar  1 <1>  -0.1500 
  6 C        2.9180     0.8070     1.2150 C.2   1 <1>   0.5690 
  7 C       -3.1970     1.1920    -1.4660 C.ar  1 <1>  -0.1500 
  8 C       -2.9410     2.1390     0.7270 C.ar  1 <1>  -0.1500 
  9 O        3.5290     1.1070     2.2130 O.2   1 <1>  -0.5700 
 10 N        3.5010     0.1660     0.1660 N.am  1 <1>  -0.5790 
 11 C       -3.7360     1.8430    -0.3690 C.ar  1 <1>  -0.1500 
 12 C        4.9070    -0.2500     0.0760 C.3   1 <1>   0.0490 
 13 C        5.5680    -0.1950    -1.2610 C.3   1 <1>  -0.2000 
 14 C        5.2160    -1.5180    -0.6480 C.3   1 <1>  -0.2000 
 15 H        0.9110     0.6800     1.9450 H     1 <1>   0.0800 
 16 H        1.3250     2.2350     1.2250 H     1 <1>   0.0800 
 17 H       -1.4310     0.3280    -2.3140 H     1 <1>   0.1500 
 18 H       -1.0040     2.0230     1.5870 H     1 <1>   0.1500 
 19 H       -3.8170     0.9630    -2.3150 H     1 <1>   0.1500 
 20 H       -3.3660     2.6460     1.5760 H     1 <1>   0.1500 
 21 H        2.9200    -0.0560    -0.6460 H     1 <1>   0.3700 
 22 H       -4.7760     2.1210    -0.3680 H     1 <1>   0.1500 
 23 H        5.4850     0.0020     0.9520 H     1 <1>   0.1000 
 24 H        6.6060     0.0830    -1.3100 H     1 <1>   0.1000 
 25 H        5.0040     0.1590    -2.1050 H     1 <1>   0.1000 
 26 H        4.4060    -2.0900    -1.0630 H     1 <1>   0.1000 
 27 H        6.0160    -2.1370    -0.2810 H     1 <1>   0.1000 
@<TRIPOS>BOND
  1   1   2  1   
  2   1   3  1   
  3   2   4  ar  
  4   2   5  ar  
  5   3   6  1   
  6   3  15  1   
  7   3  16  1   
  8   4   7  ar  
  9   4  17  1   
 10   5   8  ar  
 11   5  18  1   
 12   6   9  2   
 13   6  10  am  
 14   7  11  ar  
 15   7  19  1   
 16   8  11  ar  
 17   8  20  1   
 18  10  12  1   
 19  10  21  1   
 20  11  22  1   
 21  12  13  1   
 22  12  14  1   
 23  12  23  1   
 24  13  14  1   
 25  13  24  1   
 26  13  25  1   
 27  14  26  1   
 28  14  27  1   
@<TRIPOS>SUBSTRUCTURE
  1 ****   1 GROUP 4 **** **** 0

# MOE 2024.06 (io_trps.svl 2023.06)
