@<TRIPOS>MOLECULE
NONAME
41 42 1 0 0 
SMALL
USER_CHARGES


@<TRIPOS>ATOM
  1 F       -2.3190     5.0260    -0.0430 F     1 <1>  -0.3400 
  2 C       -3.4870     4.5010     0.2910 C.3   1 <1>   1.1640 
  3 F       -4.4120     5.1530    -0.4090 F     1 <1>  -0.3400 
  4 F       -3.7060     4.8220     1.5590 F     1 <1>  -0.3400 
  5 C       -3.6100     2.9830     0.0620 C.ar  1 <1>  -0.1440 
  6 C       -4.7870     2.2850     0.3640 C.ar  1 <1>  -0.1440 
  7 C       -2.5330     2.2750    -0.4680 C.ar  1 <1>  -0.1500 
  8 C       -4.8600     0.9190     0.1280 C.ar  1 <1>  -0.1500 
  9 C       -6.0230     2.9550     0.9450 C.3   1 <1>   0.4870 
 10 C       -2.6180     0.9150    -0.6970 C.ar  1 <1>  -0.1500 
 11 C       -3.7820     0.2360    -0.3990 C.ar  1 <1>  -0.1500 
 12 N       -6.7970     3.5030    -0.1850 N.4   1 <1>  -0.9060 
 13 C       -8.1250     4.0660     0.1650 C.3   1 <1>   0.4230 
 14 C       -9.1440     2.9170     0.4600 C.3   1 <1>   0.3430 
 15 C       -8.5120     4.9560    -1.0180 C.3   1 <1>  -0.2400 
 16 O       -8.8710     1.8290    -0.3690 O.3   1 <1>  -0.6800 
 17 C      -10.6120     3.3010     0.3080 C.ar  1 <1>  -0.1440 
 18 C      -11.3160     3.7390     1.4220 C.ar  1 <1>  -0.1500 
 19 C      -11.2710     3.2290    -0.9160 C.ar  1 <1>  -0.1500 
 20 C      -12.6470     4.1000     1.3170 C.ar  1 <1>  -0.1500 
 21 C      -12.6020     3.5900    -1.0200 C.ar  1 <1>  -0.1500 
 22 C      -13.2910     4.0260     0.0960 C.ar  1 <1>  -0.1500 
 23 H       -1.6070     2.7720    -0.7130 H     1 <1>   0.1500 
 24 H       -5.7560     0.3610     0.3530 H     1 <1>   0.1500 
 25 H       -5.7490     3.7370     1.6340 H     1 <1>   0.0800 
 26 H       -6.6100     2.2220     1.4740 H     1 <1>   0.0800 
 27 H       -1.7750     0.3830    -1.1070 H     1 <1>   0.1500 
 28 H       -3.8430    -0.8250    -0.5790 H     1 <1>   0.1500 
 29 H       -7.0010     2.7160    -0.8240 H     1 <1>   0.4500 
 30 H       -6.2360     4.1860    -0.7080 H     1 <1>   0.4500 
 31 H       -8.0470     4.6950     1.0370 H     1 <1>   0.0800 
 32 H       -8.9920     2.5750     1.4700 H     1 <1>   0.0800 
 33 H       -8.6430     4.3730    -1.9140 H     1 <1>   0.0800 
 34 H       -7.7680     5.7130    -1.1890 H     1 <1>   0.0800 
 35 H       -9.4390     5.4620    -0.8110 H     1 <1>   0.0800 
 36 H       -9.6610     1.2440    -0.3810 H     1 <1>   0.4000 
 37 H      -10.8440     3.8040     2.3880 H     1 <1>   0.1500 
 38 H      -10.7600     2.8940    -1.8030 H     1 <1>   0.1500 
 39 H      -13.1880     4.4380     2.1850 H     1 <1>   0.1500 
 40 H      -13.1060     3.5320    -1.9710 H     1 <1>   0.1500 
 41 H      -14.3280     4.3070     0.0140 H     1 <1>   0.1500 
@<TRIPOS>BOND
  1   1   2  1   
  2   2   3  1   
  3   2   4  1   
  4   2   5  1   
  5   5   6  ar  
  6   5   7  ar  
  7   6   8  ar  
  8   6   9  1   
  9   7  10  ar  
 10   7  23  1   
 11   8  11  ar  
 12   8  24  1   
 13   9  12  1   
 14   9  25  1   
 15   9  26  1   
 16  10  11  ar  
 17  10  27  1   
 18  11  28  1   
 19  12  13  1   
 20  12  29  1   
 21  12  30  1   
 22  13  14  1   
 23  13  15  1   
 24  13  31  1   
 25  14  16  1   
 26  14  17  1   
 27  14  32  1   
 28  15  33  1   
 29  15  34  1   
 30  15  35  1   
 31  16  36  1   
 32  17  18  ar  
 33  17  19  ar  
 34  18  20  ar  
 35  18  37  1   
 36  19  21  ar  
 37  19  38  1   
 38  20  22  ar  
 39  20  39  1   
 40  21  22  ar  
 41  21  40  1   
 42  22  41  1   
@<TRIPOS>SUBSTRUCTURE
  1 ****  12 GROUP 4 **** **** 0

# MOE 2024.06 (io_trps.svl 2023.06)
