@<TRIPOS>MOLECULE
NONAME
40 41 1 0 0 
SMALL
USER_CHARGES


@<TRIPOS>ATOM
  1 CL       0.1010    -0.0970     1.3000 Cl    1 <1>  -0.1770 
  2 C        1.5600    -0.8520     0.7140 C.ar  1 <1>   0.1770 
  3 C        2.1060    -1.9090     1.4170 C.ar  1 <1>  -0.1500 
  4 C        2.1480    -0.3840    -0.4440 C.ar  1 <1>  -0.1500 
  5 C        3.2650    -2.5060     0.9530 C.ar  1 <1>  -0.1500 
  6 C        3.3080    -0.9840    -0.9060 C.ar  1 <1>  -0.1500 
  7 C        3.8730    -2.0440    -0.2080 C.ar  1 <1>  -0.1430 
  8 C        5.1520    -2.6890    -0.7050 C.3   1 <1>  -0.0160 
  9 C        6.3390    -1.9960    -0.0370 C.3   1 <1>   0.3430 
 10 N        7.6350    -2.5840    -0.4990 N.4   1 <1>  -0.9060 
 11 C        8.8350    -2.0040     0.1550 C.3   1 <1>   0.4230 
 12 C        9.0700    -0.5640    -0.3160 C.3   1 <1>  -0.1600 
 13 C       10.0490    -2.8740    -0.1780 C.3   1 <1>  -0.1600 
 14 C       10.3620     0.0070     0.2740 C.3   1 <1>   0.3430 
 15 C       11.3310    -2.2850     0.4160 C.3   1 <1>   0.3430 
 16 N       11.5140    -0.8820    -0.0560 N.4   1 <1>  -0.9590 
 17 C       12.7830    -0.3110     0.5100 C.3   1 <1>   0.2630 
 18 H        1.6230    -2.2550     2.3140 H     1 <1>   0.1500 
 19 H        1.6980     0.4370    -0.9740 H     1 <1>   0.1500 
 20 H        3.6770    -3.3330     1.5050 H     1 <1>   0.1500 
 21 H        3.7540    -0.6150    -1.8140 H     1 <1>   0.1500 
 22 H        5.2080    -2.5880    -1.7750 H     1 <1>   0.0800 
 23 H        5.1380    -3.7370    -0.4590 H     1 <1>   0.0800 
 24 H        6.2440    -2.1010     1.0330 H     1 <1>   0.0800 
 25 H        6.3010    -0.9440    -0.2730 H     1 <1>   0.0800 
 26 H        7.7010    -2.4860    -1.5210 H     1 <1>   0.4500 
 27 H        7.6030    -3.5960    -0.3140 H     1 <1>   0.4500 
 28 H        8.6930    -2.0060     1.2260 H     1 <1>   0.0800 
 29 H        8.2590     0.0670     0.0020 H     1 <1>   0.0800 
 30 H        9.1300    -0.5180    -1.3900 H     1 <1>   0.0800 
 31 H       10.1730    -2.9680    -1.2430 H     1 <1>   0.0800 
 32 H        9.9140    -3.8590     0.2330 H     1 <1>   0.0800 
 33 H       10.2660     0.0940     1.3460 H     1 <1>   0.0800 
 34 H       10.5350     0.9960    -0.1240 H     1 <1>   0.0800 
 35 H       12.1770    -2.8860     0.1170 H     1 <1>   0.0800 
 36 H       11.2770    -2.3020     1.4940 H     1 <1>   0.0800 
 37 H       11.6370    -0.8940    -1.0820 H     1 <1>   0.4500 
 38 H       12.7320    -0.2650     1.5860 H     1 <1>   0.0800 
 39 H       12.9480     0.6860     0.1330 H     1 <1>   0.0800 
 40 H       13.6280    -0.9210     0.2330 H     1 <1>   0.0800 
@<TRIPOS>BOND
  1   1   2  1   
  2   2   3  ar  
  3   2   4  ar  
  4   3   5  ar  
  5   3  18  1   
  6   4   6  ar  
  7   4  19  1   
  8   5   7  ar  
  9   5  20  1   
 10   6   7  ar  
 11   6  21  1   
 12   7   8  1   
 13   8   9  1   
 14   8  22  1   
 15   8  23  1   
 16   9  10  1   
 17   9  24  1   
 18   9  25  1   
 19  10  11  1   
 20  10  26  1   
 21  10  27  1   
 22  11  12  1   
 23  11  13  1   
 24  11  28  1   
 25  12  14  1   
 26  12  29  1   
 27  12  30  1   
 28  13  15  1   
 29  13  31  1   
 30  13  32  1   
 31  14  16  1   
 32  14  33  1   
 33  14  34  1   
 34  15  16  1   
 35  15  35  1   
 36  15  36  1   
 37  16  17  1   
 38  16  37  1   
 39  17  38  1   
 40  17  39  1   
 41  17  40  1   
@<TRIPOS>SUBSTRUCTURE
  1 ****   9 GROUP 4 **** **** 0

# MOE 2024.06 (io_trps.svl 2023.06)
