@<TRIPOS>MOLECULE
NONAME
56 58 1 0 0 
SMALL
USER_CHARGES


@<TRIPOS>ATOM
  1 S        1.3010    -0.6110    -2.0710 S.o2  1 <1>   1.4470 
  2 O        2.6050    -1.0980    -2.4580 O.2   1 <1>  -0.6500 
  3 O        0.7060     0.5110    -2.7590 O.2   1 <1>  -0.6500 
  4 N        1.4780    -0.1180    -0.4550 N.am  1 <1>  -0.8490 
  5 C        0.1110    -1.9710    -1.9140 C.ar  1 <1>  -0.0090 
  6 C        2.2180    -1.0950     0.3720 C.3   1 <1>   0.1960 
  7 C        2.0930     1.2210    -0.3450 C.3   1 <1>   0.1960 
  8 C       -0.8820    -1.9200    -0.9500 C.ar  1 <1>  -0.1500 
  9 C        0.1650    -3.0990    -2.7190 C.ar  1 <1>  -0.1500 
 10 C        2.2040    -0.7050     1.8730 C.3   1 <1>   0.3430 
 11 C        2.2780     1.6660     1.1310 C.3   1 <1>   0.3430 
 12 C       -1.7730    -2.9620    -0.7120 C.ar  1 <1>   0.0860 
 13 C       -0.7200    -4.1460    -2.5290 C.ar  1 <1>  -0.1500 
 14 N        1.6620     0.6850     2.0950 N.4   1 <1>  -0.9590 
 15 C       -1.6760    -4.0960    -1.5280 C.ar  1 <1>  -0.1430 
 16 C       -2.7090    -2.7990     0.3860 C.2   1 <1>   0.5440 
 17 C        1.7430     1.1190     3.5200 C.3   1 <1>   0.2630 
 18 C       -2.5820    -5.3070    -1.3340 C.3   1 <1>  -0.0970 
 19 O       -2.3050    -2.3930     1.4610 O.2   1 <1>  -0.5700 
 20 N       -4.0400    -3.0500     0.2210 N.am  1 <1>  -0.7300 
 21 C       -5.0770    -2.9370     1.2580 C.3   1 <1>   0.2200 
 22 C       -5.7690    -4.2960     1.4130 C.3   1 <1>  -0.1600 
 23 C       -6.0730    -1.8490     0.8450 C.3   1 <1>  -0.1600 
 24 C       -6.9380    -4.2130     2.4060 C.3   1 <1>  -0.1600 
 25 C       -7.2420    -1.7610     1.8380 C.3   1 <1>  -0.1600 
 26 C       -7.9360    -3.1210     1.9990 C.3   1 <1>  -0.1600 
 27 H        3.2390    -1.1630     0.0330 H     1 <1>   0.0800 
 28 H        1.7830    -2.0750     0.2700 H     1 <1>   0.0800 
 29 H        1.4670     1.9430    -0.8430 H     1 <1>   0.0800 
 30 H        3.0480     1.2300    -0.8450 H     1 <1>   0.0800 
 31 H       -0.9710    -1.0400    -0.3360 H     1 <1>   0.1500 
 32 H        0.9120    -3.1650    -3.4950 H     1 <1>   0.1500 
 33 H        3.2070    -0.7790     2.2610 H     1 <1>   0.0800 
 34 H        1.5960    -1.4160     2.4080 H     1 <1>   0.0800 
 35 H        1.8320     2.6380     1.2580 H     1 <1>   0.0800 
 36 H        3.3320     1.7630     1.3340 H     1 <1>   0.0800 
 37 H       -0.6480    -5.0100    -3.1680 H     1 <1>   0.1500 
 38 H        0.6700     0.6210     1.8090 H     1 <1>   0.4500 
 39 H        2.7710     1.1820     3.8370 H     1 <1>   0.0800 
 40 H        1.2290     0.4140     4.1540 H     1 <1>   0.0800 
 41 H        1.2820     2.0860     3.6430 H     1 <1>   0.0800 
 42 H       -3.5490    -5.1180    -1.7630 H     1 <1>   0.0800 
 43 H       -2.7000    -5.5270    -0.2870 H     1 <1>   0.0800 
 44 H       -2.1650    -6.1780    -1.8070 H     1 <1>   0.0800 
 45 H       -4.3840    -3.3030    -0.7040 H     1 <1>   0.3700 
 46 H       -4.6270    -2.6640     2.1990 H     1 <1>   0.0800 
 47 H       -5.0550    -5.0190     1.7650 H     1 <1>   0.0800 
 48 H       -6.1460    -4.6210     0.4590 H     1 <1>   0.0800 
 49 H       -6.4620    -2.0670    -0.1330 H     1 <1>   0.0800 
 50 H       -5.5670    -0.9010     0.8100 H     1 <1>   0.0800 
 51 H       -6.5540    -3.9950     3.3890 H     1 <1>   0.0800 
 52 H       -7.4410    -5.1630     2.4530 H     1 <1>   0.0800 
 53 H       -7.9540    -1.0300     1.4950 H     1 <1>   0.0800 
 54 H       -6.8710    -1.4360     2.7950 H     1 <1>   0.0800 
 55 H       -8.7090    -3.0440     2.7450 H     1 <1>   0.0800 
 56 H       -8.4040    -3.3940     1.0690 H     1 <1>   0.0800 
@<TRIPOS>BOND
  1   1   2  2   
  2   1   3  2   
  3   1   4  am  
  4   1   5  1   
  5   4   6  1   
  6   4   7  1   
  7   5   8  ar  
  8   5   9  ar  
  9   6  10  1   
 10   6  27  1   
 11   6  28  1   
 12   7  11  1   
 13   7  29  1   
 14   7  30  1   
 15   8  12  ar  
 16   8  31  1   
 17   9  13  ar  
 18   9  32  1   
 19  10  14  1   
 20  10  33  1   
 21  10  34  1   
 22  11  14  1   
 23  11  35  1   
 24  11  36  1   
 25  12  15  ar  
 26  12  16  1   
 27  13  15  ar  
 28  13  37  1   
 29  14  17  1   
 30  14  38  1   
 31  15  18  1   
 32  16  19  2   
 33  16  20  am  
 34  17  39  1   
 35  17  40  1   
 36  17  41  1   
 37  18  42  1   
 38  18  43  1   
 39  18  44  1   
 40  20  21  1   
 41  20  45  1   
 42  21  22  1   
 43  21  23  1   
 44  21  46  1   
 45  22  24  1   
 46  22  47  1   
 47  22  48  1   
 48  23  25  1   
 49  23  49  1   
 50  23  50  1   
 51  24  26  1   
 52  24  51  1   
 53  24  52  1   
 54  25  26  1   
 55  25  53  1   
 56  25  54  1   
 57  26  55  1   
 58  26  56  1   
@<TRIPOS>SUBSTRUCTURE
  1 ****   8 GROUP 4 **** **** 0

# MOE 2024.06 (io_trps.svl 2023.06)
