@<TRIPOS>MOLECULE
NONAME
46 46 1 0 0 
SMALL
USER_CHARGES


@<TRIPOS>ATOM
  1 O        0.3720     4.2280    -0.8590 O.2   1 <1>  -0.5700 
  2 C        0.4300     3.0360    -0.6470 C.2   1 <1>   0.5690 
  3 N        0.1600     2.5360     0.6130 N.am  1 <1>  -0.6600 
  4 C        0.8230     2.0950    -1.8210 C.3   1 <1>   0.3370 
  5 C        0.1160     3.4690     1.7730 C.3   1 <1>   0.1400 
  6 C       -0.2830     1.1390     0.8980 C.3   1 <1>   0.1400 
  7 N        2.1200     1.3800    -1.6010 N.pl3 1 <1>  -0.6810 
  8 C        0.8660     2.7760    -3.1990 C.3   1 <1>  -0.2400 
  9 C        1.5420     3.8000     2.2140 C.3   1 <1>  -0.2400 
 10 C        0.6750     0.4230     1.8480 C.3   1 <1>  -0.2400 
 11 C        2.0360    -0.0160    -1.5990 C.1   1 <1>   0.6830 
 12 C        3.1410     2.0140    -0.9380 C.ar  1 <1>   0.8190 
 13 N        1.8950    -1.1450    -1.6020 N.1   1 <1>  -0.5570 
 14 N        3.5000     3.1830    -1.3940 N.ar  1 <1>  -0.6200 
 15 N        3.6660     1.4060     0.0900 N.ar  1 <1>  -0.6200 
 16 C        4.4220     3.7620    -0.6840 C.ar  1 <1>   0.7030 
 17 C        4.5770     2.0920     0.7260 C.ar  1 <1>   0.7200 
 18 O        4.7970     4.9730    -1.1270 O.3   1 <1>  -0.3620 
 19 N        4.9960     3.2840     0.3870 N.ar  1 <1>  -0.6200 
 20 N        5.1320     1.5150     1.8470 N.pl3 1 <1>  -0.8380 
 21 C        5.7580     5.7590    -0.4510 C.3   1 <1>   0.0400 
 22 C        5.9350     2.2930     2.8340 C.3   1 <1>   0.1290 
 23 C        4.9760     0.0650     2.1590 C.3   1 <1>   0.1290 
 24 H        0.0370     1.3650    -1.8900 H     1 <1>   0.0800 
 25 H       -0.4290     3.0250     2.5880 H     1 <1>   0.0800 
 26 H       -0.3940     4.3750     1.4900 H     1 <1>   0.0800 
 27 H       -0.3620     0.5680    -0.0090 H     1 <1>   0.0800 
 28 H       -1.2650     1.1700     1.3400 H     1 <1>   0.0800 
 29 H        1.5940     3.5670    -3.2090 H     1 <1>   0.0800 
 30 H       -0.0940     3.2090    -3.4170 H     1 <1>   0.0800 
 31 H        1.1040     2.0610    -3.9650 H     1 <1>   0.0800 
 32 H        2.0790     2.9070     2.4750 H     1 <1>   0.0800 
 33 H        1.5150     4.4490     3.0690 H     1 <1>   0.0800 
 34 H        2.0640     4.3060     1.4210 H     1 <1>   0.0800 
 35 H        1.6670     0.4050     1.4420 H     1 <1>   0.0800 
 36 H        0.3510    -0.5930     1.9840 H     1 <1>   0.0800 
 37 H        0.6920     0.9000     2.8100 H     1 <1>   0.0800 
 38 H        5.8790     6.6800    -0.9920 H     1 <1>   0.0800 
 39 H        6.6890     5.2210    -0.4210 H     1 <1>   0.0800 
 40 H        5.4050     5.9590     0.5450 H     1 <1>   0.0800 
 41 H        6.9800     2.2100     2.5940 H     1 <1>   0.0800 
 42 H        5.7670     1.9140     3.8270 H     1 <1>   0.0800 
 43 H        5.6540     3.3320     2.8190 H     1 <1>   0.0800 
 44 H        4.8080    -0.5040     1.2600 H     1 <1>   0.0800 
 45 H        4.1380    -0.0740     2.8200 H     1 <1>   0.0800 
 46 H        5.8670    -0.3100     2.6320 H     1 <1>   0.0800 
@<TRIPOS>BOND
  1   1   2  2   
  2   2   3  am  
  3   2   4  1   
  4   3   5  1   
  5   3   6  1   
  6   4   7  1   
  7   4   8  1   
  8   4  24  1   
  9   5   9  1   
 10   5  25  1   
 11   5  26  1   
 12   6  10  1   
 13   6  27  1   
 14   6  28  1   
 15   7  11  1   
 16   7  12  1   
 17   8  29  1   
 18   8  30  1   
 19   8  31  1   
 20   9  32  1   
 21   9  33  1   
 22   9  34  1   
 23  10  35  1   
 24  10  36  1   
 25  10  37  1   
 26  11  13  3   
 27  12  14  ar  
 28  12  15  ar  
 29  14  16  ar  
 30  15  17  ar  
 31  16  18  1   
 32  16  19  ar  
 33  17  19  ar  
 34  17  20  1   
 35  18  21  1   
 36  20  22  1   
 37  20  23  1   
 38  21  38  1   
 39  21  39  1   
 40  21  40  1   
 41  22  41  1   
 42  22  42  1   
 43  22  43  1   
 44  23  44  1   
 45  23  45  1   
 46  23  46  1   
@<TRIPOS>SUBSTRUCTURE
  1 ****  12 GROUP 4 **** **** 0

# MOE 2024.06 (io_trps.svl 2023.06)
