@<TRIPOS>MOLECULE
NONAME
51 53 1 0 0 
SMALL
USER_CHARGES


@<TRIPOS>ATOM
  1 CL      -0.6430     0.0680     0.1480 Cl    1 <1>  -0.1770 
  2 C       -1.5190     1.5180    -0.2740 C.ar  1 <1>   0.1770 
  3 C       -2.8720     1.5890    -0.0090 C.ar  1 <1>  -0.1500 
  4 C       -0.8410     2.5680    -0.8660 C.ar  1 <1>  -0.1500 
  5 C       -3.5780     2.7390    -0.3420 C.ar  1 <1>   0.1000 
  6 C       -1.5400     3.7160    -1.1990 C.ar  1 <1>  -0.1500 
  7 N       -4.9400     2.8540    -0.0920 N.pl3 1 <1>  -0.8380 
  8 C       -2.8980     3.7960    -0.9370 C.ar  1 <1>  -0.1500 
  9 C       -5.3470     2.9600     1.3390 C.3   1 <1>   0.2090 
 10 C       -5.8420     1.9930    -0.9110 C.3   1 <1>   0.2090 
 11 C       -6.8100     3.4360     1.4560 C.3   1 <1>   0.3430 
 12 C       -7.3040     2.4730    -0.7970 C.3   1 <1>   0.3430 
 13 N       -7.7630     2.6030     0.6350 N.4   1 <1>  -0.9590 
 14 C       -9.1850     3.0550     0.7760 C.3   1 <1>   0.3430 
 15 C      -10.1670     1.8640     0.6900 C.3   1 <1>   0.2000 
 16 O       -9.5110     0.6910     1.0790 O.3   1 <1>  -0.6800 
 17 C      -10.7560     1.6610    -0.7140 C.3   1 <1>   0.1200 
 18 O      -11.4910     0.4540    -0.7470 O.3   1 <1>  -0.3630 
 19 C      -12.7790     0.5270    -0.3460 C.ar  1 <1>   0.0830 
 20 C      -13.7730     0.9880    -1.2080 C.ar  1 <1>  -0.1430 
 21 C      -13.0960     0.1300     0.9450 C.ar  1 <1>  -0.1500 
 22 C      -15.0730     1.0830    -0.7390 C.ar  1 <1>  -0.1500 
 23 C      -13.4770     1.3730    -2.6510 C.3   1 <1>  -0.0970 
 24 C      -14.3990     0.2260     1.3980 C.ar  1 <1>  -0.1500 
 25 C      -15.3860     0.7080     0.5570 C.ar  1 <1>  -0.1500 
 26 H       -3.3660     0.7560     0.4510 H     1 <1>   0.1500 
 27 H        0.2130     2.4850    -1.0610 H     1 <1>   0.1500 
 28 H       -1.0290     4.5440    -1.6600 H     1 <1>   0.1500 
 29 H       -3.4430     4.6850    -1.1940 H     1 <1>   0.1500 
 30 H       -4.7000     3.6610     1.8400 H     1 <1>   0.0800 
 31 H       -5.2340     2.0040     1.8210 H     1 <1>   0.0800 
 32 H       -5.7660     0.9710    -0.5830 H     1 <1>   0.0800 
 33 H       -5.5310     2.0350    -1.9420 H     1 <1>   0.0800 
 34 H       -6.8520     4.4600     1.1240 H     1 <1>   0.0800 
 35 H       -7.1030     3.4130     2.4930 H     1 <1>   0.0800 
 36 H       -7.9350     1.7770    -1.3220 H     1 <1>   0.0800 
 37 H       -7.3790     3.4290    -1.2870 H     1 <1>   0.0800 
 38 H       -7.7850     1.6420     1.0300 H     1 <1>   0.4500 
 39 H       -9.4280     3.8040     0.0410 H     1 <1>   0.0800 
 40 H       -9.3140     3.5050     1.7470 H     1 <1>   0.0800 
 41 H      -10.9800     2.0360     1.3760 H     1 <1>   0.0800 
 42 H      -10.0970    -0.0740     0.8660 H     1 <1>   0.4000 
 43 H       -9.9810     1.5830    -1.4520 H     1 <1>   0.0800 
 44 H      -11.4080     2.4760    -0.9790 H     1 <1>   0.0800 
 45 H      -12.3320    -0.2540     1.5940 H     1 <1>   0.1500 
 46 H      -15.8560     1.4440    -1.3830 H     1 <1>   0.1500 
 47 H      -12.7050     0.7450    -3.0580 H     1 <1>   0.0800 
 48 H      -13.1630     2.3990    -2.7040 H     1 <1>   0.0800 
 49 H      -14.3560     1.2520    -3.2590 H     1 <1>   0.0800 
 50 H      -14.6480    -0.0780     2.4010 H     1 <1>   0.1500 
 51 H      -16.4000     0.7850     0.9080 H     1 <1>   0.1500 
@<TRIPOS>BOND
  1   1   2  1   
  2   2   3  ar  
  3   2   4  ar  
  4   3   5  ar  
  5   3  26  1   
  6   4   6  ar  
  7   4  27  1   
  8   5   7  1   
  9   5   8  ar  
 10   6   8  ar  
 11   6  28  1   
 12   7   9  1   
 13   7  10  1   
 14   8  29  1   
 15   9  11  1   
 16   9  30  1   
 17   9  31  1   
 18  10  12  1   
 19  10  32  1   
 20  10  33  1   
 21  11  13  1   
 22  11  34  1   
 23  11  35  1   
 24  12  13  1   
 25  12  36  1   
 26  12  37  1   
 27  13  14  1   
 28  13  38  1   
 29  14  15  1   
 30  14  39  1   
 31  14  40  1   
 32  15  16  1   
 33  15  17  1   
 34  15  41  1   
 35  16  42  1   
 36  17  18  1   
 37  17  43  1   
 38  17  44  1   
 39  18  19  1   
 40  19  20  ar  
 41  19  21  ar  
 42  20  22  ar  
 43  20  23  1   
 44  21  24  ar  
 45  21  45  1   
 46  22  25  ar  
 47  22  46  1   
 48  23  47  1   
 49  23  48  1   
 50  23  49  1   
 51  24  25  ar  
 52  24  50  1   
 53  25  51  1   
@<TRIPOS>SUBSTRUCTURE
  1 ****  13 GROUP 4 **** **** 0

# MOE 2024.06 (io_trps.svl 2023.06)
