@<TRIPOS>MOLECULE
NONAME
35 35 1 0 0 
SMALL
USER_CHARGES


@<TRIPOS>ATOM
  1 CL       0.0730     0.2860    -0.4770 Cl    1 <1>  -0.1770 
  2 C        1.4890    -0.7110    -0.2570 C.ar  1 <1>   0.1770 
  3 C        1.3330    -2.0390     0.0980 C.ar  1 <1>  -0.1500 
  4 C        2.7430    -0.1540    -0.4420 C.ar  1 <1>  -0.1500 
  5 C        2.4590    -2.8270     0.2720 C.ar  1 <1>  -0.1500 
  6 C        3.8700    -0.9420    -0.2690 C.ar  1 <1>  -0.1500 
  7 C        3.7160    -2.2750     0.0880 C.ar  1 <1>   0.1020 
  8 S        5.1260    -3.3690     0.3340 S.3   1 <1>  -0.3320 
  9 C        6.6420    -2.3620     0.0220 C.3   1 <1>   0.0700 
 10 C        7.8500    -3.2710     0.2250 C.3   1 <1>   0.1200 
 11 O        9.0080    -2.5290    -0.0100 O.3   1 <1>  -0.5600 
 12 C       10.1860    -3.2470     0.1440 C.3   1 <1>   0.1200 
 13 C       11.3490    -2.2840    -0.1340 C.3   1 <1>   0.3430 
 14 N       12.6980    -2.9210     0.0510 N.4   1 <1>  -0.9590 
 15 C       13.7660    -1.8740     0.0040 C.3   1 <1>   0.2630 
 16 C       12.9700    -3.9800    -0.9740 C.3   1 <1>   0.2630 
 17 H        0.3470    -2.4450     0.2360 H     1 <1>   0.1500 
 18 H        2.8290     0.8820    -0.7180 H     1 <1>   0.1500 
 19 H        2.3660    -3.8630     0.5480 H     1 <1>   0.1500 
 20 H        4.8390    -0.5070    -0.4130 H     1 <1>   0.1500 
 21 H        6.6400    -1.5500     0.7270 H     1 <1>   0.0800 
 22 H        6.5870    -2.0040    -0.9910 H     1 <1>   0.0800 
 23 H        7.8130    -4.0940    -0.4690 H     1 <1>   0.0800 
 24 H        7.8670    -3.6400     1.2370 H     1 <1>   0.0800 
 25 H       10.1780    -4.0610    -0.5600 H     1 <1>   0.0800 
 26 H       10.2290    -3.6160     1.1540 H     1 <1>   0.0800 
 27 H       11.2540    -1.4500     0.5420 H     1 <1>   0.0800 
 28 H       11.2580    -1.9130    -1.1410 H     1 <1>   0.0800 
 29 H       12.7230    -3.3530     0.9880 H     1 <1>   0.4500 
 30 H       13.7740    -1.3890    -0.9590 H     1 <1>   0.0800 
 31 H       14.7340    -2.3170     0.1740 H     1 <1>   0.0800 
 32 H       13.5930    -1.1280     0.7630 H     1 <1>   0.0800 
 33 H       12.9330    -3.5600    -1.9660 H     1 <1>   0.0800 
 34 H       12.2390    -4.7690    -0.9060 H     1 <1>   0.0800 
 35 H       13.9470    -4.4090    -0.8180 H     1 <1>   0.0800 
@<TRIPOS>BOND
  1   1   2  1   
  2   2   3  ar  
  3   2   4  ar  
  4   3   5  ar  
  5   3  17  1   
  6   4   6  ar  
  7   4  18  1   
  8   5   7  ar  
  9   5  19  1   
 10   6   7  ar  
 11   6  20  1   
 12   7   8  1   
 13   8   9  1   
 14   9  10  1   
 15   9  21  1   
 16   9  22  1   
 17  10  11  1   
 18  10  23  1   
 19  10  24  1   
 20  11  12  1   
 21  12  13  1   
 22  12  25  1   
 23  12  26  1   
 24  13  14  1   
 25  13  27  1   
 26  13  28  1   
 27  14  15  1   
 28  14  16  1   
 29  14  29  1   
 30  15  30  1   
 31  15  31  1   
 32  15  32  1   
 33  16  33  1   
 34  16  34  1   
 35  16  35  1   
@<TRIPOS>SUBSTRUCTURE
  1 ****   9 GROUP 4 **** **** 0

# MOE 2024.06 (io_trps.svl 2023.06)
