@<TRIPOS>MOLECULE
NONAME
34 36 1 0 0 
SMALL
USER_CHARGES


@<TRIPOS>ATOM
  1 O       -0.1700    -0.2980    -0.2700 O.2   1 <1>  -0.5700 
  2 C       -0.0980    -1.4680     0.0570 C.2   1 <1>   0.7150 
  3 N        1.0960    -1.9870     0.4350 N.am  1 <1>  -0.7300 
  4 C       -1.2670    -2.3020     0.0390 C.2   1 <1>  -0.2370 
  5 C        2.4070    -1.2990     0.4180 C.3   1 <1>   0.1400 
  6 N       -2.4860    -1.7930    -0.3360 N.pl3 1 <1>   0.0330 
  7 C       -1.4460    -3.6220     0.3430 C.2   1 <1>  -0.1500 
  8 C        3.4620    -2.1930    -0.2520 C.3   1 <1>   0.2000 
  9 C       -3.4290    -2.7820    -0.2700 C.ar  1 <1>  -0.1520 
 10 C       -2.8020    -3.9470     0.1560 C.ar  1 <1>   0.0000 
 11 O        3.4480    -3.4670     0.3130 O.3   1 <1>  -0.5600 
 12 C        4.8950    -1.7150    -0.0720 C.3   1 <1>  -0.1600 
 13 C       -4.7990    -2.7630    -0.5480 C.ar  1 <1>  -0.1500 
 14 C       -3.5520    -5.1190     0.3080 C.ar  1 <1>  -0.1500 
 15 C        4.6720    -4.1010     0.1140 C.3   1 <1>   0.1200 
 16 C        5.6910    -3.0030    -0.1910 C.3   1 <1>  -0.1600 
 17 C       -5.5240    -3.9210    -0.3950 C.ar  1 <1>  -0.1500 
 18 C       -4.9000    -5.1000     0.0340 C.ar  1 <1>  -0.1500 
 19 H        1.1670    -2.9890     0.6250 H     1 <1>   0.3700 
 20 H        2.7030    -1.0880     1.4300 H     1 <1>   0.0800 
 21 H        2.3310    -0.3660    -0.1130 H     1 <1>   0.0800 
 22 H       -2.6370    -0.8180    -0.6170 H     1 <1>   0.2700 
 23 H       -0.7070    -4.3290     0.6740 H     1 <1>   0.1500 
 24 H        3.2390    -2.3020    -1.3000 H     1 <1>   0.0800 
 25 H        5.0200    -1.2940     0.9110 H     1 <1>   0.0800 
 26 H        5.1720    -0.9850    -0.8110 H     1 <1>   0.0800 
 27 H       -5.2680    -1.8520    -0.8760 H     1 <1>   0.1500 
 28 H       -3.0600    -6.0160     0.6370 H     1 <1>   0.1500 
 29 H        4.5700    -4.7840    -0.7130 H     1 <1>   0.0800 
 30 H        4.9210    -4.6430     1.0100 H     1 <1>   0.0800 
 31 H        6.5170    -3.0310     0.4980 H     1 <1>   0.0800 
 32 H        6.0650    -3.1310    -1.1920 H     1 <1>   0.0800 
 33 H       -6.5800    -3.9340    -0.6020 H     1 <1>   0.1500 
 34 H       -5.4900    -5.9930     0.1460 H     1 <1>   0.1500 
@<TRIPOS>BOND
  1   1   2  2   
  2   2   3  am  
  3   2   4  1   
  4   3   5  1   
  5   3  19  1   
  6   4   6  1   
  7   4   7  2   
  8   5   8  1   
  9   5  20  1   
 10   5  21  1   
 11   6   9  1   
 12   6  22  1   
 13   7  10  1   
 14   7  23  1   
 15   8  11  1   
 16   8  12  1   
 17   8  24  1   
 18   9  10  ar  
 19   9  13  ar  
 20  10  14  ar  
 21  11  15  1   
 22  12  16  1   
 23  12  25  1   
 24  12  26  1   
 25  13  17  ar  
 26  13  27  1   
 27  14  18  ar  
 28  14  28  1   
 29  15  16  1   
 30  15  29  1   
 31  15  30  1   
 32  16  31  1   
 33  16  32  1   
 34  17  18  ar  
 35  17  33  1   
 36  18  34  1   
@<TRIPOS>SUBSTRUCTURE
  1 ****   4 GROUP 4 **** **** 0

# MOE 2024.06 (io_trps.svl 2023.06)
