@<TRIPOS>MOLECULE
NONAME
38 40 1 0 0 
SMALL
USER_CHARGES


@<TRIPOS>ATOM
  1 S        0.3280    -0.1510     0.0410 S.o2  1 <1>   1.4470 
  2 O        0.4000    -0.7970    -1.2500 O.2   1 <1>  -0.6500 
  3 O        0.8900    -0.7890     1.2100 O.2   1 <1>  -0.6500 
  4 N        1.1460     1.3070    -0.0750 N.am  1 <1>  -0.9140 
  5 C       -1.3770     0.3720     0.3710 C.ar  1 <1>  -0.0090 
  6 C        2.3350     1.2530    -0.9010 C.3   1 <1>   0.2760 
  7 C       -2.0560    -0.0490     1.5110 C.ar  1 <1>  -0.1500 
  8 C       -2.0460     1.2100    -0.5160 C.ar  1 <1>  -0.1500 
  9 C        3.4960     0.4400    -0.2840 C.3   1 <1>  -0.0800 
 10 C        2.9440     2.6560    -1.0440 C.3   1 <1>  -0.1600 
 11 C       -3.3560     0.3550     1.7600 C.ar  1 <1>  -0.1500 
 12 C       -3.3470     1.6230    -0.2800 C.ar  1 <1>  -0.1500 
 13 C        4.6870     1.0560    -1.0040 C.3   1 <1>  -0.1600 
 14 C        3.7920     0.8830     1.1640 C.3   1 <1>  -0.1600 
 15 C        4.3880     2.4730    -0.5450 C.3   1 <1>  -0.0800 
 16 C       -3.9950     1.1900     0.8640 C.ar  1 <1>   0.1010 
 17 C        4.3560     2.3030     0.9830 C.3   1 <1>  -0.1600 
 18 S       -5.6840     1.6750     1.2550 S.3   1 <1>  -0.3320 
 19 C       -6.2590     2.7650    -0.1200 C.3   1 <1>  -0.0100 
 20 H        1.4800     1.4790     0.8690 H     1 <1>   0.4200 
 21 H        2.0940     0.8760    -1.8830 H     1 <1>   0.0800 
 22 H       -1.5610    -0.7010     2.2130 H     1 <1>   0.1500 
 23 H       -1.5350     1.5440    -1.4040 H     1 <1>   0.1500 
 24 H        3.4020    -0.6250    -0.4170 H     1 <1>   0.0800 
 25 H        2.4150     3.4050    -0.4810 H     1 <1>   0.0800 
 26 H        2.9520     2.9380    -2.0820 H     1 <1>   0.0800 
 27 H       -3.8750     0.0260     2.6440 H     1 <1>   0.1500 
 28 H       -3.8300     2.2700    -0.9850 H     1 <1>   0.1500 
 29 H        4.6360     0.9420    -2.0740 H     1 <1>   0.0800 
 30 H        5.6330     0.6890    -0.6400 H     1 <1>   0.0800 
 31 H        4.5460     0.2430     1.5890 H     1 <1>   0.0800 
 32 H        2.9330     0.8590     1.8100 H     1 <1>   0.0800 
 33 H        5.0740     3.2280    -0.8900 H     1 <1>   0.0800 
 34 H        5.3520     2.3600     1.3880 H     1 <1>   0.0800 
 35 H        3.7410     3.0480     1.4570 H     1 <1>   0.0800 
 36 H       -7.2690     3.0600     0.1000 H     1 <1>   0.0800 
 37 H       -6.2180     2.1980    -1.0330 H     1 <1>   0.0800 
 38 H       -5.6110     3.6220    -0.1580 H     1 <1>   0.0800 
@<TRIPOS>BOND
  1   1   2  2   
  2   1   3  2   
  3   1   4  am  
  4   1   5  1   
  5   4   6  1   
  6   4  20  1   
  7   5   7  ar  
  8   5   8  ar  
  9   6   9  1   
 10   6  10  1   
 11   6  21  1   
 12   7  11  ar  
 13   7  22  1   
 14   8  12  ar  
 15   8  23  1   
 16   9  13  1   
 17   9  14  1   
 18   9  24  1   
 19  10  15  1   
 20  10  25  1   
 21  10  26  1   
 22  11  16  ar  
 23  11  27  1   
 24  12  16  ar  
 25  12  28  1   
 26  13  15  1   
 27  13  29  1   
 28  13  30  1   
 29  14  17  1   
 30  14  31  1   
 31  14  32  1   
 32  15  17  1   
 33  15  33  1   
 34  16  18  1   
 35  17  34  1   
 36  17  35  1   
 37  18  19  1   
 38  19  36  1   
 39  19  37  1   
 40  19  38  1   
@<TRIPOS>SUBSTRUCTURE
  1 ****   4 GROUP 4 **** **** 0

# MOE 2024.06 (io_trps.svl 2023.06)
