@<TRIPOS>MOLECULE
NONAME
35 37 1 0 0 
SMALL
USER_CHARGES


@<TRIPOS>ATOM
  1 S       -0.1110     0.1670     1.4760 S.o2  1 <1>   1.4240 
  2 O       -0.2540    -1.1840     0.9660 O.2   1 <1>  -0.6500 
  3 O        0.4640     0.3250     2.7980 O.2   1 <1>  -0.6500 
  4 N        0.9380     0.9910     0.4110 N.am  1 <1>  -0.8490 
  5 N       -1.6900     1.0070     1.3440 N.pl3 1 <1>   0.5840 
  6 C        2.1620     0.2150     0.1610 C.3   1 <1>   0.1960 
  7 C        1.2260     2.3470     0.9020 C.3   1 <1>   0.1960 
  8 N       -2.0900     2.0580     2.1170 N.2   1 <1>  -0.4180 
  9 C       -2.6070     0.8420     0.3490 C.ar  1 <1>  -0.1520 
 10 C        2.7460     0.5730    -1.2090 C.3   1 <1>  -0.1600 
 11 C        1.9490     3.2250    -0.1250 C.3   1 <1>  -0.1600 
 12 N       -3.1890     2.5290     1.6710 N.2   1 <1>  -0.2270 
 13 C       -3.5450     1.8120     0.5810 C.ar  1 <1>   0.2270 
 14 C       -2.7290    -0.0360    -0.7360 C.ar  1 <1>  -0.1500 
 15 C        3.7500     1.7370    -1.2160 C.3   1 <1>  -0.1600 
 16 C        3.4430     2.8940    -0.2570 C.3   1 <1>  -0.1600 
 17 C       -4.6520     1.9390    -0.2600 C.ar  1 <1>  -0.1500 
 18 C       -3.8200     0.0920    -1.5650 C.ar  1 <1>  -0.1500 
 19 C       -4.7840     1.0800    -1.3280 C.ar  1 <1>  -0.1500 
 20 H        1.9280    -0.8350     0.1280 H     1 <1>   0.0800 
 21 H        2.8820     0.3580     0.9500 H     1 <1>   0.0800 
 22 H        1.8010     2.2970     1.8130 H     1 <1>   0.0800 
 23 H        0.2980     2.8400     1.1380 H     1 <1>   0.0800 
 24 H        1.9350     0.7840    -1.8860 H     1 <1>   0.0800 
 25 H        3.2520    -0.2940    -1.5960 H     1 <1>   0.0800 
 26 H        1.8740     4.2410     0.2220 H     1 <1>   0.0800 
 27 H        1.4510     3.1800    -1.0780 H     1 <1>   0.0800 
 28 H       -1.9870    -0.7980    -0.9170 H     1 <1>   0.1500 
 29 H        3.8010     2.1220    -2.2200 H     1 <1>   0.0800 
 30 H        4.7280     1.3570    -0.9760 H     1 <1>   0.0800 
 31 H        3.8450     2.6710     0.7170 H     1 <1>   0.0800 
 32 H        3.9620     3.7670    -0.6150 H     1 <1>   0.0800 
 33 H       -5.3760     2.7070    -0.0560 H     1 <1>   0.1500 
 34 H       -3.9430    -0.5690    -2.4070 H     1 <1>   0.1500 
 35 H       -5.6290     1.1600    -1.9910 H     1 <1>   0.1500 
@<TRIPOS>BOND
  1   1   2  2   
  2   1   3  2   
  3   1   4  am  
  4   1   5  1   
  5   4   6  1   
  6   4   7  1   
  7   5   8  1   
  8   5   9  1   
  9   6  10  1   
 10   6  20  1   
 11   6  21  1   
 12   7  11  1   
 13   7  22  1   
 14   7  23  1   
 15   8  12  2   
 16   9  13  ar  
 17   9  14  ar  
 18  10  15  1   
 19  10  24  1   
 20  10  25  1   
 21  11  16  1   
 22  11  26  1   
 23  11  27  1   
 24  12  13  1   
 25  13  17  ar  
 26  14  18  ar  
 27  14  28  1   
 28  15  16  1   
 29  15  29  1   
 30  15  30  1   
 31  16  31  1   
 32  16  32  1   
 33  17  19  ar  
 34  17  33  1   
 35  18  19  ar  
 36  18  34  1   
 37  19  35  1   
@<TRIPOS>SUBSTRUCTURE
  1 ****   5 GROUP 4 **** **** 0

# MOE 2024.06 (io_trps.svl 2023.06)
