@<TRIPOS>MOLECULE
NONAME
51 54 1 0 0 
SMALL
USER_CHARGES


@<TRIPOS>ATOM
  1 S        0.0730    -0.7590     0.0240 S.3   1 <1>  -0.2860 
  2 C       -1.7030    -0.9820     0.0010 C.2   1 <1>   0.2420 
  3 C        0.6990    -2.5010     0.2330 C.3   1 <1>   0.1310 
  4 N       -2.2950    -2.1180     0.0830 N.2   1 <1>  -0.3380 
  5 N       -2.5380     0.0360    -0.1030 N.pl3 1 <1>   0.0330 
  6 C        2.2180    -2.5610     0.2950 C.2   1 <1>   0.5690 
  7 N       -3.6020    -1.8460     0.0360 N.2   1 <1>  -0.3380 
  8 C       -3.7420    -0.5530    -0.0790 C.2   1 <1>   0.1330 
  9 O        2.7340    -3.5930     0.6480 O.2   1 <1>  -0.5700 
 10 N        2.9550    -1.4730    -0.0490 N.am  1 <1>  -0.7300 
 11 C       -4.9910     0.1680    -0.1550 C.ar  1 <1>   0.0530 
 12 C        4.4330    -1.3890    -0.0280 C.3   1 <1>   0.2200 
 13 C       -6.0820    -0.2280     0.6140 C.ar  1 <1>  -0.1500 
 14 C       -5.1490     1.2760    -0.9870 C.ar  1 <1>  -0.1500 
 15 C        4.9540    -0.2420     1.0200 C.3   1 <1>  -0.0800 
 16 C        4.9920    -0.9750    -1.5450 C.3   1 <1>  -0.1600 
 17 C       -7.2830     0.4560     0.5790 C.ar  1 <1>   0.0830 
 18 C       -6.3520     1.9720    -1.0350 C.ar  1 <1>   0.0830 
 19 C        5.4880     0.0360    -0.1760 C.3   1 <1>  -0.1600 
 20 C        5.9670     1.0320     1.1910 C.3   1 <1>  -0.1600 
 21 C        5.9940     0.3090    -1.3830 C.3   1 <1>  -0.0800 
 22 O       -8.2780    -0.0100     1.3760 O.3   1 <1>  -0.3620 
 23 C       -7.4150     1.5640    -0.2480 C.ar  1 <1>  -0.1500 
 24 O       -6.5660     3.0550    -1.8250 O.3   1 <1>  -0.3630 
 25 C        6.5300     1.4420    -0.3310 C.3   1 <1>  -0.1600 
 26 C       -9.5530     0.5930     1.3820 C.3   1 <1>   0.0400 
 27 C       -5.6220     3.4650    -2.7890 C.3   1 <1>   0.0400 
 28 H        0.3380    -3.0730    -0.6010 H     1 <1>   0.0800 
 29 H        0.2750    -2.8840     1.1430 H     1 <1>   0.0800 
 30 H       -2.3120     1.0280    -0.1580 H     1 <1>   0.2700 
 31 H        2.4720    -0.6170    -0.3240 H     1 <1>   0.3700 
 32 H        4.8430    -2.3470     0.2580 H     1 <1>   0.0800 
 33 H       -5.9930    -1.0880     1.2550 H     1 <1>   0.1500 
 34 H       -4.3250     1.5790    -1.6010 H     1 <1>   0.1500 
 35 H        4.0230     0.1990     1.3480 H     1 <1>   0.0800 
 36 H        4.1720    -0.7260    -2.1990 H     1 <1>   0.0800 
 37 H        5.5150    -1.8120    -1.9790 H     1 <1>   0.0800 
 38 H        4.5660     0.7310    -0.4110 H     1 <1>   0.0800 
 39 H        6.4030    -0.6710     0.0500 H     1 <1>   0.0800 
 40 H        6.7920     0.7650     1.8340 H     1 <1>   0.0800 
 41 H        5.4620     1.8700     1.6450 H     1 <1>   0.0800 
 42 H        6.9310    -0.1190    -1.7140 H     1 <1>   0.0800 
 43 H       -8.3280     2.1240    -0.3050 H     1 <1>   0.1500 
 44 H        7.6080     1.4940    -0.3320 H     1 <1>   0.0800 
 45 H        6.1600     2.4160    -0.6150 H     1 <1>   0.0800 
 46 H      -10.1750     0.0490     2.0700 H     1 <1>   0.0800 
 47 H       -9.9690     0.5400     0.3920 H     1 <1>   0.0800 
 48 H       -9.4550     1.6140     1.7060 H     1 <1>   0.0800 
 49 H       -6.0410     4.2930    -3.3320 H     1 <1>   0.0800 
 50 H       -5.4310     2.6480    -3.4610 H     1 <1>   0.0800 
 51 H       -4.7230     3.7770    -2.2880 H     1 <1>   0.0800 
@<TRIPOS>BOND
  1   1   2  1   
  2   1   3  1   
  3   2   4  2   
  4   2   5  1   
  5   3   6  1   
  6   3  28  1   
  7   3  29  1   
  8   4   7  1   
  9   5   8  1   
 10   5  30  1   
 11   6   9  2   
 12   6  10  am  
 13   7   8  2   
 14   8  11  1   
 15  10  12  1   
 16  10  31  1   
 17  11  13  ar  
 18  11  14  ar  
 19  12  15  1   
 20  12  16  1   
 21  12  32  1   
 22  13  17  ar  
 23  13  33  1   
 24  14  18  ar  
 25  14  34  1   
 26  15  19  1   
 27  15  20  1   
 28  15  35  1   
 29  16  21  1   
 30  16  36  1   
 31  16  37  1   
 32  17  22  1   
 33  17  23  ar  
 34  18  23  ar  
 35  18  24  1   
 36  19  21  1   
 37  19  38  1   
 38  19  39  1   
 39  20  25  1   
 40  20  40  1   
 41  20  41  1   
 42  21  25  1   
 43  21  42  1   
 44  22  26  1   
 45  23  43  1   
 46  24  27  1   
 47  25  44  1   
 48  25  45  1   
 49  26  46  1   
 50  26  47  1   
 51  26  48  1   
 52  27  49  1   
 53  27  50  1   
 54  27  51  1   
@<TRIPOS>SUBSTRUCTURE
  1 ****   2 GROUP 4 **** **** 0

# MOE 2024.06 (io_trps.svl 2023.06)
