@<TRIPOS>MOLECULE
NONAME
42 43 1 0 0 
SMALL
USER_CHARGES


@<TRIPOS>ATOM
  1 F        1.9480    -1.0300     1.6580 F     1 <1>  -0.1900 
  2 C        1.1380    -1.9160     1.1400 C.ar  1 <1>   0.1900 
  3 C        1.3390    -2.3140    -0.1720 C.ar  1 <1>  -0.1440 
  4 C        0.1260    -2.4270     1.9280 C.ar  1 <1>  -0.1500 
  5 C        0.4830    -3.2680    -0.7050 C.ar  1 <1>  -0.1500 
  6 C        2.4630    -1.7150    -0.9850 C.3   1 <1>   0.4870 
  7 C       -0.7190    -3.3780     1.3830 C.ar  1 <1>  -0.1500 
  8 C       -0.5380    -3.7950     0.0730 C.ar  1 <1>  -0.1500 
  9 N        3.7350    -2.2050    -0.4100 N.4   1 <1>  -0.9060 
 10 C        4.9610    -1.6930    -1.0510 C.3   1 <1>   0.4230 
 11 C        6.1440    -2.5060    -0.5190 C.3   1 <1>  -0.1600 
 12 C        5.1160    -0.1950    -0.7550 C.3   1 <1>  -0.1600 
 13 C        7.4710    -1.9540    -1.0420 C.3   1 <1>   0.1400 
 14 C        6.4580     0.3280    -1.2710 C.3   1 <1>   0.1400 
 15 N        7.5390    -0.5120    -0.7040 N.am  1 <1>  -0.6600 
 16 C        8.5220     0.0290     0.0890 C.2   1 <1>   0.7800 
 17 O        8.5420     1.2070     0.3870 O.2   1 <1>  -0.5700 
 18 O        9.4680    -0.7880     0.5500 O.3   1 <1>  -0.4300 
 19 C       10.5120    -0.3000     1.3630 C.3   1 <1>   0.1200 
 20 C       11.4200    -1.4720     1.7210 C.3   1 <1>  -0.2400 
 21 H        0.0000    -2.0910     2.9430 H     1 <1>   0.1500 
 22 H        0.5890    -3.6120    -1.7210 H     1 <1>   0.1500 
 23 H        2.4110    -0.6390    -0.9250 H     1 <1>   0.0800 
 24 H        2.3740    -2.0130    -2.0170 H     1 <1>   0.0800 
 25 H       -1.5180    -3.7930     1.9750 H     1 <1>   0.1500 
 26 H       -1.2040    -4.5340    -0.3430 H     1 <1>   0.1500 
 27 H        3.7230    -3.2300    -0.4280 H     1 <1>   0.4500 
 28 H        3.7400    -1.9380     0.5840 H     1 <1>   0.4500 
 29 H        4.9030    -1.8350    -2.1190 H     1 <1>   0.0800 
 30 H        6.0590    -3.5320    -0.8270 H     1 <1>   0.0800 
 31 H        6.1730    -2.4720     0.5570 H     1 <1>   0.0800 
 32 H        5.0760    -0.0130     0.3050 H     1 <1>   0.0800 
 33 H        4.3360     0.3710    -1.2300 H     1 <1>   0.0800 
 34 H        7.5380    -2.0690    -2.1110 H     1 <1>   0.0800 
 35 H        8.2910    -2.4960    -0.6000 H     1 <1>   0.0800 
 36 H        6.5830     1.3600    -0.9830 H     1 <1>   0.0800 
 37 H        6.5000     0.2790    -2.3470 H     1 <1>   0.0800 
 38 H       10.0800     0.1400     2.2470 H     1 <1>   0.0800 
 39 H       11.0500     0.4520     0.8110 H     1 <1>   0.0800 
 40 H       10.8670    -2.2170     2.2640 H     1 <1>   0.0800 
 41 H       12.2280    -1.1270     2.3410 H     1 <1>   0.0800 
 42 H       11.8340    -1.9060     0.8290 H     1 <1>   0.0800 
@<TRIPOS>BOND
  1   1   2  1   
  2   2   3  ar  
  3   2   4  ar  
  4   3   5  ar  
  5   3   6  1   
  6   4   7  ar  
  7   4  21  1   
  8   5   8  ar  
  9   5  22  1   
 10   6   9  1   
 11   6  23  1   
 12   6  24  1   
 13   7   8  ar  
 14   7  25  1   
 15   8  26  1   
 16   9  10  1   
 17   9  27  1   
 18   9  28  1   
 19  10  11  1   
 20  10  12  1   
 21  10  29  1   
 22  11  13  1   
 23  11  30  1   
 24  11  31  1   
 25  12  14  1   
 26  12  32  1   
 27  12  33  1   
 28  13  15  1   
 29  13  34  1   
 30  13  35  1   
 31  14  15  1   
 32  14  36  1   
 33  14  37  1   
 34  15  16  am  
 35  16  17  2   
 36  16  18  1   
 37  18  19  1   
 38  19  20  1   
 39  19  38  1   
 40  19  39  1   
 41  20  40  1   
 42  20  41  1   
 43  20  42  1   
@<TRIPOS>SUBSTRUCTURE
  1 ****  10 GROUP 4 **** **** 0

# MOE 2024.06 (io_trps.svl 2023.06)
