@<TRIPOS>MOLECULE
NONAME
35 35 1 0 0 
SMALL
USER_CHARGES


@<TRIPOS>ATOM
  1 CL      -0.5870     1.5630     2.3070 Cl    1 <1>  -0.1770 
  2 C       -0.5050     2.4720     0.8150 C.ar  1 <1>   0.1770 
  3 C       -1.4810     2.3200    -0.1600 C.ar  1 <1>  -0.1440 
  4 C        0.5620     3.3420     0.6500 C.ar  1 <1>  -0.1500 
  5 C       -1.3350     3.0780    -1.3120 C.ar  1 <1>   0.1900 
  6 C       -2.6590     1.3700     0.0020 C.3   1 <1>   0.2540 
  7 C        0.6760     4.0870    -0.5140 C.ar  1 <1>  -0.1500 
  8 F       -2.2160     2.9670    -2.2730 F     1 <1>  -0.1900 
  9 C       -0.2810     3.9550    -1.5060 C.ar  1 <1>  -0.1500 
 10 N       -3.8890     2.1200     0.3370 N.3   1 <1>  -0.8100 
 11 C       -5.1010     1.3320     0.0850 C.3   1 <1>   0.1100 
 12 C       -3.8340     2.6510     1.7120 C.3   1 <1>   0.0300 
 13 C       -6.2810     2.2820    -0.1760 C.3   1 <1>   0.3430 
 14 N       -7.4980     1.5720    -0.6950 N.4   1 <1>  -0.9590 
 15 C       -8.5120     2.5700    -1.1560 C.3   1 <1>   0.2630 
 16 C       -8.0930     0.6470     0.3210 C.3   1 <1>   0.2630 
 17 H        1.2970     3.4330     1.4290 H     1 <1>   0.1500 
 18 H       -2.4620     0.6260     0.7540 H     1 <1>   0.0800 
 19 H       -2.7920     0.8530    -0.9330 H     1 <1>   0.0800 
 20 H        1.5030     4.7650    -0.6450 H     1 <1>   0.1500 
 21 H       -0.2150     4.5200    -2.4180 H     1 <1>   0.1500 
 22 H       -5.2970     0.6840     0.9220 H     1 <1>   0.0800 
 23 H       -4.9540     0.7330    -0.7970 H     1 <1>   0.0800 
 24 H       -3.7270     1.8510     2.4250 H     1 <1>   0.0800 
 25 H       -2.9960     3.3190     1.8160 H     1 <1>   0.0800 
 26 H       -4.7240     3.2100     1.9410 H     1 <1>   0.0800 
 27 H       -5.9570     3.0080    -0.9050 H     1 <1>   0.0800 
 28 H       -6.5220     2.8060     0.7330 H     1 <1>   0.0800 
 29 H       -7.2040     1.0200    -1.5170 H     1 <1>   0.4500 
 30 H       -8.8390     3.1800    -0.3290 H     1 <1>   0.0800 
 31 H       -9.3690     2.0680    -1.5750 H     1 <1>   0.0800 
 32 H       -8.0880     3.2120    -1.9110 H     1 <1>   0.0800 
 33 H       -8.3910     1.1970     1.1980 H     1 <1>   0.0800 
 34 H       -7.3780    -0.1050     0.6110 H     1 <1>   0.0800 
 35 H       -8.9610     0.1530    -0.0870 H     1 <1>   0.0800 
@<TRIPOS>BOND
  1   1   2  1   
  2   2   3  ar  
  3   2   4  ar  
  4   3   5  ar  
  5   3   6  1   
  6   4   7  ar  
  7   4  17  1   
  8   5   8  1   
  9   5   9  ar  
 10   6  10  1   
 11   6  18  1   
 12   6  19  1   
 13   7   9  ar  
 14   7  20  1   
 15   9  21  1   
 16  10  11  1   
 17  10  12  1   
 18  11  13  1   
 19  11  22  1   
 20  11  23  1   
 21  12  24  1   
 22  12  25  1   
 23  12  26  1   
 24  13  14  1   
 25  13  27  1   
 26  13  28  1   
 27  14  15  1   
 28  14  16  1   
 29  14  29  1   
 30  15  30  1   
 31  15  31  1   
 32  15  32  1   
 33  16  33  1   
 34  16  34  1   
 35  16  35  1   
@<TRIPOS>SUBSTRUCTURE
  1 ****  10 GROUP 4 **** **** 0

# MOE 2024.06 (io_trps.svl 2023.06)
