@<TRIPOS>MOLECULE
NONAME
34 35 1 0 0 
SMALL
USER_CHARGES


@<TRIPOS>ATOM
  1 O       -1.0090     0.4360    -2.3450 O.2   1 <1>  -0.5700 
  2 C       -1.6510    -0.1100    -1.4800 C.2   1 <1>   0.6900 
  3 N       -1.2180    -1.2630    -0.9300 N.am  1 <1>  -0.4900 
  4 N       -2.8030     0.4230    -1.0340 N.am  1 <1>  -0.7300 
  5 C       -1.9420    -1.9960    -0.0570 C.2   1 <1>   0.5690 
  6 C       -3.5410    -0.0550     0.1430 C.3   1 <1>   0.4440 
  7 O       -1.4800    -2.9640     0.4840 O.2   1 <1>  -0.5700 
  8 C       -3.3730    -1.5840     0.2100 C.3   1 <1>  -0.0990 
  9 C       -5.0090     0.4050     0.0300 C.ar  1 <1>  -0.1440 
 10 C       -2.9190     0.6060     1.3770 C.3   1 <1>  -0.2400 
 11 C       -6.0850    -0.4350     0.3150 C.ar  1 <1>  -0.1500 
 12 C       -5.2930     1.7160    -0.3450 C.ar  1 <1>  -0.1500 
 13 C       -7.3920     0.0100     0.2120 C.ar  1 <1>  -0.1500 
 14 C       -6.5980     2.1640    -0.4500 C.ar  1 <1>  -0.1500 
 15 C       -7.6570     1.3180    -0.1760 C.ar  1 <1>   0.0820 
 16 O       -8.9040     1.8370    -0.3020 O.3   1 <1>  -0.3620 
 17 C      -10.0520     1.0660    -0.0340 C.3   1 <1>   0.1200 
 18 C      -11.2760     1.9460    -0.2700 C.3   1 <1>  -0.2400 
 19 H       -0.2930    -1.5840    -1.1940 H     1 <1>   0.3700 
 20 H       -3.1520     1.2620    -1.4920 H     1 <1>   0.3700 
 21 H       -3.6780    -1.9530     1.1720 H     1 <1>   0.0800 
 22 H       -3.9870    -2.0470    -0.5390 H     1 <1>   0.0800 
 23 H       -1.8880     0.3270     1.4950 H     1 <1>   0.0800 
 24 H       -3.4530     0.3040     2.2600 H     1 <1>   0.0800 
 25 H       -2.9800     1.6770     1.3040 H     1 <1>   0.0800 
 26 H       -5.9350    -1.4520     0.6280 H     1 <1>   0.1500 
 27 H       -4.5020     2.4130    -0.5550 H     1 <1>   0.1500 
 28 H       -8.1880    -0.6730     0.4370 H     1 <1>   0.1500 
 29 H       -6.8040     3.1770    -0.7440 H     1 <1>   0.1500 
 30 H      -10.0120     0.7380     0.9900 H     1 <1>   0.0800 
 31 H      -10.0580     0.2200    -0.6990 H     1 <1>   0.0800 
 32 H      -11.2510     2.7970     0.3880 H     1 <1>   0.0800 
 33 H      -12.1720     1.3860    -0.0740 H     1 <1>   0.0800 
 34 H      -11.2970     2.2830    -1.2910 H     1 <1>   0.0800 
@<TRIPOS>BOND
  1   1   2  2   
  2   2   3  am  
  3   2   4  am  
  4   3   5  am  
  5   3  19  1   
  6   4   6  1   
  7   4  20  1   
  8   5   7  2   
  9   5   8  1   
 10   6   8  1   
 11   6   9  1   
 12   6  10  1   
 13   8  21  1   
 14   8  22  1   
 15   9  11  ar  
 16   9  12  ar  
 17  10  23  1   
 18  10  24  1   
 19  10  25  1   
 20  11  13  ar  
 21  11  26  1   
 22  12  14  ar  
 23  12  27  1   
 24  13  15  ar  
 25  13  28  1   
 26  14  15  ar  
 27  14  29  1   
 28  15  16  1   
 29  16  17  1   
 30  17  18  1   
 31  17  30  1   
 32  17  31  1   
 33  18  32  1   
 34  18  33  1   
 35  18  34  1   
@<TRIPOS>SUBSTRUCTURE
  1 ****   9 GROUP 4 **** **** 0

# MOE 2024.06 (io_trps.svl 2023.06)
