@<TRIPOS>MOLECULE
NONAME
48 49 1 0 0 
SMALL
USER_CHARGES


@<TRIPOS>ATOM
  1 O       -4.7160    -1.3830     1.1550 O.2   1 <1>  -0.5700 
  2 C       -4.8390    -1.8960     0.0660 C.2   1 <1>   0.5690 
  3 N       -3.7950    -1.8040    -0.8210 N.am  1 <1>  -0.6600 
  4 C       -6.1140    -2.6760    -0.3070 C.3   1 <1>   0.1250 
  5 C       -2.8700    -0.6390    -0.7110 C.3   1 <1>   0.1400 
  6 C       -3.1510    -3.0190    -1.3960 C.3   1 <1>   0.1400 
  7 C       -7.3510    -1.7730    -0.4520 C.ar  1 <1>  -0.1440 
  8 C       -6.3510    -3.9300     0.5820 C.3   1 <1>  -0.0800 
  9 C       -1.6510    -1.0210     0.1460 C.3   1 <1>   0.3430 
 10 C       -1.8950    -3.3910    -0.5760 C.3   1 <1>   0.3430 
 11 C       -8.1610    -1.8970    -1.5750 C.ar  1 <1>  -0.1500 
 12 C       -7.6880    -0.8250     0.5060 C.ar  1 <1>  -0.1500 
 13 C       -7.3540    -4.8960    -0.0710 C.3   1 <1>  -0.2400 
 14 C       -6.8310    -3.6210     2.0110 C.3   1 <1>  -0.2400 
 15 N       -0.9370    -2.2330    -0.4060 N.4   1 <1>  -0.9590 
 16 C       -9.2760    -1.0940    -1.7370 C.ar  1 <1>  -0.1500 
 17 C       -8.8020    -0.0200     0.3460 C.ar  1 <1>  -0.1500 
 18 C        0.2130    -2.5810     0.4920 C.3   1 <1>   0.3430 
 19 C       -9.5980    -0.1530    -0.7760 C.ar  1 <1>  -0.1500 
 20 C        1.1560    -3.6300    -0.1160 C.3   1 <1>   0.1200 
 21 O        2.1830    -3.8380     0.7860 O.3   1 <1>  -0.6800 
 22 H       -5.9270    -3.0530    -1.2940 H     1 <1>   0.0800 
 23 H       -3.3820     0.1920    -0.2530 H     1 <1>   0.0800 
 24 H       -2.5580    -0.3270    -1.6920 H     1 <1>   0.0800 
 25 H       -2.8830    -2.8320    -2.4220 H     1 <1>   0.0800 
 26 H       -3.8350    -3.8500    -1.3820 H     1 <1>   0.0800 
 27 H       -5.4130    -4.4510     0.6650 H     1 <1>   0.0800 
 28 H       -1.9980    -1.2230     1.1470 H     1 <1>   0.0800 
 29 H       -0.9750    -0.1830     0.1930 H     1 <1>   0.0800 
 30 H       -1.3940    -4.2150    -1.0570 H     1 <1>   0.0800 
 31 H       -2.2190    -3.7280     0.3960 H     1 <1>   0.0800 
 32 H       -7.9340    -2.6220    -2.3350 H     1 <1>   0.1500 
 33 H       -7.0900    -0.7040     1.3920 H     1 <1>   0.1500 
 34 H       -8.3270    -4.4400    -0.1420 H     1 <1>   0.0800 
 35 H       -7.4470    -5.7920     0.5170 H     1 <1>   0.0800 
 36 H       -7.0330    -5.1750    -1.0580 H     1 <1>   0.0800 
 37 H       -7.8000    -3.1540     1.9960 H     1 <1>   0.0800 
 38 H       -6.1450    -2.9690     2.5200 H     1 <1>   0.0800 
 39 H       -6.9080    -4.5290     2.5820 H     1 <1>   0.0800 
 40 H       -0.5690    -1.9730    -1.3300 H     1 <1>   0.4500 
 41 H       -9.8950    -1.2000    -2.6110 H     1 <1>   0.1500 
 42 H       -9.0480     0.7090     1.0980 H     1 <1>   0.1500 
 43 H       -0.1610    -2.9540     1.4320 H     1 <1>   0.0800 
 44 H        0.7920    -1.6940     0.6920 H     1 <1>   0.0800 
 45 H      -10.4650     0.4720    -0.9010 H     1 <1>   0.1500 
 46 H        1.5890    -3.2760    -1.0360 H     1 <1>   0.0800 
 47 H        0.6580    -4.5710    -0.2690 H     1 <1>   0.0800 
 48 H        2.8400    -4.4860     0.4530 H     1 <1>   0.4000 
@<TRIPOS>BOND
  1   1   2  2   
  2   2   3  am  
  3   2   4  1   
  4   3   5  1   
  5   3   6  1   
  6   4   7  1   
  7   4   8  1   
  8   4  22  1   
  9   5   9  1   
 10   5  23  1   
 11   5  24  1   
 12   6  10  1   
 13   6  25  1   
 14   6  26  1   
 15   7  11  ar  
 16   7  12  ar  
 17   8  13  1   
 18   8  14  1   
 19   8  27  1   
 20   9  15  1   
 21   9  28  1   
 22   9  29  1   
 23  10  15  1   
 24  10  30  1   
 25  10  31  1   
 26  11  16  ar  
 27  11  32  1   
 28  12  17  ar  
 29  12  33  1   
 30  13  34  1   
 31  13  35  1   
 32  13  36  1   
 33  14  37  1   
 34  14  38  1   
 35  14  39  1   
 36  15  18  1   
 37  15  40  1   
 38  16  19  ar  
 39  16  41  1   
 40  17  19  ar  
 41  17  42  1   
 42  18  20  1   
 43  18  43  1   
 44  18  44  1   
 45  19  45  1   
 46  20  21  1   
 47  20  46  1   
 48  20  47  1   
 49  21  48  1   
@<TRIPOS>SUBSTRUCTURE
  1 ****   2 GROUP 4 **** **** 0

# MOE 2024.06 (io_trps.svl 2023.06)
