@<TRIPOS>MOLECULE
NONAME
28 29 1 0 0 
SMALL
USER_CHARGES


@<TRIPOS>ATOM
  1 BR      -0.0530     0.2540     1.2860 Br    1 <1>  -0.1100 
  2 C       -1.9060     0.3230     0.7540 C.2   1 <1>   0.1240 
  3 C       -2.3780    -0.6950    -0.1230 C.2   1 <1>   0.3760 
  4 C       -2.7120     1.3120     1.2070 C.2   1 <1>  -0.1810 
  5 N       -3.6050    -0.7330    -0.5360 N.2   1 <1>  -0.5760 
  6 N       -4.0200     1.2800     0.7740 N.pl3 1 <1>   0.6010 
  7 C       -4.4330     0.2750    -0.0730 C.2   1 <1>  -0.0260 
  8 N       -5.0140     2.1280     1.0620 N.2   1 <1>  -0.7070 
  9 C       -5.7430     0.5140    -0.3080 C.2   1 <1>  -0.1500 
 10 C       -6.0740     1.6670     0.4070 C.2   1 <1>   0.2030 
 11 C       -7.4110     2.2590     0.4040 C.2   1 <1>   0.7160 
 12 O       -7.8230     2.9410     1.3260 O.2   1 <1>  -0.5700 
 13 N       -8.2560     2.0440    -0.6550 N.am  1 <1>  -0.7300 
 14 C       -9.5950     2.6720    -0.8200 C.3   1 <1>   0.1400 
 15 C      -10.6240     2.0150     0.1000 C.3   1 <1>   0.1200 
 16 O      -11.8900     2.4740    -0.2590 O.3   1 <1>  -0.5600 
 17 C      -12.9080     2.0200     0.5720 C.3   1 <1>   0.0400 
 18 H       -1.6830    -1.4490    -0.4440 H     1 <1>   0.0600 
 19 H       -2.4300     2.1100     1.8670 H     1 <1>   0.1500 
 20 H       -6.3960    -0.0800    -0.9200 H     1 <1>   0.1500 
 21 H       -7.8920     1.5630    -1.4770 H     1 <1>   0.3700 
 22 H       -9.9100     2.5650    -1.8430 H     1 <1>   0.0800 
 23 H       -9.5290     3.7210    -0.5840 H     1 <1>   0.0800 
 24 H      -10.4310     2.2850     1.1240 H     1 <1>   0.0800 
 25 H      -10.6070     0.9460    -0.0170 H     1 <1>   0.0800 
 26 H      -13.8390     2.4210     0.2110 H     1 <1>   0.0800 
 27 H      -12.7290     2.3680     1.5750 H     1 <1>   0.0800 
 28 H      -12.9390     0.9450     0.5430 H     1 <1>   0.0800 
@<TRIPOS>BOND
  1   1   2  1   
  2   2   3  1   
  3   2   4  2   
  4   3   5  2   
  5   3  18  1   
  6   4   6  1   
  7   4  19  1   
  8   5   7  1   
  9   6   7  1   
 10   6   8  1   
 11   7   9  2   
 12   8  10  2   
 13   9  10  1   
 14   9  20  1   
 15  10  11  1   
 16  11  12  2   
 17  11  13  am  
 18  13  14  1   
 19  13  21  1   
 20  14  15  1   
 21  14  22  1   
 22  14  23  1   
 23  15  16  1   
 24  15  24  1   
 25  15  25  1   
 26  16  17  1   
 27  17  26  1   
 28  17  27  1   
 29  17  28  1   
@<TRIPOS>SUBSTRUCTURE
  1 ****  10 GROUP 4 **** **** 0

# MOE 2024.06 (io_trps.svl 2023.06)
