@<TRIPOS>MOLECULE
NONAME
40 41 1 0 0 
SMALL
USER_CHARGES


@<TRIPOS>ATOM
  1 S       -0.1620    -0.0180    -0.1860 S.o2  1 <1>   1.3330 
  2 O        0.3010     0.7120     0.9730 O.2   1 <1>  -0.6500 
  3 O       -0.4110     0.6910    -1.4230 O.2   1 <1>  -0.6500 
  4 N       -1.5910    -0.8310     0.2300 N.am  1 <1>  -0.8490 
  5 C        0.9840    -1.3710    -0.4880 C.3   1 <1>  -0.0550 
  6 C       -2.3690    -1.2300    -0.9480 C.3   1 <1>   0.1960 
  7 C       -2.4050    -0.0600     1.1760 C.3   1 <1>   0.1960 
  8 C        2.4010    -0.9270    -0.8940 C.3   1 <1>  -0.2400 
  9 C       -3.5510    -2.1080    -0.5360 C.3   1 <1>  -0.1600 
 10 C       -3.6040    -0.8870     1.6510 C.3   1 <1>  -0.1600 
 11 C       -4.4560    -1.3790     0.4700 C.3   1 <1>  -0.0190 
 12 C       -5.6100    -2.2620     0.9400 C.2   1 <1>   0.5690 
 13 O       -5.3820    -3.3350     1.4430 O.2   1 <1>  -0.5700 
 14 N       -6.8780    -1.8150     0.7820 N.am  1 <1>  -0.7300 
 15 C       -8.0860    -2.5820     1.1340 C.3   1 <1>   0.3200 
 16 C       -9.1900    -2.2160     0.1590 C.2   1 <1>  -0.0400 
 17 O       -9.5840    -0.9580     0.0800 O.3   1 <1>  -0.2800 
 18 C       -9.8890    -2.9850    -0.7040 C.2   1 <1>  -0.1500 
 19 C      -10.5400    -0.8970    -0.8270 C.2   1 <1>  -0.0100 
 20 C      -10.7770    -2.1170    -1.3510 C.2   1 <1>  -0.1500 
 21 H        0.5890    -1.9970    -1.2630 H     1 <1>   0.0800 
 22 H        1.0540    -1.9640     0.4030 H     1 <1>   0.0800 
 23 H       -1.7420    -1.7830    -1.6280 H     1 <1>   0.0800 
 24 H       -2.7280    -0.3530    -1.4640 H     1 <1>   0.0800 
 25 H       -2.7390     0.8530     0.7090 H     1 <1>   0.0800 
 26 H       -1.8150     0.2020     2.0380 H     1 <1>   0.0800 
 27 H        2.3630    -0.3490    -1.8010 H     1 <1>   0.0800 
 28 H        3.0290    -1.7850    -1.0550 H     1 <1>   0.0800 
 29 H        2.8340    -0.3200    -0.1180 H     1 <1>   0.0800 
 30 H       -3.1740    -3.0170    -0.0980 H     1 <1>   0.0800 
 31 H       -4.1210    -2.3750    -1.4080 H     1 <1>   0.0800 
 32 H       -4.2080    -0.2910     2.3120 H     1 <1>   0.0800 
 33 H       -3.2400    -1.7300     2.2130 H     1 <1>   0.0800 
 34 H       -4.8710    -0.5180    -0.0220 H     1 <1>   0.0800 
 35 H       -7.0850    -0.9180     0.3410 H     1 <1>   0.3700 
 36 H       -8.3900    -2.3320     2.1350 H     1 <1>   0.0800 
 37 H       -7.8820    -3.6380     1.0860 H     1 <1>   0.0800 
 38 H       -9.8090    -4.0430    -0.8840 H     1 <1>   0.1500 
 39 H      -10.9980     0.0540    -1.0360 H     1 <1>   0.1500 
 40 H      -11.4900    -2.3990    -2.1060 H     1 <1>   0.1500 
@<TRIPOS>BOND
  1   1   2  2   
  2   1   3  2   
  3   1   4  am  
  4   1   5  1   
  5   4   6  1   
  6   4   7  1   
  7   5   8  1   
  8   5  21  1   
  9   5  22  1   
 10   6   9  1   
 11   6  23  1   
 12   6  24  1   
 13   7  10  1   
 14   7  25  1   
 15   7  26  1   
 16   8  27  1   
 17   8  28  1   
 18   8  29  1   
 19   9  11  1   
 20   9  30  1   
 21   9  31  1   
 22  10  11  1   
 23  10  32  1   
 24  10  33  1   
 25  11  12  1   
 26  11  34  1   
 27  12  13  2   
 28  12  14  am  
 29  14  15  1   
 30  14  35  1   
 31  15  16  1   
 32  15  36  1   
 33  15  37  1   
 34  16  17  1   
 35  16  18  2   
 36  17  19  1   
 37  18  20  1   
 38  18  38  1   
 39  19  20  2   
 40  19  39  1   
 41  20  40  1   
@<TRIPOS>SUBSTRUCTURE
  1 ****  11 GROUP 4 **** **** 0

# MOE 2024.06 (io_trps.svl 2023.06)
