@<TRIPOS>MOLECULE
NONAME
36 36 1 0 0 
SMALL
USER_CHARGES


@<TRIPOS>ATOM
  1 O        1.9540    -0.6760    -1.1930 O.2   1 <1>  -0.5700 
  2 C        1.8900    -1.0630    -0.0440 C.2   1 <1>   0.6340 
  3 O        2.1900    -0.2240     0.9490 O.3   1 <1>  -0.4300 
  4 C        1.5180    -2.4110     0.3050 C.ar  1 <1>   0.0860 
  5 C        2.6240     1.0980     0.7020 C.3   1 <1>   0.0400 
  6 C        2.4870    -3.3020     0.7830 C.ar  1 <1>   0.0830 
  7 C        0.2030    -2.8750     0.1690 C.ar  1 <1>  -0.1440 
  8 O        3.7650    -2.8720     0.9070 O.3   1 <1>  -0.2320 
  9 C        2.1730    -4.6100     1.1420 C.ar  1 <1>  -0.1430 
 10 C       -0.1120    -4.1780     0.5060 C.ar  1 <1>  -0.1500 
 11 C       -0.8960    -1.9520    -0.3450 C.3   1 <1>  -0.0960 
 12 C        4.6960    -2.9970    -0.0380 C.2   1 <1>   0.6590 
 13 C        0.8640    -5.0450     0.9780 C.ar  1 <1>   0.0830 
 14 C        3.2360    -5.5550     1.7030 C.3   1 <1>  -0.0970 
 15 O        5.8450    -2.7520     0.2070 O.2   1 <1>  -0.5700 
 16 C        4.2920    -3.4600    -1.4240 C.3   1 <1>  -0.1790 
 17 O        0.5330    -6.3180     1.2930 O.3   1 <1>  -0.2330 
 18 C       -0.0880    -7.1670     0.4770 C.2   1 <1>   0.6590 
 19 O       -0.7580    -8.0610     0.9150 O.2   1 <1>  -0.5700 
 20 C        0.1110    -7.0180    -1.0180 C.3   1 <1>  -0.1790 
 21 H        2.8050     1.5790     1.6460 H     1 <1>   0.0800 
 22 H        1.8560     1.6210     0.1580 H     1 <1>   0.0800 
 23 H        3.5310     1.0630     0.1230 H     1 <1>   0.0800 
 24 H       -1.1250    -4.5290     0.4150 H     1 <1>   0.1500 
 25 H       -0.9700    -1.0800     0.2810 H     1 <1>   0.0800 
 26 H       -1.8510    -2.4460    -0.3470 H     1 <1>   0.0800 
 27 H       -0.6760    -1.6380    -1.3500 H     1 <1>   0.0800 
 28 H        4.0140    -5.0120     2.2100 H     1 <1>   0.0800 
 29 H        3.6770    -6.1280     0.9070 H     1 <1>   0.0800 
 30 H        2.8060    -6.2340     2.4170 H     1 <1>   0.0800 
 31 H        3.6050    -2.7600    -1.8600 H     1 <1>   0.0800 
 32 H        3.8390    -4.4310    -1.3750 H     1 <1>   0.0800 
 33 H        5.1640    -3.5160    -2.0490 H     1 <1>   0.0800 
 34 H        1.1470    -6.8380    -1.2340 H     1 <1>   0.0800 
 35 H       -0.4830    -6.2070    -1.3930 H     1 <1>   0.0800 
 36 H       -0.1930    -7.9240    -1.5090 H     1 <1>   0.0800 
@<TRIPOS>BOND
  1   1   2  2   
  2   2   3  1   
  3   2   4  1   
  4   3   5  1   
  5   4   6  ar  
  6   4   7  ar  
  7   5  21  1   
  8   5  22  1   
  9   5  23  1   
 10   6   8  1   
 11   6   9  ar  
 12   7  10  ar  
 13   7  11  1   
 14   8  12  1   
 15   9  13  ar  
 16   9  14  1   
 17  10  13  ar  
 18  10  24  1   
 19  11  25  1   
 20  11  26  1   
 21  11  27  1   
 22  12  15  2   
 23  12  16  1   
 24  13  17  1   
 25  14  28  1   
 26  14  29  1   
 27  14  30  1   
 28  16  31  1   
 29  16  32  1   
 30  16  33  1   
 31  17  18  1   
 32  18  19  2   
 33  18  20  1   
 34  20  34  1   
 35  20  35  1   
 36  20  36  1   
@<TRIPOS>SUBSTRUCTURE
  1 ****   6 GROUP 4 **** **** 0

# MOE 2024.06 (io_trps.svl 2023.06)
