@<TRIPOS>MOLECULE
NONAME
55 58 1 0 0 
SMALL
USER_CHARGES


@<TRIPOS>ATOM
  1 O       -0.0980     1.2420     2.4970 O.2   1 <1>  -0.5700 
  2 C       -0.3890     1.7190     1.4300 C.2   1 <1>   0.4230 
  3 C        0.5440     2.3380     0.5300 C.ar  1 <1>   0.0860 
  4 C       -1.8340     1.6580     0.9930 C.3   1 <1>  -0.0990 
  5 C        0.0660     3.0020    -0.6040 C.ar  1 <1>   0.0820 
  6 C        1.9240     2.3000     0.7310 C.ar  1 <1>  -0.1500 
  7 C       -2.2120     2.9130     0.1950 C.3   1 <1>   0.2800 
  8 O       -1.2600     3.1120    -0.8420 O.3   1 <1>  -0.3630 
  9 C        0.9390     3.5750    -1.5120 C.ar  1 <1>  -0.1500 
 10 C        2.8010     2.8810    -0.1680 C.ar  1 <1>  -0.1440 
 11 C       -2.2370     4.1760     1.0760 C.3   1 <1>  -0.1600 
 12 C       -3.5790     2.7370    -0.4800 C.3   1 <1>  -0.1600 
 13 C        2.3030     3.5160    -1.2960 C.ar  1 <1>  -0.1500 
 14 C        4.3010     2.8280     0.0620 C.3   1 <1>  -0.0970 
 15 C       -2.7230     5.3990     0.2960 C.3   1 <1>   0.1100 
 16 C       -4.0180     4.0110    -1.2050 C.3   1 <1>   0.1100 
 17 N       -4.0610     5.1320    -0.2490 N.3   1 <1>  -0.8100 
 18 C       -4.6020     6.3600    -0.9120 C.3   1 <1>   0.1710 
 19 C       -6.1140     6.3200    -1.1400 C.2   1 <1>   0.5690 
 20 O       -6.5950     7.0140    -2.0030 O.2   1 <1>  -0.5700 
 21 N       -6.8230     5.4810    -0.3290 N.am  1 <1>  -0.5470 
 22 C       -8.1860     5.1640    -0.2140 C.ar  1 <1>   0.1170 
 23 C       -8.5600     4.1760     0.6890 C.ar  1 <1>  -0.1500 
 24 C       -9.1820     5.7900    -0.9570 C.ar  1 <1>  -0.1500 
 25 C       -9.8870     3.8170     0.8510 C.ar  1 <1>  -0.1500 
 26 C      -10.5100     5.4350    -0.8010 C.ar  1 <1>  -0.1500 
 27 C      -10.8740     4.4490     0.1010 C.ar  1 <1>   0.0820 
 28 O      -12.2000     4.1600     0.1920 O.3   1 <1>  -0.3620 
 29 C      -12.6670     3.1710     1.0820 C.3   1 <1>   0.0400 
 30 H       -2.4670     1.5660     1.8560 H     1 <1>   0.0800 
 31 H       -1.9710     0.7810     0.3880 H     1 <1>   0.0800 
 32 H        2.2990     1.8000     1.6080 H     1 <1>   0.1500 
 33 H        0.5470     4.0690    -2.3830 H     1 <1>   0.1500 
 34 H       -1.2630     4.3770     1.4810 H     1 <1>   0.0800 
 35 H       -2.9020     4.0220     1.9070 H     1 <1>   0.0800 
 36 H       -4.3200     2.4940     0.2600 H     1 <1>   0.0800 
 37 H       -3.5360     1.9230    -1.1800 H     1 <1>   0.0800 
 38 H        2.9770     3.9660    -2.0040 H     1 <1>   0.1500 
 39 H        4.5320     2.3220     0.9830 H     1 <1>   0.0800 
 40 H        4.7000     3.8250     0.1110 H     1 <1>   0.0800 
 41 H        4.7770     2.3020    -0.7460 H     1 <1>   0.0800 
 42 H       -2.0340     5.6260    -0.5030 H     1 <1>   0.0800 
 43 H       -2.7630     6.2440     0.9620 H     1 <1>   0.0800 
 44 H       -4.9920     3.8510    -1.6350 H     1 <1>   0.0800 
 45 H       -3.3300     4.2330    -2.0050 H     1 <1>   0.0800 
 46 H       -4.1100     6.5180    -1.8560 H     1 <1>   0.0800 
 47 H       -4.4060     7.2160    -0.2920 H     1 <1>   0.0800 
 48 H       -6.1860     4.9540     0.2770 H     1 <1>   0.3700 
 49 H       -7.8060     3.6830     1.2740 H     1 <1>   0.1500 
 50 H       -8.9310     6.5590    -1.6630 H     1 <1>   0.1500 
 51 H      -10.1310     3.0490     1.5590 H     1 <1>   0.1500 
 52 H      -11.2730     5.9230    -1.3800 H     1 <1>   0.1500 
 53 H      -13.7360     3.1140     0.9850 H     1 <1>   0.0800 
 54 H      -12.4050     3.4540     2.0860 H     1 <1>   0.0800 
 55 H      -12.2250     2.2270     0.8170 H     1 <1>   0.0800 
@<TRIPOS>BOND
  1   1   2  2   
  2   2   3  1   
  3   2   4  1   
  4   3   5  ar  
  5   3   6  ar  
  6   4   7  1   
  7   4  30  1   
  8   4  31  1   
  9   5   8  1   
 10   5   9  ar  
 11   6  10  ar  
 12   6  32  1   
 13   7   8  1   
 14   7  11  1   
 15   7  12  1   
 16   9  13  ar  
 17   9  33  1   
 18  10  13  ar  
 19  10  14  1   
 20  11  15  1   
 21  11  34  1   
 22  11  35  1   
 23  12  16  1   
 24  12  36  1   
 25  12  37  1   
 26  13  38  1   
 27  14  39  1   
 28  14  40  1   
 29  14  41  1   
 30  15  17  1   
 31  15  42  1   
 32  15  43  1   
 33  16  17  1   
 34  16  44  1   
 35  16  45  1   
 36  17  18  1   
 37  18  19  1   
 38  18  46  1   
 39  18  47  1   
 40  19  20  2   
 41  19  21  am  
 42  21  22  1   
 43  21  48  1   
 44  22  23  ar  
 45  22  24  ar  
 46  23  25  ar  
 47  23  49  1   
 48  24  26  ar  
 49  24  50  1   
 50  25  27  ar  
 51  25  51  1   
 52  26  27  ar  
 53  26  52  1   
 54  27  28  1   
 55  28  29  1   
 56  29  53  1   
 57  29  54  1   
 58  29  55  1   
@<TRIPOS>SUBSTRUCTURE
  1 ****  16 GROUP 4 **** **** 0

# MOE 2024.06 (io_trps.svl 2023.06)
