@<TRIPOS>MOLECULE
NONAME
30 31 1 0 0 
SMALL
USER_CHARGES


@<TRIPOS>ATOM
  1 O       -3.3820    -4.6110    -0.3410 O.3   1 <1>  -0.3630 
  2 C       -2.6770    -3.4710    -0.1390 C.ar  1 <1>   0.0830 
  3 C       -2.7590    -5.8340    -0.6640 C.3   1 <1>   0.0400 
  4 C       -3.4160    -2.3250     0.0910 C.ar  1 <1>  -0.1500 
  5 C       -1.2880    -3.4080    -0.1550 C.ar  1 <1>  -0.1500 
  6 C       -2.7720    -1.1130     0.3030 C.ar  1 <1>   0.0830 
  7 C       -0.6200    -2.2010     0.0580 C.ar  1 <1>  -0.0220 
  8 O       -3.4170     0.0560     0.5330 O.3   1 <1>  -0.3630 
  9 C       -1.3910    -1.0620     0.2870 C.ar  1 <1>  -0.1500 
 10 C        0.8200    -2.1220     0.0430 C.cat 1 <1>   0.7310 
 11 C       -4.8260     0.1160     0.5880 C.3   1 <1>   0.0400 
 12 N        1.5150    -1.2120    -0.6020 N.pl3 1 <1>  -0.7940 
 13 N        1.6290    -2.9440     0.6750 N.pl3 1 <1>  -0.7940 
 14 C        2.9800    -1.3700    -0.4320 C.3   1 <1>   0.3290 
 15 C        3.0620    -2.6060     0.4850 C.3   1 <1>   0.3290 
 16 H       -3.5280    -6.5720    -0.8050 H     1 <1>   0.0800 
 17 H       -2.1190    -6.1280     0.1490 H     1 <1>   0.0800 
 18 H       -2.2010    -5.7130    -1.5760 H     1 <1>   0.0800 
 19 H       -4.4860    -2.4060     0.0970 H     1 <1>   0.1500 
 20 H       -0.7130    -4.2950    -0.3400 H     1 <1>   0.1500 
 21 H       -0.9230    -0.1100     0.4640 H     1 <1>   0.1500 
 22 H       -5.1100     1.1340     0.7850 H     1 <1>   0.0800 
 23 H       -5.1730    -0.5210     1.3820 H     1 <1>   0.0800 
 24 H       -5.2270    -0.1980    -0.3600 H     1 <1>   0.0800 
 25 H        1.1120    -0.4660    -1.1790 H     1 <1>   0.4500 
 26 H        1.3310    -3.7180     1.2770 H     1 <1>   0.4500 
 27 H        3.4100    -0.5030     0.0420 H     1 <1>   0.0800 
 28 H        3.4610    -1.5530    -1.3780 H     1 <1>   0.0800 
 29 H        3.5900    -3.4130     0.0050 H     1 <1>   0.0800 
 30 H        3.5300    -2.3630     1.4240 H     1 <1>   0.0800 
@<TRIPOS>BOND
  1   1   2  1   
  2   1   3  1   
  3   2   4  ar  
  4   2   5  ar  
  5   3  16  1   
  6   3  17  1   
  7   3  18  1   
  8   4   6  ar  
  9   4  19  1   
 10   5   7  ar  
 11   5  20  1   
 12   6   8  1   
 13   6   9  ar  
 14   7   9  ar  
 15   7  10  1   
 16   8  11  1   
 17   9  21  1   
 18  10  12  ar  
 19  10  13  ar  
 20  11  22  1   
 21  11  23  1   
 22  11  24  1   
 23  12  14  1   
 24  12  25  1   
 25  13  15  1   
 26  13  26  1   
 27  14  15  1   
 28  14  27  1   
 29  14  28  1   
 30  15  29  1   
 31  15  30  1   
@<TRIPOS>SUBSTRUCTURE
  1 ****   7 GROUP 4 **** **** 0

# MOE 2024.06 (io_trps.svl 2023.06)
