@<TRIPOS>MOLECULE
NONAME
47 49 1 0 0 
SMALL
USER_CHARGES


@<TRIPOS>ATOM
  1 S        0.2940    -0.0170    -0.4780 S.o2  1 <1>   1.4470 
  2 O       -0.6220     0.4800     0.5270 O.2   1 <1>  -0.6500 
  3 O       -0.0140     0.1750    -1.8780 O.2   1 <1>  -0.6500 
  4 N        1.7800     0.7500    -0.1960 N.am  1 <1>  -0.8490 
  5 C        0.6740    -1.7670    -0.1790 C.ar  1 <1>  -0.0090 
  6 C        1.7960     2.1020    -0.7740 C.3   1 <1>   0.1960 
  7 C        2.1430     0.7780     1.2200 C.3   1 <1>   0.1960 
  8 C       -0.0400    -2.5130     0.7520 C.ar  1 <1>  -0.1500 
  9 C        1.6970    -2.4010    -0.8740 C.ar  1 <1>  -0.1500 
 10 C        3.0220     2.9190    -0.3300 C.3   1 <1>  -0.1600 
 11 C        3.6230     1.1620     1.3730 C.3   1 <1>  -0.1600 
 12 C        0.2590    -3.8450     0.9850 C.ar  1 <1>  -0.1500 
 13 C        2.0030    -3.7320    -0.6480 C.ar  1 <1>  -0.1500 
 14 C        4.1530     2.0260     0.2080 C.3   1 <1>  -0.0190 
 15 C        1.2820    -4.4560     0.2840 C.ar  1 <1>  -0.1500 
 16 C        5.3820     2.8340     0.6150 C.2   1 <1>   0.5690 
 17 O        5.2720     3.7240     1.4230 O.2   1 <1>  -0.5700 
 18 N        6.5790     2.5340     0.0580 N.am  1 <1>  -0.7300 
 19 C        7.8350     3.2230     0.3860 C.3   1 <1>   0.2840 
 20 C        8.9790     2.4100    -0.1920 C.ar  1 <1>  -0.1430 
 21 C        9.4500     2.6810    -1.4720 C.ar  1 <1>  -0.1500 
 22 C        9.5520     1.3880     0.5560 C.ar  1 <1>  -0.1500 
 23 C       10.4910     1.9390    -2.0050 C.ar  1 <1>  -0.1500 
 24 C       10.5940     0.6390     0.0340 C.ar  1 <1>  -0.1500 
 25 C       11.0430     0.9300    -1.2400 C.ar  1 <1>   0.1900 
 26 F       12.0240     0.2270    -1.7380 F     1 <1>  -0.1900 
 27 H        0.8980     2.6320    -0.4980 H     1 <1>   0.0800 
 28 H        1.8030     2.0110    -1.8480 H     1 <1>   0.0800 
 29 H        1.9820    -0.1870     1.6720 H     1 <1>   0.0800 
 30 H        1.5210     1.4940     1.7350 H     1 <1>   0.0800 
 31 H       -0.8400    -2.0470     1.3030 H     1 <1>   0.1500 
 32 H        2.2610    -1.8410    -1.6020 H     1 <1>   0.1500 
 33 H        2.7190     3.6060     0.4420 H     1 <1>   0.0800 
 34 H        3.3740     3.5100    -1.1570 H     1 <1>   0.0800 
 35 H        4.2160     0.2680     1.4440 H     1 <1>   0.0800 
 36 H        3.7320     1.6910     2.3030 H     1 <1>   0.0800 
 37 H       -0.3070    -4.4060     1.7100 H     1 <1>   0.1500 
 38 H        2.7990    -4.2040    -1.1980 H     1 <1>   0.1500 
 39 H        4.4380     1.3620    -0.5900 H     1 <1>   0.0800 
 40 H        1.5160    -5.4920     0.4620 H     1 <1>   0.1500 
 41 H        6.6770     1.7680    -0.6080 H     1 <1>   0.3700 
 42 H        7.9340     3.3110     1.4550 H     1 <1>   0.0800 
 43 H        7.8220     4.2140    -0.0360 H     1 <1>   0.0800 
 44 H        9.0080     3.4700    -2.0570 H     1 <1>   0.1500 
 45 H        9.1880     1.1740     1.5470 H     1 <1>   0.1500 
 46 H       10.8690     2.1350    -2.9920 H     1 <1>   0.1500 
 47 H       11.0500    -0.1540     0.5980 H     1 <1>   0.1500 
@<TRIPOS>BOND
  1   1   2  2   
  2   1   3  2   
  3   1   4  am  
  4   1   5  1   
  5   4   6  1   
  6   4   7  1   
  7   5   8  ar  
  8   5   9  ar  
  9   6  10  1   
 10   6  27  1   
 11   6  28  1   
 12   7  11  1   
 13   7  29  1   
 14   7  30  1   
 15   8  12  ar  
 16   8  31  1   
 17   9  13  ar  
 18   9  32  1   
 19  10  14  1   
 20  10  33  1   
 21  10  34  1   
 22  11  14  1   
 23  11  35  1   
 24  11  36  1   
 25  12  15  ar  
 26  12  37  1   
 27  13  15  ar  
 28  13  38  1   
 29  14  16  1   
 30  14  39  1   
 31  15  40  1   
 32  16  17  2   
 33  16  18  am  
 34  18  19  1   
 35  18  41  1   
 36  19  20  1   
 37  19  42  1   
 38  19  43  1   
 39  20  21  ar  
 40  20  22  ar  
 41  21  23  ar  
 42  21  44  1   
 43  22  24  ar  
 44  22  45  1   
 45  23  25  ar  
 46  23  46  1   
 47  24  25  ar  
 48  24  47  1   
 49  25  26  1   
@<TRIPOS>SUBSTRUCTURE
  1 ****  14 GROUP 4 **** **** 0

# MOE 2024.06 (io_trps.svl 2023.06)
