@<TRIPOS>MOLECULE
NONAME
39 40 1 0 0 
SMALL
USER_CHARGES


@<TRIPOS>ATOM
  1 CL       4.9570    -1.8560     3.6790 Cl    1 <1>  -0.1770 
  2 C        5.0640    -0.7230     2.3560 C.ar  1 <1>   0.1770 
  3 C        5.3650    -1.1860     1.0890 C.ar  1 <1>  -0.1500 
  4 C        4.8460     0.6210     2.5960 C.ar  1 <1>  -0.1500 
  5 C        5.4560    -0.2880     0.0380 C.ar  1 <1>  -0.1500 
  6 C        4.9380     1.5170     1.5440 C.ar  1 <1>  -0.1500 
  7 C        5.2480     1.0720     0.2670 C.ar  1 <1>   0.0830 
  8 O        5.3460     2.0250    -0.6950 O.3   1 <1>  -0.3630 
  9 C        5.8670     1.7500    -1.9950 C.3   1 <1>   0.2610 
 10 C        7.3400     1.3160    -1.9310 C.2   1 <1>   0.5690 
 11 C        5.6910     3.0140    -2.8560 C.3   1 <1>  -0.1600 
 12 O        7.7830     0.6180    -2.8130 O.2   1 <1>  -0.5700 
 13 N        8.1000     1.6980    -0.8710 N.am  1 <1>  -0.7300 
 14 C        4.2260     3.4570    -2.9920 C.3   1 <1>  -0.2400 
 15 C        9.4480     1.2110    -0.5560 C.3   1 <1>   0.2200 
 16 C        9.3300     0.0970     0.4770 C.3   1 <1>  -0.1600 
 17 C       10.1940     2.3050     0.1980 C.3   1 <1>  -0.1600 
 18 C        9.1260     0.8040     1.8220 C.3   1 <1>  -0.1600 
 19 C        9.7140     2.2120     1.6520 C.3   1 <1>  -0.1600 
 20 H        5.5270    -2.2380     0.9300 H     1 <1>   0.1500 
 21 H        4.6080     0.9560     3.5890 H     1 <1>   0.1500 
 22 H        5.6910    -0.6670    -0.9390 H     1 <1>   0.1500 
 23 H        4.7710     2.5670     1.7090 H     1 <1>   0.1500 
 24 H        5.2840     0.9540    -2.4220 H     1 <1>   0.0800 
 25 H        6.0840     2.8110    -3.8380 H     1 <1>   0.0800 
 26 H        6.2770     3.8120    -2.4340 H     1 <1>   0.0800 
 27 H        7.6320     2.1760    -0.0980 H     1 <1>   0.3700 
 28 H        3.6320     2.6690    -3.4200 H     1 <1>   0.0800 
 29 H        4.1610     4.3200    -3.6310 H     1 <1>   0.0800 
 30 H        3.8180     3.7160    -2.0310 H     1 <1>   0.0800 
 31 H        9.9580     0.8950    -1.4520 H     1 <1>   0.0800 
 32 H       10.2600    -0.4440     0.5030 H     1 <1>   0.0800 
 33 H        8.5380    -0.5920     0.2450 H     1 <1>   0.0800 
 34 H       10.0340     3.2780    -0.2340 H     1 <1>   0.0800 
 35 H       11.2460     2.0830     0.1630 H     1 <1>   0.0800 
 36 H        9.6090     0.2650     2.6190 H     1 <1>   0.0800 
 37 H        8.0740     0.8740     2.0380 H     1 <1>   0.0800 
 38 H        8.9500     2.9480     1.8380 H     1 <1>   0.0800 
 39 H       10.5300     2.3800     2.3340 H     1 <1>   0.0800 
@<TRIPOS>BOND
  1   1   2  1   
  2   2   3  ar  
  3   2   4  ar  
  4   3   5  ar  
  5   3  20  1   
  6   4   6  ar  
  7   4  21  1   
  8   5   7  ar  
  9   5  22  1   
 10   6   7  ar  
 11   6  23  1   
 12   7   8  1   
 13   8   9  1   
 14   9  10  1   
 15   9  11  1   
 16   9  24  1   
 17  10  12  2   
 18  10  13  am  
 19  11  14  1   
 20  11  25  1   
 21  11  26  1   
 22  13  15  1   
 23  13  27  1   
 24  14  28  1   
 25  14  29  1   
 26  14  30  1   
 27  15  16  1   
 28  15  17  1   
 29  15  31  1   
 30  16  18  1   
 31  16  32  1   
 32  16  33  1   
 33  17  19  1   
 34  17  34  1   
 35  17  35  1   
 36  18  19  1   
 37  18  36  1   
 38  18  37  1   
 39  19  38  1   
 40  19  39  1   
@<TRIPOS>SUBSTRUCTURE
  1 ****   7 GROUP 4 **** **** 0

# MOE 2024.06 (io_trps.svl 2023.06)
