@<TRIPOS>MOLECULE
NONAME
31 31 1 0 0 
SMALL
USER_CHARGES


@<TRIPOS>ATOM
  1 O       -0.6640    -0.0610     1.2100 O.2   1 <1>  -0.5700 
  2 C       -1.3850    -0.6770     0.4310 C.2   1 <1>   0.6250 
  3 O       -2.3210     0.0240    -0.2340 O.3   1 <1>  -0.4300 
  4 C       -1.2760    -2.0480     0.1820 C.3   1 <1>  -0.7150 
  5 C       -2.4870     1.4050    -0.0030 C.3   1 <1>   0.0400 
  6 C       -2.4050    -2.7330    -0.2660 C.2   1 <1>   0.6250 
  7 C       -0.0690    -2.7410     0.3860 C.2   1 <1>   0.3890 
  8 O       -2.4180    -3.4560    -1.2590 O.2   1 <1>  -0.5700 
  9 O       -3.5540    -2.5710     0.4140 O.3   1 <1>  -0.4300 
 10 O       -0.0980    -3.9280     0.7120 O.2   1 <1>  -0.5700 
 11 C        1.2400    -2.1280     0.2280 C.ar  1 <1>   0.0860 
 12 C       -4.7230    -3.2460     0.0090 C.3   1 <1>   0.0400 
 13 C        2.2890    -2.4230     1.0970 C.ar  1 <1>  -0.1500 
 14 C        1.5100    -1.2390    -0.8120 C.ar  1 <1>  -0.1500 
 15 C        3.5420    -1.8570     0.9430 C.ar  1 <1>  -0.1500 
 16 C        2.7600    -0.6690    -0.9740 C.ar  1 <1>  -0.1500 
 17 C        3.7860    -0.9730    -0.0950 C.ar  1 <1>  -0.1430 
 18 C        5.1570    -0.3480    -0.2700 C.3   1 <1>  -0.0970 
 19 H       -3.2850     1.7590    -0.6290 H     1 <1>   0.0800 
 20 H       -1.5670     1.9070    -0.2450 H     1 <1>   0.0800 
 21 H       -2.7300     1.5500     1.0350 H     1 <1>   0.0800 
 22 H       -5.5140    -2.9880     0.6870 H     1 <1>   0.0800 
 23 H       -4.5320    -4.3050     0.0370 H     1 <1>   0.0800 
 24 H       -4.9670    -2.9360    -0.9920 H     1 <1>   0.0800 
 25 H        2.0970    -3.1110     1.9010 H     1 <1>   0.1500 
 26 H        0.7130    -1.0030    -1.4950 H     1 <1>   0.1500 
 27 H        4.3230    -2.1110     1.6360 H     1 <1>   0.1500 
 28 H        2.9240     0.0140    -1.7870 H     1 <1>   0.1500 
 29 H        5.7490    -0.9520    -0.9340 H     1 <1>   0.0800 
 30 H        5.6610    -0.2760     0.6780 H     1 <1>   0.0800 
 31 H        5.0670     0.6400    -0.6820 H     1 <1>   0.0800 
@<TRIPOS>BOND
  1   1   2  2   
  2   2   3  1   
  3   2   4  1   
  4   3   5  1   
  5   4   6  1   
  6   4   7  1   
  7   5  19  1   
  8   5  20  1   
  9   5  21  1   
 10   6   8  2   
 11   6   9  1   
 12   7  10  2   
 13   7  11  1   
 14   9  12  1   
 15  11  13  ar  
 16  11  14  ar  
 17  12  22  1   
 18  12  23  1   
 19  12  24  1   
 20  13  15  ar  
 21  13  25  1   
 22  14  16  ar  
 23  14  26  1   
 24  15  17  ar  
 25  15  27  1   
 26  16  17  ar  
 27  16  28  1   
 28  17  18  1   
 29  18  29  1   
 30  18  30  1   
 31  18  31  1   
@<TRIPOS>SUBSTRUCTURE
  1 ****   7 GROUP 4 **** **** 0

# MOE 2024.06 (io_trps.svl 2023.06)
