@<TRIPOS>MOLECULE
NONAME
27 27 1 0 0 
SMALL
USER_CHARGES


@<TRIPOS>ATOM
  1 O       -0.5990     0.0630     0.8950 O.2   1 <1>  -0.5700 
  2 C       -1.3920    -0.5810     0.2820 C.2   1 <1>   0.4480 
  3 C       -2.7040     0.0310    -0.1660 C.3   1 <1>  -0.0990 
  4 C       -1.1330    -2.0260    -0.0770 C.3   1 <1>  -0.1790 
  5 C       -2.7510     1.4930     0.2850 C.3   1 <1>   0.3430 
  6 N       -3.9840     2.1910    -0.1910 N.4   1 <1>  -0.9590 
  7 C       -3.8440     3.6760     0.0240 C.3   1 <1>   0.3430 
  8 C       -5.2350     1.6940     0.4880 C.3   1 <1>   0.3430 
  9 C       -5.1350     4.4290    -0.3490 C.3   1 <1>   0.1200 
 10 C       -6.4660     2.5330     0.0950 C.3   1 <1>   0.1200 
 11 O       -6.2260     3.8880     0.3380 O.3   1 <1>  -0.5600 
 12 H       -3.5060    -0.5300     0.2750 H     1 <1>   0.0800 
 13 H       -2.7620    -0.0290    -1.2370 H     1 <1>   0.0800 
 14 H       -1.8830    -2.6590     0.3590 H     1 <1>   0.0800 
 15 H       -0.1710    -2.3240     0.3010 H     1 <1>   0.0800 
 16 H       -1.1340    -2.1510    -1.1440 H     1 <1>   0.0800 
 17 H       -1.8790     1.9940    -0.1050 H     1 <1>   0.0800 
 18 H       -2.6920     1.5370     1.3620 H     1 <1>   0.0800 
 19 H       -4.0860     2.0400    -1.2030 H     1 <1>   0.4500 
 20 H       -3.0260     4.0590    -0.5640 H     1 <1>   0.0800 
 21 H       -3.6260     3.8750     1.0610 H     1 <1>   0.0800 
 22 H       -5.1160     1.7520     1.5580 H     1 <1>   0.0800 
 23 H       -5.4140     0.6640     0.2300 H     1 <1>   0.0800 
 24 H       -5.3290     4.3760    -1.4060 H     1 <1>   0.0800 
 25 H       -5.0540     5.4650    -0.0680 H     1 <1>   0.0800 
 26 H       -7.3180     2.2420     0.6850 H     1 <1>   0.0800 
 27 H       -6.7120     2.4050    -0.9460 H     1 <1>   0.0800 
@<TRIPOS>BOND
  1   1   2  2   
  2   2   3  1   
  3   2   4  1   
  4   3   5  1   
  5   3  12  1   
  6   3  13  1   
  7   4  14  1   
  8   4  15  1   
  9   4  16  1   
 10   5   6  1   
 11   5  17  1   
 12   5  18  1   
 13   6   7  1   
 14   6   8  1   
 15   6  19  1   
 16   7   9  1   
 17   7  20  1   
 18   7  21  1   
 19   8  10  1   
 20   8  22  1   
 21   8  23  1   
 22   9  11  1   
 23   9  24  1   
 24   9  25  1   
 25  10  11  1   
 26  10  26  1   
 27  10  27  1   
@<TRIPOS>SUBSTRUCTURE
  1 ****   6 GROUP 4 **** **** 0

# MOE 2024.06 (io_trps.svl 2023.06)
