@<TRIPOS>MOLECULE
NONAME
52 54 1 0 0 
SMALL
USER_CHARGES


@<TRIPOS>ATOM
  1 O       -0.2070    -0.8710    -1.5180 O.2   1 <1>  -0.5700 
  2 C        0.1630    -1.8280    -0.8790 C.2   1 <1>   0.5690 
  3 N        1.3770    -1.9540    -0.2600 N.am  1 <1>  -0.2370 
  4 C       -0.6720    -3.1120    -0.7390 C.3   1 <1>   0.2510 
  5 C        2.3410    -0.9270    -0.1160 C.ar  1 <1>   0.1170 
  6 C        1.5300    -3.2410     0.1770 C.2   1 <1>   0.5690 
  7 N       -1.8420    -3.0500     0.1890 N.3   1 <1>  -0.8100 
  8 C        0.3520    -4.1080    -0.1810 C.3   1 <1>  -0.0990 
  9 C        2.9370    -0.6830     1.1190 C.ar  1 <1>  -0.1500 
 10 C        2.7170    -0.1390    -1.2010 C.ar  1 <1>  -0.1500 
 11 O        2.4790    -3.6910     0.7640 O.2   1 <1>  -0.5700 
 12 C       -2.7140    -4.2430     0.0250 C.3   1 <1>   0.1100 
 13 C       -2.6490    -1.8130     0.0050 C.3   1 <1>   0.1100 
 14 C        3.8790     0.3200     1.2670 C.ar  1 <1>  -0.1500 
 15 C        3.6580     0.8670    -1.0610 C.ar  1 <1>  -0.1500 
 16 C       -3.9000    -4.2330     1.0010 C.3   1 <1>   0.1400 
 17 C       -3.8540    -1.7500     0.9590 C.3   1 <1>   0.1400 
 18 C        4.2360     1.0920     0.1770 C.ar  1 <1>   0.0830 
 19 N       -4.6840    -2.9810     0.8340 N.am  1 <1>  -0.6600 
 20 O        5.1500     2.0630     0.3310 O.3   1 <1>  -0.5320 
 21 C       -5.9920    -2.9850     0.4320 C.2   1 <1>   0.7800 
 22 O       -6.6030    -4.0180     0.2420 O.2   1 <1>  -0.5700 
 23 O       -6.5720    -1.7970     0.2410 O.3   1 <1>  -0.4300 
 24 C       -7.8920    -1.5460    -0.1900 C.3   1 <1>   0.2800 
 25 C       -8.0110    -0.0220    -0.2360 C.3   1 <1>  -0.2400 
 26 C       -8.8970    -2.1010     0.8250 C.3   1 <1>  -0.2400 
 27 C       -8.1070    -2.1120    -1.5990 C.3   1 <1>  -0.2400 
 28 H       -1.0010    -3.4090    -1.7200 H     1 <1>   0.0800 
 29 H        0.6520    -4.8130    -0.9330 H     1 <1>   0.0800 
 30 H        0.0080    -4.6250     0.6960 H     1 <1>   0.0800 
 31 H        2.6680    -1.2830     1.9700 H     1 <1>   0.1500 
 32 H        2.2680    -0.3090    -2.1640 H     1 <1>   0.1500 
 33 H       -2.1480    -5.1410     0.1960 H     1 <1>   0.0800 
 34 H       -3.0990    -4.2800    -0.9810 H     1 <1>   0.0800 
 35 H       -3.0000    -1.7500    -1.0110 H     1 <1>   0.0800 
 36 H       -2.0410    -0.9470     0.2010 H     1 <1>   0.0800 
 37 H        4.3390     0.5060     2.2210 H     1 <1>   0.1500 
 38 H        3.9320     1.4650    -1.9100 H     1 <1>   0.1500 
 39 H       -3.5350    -4.2910     2.0110 H     1 <1>   0.0800 
 40 H       -4.5200    -5.0940     0.8210 H     1 <1>   0.0800 
 41 H       -4.4330    -0.8710     0.7390 H     1 <1>   0.0800 
 42 H       -3.5000    -1.6670     1.9710 H     1 <1>   0.0800 
 43 H        5.3310     2.5490    -0.4920 H     1 <1>   0.4500 
 44 H       -7.2930     0.3870    -0.9240 H     1 <1>   0.0800 
 45 H       -7.8400     0.3950     0.7400 H     1 <1>   0.0800 
 46 H       -8.9940     0.2660    -0.5600 H     1 <1>   0.0800 
 47 H       -8.6700    -1.7400     1.8120 H     1 <1>   0.0800 
 48 H       -8.8890    -3.1750     0.8320 H     1 <1>   0.0800 
 49 H       -9.8920    -1.7860     0.5670 H     1 <1>   0.0800 
 50 H       -7.3410    -1.7580    -2.2650 H     1 <1>   0.0800 
 51 H       -9.0610    -1.7980    -1.9780 H     1 <1>   0.0800 
 52 H       -8.1000    -3.1860    -1.5900 H     1 <1>   0.0800 
@<TRIPOS>BOND
  1   1   2  2   
  2   2   3  am  
  3   2   4  1   
  4   3   5  1   
  5   3   6  am  
  6   4   7  1   
  7   4   8  1   
  8   4  28  1   
  9   5   9  ar  
 10   5  10  ar  
 11   6   8  1   
 12   6  11  2   
 13   7  12  1   
 14   7  13  1   
 15   8  29  1   
 16   8  30  1   
 17   9  14  ar  
 18   9  31  1   
 19  10  15  ar  
 20  10  32  1   
 21  12  16  1   
 22  12  33  1   
 23  12  34  1   
 24  13  17  1   
 25  13  35  1   
 26  13  36  1   
 27  14  18  ar  
 28  14  37  1   
 29  15  18  ar  
 30  15  38  1   
 31  16  19  1   
 32  16  39  1   
 33  16  40  1   
 34  17  19  1   
 35  17  41  1   
 36  17  42  1   
 37  18  20  1   
 38  19  21  am  
 39  20  43  1   
 40  21  22  2   
 41  21  23  1   
 42  23  24  1   
 43  24  25  1   
 44  24  26  1   
 45  24  27  1   
 46  25  44  1   
 47  25  45  1   
 48  25  46  1   
 49  26  47  1   
 50  26  48  1   
 51  26  49  1   
 52  27  50  1   
 53  27  51  1   
 54  27  52  1   
@<TRIPOS>SUBSTRUCTURE
  1 ****  13 GROUP 4 **** **** 0

# MOE 2024.06 (io_trps.svl 2023.06)
