@<TRIPOS>MOLECULE
NONAME
46 47 1 0 0 
SMALL
USER_CHARGES


@<TRIPOS>ATOM
  1 S       -0.2950    -0.0420     0.2010 S.o2  1 <1>   1.3330 
  2 O       -1.0410     0.8470    -0.6610 O.2   1 <1>  -0.6500 
  3 O       -0.1210     0.2860     1.5980 O.2   1 <1>  -0.6500 
  4 N       -1.0150    -1.5760     0.1210 N.am  1 <1>  -0.8490 
  5 C        1.3120    -0.3170    -0.5530 C.3   1 <1>  -0.0550 
  6 C       -2.4860    -1.4810     0.1220 C.3   1 <1>   0.1960 
  7 C       -0.5650    -2.4580     1.2050 C.3   1 <1>   0.1960 
  8 C        2.1850     0.9470    -0.6260 C.3   1 <1>  -0.1600 
  9 C       -3.1140    -2.8580    -0.1400 C.3   1 <1>  -0.0190 
 10 C       -1.1010    -3.8770     0.9840 C.3   1 <1>  -0.1600 
 11 C        3.5410     0.6530    -1.2740 C.3   1 <1>  -0.2400 
 12 C       -4.6330    -2.7500    -0.1480 C.2   1 <1>   0.5690 
 13 C       -2.6330    -3.8860     0.9000 C.3   1 <1>  -0.1600 
 14 O       -5.1740    -2.1600     0.7550 O.2   1 <1>  -0.5700 
 15 N       -5.3080    -3.3530    -1.1760 N.am  1 <1>  -0.5470 
 16 C       -6.6800    -3.4290    -1.4640 C.ar  1 <1>   0.1170 
 17 C       -7.6170    -2.5290    -0.9620 C.ar  1 <1>  -0.1500 
 18 C       -7.1260    -4.4410    -2.3050 C.ar  1 <1>  -0.1500 
 19 C       -8.9600    -2.6370    -1.2830 C.ar  1 <1>  -0.1440 
 20 C       -8.4650    -4.5570    -2.6320 C.ar  1 <1>  -0.1500 
 21 C       -9.3820    -3.6560    -2.1200 C.ar  1 <1>  -0.1500 
 22 C       -9.9700    -1.6510    -0.7230 C.3   1 <1>  -0.0970 
 23 H        1.1650    -0.6920    -1.5470 H     1 <1>   0.0800 
 24 H        1.8390    -1.0650     0.0040 H     1 <1>   0.0800 
 25 H       -2.8120    -0.8080    -0.6540 H     1 <1>   0.0800 
 26 H       -2.8260    -1.0860     1.0670 H     1 <1>   0.0800 
 27 H       -0.9110    -2.0810     2.1540 H     1 <1>   0.0800 
 28 H        0.5110    -2.4890     1.2310 H     1 <1>   0.0800 
 29 H        2.3390     1.3330     0.3690 H     1 <1>   0.0800 
 30 H        1.6710     1.7030    -1.1960 H     1 <1>   0.0800 
 31 H       -2.7900    -3.1730    -1.1150 H     1 <1>   0.0800 
 32 H       -0.7810    -4.5070     1.7960 H     1 <1>   0.0800 
 33 H       -0.6800    -4.2710     0.0760 H     1 <1>   0.0800 
 34 H        4.0820    -0.0840    -0.7050 H     1 <1>   0.0800 
 35 H        4.1310     1.5520    -1.3140 H     1 <1>   0.0800 
 36 H        3.4090     0.2890    -2.2790 H     1 <1>   0.0800 
 37 H       -2.9830    -4.8700     0.6410 H     1 <1>   0.0800 
 38 H       -3.0410    -3.6310     1.8650 H     1 <1>   0.0800 
 39 H       -4.7220    -3.8700    -1.8270 H     1 <1>   0.3700 
 40 H       -7.2950    -1.7340    -0.3170 H     1 <1>   0.1500 
 41 H       -6.4270    -5.1500    -2.7080 H     1 <1>   0.1500 
 42 H       -8.7980    -5.3470    -3.2820 H     1 <1>   0.1500 
 43 H      -10.4230    -3.7510    -2.3740 H     1 <1>   0.1500 
 44 H       -9.4740    -0.8220    -0.2510 H     1 <1>   0.0800 
 45 H      -10.5910    -2.1410     0.0050 H     1 <1>   0.0800 
 46 H      -10.5920    -1.2710    -1.5140 H     1 <1>   0.0800 
@<TRIPOS>BOND
  1   1   2  2   
  2   1   3  2   
  3   1   4  am  
  4   1   5  1   
  5   4   6  1   
  6   4   7  1   
  7   5   8  1   
  8   5  23  1   
  9   5  24  1   
 10   6   9  1   
 11   6  25  1   
 12   6  26  1   
 13   7  10  1   
 14   7  27  1   
 15   7  28  1   
 16   8  11  1   
 17   8  29  1   
 18   8  30  1   
 19   9  12  1   
 20   9  13  1   
 21   9  31  1   
 22  10  13  1   
 23  10  32  1   
 24  10  33  1   
 25  11  34  1   
 26  11  35  1   
 27  11  36  1   
 28  12  14  2   
 29  12  15  am  
 30  13  37  1   
 31  13  38  1   
 32  15  16  1   
 33  15  39  1   
 34  16  17  ar  
 35  16  18  ar  
 36  17  19  ar  
 37  17  40  1   
 38  18  20  ar  
 39  18  41  1   
 40  19  21  ar  
 41  19  22  1   
 42  20  21  ar  
 43  20  42  1   
 44  21  43  1   
 45  22  44  1   
 46  22  45  1   
 47  22  46  1   
@<TRIPOS>SUBSTRUCTURE
  1 ****   9 GROUP 4 **** **** 0

# MOE 2024.06 (io_trps.svl 2023.06)
