@<TRIPOS>MOLECULE
NONAME
42 44 1 0 0 
SMALL
USER_CHARGES


@<TRIPOS>ATOM
  1 S       -0.5360    -1.3530     2.7360 S.3   1 <1>  -0.0800 
  2 C       -0.7330    -1.5390     0.9950 C.2   1 <1>   0.3250 
  3 C        0.9950    -2.1620     2.6560 C.2   1 <1>  -0.1100 
  4 N        0.2650    -2.1500     0.4540 N.2   1 <1>  -0.5650 
  5 C       -1.9280    -1.0300     0.3570 C.ar  1 <1>   0.0530 
  6 C        1.2370    -2.4960     1.3800 C.2   1 <1>   0.0460 
  7 C       -2.2800    -1.4710    -0.9200 C.ar  1 <1>  -0.1500 
  8 C       -2.7720    -0.0900     0.9570 C.ar  1 <1>  -0.1500 
  9 C        2.4800    -3.2280     0.8840 C.3   1 <1>   0.2910 
 10 C       -3.4120    -1.0070    -1.5660 C.ar  1 <1>  -0.1500 
 11 C       -3.9050     0.3780     0.3170 C.ar  1 <1>  -0.1500 
 12 N        3.5420    -2.3000     0.4130 N.3   1 <1>  -0.8100 
 13 C       -4.2290    -0.0800    -0.9470 C.ar  1 <1>  -0.1500 
 14 C        4.7480    -3.0390    -0.0210 C.3   1 <1>   0.1100 
 15 C        3.0540    -1.4090    -0.6750 C.3   1 <1>   0.1100 
 16 C        5.9000    -2.0850    -0.4290 C.3   1 <1>   0.3430 
 17 C        4.1790    -0.5750    -1.3300 C.3   1 <1>   0.3430 
 18 N        5.4370    -0.6580    -0.5210 N.4   1 <1>  -0.9590 
 19 C        6.4740     0.3070    -0.9600 C.3   1 <1>   0.3430 
 20 C        7.5490     0.4300     0.1120 C.3   1 <1>  -0.2400 
 21 H        1.5460    -2.2980     3.5680 H     1 <1>   0.1500 
 22 H       -1.6540    -2.1950    -1.4130 H     1 <1>   0.1500 
 23 H       -2.5460     0.2900     1.9360 H     1 <1>   0.1500 
 24 H        2.1950    -3.9020     0.0940 H     1 <1>   0.0800 
 25 H        2.8700    -3.8150     1.6960 H     1 <1>   0.0800 
 26 H       -3.6580    -1.3680    -2.5500 H     1 <1>   0.1500 
 27 H       -4.5380     1.1010     0.8030 H     1 <1>   0.1500 
 28 H       -5.1110     0.2840    -1.4460 H     1 <1>   0.1500 
 29 H        4.5040    -3.6730    -0.8570 H     1 <1>   0.0800 
 30 H        5.0930    -3.6740     0.7770 H     1 <1>   0.0800 
 31 H        2.3300    -0.7230    -0.2680 H     1 <1>   0.0800 
 32 H        2.5520    -1.9860    -1.4340 H     1 <1>   0.0800 
 33 H        6.3060    -2.4060    -1.3740 H     1 <1>   0.0800 
 34 H        6.6850    -2.1620     0.3050 H     1 <1>   0.0800 
 35 H        3.8510     0.4480    -1.4130 H     1 <1>   0.0800 
 36 H        4.3600    -0.9450    -2.3260 H     1 <1>   0.0800 
 37 H        5.1260    -0.4310     0.4360 H     1 <1>   0.4500 
 38 H        6.0230     1.2750    -1.1150 H     1 <1>   0.0800 
 39 H        6.9120    -0.0140    -1.8920 H     1 <1>   0.0800 
 40 H        7.1180     0.7210     1.0540 H     1 <1>   0.0800 
 41 H        8.2510     1.1920    -0.1800 H     1 <1>   0.0800 
 42 H        8.0950    -0.4880     0.2290 H     1 <1>   0.0800 
@<TRIPOS>BOND
  1   1   2  1   
  2   1   3  1   
  3   2   4  2   
  4   2   5  1   
  5   3   6  2   
  6   3  21  1   
  7   4   6  1   
  8   5   7  ar  
  9   5   8  ar  
 10   6   9  1   
 11   7  10  ar  
 12   7  22  1   
 13   8  11  ar  
 14   8  23  1   
 15   9  12  1   
 16   9  24  1   
 17   9  25  1   
 18  10  13  ar  
 19  10  26  1   
 20  11  13  ar  
 21  11  27  1   
 22  12  14  1   
 23  12  15  1   
 24  13  28  1   
 25  14  16  1   
 26  14  29  1   
 27  14  30  1   
 28  15  17  1   
 29  15  31  1   
 30  15  32  1   
 31  16  18  1   
 32  16  33  1   
 33  16  34  1   
 34  17  18  1   
 35  17  35  1   
 36  17  36  1   
 37  18  19  1   
 38  18  37  1   
 39  19  20  1   
 40  19  38  1   
 41  19  39  1   
 42  20  40  1   
 43  20  41  1   
 44  20  42  1   
@<TRIPOS>SUBSTRUCTURE
  1 ****   4 GROUP 4 **** **** 0

# MOE 2024.06 (io_trps.svl 2023.06)
