@<TRIPOS>MOLECULE
NONAME
48 49 1 0 0 
SMALL
USER_CHARGES


@<TRIPOS>ATOM
  1 O      -13.7540     0.1910    -0.3720 O.3   1 <1>  -0.3630 
  2 C      -14.9900    -0.3410    -0.1830 C.ar  1 <1>   0.0830 
  3 C      -12.5950    -0.5110     0.0260 C.3   1 <1>   0.1200 
  4 C      -16.0670     0.4220    -0.6060 C.ar  1 <1>  -0.1500 
  5 C      -15.2200    -1.5840     0.4010 C.ar  1 <1>  -0.1500 
  6 C      -11.3770     0.3390    -0.3200 C.3   1 <1>   0.1200 
  7 C      -17.3630    -0.0390    -0.4540 C.ar  1 <1>  -0.1500 
  8 C      -16.5160    -2.0450     0.5530 C.ar  1 <1>  -0.1500 
  9 O      -10.2310    -0.3470     0.0800 O.3   1 <1>  -0.5600 
 10 C      -17.5930    -1.2820     0.1300 C.ar  1 <1>   0.0830 
 11 C       -9.0460     0.3280    -0.1910 C.3   1 <1>   0.1200 
 12 O      -18.8300    -1.8130     0.3190 O.3   1 <1>  -0.3630 
 13 C       -7.8830    -0.5660     0.2460 C.3   1 <1>   0.1100 
 14 C      -19.9890    -1.1150    -0.0780 C.3   1 <1>   0.0400 
 15 N       -6.5700     0.0620    -0.0230 N.3   1 <1>  -0.8100 
 16 C       -6.2560     1.1450     0.9460 C.3   1 <1>   0.1100 
 17 C       -5.4940    -0.9590    -0.0110 C.3   1 <1>   0.1100 
 18 C       -4.8500     1.7570     0.7230 C.3   1 <1>   0.3430 
 19 C       -4.0960    -0.3540    -0.2990 C.3   1 <1>   0.3430 
 20 N       -4.1710     1.1360    -0.4610 N.4   1 <1>  -0.9590 
 21 C       -2.8620     1.7640    -0.7980 C.3   1 <1>   0.2630 
 22 H      -12.5620    -1.4440    -0.5080 H     1 <1>   0.0800 
 23 H      -12.6460    -0.6750     1.0880 H     1 <1>   0.0800 
 24 H      -15.8820     1.3810    -1.0560 H     1 <1>   0.1500 
 25 H      -14.4120    -2.2030     0.7410 H     1 <1>   0.1500 
 26 H      -11.4200     1.2780     0.2060 H     1 <1>   0.0800 
 27 H      -11.3310     0.5020    -1.3830 H     1 <1>   0.0800 
 28 H      -18.1720     0.5790    -0.7930 H     1 <1>   0.1500 
 29 H      -16.7040    -3.0030     1.0030 H     1 <1>   0.1500 
 30 H       -9.0520     1.2530     0.3570 H     1 <1>   0.0800 
 31 H       -8.9900     0.5170    -1.2500 H     1 <1>   0.0800 
 32 H       -7.9590    -1.4840    -0.3130 H     1 <1>   0.0800 
 33 H       -7.9780    -0.7970     1.2940 H     1 <1>   0.0800 
 34 H      -20.8430    -1.7200     0.1670 H     1 <1>   0.0800 
 35 H      -19.9510    -0.9490    -1.1400 H     1 <1>   0.0800 
 36 H      -20.0360    -0.1830     0.4570 H     1 <1>   0.0800 
 37 H       -6.3160     0.7650     1.9530 H     1 <1>   0.0800 
 38 H       -6.9860     1.9310     0.8570 H     1 <1>   0.0800 
 39 H       -5.7040    -1.7070    -0.7570 H     1 <1>   0.0800 
 40 H       -5.4720    -1.4560     0.9440 H     1 <1>   0.0800 
 41 H       -4.2550     1.6060     1.6090 H     1 <1>   0.0800 
 42 H       -4.9510     2.8190     0.5740 H     1 <1>   0.0800 
 43 H       -3.7030    -0.8000    -1.1970 H     1 <1>   0.0800 
 44 H       -3.4300    -0.6050     0.5100 H     1 <1>   0.0800 
 45 H       -4.8520     1.2630    -1.2300 H     1 <1>   0.4500 
 46 H       -2.1610     1.6240     0.0090 H     1 <1>   0.0800 
 47 H       -2.9880     2.8210    -0.9680 H     1 <1>   0.0800 
 48 H       -2.4540     1.3200    -1.6920 H     1 <1>   0.0800 
@<TRIPOS>BOND
  1   1   2  1   
  2   1   3  1   
  3   2   4  ar  
  4   2   5  ar  
  5   3   6  1   
  6   3  22  1   
  7   3  23  1   
  8   4   7  ar  
  9   4  24  1   
 10   5   8  ar  
 11   5  25  1   
 12   6   9  1   
 13   6  26  1   
 14   6  27  1   
 15   7  10  ar  
 16   7  28  1   
 17   8  10  ar  
 18   8  29  1   
 19   9  11  1   
 20  10  12  1   
 21  11  13  1   
 22  11  30  1   
 23  11  31  1   
 24  12  14  1   
 25  13  15  1   
 26  13  32  1   
 27  13  33  1   
 28  14  34  1   
 29  14  35  1   
 30  14  36  1   
 31  15  16  1   
 32  15  17  1   
 33  16  18  1   
 34  16  37  1   
 35  16  38  1   
 36  17  19  1   
 37  17  39  1   
 38  17  40  1   
 39  18  20  1   
 40  18  41  1   
 41  18  42  1   
 42  19  20  1   
 43  19  43  1   
 44  19  44  1   
 45  20  21  1   
 46  20  45  1   
 47  21  46  1   
 48  21  47  1   
 49  21  48  1   
@<TRIPOS>SUBSTRUCTURE
  1 ****   6 GROUP 4 **** **** 0

# MOE 2024.06 (io_trps.svl 2023.06)
