@<TRIPOS>MOLECULE
NONAME
41 41 1 0 0 
SMALL
USER_CHARGES


@<TRIPOS>ATOM
  1 O        2.6850    -1.8990     1.0940 O.2   1 <1>  -0.5700 
  2 C        1.7430    -1.8360     0.3450 C.2   1 <1>   0.6590 
  3 O        0.9940    -2.8810     0.0330 O.3   1 <1>  -0.4300 
  4 C        1.3440    -0.5380    -0.3070 C.3   1 <1>  -0.1790 
  5 C        1.1670    -4.1530     0.6200 C.3   1 <1>   0.4000 
  6 C        2.4950    -4.7050     0.2080 C.1   1 <1>  -0.2000 
  7 C        0.0210    -5.0640     0.1630 C.3   1 <1>  -0.1600 
  8 C        3.6220    -4.9850    -0.0430 C.1   1 <1>  -0.2000 
  9 C       -1.3660    -4.5410     0.5760 C.3   1 <1>  -0.1600 
 10 C        5.0820    -5.1230    -0.2660 C.3   1 <1>   0.5430 
 11 C       -2.4690    -5.5120     0.1450 C.3   1 <1>  -0.2400 
 12 N        5.6700    -3.7670    -0.1280 N.4   1 <1>  -0.9590 
 13 C        7.0550    -3.7040    -0.6680 C.3   1 <1>   0.3430 
 14 C        5.5760    -3.2550     1.2760 C.3   1 <1>   0.3430 
 15 C        7.5540    -2.2580    -0.6470 C.3   1 <1>  -0.1600 
 16 C        6.0610    -1.8060     1.3310 C.3   1 <1>  -0.1600 
 17 C        7.4760    -1.6510     0.7600 C.3   1 <1>  -0.1600 
 18 H        0.3410    -0.2870    -0.0190 H     1 <1>   0.0800 
 19 H        1.3910    -0.6410    -1.3740 H     1 <1>   0.0800 
 20 H        2.0070     0.2480     0.0040 H     1 <1>   0.0800 
 21 H        1.1360    -4.0300     1.6900 H     1 <1>   0.0800 
 22 H        0.1690    -6.0370     0.5980 H     1 <1>   0.0800 
 23 H        0.0660    -5.1760    -0.9060 H     1 <1>   0.0800 
 24 H       -1.5470    -3.5830     0.1190 H     1 <1>   0.0800 
 25 H       -1.4050    -4.4140     1.6440 H     1 <1>   0.0800 
 26 H        5.2560    -5.5080    -1.2570 H     1 <1>   0.0800 
 27 H        5.5110    -5.7990     0.4560 H     1 <1>   0.0800 
 28 H       -2.4640    -5.6380    -0.9230 H     1 <1>   0.0800 
 29 H       -3.4310    -5.1300     0.4380 H     1 <1>   0.0800 
 30 H       -2.3290    -6.4740     0.6080 H     1 <1>   0.0800 
 31 H        5.0700    -3.1450    -0.6830 H     1 <1>   0.4500 
 32 H        7.0760    -4.0730    -1.6810 H     1 <1>   0.0800 
 33 H        7.7090    -4.3160    -0.0680 H     1 <1>   0.0800 
 34 H        6.1810    -3.8630     1.9300 H     1 <1>   0.0800 
 35 H        4.5550    -3.2970     1.6220 H     1 <1>   0.0800 
 36 H        6.9710    -1.6680    -1.3330 H     1 <1>   0.0800 
 37 H        8.5740    -2.2320    -0.9890 H     1 <1>   0.0800 
 38 H        6.0480    -1.4720     2.3540 H     1 <1>   0.0800 
 39 H        5.3730    -1.1830     0.7860 H     1 <1>   0.0800 
 40 H        7.7430    -0.6070     0.7240 H     1 <1>   0.0800 
 41 H        8.1810    -2.1460     1.4070 H     1 <1>   0.0800 
@<TRIPOS>BOND
  1   1   2  2   
  2   2   3  1   
  3   2   4  1   
  4   3   5  1   
  5   4  18  1   
  6   4  19  1   
  7   4  20  1   
  8   5   6  1   
  9   5   7  1   
 10   5  21  1   
 11   6   8  3   
 12   7   9  1   
 13   7  22  1   
 14   7  23  1   
 15   8  10  1   
 16   9  11  1   
 17   9  24  1   
 18   9  25  1   
 19  10  12  1   
 20  10  26  1   
 21  10  27  1   
 22  11  28  1   
 23  11  29  1   
 24  11  30  1   
 25  12  13  1   
 26  12  14  1   
 27  12  31  1   
 28  13  15  1   
 29  13  32  1   
 30  13  33  1   
 31  14  16  1   
 32  14  34  1   
 33  14  35  1   
 34  15  17  1   
 35  15  36  1   
 36  15  37  1   
 37  16  17  1   
 38  16  38  1   
 39  16  39  1   
 40  17  40  1   
 41  17  41  1   
@<TRIPOS>SUBSTRUCTURE
  1 ****   6 GROUP 4 **** **** 0

# MOE 2024.06 (io_trps.svl 2023.06)
