@<TRIPOS>MOLECULE
NONAME
47 48 1 0 0 
SMALL
USER_CHARGES


@<TRIPOS>ATOM
  1 S       -0.1870     0.2590     0.4430 S.o2  1 <1>   1.3330 
  2 O        0.3730    -0.4880    -0.6620 O.2   1 <1>  -0.6500 
  3 O        0.1790    -0.0830     1.7990 O.2   1 <1>  -0.6500 
  4 N       -1.8760     0.1590     0.3140 N.am  1 <1>  -0.8490 
  5 C        0.1310     2.0110     0.2090 C.3   1 <1>  -0.0550 
  6 C       -2.3990    -0.9960     1.0520 C.3   1 <1>   0.1960 
  7 C       -2.3200     0.1220    -1.0840 C.3   1 <1>   0.1960 
  8 C        1.6200     2.3880     0.2940 C.3   1 <1>  -0.1600 
  9 C       -3.9290    -0.9530     1.0750 C.3   1 <1>  -0.1600 
 10 C       -3.8440     0.2350    -1.1480 C.3   1 <1>  -0.1600 
 11 C        1.8270     3.8910     0.0850 C.3   1 <1>  -0.2400 
 12 C       -4.5130    -0.8960    -0.3480 C.3   1 <1>  -0.0190 
 13 C       -6.0340    -0.7680    -0.3470 C.2   1 <1>   0.5690 
 14 O       -6.6750    -1.6180    -0.9130 O.2   1 <1>  -0.5700 
 15 N       -6.5860     0.3130     0.2850 N.am  1 <1>  -0.5470 
 16 C       -7.9190     0.7200     0.4620 C.ar  1 <1>   0.1170 
 17 C       -9.0130    -0.1150     0.2500 C.ar  1 <1>  -0.1500 
 18 C       -8.1590     2.0230     0.8820 C.ar  1 <1>  -0.1500 
 19 C      -10.3060     0.3380     0.4460 C.ar  1 <1>  -0.1500 
 20 C       -9.4480     2.4810     1.0810 C.ar  1 <1>  -0.1500 
 21 C      -10.5310     1.6460     0.8640 C.ar  1 <1>   0.0820 
 22 O      -11.7650     2.1730     1.0810 O.3   1 <1>  -0.3630 
 23 C      -12.9280     1.4040     0.8660 C.3   1 <1>   0.0400 
 24 H       -0.4070     2.5600     0.9580 H     1 <1>   0.0800 
 25 H       -0.2440     2.3120    -0.7490 H     1 <1>   0.0800 
 26 H       -2.0460    -0.9760     2.0700 H     1 <1>   0.0800 
 27 H       -2.0530    -1.9110     0.5960 H     1 <1>   0.0800 
 28 H       -1.9990    -0.7960    -1.5510 H     1 <1>   0.0800 
 29 H       -1.8850     0.9420    -1.6300 H     1 <1>   0.0800 
 30 H        2.1700     1.8410    -0.4550 H     1 <1>   0.0800 
 31 H        2.0040     2.1030     1.2590 H     1 <1>   0.0800 
 32 H       -4.2300    -0.0940     1.6460 H     1 <1>   0.0800 
 33 H       -4.2990    -1.8280     1.5800 H     1 <1>   0.0800 
 34 H       -4.1610     0.1830    -2.1750 H     1 <1>   0.0800 
 35 H       -4.1330     1.1960    -0.7620 H     1 <1>   0.0800 
 36 H        1.4720     4.1920    -0.8850 H     1 <1>   0.0800 
 37 H        2.8750     4.1280     0.1520 H     1 <1>   0.0800 
 38 H        1.3040     4.4540     0.8390 H     1 <1>   0.0800 
 39 H       -4.2740    -1.8260    -0.8360 H     1 <1>   0.0800 
 40 H       -5.9020     0.9540     0.6800 H     1 <1>   0.3700 
 41 H       -8.8640    -1.1300    -0.0680 H     1 <1>   0.1500 
 42 H       -7.3350     2.6910     1.0540 H     1 <1>   0.1500 
 43 H      -11.1180    -0.3410     0.2680 H     1 <1>   0.1500 
 44 H       -9.6260     3.4900     1.4040 H     1 <1>   0.1500 
 45 H      -13.7800     2.0200     1.0890 H     1 <1>   0.0800 
 46 H      -12.9100     0.5530     1.5220 H     1 <1>   0.0800 
 47 H      -12.9570     1.0980    -0.1650 H     1 <1>   0.0800 
@<TRIPOS>BOND
  1   1   2  2   
  2   1   3  2   
  3   1   4  am  
  4   1   5  1   
  5   4   6  1   
  6   4   7  1   
  7   5   8  1   
  8   5  24  1   
  9   5  25  1   
 10   6   9  1   
 11   6  26  1   
 12   6  27  1   
 13   7  10  1   
 14   7  28  1   
 15   7  29  1   
 16   8  11  1   
 17   8  30  1   
 18   8  31  1   
 19   9  12  1   
 20   9  32  1   
 21   9  33  1   
 22  10  12  1   
 23  10  34  1   
 24  10  35  1   
 25  11  36  1   
 26  11  37  1   
 27  11  38  1   
 28  12  13  1   
 29  12  39  1   
 30  13  14  2   
 31  13  15  am  
 32  15  16  1   
 33  15  40  1   
 34  16  17  ar  
 35  16  18  ar  
 36  17  19  ar  
 37  17  41  1   
 38  18  20  ar  
 39  18  42  1   
 40  19  21  ar  
 41  19  43  1   
 42  20  21  ar  
 43  20  44  1   
 44  21  22  1   
 45  22  23  1   
 46  23  45  1   
 47  23  46  1   
 48  23  47  1   
@<TRIPOS>SUBSTRUCTURE
  1 ****  15 GROUP 4 **** **** 0

# MOE 2024.06 (io_trps.svl 2023.06)
