@<TRIPOS>MOLECULE
NONAME
41 42 1 0 0 
SMALL
USER_CHARGES


@<TRIPOS>ATOM
  1 S       -0.5880     0.4980     1.4830 S.3   1 <1>  -0.0800 
  2 C        0.5150     1.1910     0.3000 C.2   1 <1>   0.1040 
  3 C       -1.8860     1.5470     0.9560 C.2   1 <1>  -0.1400 
  4 N        1.8200     0.7220     0.2190 N.am  1 <1>  -0.4940 
  5 C       -0.0930     2.2000    -0.4000 C.2   1 <1>  -0.0860 
  6 C       -1.4740     2.3720    -0.0160 C.2   1 <1>  -0.1810 
  7 C       -3.2570     1.4490     1.5880 C.3   1 <1>   0.0200 
  8 C        2.4410    -0.3790     0.6960 C.2   1 <1>   0.5000 
  9 C        0.5650     2.9980    -1.3980 C.2   1 <1>   0.8060 
 10 C       -2.4250     3.3890    -0.6350 C.3   1 <1>   0.0210 
 11 C       -4.2650     2.2310     0.7260 C.3   1 <1>  -0.1600 
 12 S        3.9630    -0.1970     1.2010 S.2   1 <1>  -0.3800 
 13 N        1.9210    -1.6130     0.7250 N.am  1 <1>  -0.7300 
 14 O        0.0310     3.3930    -2.4130 O.2   1 <1>  -0.5700 
 15 O        1.8490     3.3300    -1.2290 O.3   1 <1>  -0.4300 
 16 C       -3.6850     3.5740     0.2360 C.3   1 <1>  -0.1600 
 17 C        0.7110    -2.1130     0.0540 C.3   1 <1>   0.2780 
 18 C        2.2750     3.9770    -0.0500 C.3   1 <1>   0.1200 
 19 C        1.0540    -3.4390    -0.5890 C.2   1 <1>  -0.2880 
 20 C        3.8000     3.9390    -0.0190 C.3   1 <1>  -0.2400 
 21 C        1.0460    -3.6830    -1.9040 C.2   1 <1>  -0.3000 
 22 H        2.4820     1.3800    -0.1990 H     1 <1>   0.3700 
 23 H       -3.2140     1.8650     2.5790 H     1 <1>   0.0800 
 24 H       -3.5600     0.4190     1.6610 H     1 <1>   0.0800 
 25 H       -2.7080     3.0440    -1.6140 H     1 <1>   0.0800 
 26 H       -1.9330     4.3390    -0.7470 H     1 <1>   0.0800 
 27 H       -5.1640     2.4020     1.2920 H     1 <1>   0.0800 
 28 H       -4.5230     1.6350    -0.1320 H     1 <1>   0.0800 
 29 H        2.5080    -2.3520     1.1140 H     1 <1>   0.3700 
 30 H       -4.4300     4.1090    -0.3270 H     1 <1>   0.0800 
 31 H       -3.4290     4.1740     1.0930 H     1 <1>   0.0800 
 32 H        0.3820    -1.4090    -0.6920 H     1 <1>   0.0800 
 33 H       -0.0750    -2.2500     0.7770 H     1 <1>   0.0800 
 34 H        1.8680     3.4800     0.8140 H     1 <1>   0.0800 
 35 H        1.9190     4.9940    -0.0790 H     1 <1>   0.0800 
 36 H        1.3130    -4.1910     0.1350 H     1 <1>   0.1500 
 37 H        4.1520     2.9230     0.0140 H     1 <1>   0.0800 
 38 H        4.1580     4.4490     0.8560 H     1 <1>   0.0800 
 39 H        4.2010     4.4290    -0.8880 H     1 <1>   0.0800 
 40 H        1.2950    -4.6360    -2.3390 H     1 <1>   0.1500 
 41 H        0.7950    -2.9540    -2.6550 H     1 <1>   0.1500 
@<TRIPOS>BOND
  1   1   2  1   
  2   1   3  1   
  3   2   4  1   
  4   2   5  2   
  5   3   6  2   
  6   3   7  1   
  7   4   8  am  
  8   4  22  1   
  9   5   6  1   
 10   5   9  1   
 11   6  10  1   
 12   7  11  1   
 13   7  23  1   
 14   7  24  1   
 15   8  12  2   
 16   8  13  am  
 17   9  14  2   
 18   9  15  1   
 19  10  16  1   
 20  10  25  1   
 21  10  26  1   
 22  11  16  1   
 23  11  27  1   
 24  11  28  1   
 25  13  17  1   
 26  13  29  1   
 27  15  18  1   
 28  16  30  1   
 29  16  31  1   
 30  17  19  1   
 31  17  32  1   
 32  17  33  1   
 33  18  20  1   
 34  18  34  1   
 35  18  35  1   
 36  19  21  2   
 37  19  36  1   
 38  20  37  1   
 39  20  38  1   
 40  20  39  1   
 41  21  40  1   
 42  21  41  1   
@<TRIPOS>SUBSTRUCTURE
  1 ****   2 GROUP 4 **** **** 0

# MOE 2024.06 (io_trps.svl 2023.06)
