@<TRIPOS>MOLECULE
NONAME
46 48 1 0 0 
SMALL
USER_CHARGES


@<TRIPOS>ATOM
  1 F       -1.9710    -0.0400    -2.2570 F     1 <1>  -0.1900 
  2 C       -2.4570     0.7960    -1.3770 C.ar  1 <1>   0.1900 
  3 C       -1.8920     2.0470    -1.2070 C.ar  1 <1>   0.1900 
  4 C       -3.5490     0.4020    -0.6250 C.ar  1 <1>  -0.1500 
  5 F       -0.8620     2.4140    -1.9250 F     1 <1>  -0.1900 
  6 C       -2.4080     2.9320    -0.2790 C.ar  1 <1>  -0.1500 
  7 C       -4.0830     1.2870     0.3070 C.ar  1 <1>  -0.1440 
  8 C       -3.5060     2.5440     0.4780 C.ar  1 <1>  -0.1500 
  9 C       -5.2910     0.8830     1.1370 C.3   1 <1>   0.4870 
 10 N       -6.5000     0.8990     0.2710 N.4   1 <1>  -0.9590 
 11 C       -6.7940     2.2810    -0.2680 C.3   1 <1>   0.3430 
 12 C       -7.7040     0.3370     0.9870 C.3   1 <1>   0.3430 
 13 C       -8.0470     2.3220    -1.1690 C.3   1 <1>   0.2090 
 14 C       -8.9630     0.3090     0.0960 C.3   1 <1>   0.2090 
 15 N       -9.2100     1.6360    -0.5340 N.pl3 1 <1>  -0.8380 
 16 C      -10.2470     2.4070    -0.0070 C.ar  1 <1>   0.1000 
 17 C      -11.5580     2.2900    -0.4830 C.ar  1 <1>  -0.1430 
 18 C       -9.9780     3.2950     1.0280 C.ar  1 <1>  -0.1500 
 19 C      -12.5750     3.0440     0.0990 C.ar  1 <1>  -0.1430 
 20 C      -11.8720     1.3360    -1.6380 C.3   1 <1>  -0.0970 
 21 C      -10.9840     4.0500     1.5940 C.ar  1 <1>  -0.1500 
 22 C      -12.2780     3.9210     1.1310 C.ar  1 <1>  -0.1500 
 23 C      -14.0250     2.9420    -0.3560 C.3   1 <1>  -0.0970 
 24 H       -3.9520    -0.5840    -0.7800 H     1 <1>   0.1500 
 25 H       -1.9530     3.9000    -0.1540 H     1 <1>   0.1500 
 26 H       -3.8970     3.2380     1.2050 H     1 <1>   0.1500 
 27 H       -5.4150     1.5650     1.9630 H     1 <1>   0.0800 
 28 H       -5.1320    -0.1070     1.5350 H     1 <1>   0.0800 
 29 H       -6.3090     0.3010    -0.5420 H     1 <1>   0.4500 
 30 H       -5.9510     2.6430    -0.8340 H     1 <1>   0.0800 
 31 H       -6.9530     2.9600     0.5520 H     1 <1>   0.0800 
 32 H       -7.9260     0.9420     1.8510 H     1 <1>   0.0800 
 33 H       -7.4990    -0.6640     1.3280 H     1 <1>   0.0800 
 34 H       -7.8330     1.8460    -2.1110 H     1 <1>   0.0800 
 35 H       -8.3060     3.3460    -1.3780 H     1 <1>   0.0800 
 36 H       -9.8170     0.0320     0.6920 H     1 <1>   0.0800 
 37 H       -8.8520    -0.4330    -0.6760 H     1 <1>   0.0800 
 38 H       -8.9800     3.3980     1.4020 H     1 <1>   0.1500 
 39 H      -11.0100     1.1680    -2.2540 H     1 <1>   0.0800 
 40 H      -12.6360     1.7390    -2.2760 H     1 <1>   0.0800 
 41 H      -12.2060     0.3930    -1.2460 H     1 <1>   0.0800 
 42 H      -10.7680     4.7370     2.3940 H     1 <1>   0.1500 
 43 H      -13.0570     4.5120     1.5820 H     1 <1>   0.1500 
 44 H      -14.3290     1.9120    -0.4040 H     1 <1>   0.0800 
 45 H      -14.1350     3.3890    -1.3280 H     1 <1>   0.0800 
 46 H      -14.6810     3.4510     0.3260 H     1 <1>   0.0800 
@<TRIPOS>BOND
  1   1   2  1   
  2   2   3  ar  
  3   2   4  ar  
  4   3   5  1   
  5   3   6  ar  
  6   4   7  ar  
  7   4  24  1   
  8   6   8  ar  
  9   6  25  1   
 10   7   8  ar  
 11   7   9  1   
 12   8  26  1   
 13   9  10  1   
 14   9  27  1   
 15   9  28  1   
 16  10  11  1   
 17  10  12  1   
 18  10  29  1   
 19  11  13  1   
 20  11  30  1   
 21  11  31  1   
 22  12  14  1   
 23  12  32  1   
 24  12  33  1   
 25  13  15  1   
 26  13  34  1   
 27  13  35  1   
 28  14  15  1   
 29  14  36  1   
 30  14  37  1   
 31  15  16  1   
 32  16  17  ar  
 33  16  18  ar  
 34  17  19  ar  
 35  17  20  1   
 36  18  21  ar  
 37  18  38  1   
 38  19  22  ar  
 39  19  23  1   
 40  20  39  1   
 41  20  40  1   
 42  20  41  1   
 43  21  22  ar  
 44  21  42  1   
 45  22  43  1   
 46  23  44  1   
 47  23  45  1   
 48  23  46  1   
@<TRIPOS>SUBSTRUCTURE
  1 ****  11 GROUP 4 **** **** 0

# MOE 2024.06 (io_trps.svl 2023.06)
