@<TRIPOS>MOLECULE
NONAME
42 43 1 0 0 
SMALL
USER_CHARGES


@<TRIPOS>ATOM
  1 O       -0.8130    -2.7410    -0.3510 O.3   1 <1>  -0.3630 
  2 C       -1.9710    -3.3820    -0.0760 C.ar  1 <1>   0.0830 
  3 C        0.1900    -2.8520     0.6340 C.3   1 <1>   0.1200 
  4 C       -2.1310    -4.7090    -0.4670 C.ar  1 <1>  -0.1440 
  5 C       -2.9900    -2.7050     0.5900 C.ar  1 <1>  -0.1440 
  6 C        1.4710    -2.2010     0.1030 C.3   1 <1>   0.2000 
  7 C       -3.3080    -5.3660    -0.1500 C.ar  1 <1>  -0.1500 
  8 C       -1.0510    -5.4530    -1.2410 C.3   1 <1>  -0.0960 
  9 C       -4.1590    -3.3830     0.8960 C.ar  1 <1>  -0.1500 
 10 C       -2.8570    -1.2400     0.9820 C.3   1 <1>  -0.0960 
 11 O        1.7350    -2.6970    -1.1760 O.3   1 <1>  -0.6800 
 12 C        2.6910    -2.4700     1.0090 C.3   1 <1>   0.3430 
 13 C       -4.3160    -4.7080     0.5320 C.ar  1 <1>  -0.1500 
 14 N        3.9590    -2.3110     0.2340 N.4   1 <1>  -0.9590 
 15 C        5.1280    -3.0370     0.7770 C.3   1 <1>   0.3430 
 16 C        4.3820    -0.9120     0.0050 C.3   1 <1>   0.3430 
 17 C        6.3240    -2.3890     0.0910 C.3   1 <1>  -0.1600 
 18 C        5.8360    -1.0320    -0.4290 C.3   1 <1>  -0.1600 
 19 H        0.3470    -3.8960     0.8440 H     1 <1>   0.0800 
 20 H       -0.1550    -2.3600     1.5270 H     1 <1>   0.0800 
 21 H        1.3120    -1.1400     0.0150 H     1 <1>   0.0800 
 22 H       -3.4510    -6.3940    -0.4340 H     1 <1>   0.1500 
 23 H       -0.6330    -4.8180    -2.0000 H     1 <1>   0.0800 
 24 H       -1.4600    -6.3220    -1.7240 H     1 <1>   0.0800 
 25 H       -0.2700    -5.7680    -0.5750 H     1 <1>   0.0800 
 26 H       -4.9570    -2.8830     1.4170 H     1 <1>   0.1500 
 27 H       -2.2850    -1.1520     1.8860 H     1 <1>   0.0800 
 28 H       -3.8260    -0.8020     1.1440 H     1 <1>   0.0800 
 29 H       -2.3700    -0.6880     0.1990 H     1 <1>   0.0800 
 30 H        0.8810    -2.7280    -1.6720 H     1 <1>   0.4000 
 31 H        2.6220    -3.4840     1.3670 H     1 <1>   0.0800 
 32 H        2.6780    -1.8150     1.8630 H     1 <1>   0.0800 
 33 H       -5.2270    -5.2270     0.7750 H     1 <1>   0.1500 
 34 H        3.7270    -2.7010    -0.7010 H     1 <1>   0.4500 
 35 H        5.0730    -4.0940     0.5690 H     1 <1>   0.0800 
 36 H        5.1940    -2.8800     1.8410 H     1 <1>   0.0800 
 37 H        4.3250    -0.3560     0.9270 H     1 <1>   0.0800 
 38 H        3.7780    -0.4320    -0.7490 H     1 <1>   0.0800 
 39 H        6.6550    -3.0070    -0.7260 H     1 <1>   0.0800 
 40 H        7.1380    -2.2790     0.7870 H     1 <1>   0.0800 
 41 H        6.4170    -0.2170    -0.0330 H     1 <1>   0.0800 
 42 H        5.8950    -1.0010    -1.5040 H     1 <1>   0.0800 
@<TRIPOS>BOND
  1   1   2  1   
  2   1   3  1   
  3   2   4  ar  
  4   2   5  ar  
  5   3   6  1   
  6   3  19  1   
  7   3  20  1   
  8   4   7  ar  
  9   4   8  1   
 10   5   9  ar  
 11   5  10  1   
 12   6  11  1   
 13   6  12  1   
 14   6  21  1   
 15   7  13  ar  
 16   7  22  1   
 17   8  23  1   
 18   8  24  1   
 19   8  25  1   
 20   9  13  ar  
 21   9  26  1   
 22  10  27  1   
 23  10  28  1   
 24  10  29  1   
 25  11  30  1   
 26  12  14  1   
 27  12  31  1   
 28  12  32  1   
 29  13  33  1   
 30  14  15  1   
 31  14  16  1   
 32  14  34  1   
 33  15  17  1   
 34  15  35  1   
 35  15  36  1   
 36  16  18  1   
 37  16  37  1   
 38  16  38  1   
 39  17  18  1   
 40  17  39  1   
 41  17  40  1   
 42  18  41  1   
 43  18  42  1   
@<TRIPOS>SUBSTRUCTURE
  1 ****   3 GROUP 4 **** **** 0

# MOE 2024.06 (io_trps.svl 2023.06)
