@<TRIPOS>MOLECULE
NONAME
40 41 1 0 0 
SMALL
USER_CHARGES


@<TRIPOS>ATOM
  1 F        0.6890     0.2160    -1.2410 F     1 <1>  -0.1900 
  2 C        1.7050     0.8740    -0.7540 C.ar  1 <1>   0.1900 
  3 C        2.4160     0.3230     0.2930 C.ar  1 <1>  -0.1500 
  4 C        2.0320     2.0980    -1.3040 C.ar  1 <1>  -0.1500 
  5 C        3.4960     1.0230     0.8050 C.ar  1 <1>  -0.1500 
  6 C        3.1130     2.7920    -0.7860 C.ar  1 <1>  -0.1500 
  7 C        3.8500     2.2550     0.2650 C.ar  1 <1>  -0.1430 
  8 C        5.0390     3.0090     0.8160 C.3   1 <1>   0.4870 
  9 N        6.2120     2.5720     0.0320 N.4   1 <1>  -0.9060 
 10 C        7.4930     3.1700     0.4450 C.3   1 <1>   0.4230 
 11 C        7.5270     4.6580     0.0720 C.3   1 <1>  -0.1600 
 12 C        8.6210     2.4090    -0.2540 C.3   1 <1>  -0.1600 
 13 C        8.8940     5.2750     0.4030 C.3   1 <1>  -0.1600 
 14 C        9.9920     3.0200     0.0730 C.3   1 <1>  -0.1600 
 15 C       10.0470     4.5190    -0.2800 C.3   1 <1>  -0.0800 
 16 C       11.3900     5.1580     0.1210 C.3   1 <1>  -0.1600 
 17 C       12.5910     4.5850    -0.6420 C.3   1 <1>  -0.2400 
 18 H        2.1220    -0.6320     0.6940 H     1 <1>   0.1500 
 19 H        1.4460     2.4920    -2.1170 H     1 <1>   0.1500 
 20 H        4.0450     0.5930     1.6270 H     1 <1>   0.1500 
 21 H        3.3630     3.7490    -1.2130 H     1 <1>   0.1500 
 22 H        5.1730     2.7760     1.8610 H     1 <1>   0.0800 
 23 H        4.8830     4.0700     0.7110 H     1 <1>   0.0800 
 24 H        6.0390     2.7770    -0.9570 H     1 <1>   0.4500 
 25 H        6.2710     1.5510     0.0990 H     1 <1>   0.4500 
 26 H        7.6200     3.0700     1.5120 H     1 <1>   0.0800 
 27 H        6.7760     5.2020     0.6150 H     1 <1>   0.0800 
 28 H        7.3460     4.7780    -0.9830 H     1 <1>   0.0800 
 29 H        8.4820     2.4400    -1.3210 H     1 <1>   0.0800 
 30 H        8.6230     1.3800     0.0630 H     1 <1>   0.0800 
 31 H        9.0430     5.2670     1.4700 H     1 <1>   0.0800 
 32 H        8.9030     6.3040     0.0840 H     1 <1>   0.0800 
 33 H       10.7440     2.4860    -0.4820 H     1 <1>   0.0800 
 34 H       10.2070     2.8900     1.1200 H     1 <1>   0.0800 
 35 H        9.9340     4.6250    -1.3470 H     1 <1>   0.0800 
 36 H       11.5540     5.0380     1.1790 H     1 <1>   0.0800 
 37 H       11.3460     6.2150    -0.0800 H     1 <1>   0.0800 
 38 H       12.7680     3.5590    -0.3760 H     1 <1>   0.0800 
 39 H       13.4760     5.1470    -0.3990 H     1 <1>   0.0800 
 40 H       12.4320     4.6500    -1.7040 H     1 <1>   0.0800 
@<TRIPOS>BOND
  1   1   2  1   
  2   2   3  ar  
  3   2   4  ar  
  4   3   5  ar  
  5   3  18  1   
  6   4   6  ar  
  7   4  19  1   
  8   5   7  ar  
  9   5  20  1   
 10   6   7  ar  
 11   6  21  1   
 12   7   8  1   
 13   8   9  1   
 14   8  22  1   
 15   8  23  1   
 16   9  10  1   
 17   9  24  1   
 18   9  25  1   
 19  10  11  1   
 20  10  12  1   
 21  10  26  1   
 22  11  13  1   
 23  11  27  1   
 24  11  28  1   
 25  12  14  1   
 26  12  29  1   
 27  12  30  1   
 28  13  15  1   
 29  13  31  1   
 30  13  32  1   
 31  14  15  1   
 32  14  33  1   
 33  14  34  1   
 34  15  16  1   
 35  15  35  1   
 36  16  17  1   
 37  16  36  1   
 38  16  37  1   
 39  17  38  1   
 40  17  39  1   
 41  17  40  1   
@<TRIPOS>SUBSTRUCTURE
  1 ****   9 GROUP 4 **** **** 0

# MOE 2024.06 (io_trps.svl 2023.06)
