@<TRIPOS>MOLECULE
NONAME
50 53 1 0 0 
SMALL
USER_CHARGES


@<TRIPOS>ATOM
  1 S        1.7150    -0.0800    -2.7460 S.3   1 <1>  -0.0800 
  2 C        2.1880    -1.1830    -1.4480 C.2   1 <1>  -0.0450 
  3 C        0.0410    -0.5790    -2.6660 C.2   1 <1>  -0.1100 
  4 C        3.5670    -1.2280    -1.0330 C.2   1 <1>   0.7150 
  5 C        1.0810    -1.8550    -1.0310 C.2   1 <1>  -0.1500 
  6 C       -0.1240    -1.5160    -1.7150 C.2   1 <1>  -0.1500 
  7 O        4.4090    -0.4990    -1.5280 O.2   1 <1>  -0.5700 
  8 N        3.9300    -2.1340    -0.0730 N.am  1 <1>  -0.5470 
  9 C        5.1790    -2.4880     0.4520 C.ar  1 <1>   0.1170 
 10 C        5.3290    -3.8020     0.9120 C.ar  1 <1>   0.1000 
 11 C        6.2390    -1.6040     0.5290 C.ar  1 <1>  -0.1500 
 12 N        4.2460    -4.6910     0.8700 N.pl3 1 <1>  -0.8380 
 13 C        6.5710    -4.1940     1.3990 C.ar  1 <1>  -0.1500 
 14 C        7.4980    -1.9940     0.9840 C.ar  1 <1>   0.0860 
 15 C        4.3190    -5.7610    -0.1610 C.3   1 <1>   0.2090 
 16 C        3.8080    -5.2810     2.1640 C.3   1 <1>   0.2090 
 17 C        7.6330    -3.3090     1.4310 C.ar  1 <1>  -0.1500 
 18 C        8.6130    -1.0700     0.9980 C.2   1 <1>   0.5440 
 19 C        3.6880    -6.9910     0.4780 C.3   1 <1>  -0.1600 
 20 C        3.8920    -6.7890     1.9730 C.3   1 <1>  -0.1600 
 21 O        9.3320    -1.0200     1.9800 O.2   1 <1>  -0.5700 
 22 N        8.8950    -0.2350    -0.0650 N.am  1 <1>  -0.6600 
 23 C        9.7670     0.9660     0.0850 C.3   1 <1>   0.1400 
 24 C        8.3930    -0.4080    -1.4640 C.3   1 <1>   0.1400 
 25 C        9.0770     2.2020    -0.5160 C.3   1 <1>   0.1200 
 26 C        7.7660     0.9020    -1.9710 C.3   1 <1>   0.1200 
 27 O        8.6750     1.9620    -1.8370 O.3   1 <1>  -0.5600 
 28 H       -0.6510    -0.1140    -3.3450 H     1 <1>   0.1500 
 29 H        1.0660    -2.5920    -0.2470 H     1 <1>   0.1500 
 30 H       -1.0580    -1.9880    -1.4640 H     1 <1>   0.1500 
 31 H        3.2530    -2.8750     0.1200 H     1 <1>   0.3700 
 32 H        6.1010    -0.5830     0.2280 H     1 <1>   0.1500 
 33 H        6.7020    -5.2000     1.7520 H     1 <1>   0.1500 
 34 H        5.3480    -5.9570    -0.4120 H     1 <1>   0.0800 
 35 H        3.7880    -5.4660    -1.0490 H     1 <1>   0.0800 
 36 H        2.7900    -4.9870     2.3510 H     1 <1>   0.0800 
 37 H        4.4250    -4.9510     2.9830 H     1 <1>   0.0800 
 38 H        8.5890    -3.6280     1.8090 H     1 <1>   0.1500 
 39 H        4.1360    -7.9010     0.1200 H     1 <1>   0.0800 
 40 H        2.6370    -7.0030     0.2490 H     1 <1>   0.0800 
 41 H        3.1580    -7.3080     2.5640 H     1 <1>   0.0800 
 42 H        4.8740    -7.1230     2.2590 H     1 <1>   0.0800 
 43 H       10.7000     0.7930    -0.4220 H     1 <1>   0.0800 
 44 H        9.9810     1.1490     1.1230 H     1 <1>   0.0800 
 45 H        7.6760    -1.2040    -1.5320 H     1 <1>   0.0800 
 46 H        9.2210    -0.6640    -2.1020 H     1 <1>   0.0800 
 47 H        9.7550     3.0370    -0.5260 H     1 <1>   0.0800 
 48 H        8.2100     2.4670     0.0640 H     1 <1>   0.0800 
 49 H        6.8710     1.1360    -1.4210 H     1 <1>   0.0800 
 50 H        7.5130     0.8140    -3.0130 H     1 <1>   0.0800 
@<TRIPOS>BOND
  1   1   2  1   
  2   1   3  1   
  3   2   4  1   
  4   2   5  2   
  5   3   6  2   
  6   3  28  1   
  7   4   7  2   
  8   4   8  am  
  9   5   6  1   
 10   5  29  1   
 11   6  30  1   
 12   8   9  1   
 13   8  31  1   
 14   9  10  ar  
 15   9  11  ar  
 16  10  12  1   
 17  10  13  ar  
 18  11  14  ar  
 19  11  32  1   
 20  12  15  1   
 21  12  16  1   
 22  13  17  ar  
 23  13  33  1   
 24  14  17  ar  
 25  14  18  1   
 26  15  19  1   
 27  15  34  1   
 28  15  35  1   
 29  16  20  1   
 30  16  36  1   
 31  16  37  1   
 32  17  38  1   
 33  18  21  2   
 34  18  22  am  
 35  19  20  1   
 36  19  39  1   
 37  19  40  1   
 38  20  41  1   
 39  20  42  1   
 40  22  23  1   
 41  22  24  1   
 42  23  25  1   
 43  23  43  1   
 44  23  44  1   
 45  24  26  1   
 46  24  45  1   
 47  24  46  1   
 48  25  27  1   
 49  25  47  1   
 50  25  48  1   
 51  26  27  1   
 52  26  49  1   
 53  26  50  1   
@<TRIPOS>SUBSTRUCTURE
  1 ****   9 GROUP 4 **** **** 0

# MOE 2024.06 (io_trps.svl 2023.06)
