@<TRIPOS>MOLECULE
NONAME
39 39 1 0 0 
SMALL
USER_CHARGES


@<TRIPOS>ATOM
  1 F       -1.1380     0.7490     1.1510 F     1 <1>  -0.3400 
  2 C        0.0230     0.4330     0.5770 C.3   1 <1>   1.1640 
  3 F       -0.3030    -0.3420    -0.4490 F     1 <1>  -0.3400 
  4 F        0.6760    -0.3270     1.4400 F     1 <1>  -0.3400 
  5 C        0.7600     1.7100     0.1270 C.ar  1 <1>  -0.1440 
  6 C        0.2660     2.5430    -0.8890 C.ar  1 <1>  -0.1440 
  7 C        1.9520     2.0630     0.7550 C.ar  1 <1>  -0.1500 
  8 C        0.9730     3.6810    -1.2520 C.ar  1 <1>  -0.1500 
  9 C       -1.0300     2.2580    -1.6400 C.3   1 <1>   0.4870 
 10 C        2.6420     3.2020     0.3880 C.ar  1 <1>  -0.1500 
 11 C        2.1530     4.0110    -0.6170 C.ar  1 <1>  -0.1500 
 12 N       -2.1760     2.6100    -0.7440 N.4   1 <1>  -0.9590 
 13 C       -3.3780     1.7470    -1.0370 C.3   1 <1>   0.3430 
 14 C       -2.4410     4.0870    -0.8100 C.3   1 <1>   0.2630 
 15 C       -4.4580     1.7640     0.0840 C.3   1 <1>   0.3430 
 16 N       -5.5720     0.7590    -0.0980 N.4   1 <1>  -0.9590 
 17 C       -6.6520     0.9930     0.9200 C.3   1 <1>   0.2630 
 18 C       -5.1090    -0.6680     0.0140 C.3   1 <1>   0.2630 
 19 H        2.3690     1.4540     1.5420 H     1 <1>   0.1500 
 20 H        0.6240     4.3300    -2.0390 H     1 <1>   0.1500 
 21 H       -1.0630     1.2160    -1.9140 H     1 <1>   0.0800 
 22 H       -1.0680     2.8390    -2.5480 H     1 <1>   0.0800 
 23 H        3.5650     3.4580     0.8840 H     1 <1>   0.1500 
 24 H        2.6990     4.8960    -0.9030 H     1 <1>   0.1500 
 25 H       -1.8280     2.4050     0.2090 H     1 <1>   0.4500 
 26 H       -3.0430     0.7290    -1.1560 H     1 <1>   0.0800 
 27 H       -3.8240     2.0620    -1.9660 H     1 <1>   0.0800 
 28 H       -2.7610     4.3720    -1.8000 H     1 <1>   0.0800 
 29 H       -1.5440     4.6370    -0.5710 H     1 <1>   0.0800 
 30 H       -3.2050     4.3720    -0.1040 H     1 <1>   0.0800 
 31 H       -4.8870     2.7520     0.1270 H     1 <1>   0.0800 
 32 H       -3.9760     1.5710     1.0290 H     1 <1>   0.0800 
 33 H       -6.0180     0.8800    -1.0240 H     1 <1>   0.4500 
 34 H       -6.2670     0.8610     1.9190 H     1 <1>   0.0800 
 35 H       -7.4630     0.2960     0.7740 H     1 <1>   0.0800 
 36 H       -7.0470     1.9930     0.8330 H     1 <1>   0.0800 
 37 H       -4.6580    -0.8450     0.9780 H     1 <1>   0.0800 
 38 H       -4.3880    -0.9000    -0.7530 H     1 <1>   0.0800 
 39 H       -5.9450    -1.3410    -0.0960 H     1 <1>   0.0800 
@<TRIPOS>BOND
  1   1   2  1   
  2   2   3  1   
  3   2   4  1   
  4   2   5  1   
  5   5   6  ar  
  6   5   7  ar  
  7   6   8  ar  
  8   6   9  1   
  9   7  10  ar  
 10   7  19  1   
 11   8  11  ar  
 12   8  20  1   
 13   9  12  1   
 14   9  21  1   
 15   9  22  1   
 16  10  11  ar  
 17  10  23  1   
 18  11  24  1   
 19  12  13  1   
 20  12  14  1   
 21  12  25  1   
 22  13  15  1   
 23  13  26  1   
 24  13  27  1   
 25  14  28  1   
 26  14  29  1   
 27  14  30  1   
 28  15  16  1   
 29  15  31  1   
 30  15  32  1   
 31  16  17  1   
 32  16  18  1   
 33  16  33  1   
 34  17  34  1   
 35  17  35  1   
 36  17  36  1   
 37  18  37  1   
 38  18  38  1   
 39  18  39  1   
@<TRIPOS>SUBSTRUCTURE
  1 ****  12 GROUP 4 **** **** 0

# MOE 2024.06 (io_trps.svl 2023.06)
