@<TRIPOS>MOLECULE
NONAME
48 49 1 0 0 
SMALL
USER_CHARGES


@<TRIPOS>ATOM
  1 O       -0.3780    -1.8570     1.5180 O.2   1 <1>  -0.5700 
  2 C       -1.1970    -1.7460     0.6250 C.2   1 <1>   0.5440 
  3 N       -1.1870    -2.6760    -0.3740 N.am  1 <1>  -0.7300 
  4 C       -2.1390    -0.6390     0.6020 C.ar  1 <1>   0.0860 
  5 C       -0.2560    -3.8450    -0.4320 C.3   1 <1>   0.2810 
  6 C       -1.8420     0.5680     1.2390 C.ar  1 <1>  -0.1500 
  7 C       -3.3710    -0.7300    -0.0500 C.ar  1 <1>  -0.1500 
  8 C        1.1420    -3.4050    -0.9270 C.2   1 <1>   0.5690 
  9 C       -0.9000    -5.0070    -1.2390 C.3   1 <1>  -0.0800 
 10 C       -2.7210     1.6350     1.2160 C.ar  1 <1>  -0.1500 
 11 C       -4.2550     0.3340    -0.0780 C.ar  1 <1>  -0.1500 
 12 O        1.5520    -3.7300    -2.0190 O.2   1 <1>  -0.5700 
 13 N        1.8820    -2.6180    -0.1010 N.am  1 <1>  -0.7300 
 14 C       -2.3530    -5.2990    -0.8140 C.3   1 <1>  -0.2400 
 15 C       -0.0900    -6.3080    -1.0860 C.3   1 <1>  -0.2400 
 16 C       -3.9300     1.5200     0.5550 C.ar  1 <1>  -0.1500 
 17 C        3.2200    -2.0600    -0.3920 C.3   1 <1>   0.1400 
 18 C        4.2620    -2.7180     0.5110 C.3   1 <1>  -0.0170 
 19 C        5.6370    -2.1230     0.2510 C.ar  1 <1>  -0.1430 
 20 C        6.4160    -2.6010    -0.7910 C.ar  1 <1>  -0.1500 
 21 C        6.1220    -1.0980     1.0480 C.ar  1 <1>  -0.1500 
 22 C        7.6680    -2.0600    -1.0340 C.ar  1 <1>  -0.1500 
 23 C        7.3730    -0.5560     0.8070 C.ar  1 <1>  -0.1500 
 24 C        8.1470    -1.0370    -0.2350 C.ar  1 <1>  -0.1500 
 25 H       -1.6770    -2.4810    -1.2470 H     1 <1>   0.3700 
 26 H       -0.1230    -4.1980     0.5750 H     1 <1>   0.0800 
 27 H       -0.9040     0.6650     1.7590 H     1 <1>   0.1500 
 28 H       -3.6490    -1.6470    -0.5370 H     1 <1>   0.1500 
 29 H       -0.8960    -4.7370    -2.2820 H     1 <1>   0.0800 
 30 H       -2.4660     2.5550     1.7140 H     1 <1>   0.1500 
 31 H       -5.1980     0.2410    -0.5880 H     1 <1>   0.1500 
 32 H        1.4050    -2.2600     0.7430 H     1 <1>   0.3700 
 33 H       -2.4020    -5.5120     0.2390 H     1 <1>   0.0800 
 34 H       -2.7370    -6.1470    -1.3530 H     1 <1>   0.0800 
 35 H       -2.9940    -4.4620    -1.0240 H     1 <1>   0.0800 
 36 H       -0.0600    -6.6200    -0.0560 H     1 <1>   0.0800 
 37 H        0.9200    -6.1770    -1.4330 H     1 <1>   0.0800 
 38 H       -0.5340    -7.0950    -1.6680 H     1 <1>   0.0800 
 39 H       -4.6160     2.3500     0.5360 H     1 <1>   0.1500 
 40 H        3.2060    -0.9960    -0.2250 H     1 <1>   0.0800 
 41 H        3.4750    -2.2350    -1.4240 H     1 <1>   0.0800 
 42 H        4.2860    -3.7750     0.3140 H     1 <1>   0.0800 
 43 H        3.9920    -2.5710     1.5410 H     1 <1>   0.0800 
 44 H        6.0510    -3.3950    -1.4190 H     1 <1>   0.1500 
 45 H        5.5280    -0.7160     1.8600 H     1 <1>   0.1500 
 46 H        8.2670    -2.4360    -1.8440 H     1 <1>   0.1500 
 47 H        7.7430     0.2390     1.4290 H     1 <1>   0.1500 
 48 H        9.1190    -0.6170    -0.4230 H     1 <1>   0.1500 
@<TRIPOS>BOND
  1   1   2  2   
  2   2   3  am  
  3   2   4  1   
  4   3   5  1   
  5   3  25  1   
  6   4   6  ar  
  7   4   7  ar  
  8   5   8  1   
  9   5   9  1   
 10   5  26  1   
 11   6  10  ar  
 12   6  27  1   
 13   7  11  ar  
 14   7  28  1   
 15   8  12  2   
 16   8  13  am  
 17   9  14  1   
 18   9  15  1   
 19   9  29  1   
 20  10  16  ar  
 21  10  30  1   
 22  11  16  ar  
 23  11  31  1   
 24  13  17  1   
 25  13  32  1   
 26  14  33  1   
 27  14  34  1   
 28  14  35  1   
 29  15  36  1   
 30  15  37  1   
 31  15  38  1   
 32  16  39  1   
 33  17  18  1   
 34  17  40  1   
 35  17  41  1   
 36  18  19  1   
 37  18  42  1   
 38  18  43  1   
 39  19  20  ar  
 40  19  21  ar  
 41  20  22  ar  
 42  20  44  1   
 43  21  23  ar  
 44  21  45  1   
 45  22  24  ar  
 46  22  46  1   
 47  23  24  ar  
 48  23  47  1   
 49  24  48  1   
@<TRIPOS>SUBSTRUCTURE
  1 ****  13 GROUP 4 **** **** 0

# MOE 2024.06 (io_trps.svl 2023.06)
