@<TRIPOS>MOLECULE
NONAME
31 34 1 0 0 
SMALL
USER_CHARGES


@<TRIPOS>ATOM
  1 S        0.1520    -0.1470     0.1110 S.3   1 <1>  -0.0800 
  2 C        0.8650     1.4670     0.0820 C.2   1 <1>   0.1660 
  3 C       -1.4510     0.5620     0.0480 C.2   1 <1>  -0.1400 
  4 N        2.2040     1.6700     0.1140 N.2   1 <1>  -0.5760 
  5 C       -0.0880     2.4360     0.0280 C.2   1 <1>  -0.0860 
  6 C       -1.4110     1.8850     0.0100 C.2   1 <1>  -0.1810 
  7 C       -2.8070    -0.0660     0.0300 C.3   1 <1>   0.0200 
  8 C        2.5900     2.9000     0.0900 C.2   1 <1>   0.4490 
  9 C        0.3650     3.7810    -0.0040 C.2   1 <1>   0.7160 
 10 C       -2.7990     2.4620    -0.0450 C.3   1 <1>   0.0210 
 11 C       -3.7070     1.1980    -0.0310 C.3   1 <1>  -0.1600 
 12 N        1.7330     3.9910     0.0340 N.am  1 <1>  -0.4200 
 13 C        4.0950     3.1280     0.1500 C.3   1 <1>  -0.0990 
 14 O       -0.4090     4.7290    -0.0720 O.2   1 <1>  -0.5700 
 15 C        2.2120     5.4000    -0.0970 C.3   1 <1>   0.1400 
 16 C        4.5420     4.4940    -0.3780 C.3   1 <1>  -0.1600 
 17 C        3.6870     5.5780     0.2740 C.3   1 <1>  -0.1600 
 18 H       -2.9750    -0.6340     0.9280 H     1 <1>   0.0800 
 19 H       -2.9280    -0.6860    -0.8400 H     1 <1>   0.0800 
 20 H       -2.9320     3.0340    -0.9460 H     1 <1>   0.0800 
 21 H       -2.9790     3.0870     0.8130 H     1 <1>   0.0800 
 22 H       -4.3580     1.2250     0.8250 H     1 <1>   0.0800 
 23 H       -4.3110     1.1730    -0.9210 H     1 <1>   0.0800 
 24 H        4.5920     2.3530    -0.4060 H     1 <1>   0.0800 
 25 H        4.3970     3.0310     1.1770 H     1 <1>   0.0800 
 26 H        1.6160     6.0420     0.5300 H     1 <1>   0.0800 
 27 H        2.0630     5.7080    -1.1180 H     1 <1>   0.0800 
 28 H        4.4230     4.5280    -1.4480 H     1 <1>   0.0800 
 29 H        5.5820     4.6520    -0.1480 H     1 <1>   0.0800 
 30 H        3.7930     5.5380     1.3450 H     1 <1>   0.0800 
 31 H        4.0170     6.5490    -0.0490 H     1 <1>   0.0800 
@<TRIPOS>BOND
  1   1   2  1   
  2   1   3  1   
  3   2   4  1   
  4   2   5  2   
  5   3   6  2   
  6   3   7  1   
  7   4   8  2   
  8   5   6  1   
  9   5   9  1   
 10   6  10  1   
 11   7  11  1   
 12   7  18  1   
 13   7  19  1   
 14   8  12  1   
 15   8  13  1   
 16   9  12  am  
 17   9  14  2   
 18  10  11  1   
 19  10  20  1   
 20  10  21  1   
 21  11  22  1   
 22  11  23  1   
 23  12  15  1   
 24  13  16  1   
 25  13  24  1   
 26  13  25  1   
 27  15  17  1   
 28  15  26  1   
 29  15  27  1   
 30  16  17  1   
 31  16  28  1   
 32  16  29  1   
 33  17  30  1   
 34  17  31  1   
@<TRIPOS>SUBSTRUCTURE
  1 ****   5 GROUP 4 **** **** 0

# MOE 2024.06 (io_trps.svl 2023.06)
