@<TRIPOS>MOLECULE
NONAME
32 35 1 0 0 
SMALL
USER_CHARGES


@<TRIPOS>ATOM
  1 O        0.1160    -0.5640    -0.8340 O.2   1 <1>  -0.5700 
  2 C       -0.0200    -1.6890    -0.4350 C.2   1 <1>   0.4950 
  3 C       -1.2620    -2.2570    -0.0640 C.2   1 <1>  -0.1240 
  4 C        1.2030    -2.5800    -0.2380 C.3   1 <1>  -0.0990 
  5 C       -1.4390    -3.4960     0.4320 C.2   1 <1>  -0.0620 
  6 C       -2.5960    -1.5600    -0.0100 C.3   1 <1>   0.4790 
  7 C        0.8770    -4.0980    -0.2570 C.3   1 <1>  -0.1600 
  8 O       -2.7180    -3.8000     0.7020 O.3   1 <1>  -0.3570 
  9 C       -0.3200    -4.4930     0.6390 C.3   1 <1>  -0.0220 
 10 O       -2.5540    -0.9450     1.2630 O.3   1 <1>  -0.6800 
 11 C       -3.5460    -0.7000    -0.8390 C.2   1 <1>   0.4230 
 12 C       -3.4590    -2.8530    -0.0420 C.3   1 <1>   0.7040 
 13 O       -3.2200     0.1760    -1.6020 O.2   1 <1>  -0.5700 
 14 C       -4.8800    -1.0930    -0.4330 C.ar  1 <1>   0.0860 
 15 O       -3.4920    -3.4490    -1.3010 O.3   1 <1>  -0.6800 
 16 C       -4.8620    -2.3470     0.1650 C.ar  1 <1>  -0.1440 
 17 C       -6.0850    -0.4030    -0.5090 C.ar  1 <1>  -0.1500 
 18 C       -5.9930    -2.9110     0.7250 C.ar  1 <1>  -0.1500 
 19 C       -7.2280    -0.9590     0.0420 C.ar  1 <1>  -0.1500 
 20 C       -7.1820    -2.2010     0.6630 C.ar  1 <1>  -0.1500 
 21 H        1.6450    -2.3230     0.7080 H     1 <1>   0.0800 
 22 H        1.9220    -2.3570    -1.0060 H     1 <1>   0.0800 
 23 H        1.7470    -4.6610     0.0340 H     1 <1>   0.0800 
 24 H        0.6410    -4.3740    -1.2710 H     1 <1>   0.0800 
 25 H       -0.6540    -5.4840     0.3830 H     1 <1>   0.0800 
 26 H       -0.0330    -4.4890     1.6760 H     1 <1>   0.0800 
 27 H       -2.0120    -0.1320     1.1890 H     1 <1>   0.4000 
 28 H       -2.7070    -4.0220    -1.3530 H     1 <1>   0.4000 
 29 H       -6.1120     0.5620    -0.9850 H     1 <1>   0.1500 
 30 H       -5.9530    -3.8850     1.1830 H     1 <1>   0.1500 
 31 H       -8.1610    -0.4240    -0.0080 H     1 <1>   0.1500 
 32 H       -8.0770    -2.6190     1.0920 H     1 <1>   0.1500 
@<TRIPOS>BOND
  1   1   2  2   
  2   2   3  1   
  3   2   4  1   
  4   3   5  2   
  5   3   6  1   
  6   4   7  1   
  7   4  21  1   
  8   4  22  1   
  9   5   8  1   
 10   5   9  1   
 11   6  10  1   
 12   6  11  1   
 13   6  12  1   
 14   7   9  1   
 15   7  23  1   
 16   7  24  1   
 17   8  12  1   
 18   9  25  1   
 19   9  26  1   
 20  10  27  1   
 21  11  13  2   
 22  11  14  1   
 23  12  15  1   
 24  12  16  1   
 25  14  16  ar  
 26  14  17  ar  
 27  15  28  1   
 28  16  18  ar  
 29  17  19  ar  
 30  17  29  1   
 31  18  20  ar  
 32  18  30  1   
 33  19  20  ar  
 34  19  31  1   
 35  20  32  1   
@<TRIPOS>SUBSTRUCTURE
  1 ****   6 GROUP 4 **** **** 0

# MOE 2024.06 (io_trps.svl 2023.06)
