@<TRIPOS>MOLECULE
NONAME
35 35 1 0 0 
SMALL
USER_CHARGES


@<TRIPOS>ATOM
  1 CL      -0.1740     0.3540     0.0520 Cl    1 <1>  -0.1770 
  2 C        1.4400     1.0280     0.0260 C.ar  1 <1>   0.1770 
  3 C        1.6250     2.4020    -0.0380 C.ar  1 <1>  -0.1440 
  4 C        2.5130     0.1570     0.0700 C.ar  1 <1>  -0.1500 
  5 C        2.9220     2.8920    -0.0570 C.ar  1 <1>  -0.1500 
  6 C        0.4400     3.3550    -0.0870 C.3   1 <1>  -0.0960 
  7 C        3.8040     0.6560     0.0510 C.ar  1 <1>  -0.1500 
  8 C        4.0110     2.0330    -0.0130 C.ar  1 <1>   0.0830 
  9 O        5.2380     2.6110    -0.0370 O.3   1 <1>  -0.3630 
 10 C        6.4140     1.8420     0.0040 C.3   1 <1>   0.1200 
 11 C        7.5900     2.8200    -0.0390 C.3   1 <1>   0.3430 
 12 N        8.9080     2.1150    -0.0010 N.4   1 <1>  -0.9060 
 13 C       10.0420     3.0890    -0.0440 C.3   1 <1>   0.3430 
 14 C       11.4020     2.3870    -0.0060 C.3   1 <1>   0.1200 
 15 O       12.3650     3.3810    -0.0500 O.3   1 <1>  -0.5600 
 16 C       13.6800     2.9170    -0.0240 C.3   1 <1>   0.0400 
 17 H        2.3300    -0.9020     0.1190 H     1 <1>   0.1500 
 18 H        3.0980     3.9520    -0.1070 H     1 <1>   0.1500 
 19 H       -0.1610     3.1480    -0.9550 H     1 <1>   0.0800 
 20 H        0.7670     4.3780    -0.1350 H     1 <1>   0.0800 
 21 H       -0.1670     3.2310     0.7920 H     1 <1>   0.0800 
 22 H        4.6190    -0.0410     0.0860 H     1 <1>   0.1500 
 23 H        6.4160     1.1930    -0.8550 H     1 <1>   0.0800 
 24 H        6.4100     1.2770     0.9190 H     1 <1>   0.0800 
 25 H        7.5120     3.4880     0.8050 H     1 <1>   0.0800 
 26 H        7.5180     3.4050    -0.9420 H     1 <1>   0.0800 
 27 H        8.9820     1.4740    -0.8030 H     1 <1>   0.4500 
 28 H        8.9770     1.5530     0.8580 H     1 <1>   0.4500 
 29 H        9.9790     3.7570     0.8000 H     1 <1>   0.0800 
 30 H        9.9850     3.6750    -0.9470 H     1 <1>   0.0800 
 31 H       11.5350     1.7490    -0.8630 H     1 <1>   0.0800 
 32 H       11.5290     1.8330     0.9080 H     1 <1>   0.0800 
 33 H       14.3380     3.7680    -0.0620 H     1 <1>   0.0800 
 34 H       13.8570     2.2880    -0.8800 H     1 <1>   0.0800 
 35 H       13.8520     2.3720     0.8890 H     1 <1>   0.0800 
@<TRIPOS>BOND
  1   1   2  1   
  2   2   3  ar  
  3   2   4  ar  
  4   3   5  ar  
  5   3   6  1   
  6   4   7  ar  
  7   4  17  1   
  8   5   8  ar  
  9   5  18  1   
 10   6  19  1   
 11   6  20  1   
 12   6  21  1   
 13   7   8  ar  
 14   7  22  1   
 15   8   9  1   
 16   9  10  1   
 17  10  11  1   
 18  10  23  1   
 19  10  24  1   
 20  11  12  1   
 21  11  25  1   
 22  11  26  1   
 23  12  13  1   
 24  12  27  1   
 25  12  28  1   
 26  13  14  1   
 27  13  29  1   
 28  13  30  1   
 29  14  15  1   
 30  14  31  1   
 31  14  32  1   
 32  15  16  1   
 33  16  33  1   
 34  16  34  1   
 35  16  35  1   
@<TRIPOS>SUBSTRUCTURE
  1 ****  10 GROUP 4 **** **** 0

# MOE 2024.06 (io_trps.svl 2023.06)
