@<TRIPOS>MOLECULE
NONAME
26 26 1 0 0 
SMALL
USER_CHARGES


@<TRIPOS>ATOM
  1 CL      -0.1270    -0.0450     0.0950 Cl    1 <1>  -0.1770 
  2 C        1.4220    -0.8440    -0.0430 C.ar  1 <1>   0.1770 
  3 C        1.5070    -2.1380    -0.5280 C.ar  1 <1>   0.1770 
  4 C        2.5610    -0.1620     0.3380 C.ar  1 <1>  -0.1500 
  5 CL       0.0780    -3.0130    -1.0180 Cl    1 <1>  -0.1770 
  6 C        2.7390    -2.7570    -0.6290 C.ar  1 <1>  -0.1500 
  7 C        3.8200    -0.7580     0.2390 C.ar  1 <1>   0.0860 
  8 C        3.8790    -2.0700    -0.2450 C.ar  1 <1>  -0.1500 
  9 C        5.0130    -0.0290     0.6330 C.2   1 <1>   0.5440 
 10 O        4.9510     0.8510     1.4680 O.2   1 <1>  -0.5700 
 11 N        6.2240    -0.2970     0.0580 N.am  1 <1>  -0.7300 
 12 C        7.5060     0.3550     0.4390 C.3   1 <1>   0.1400 
 13 C        7.5950     1.7590    -0.1590 C.3   1 <1>   0.1200 
 14 O        8.8950     2.2290     0.0130 O.3   1 <1>  -0.5600 
 15 C        9.0760     3.5420    -0.4100 C.3   1 <1>   0.0400 
 16 H        2.4750     0.8420     0.7160 H     1 <1>   0.1500 
 17 H        2.7980    -3.7650    -1.0010 H     1 <1>   0.1500 
 18 H        4.8320    -2.5670    -0.3150 H     1 <1>   0.1500 
 19 H        6.2770    -0.9320    -0.7380 H     1 <1>   0.3700 
 20 H        8.3260    -0.2420     0.0810 H     1 <1>   0.0800 
 21 H        7.5660     0.4250     1.5120 H     1 <1>   0.0800 
 22 H        6.9120     2.4190     0.3490 H     1 <1>   0.0800 
 23 H        7.3810     1.7340    -1.2130 H     1 <1>   0.0800 
 24 H       10.1050     3.8080    -0.2420 H     1 <1>   0.0800 
 25 H        8.4360     4.1910     0.1630 H     1 <1>   0.0800 
 26 H        8.8490     3.6130    -1.4590 H     1 <1>   0.0800 
@<TRIPOS>BOND
  1   1   2  1   
  2   2   3  ar  
  3   2   4  ar  
  4   3   5  1   
  5   3   6  ar  
  6   4   7  ar  
  7   4  16  1   
  8   6   8  ar  
  9   6  17  1   
 10   7   8  ar  
 11   7   9  1   
 12   8  18  1   
 13   9  10  2   
 14   9  11  am  
 15  11  12  1   
 16  11  19  1   
 17  12  13  1   
 18  12  20  1   
 19  12  21  1   
 20  13  14  1   
 21  13  22  1   
 22  13  23  1   
 23  14  15  1   
 24  15  24  1   
 25  15  25  1   
 26  15  26  1   
@<TRIPOS>SUBSTRUCTURE
  1 ****   7 GROUP 4 **** **** 0

# MOE 2024.06 (io_trps.svl 2023.06)
