@<TRIPOS>MOLECULE
NONAME
32 33 1 0 0 
SMALL
USER_CHARGES


@<TRIPOS>ATOM
  1 BR      -0.6310    -0.0940     1.2300 Br    1 <1>  -0.1110 
  2 C       -0.2680    -1.8380     0.5020 C.ar  1 <1>   0.1110 
  3 C        1.0430    -2.2670     0.4380 C.ar  1 <1>  -0.1500 
  4 C       -1.3290    -2.6080     0.0640 C.ar  1 <1>  -0.1500 
  5 C        1.3020    -3.5290    -0.0910 C.ar  1 <1>   0.0830 
  6 C       -1.0620    -3.8620    -0.4600 C.ar  1 <1>  -0.1500 
  7 O        2.5460    -4.0570    -0.2050 O.3   1 <1>  -0.3630 
  8 C        0.2460    -4.3150    -0.5340 C.ar  1 <1>  -0.1500 
  9 C        3.6860    -3.3370     0.1940 C.3   1 <1>   0.1200 
 10 C        4.9030    -4.2260    -0.0810 C.3   1 <1>   0.3430 
 11 N        6.1970    -3.5730     0.3050 N.4   1 <1>  -0.9590 
 12 C        6.5470    -2.3810    -0.5100 C.3   1 <1>   0.3430 
 13 C        7.3500    -4.4980     0.1730 C.3   1 <1>   0.3430 
 14 C        8.0480    -2.2150    -0.3130 C.3   1 <1>  -0.1600 
 15 C        8.5660    -3.5830     0.1380 C.3   1 <1>  -0.1600 
 16 H        1.8140    -1.6150     0.7980 H     1 <1>   0.1500 
 17 H       -2.3350    -2.2350     0.1310 H     1 <1>   0.1500 
 18 H       -1.8700    -4.4830    -0.8080 H     1 <1>   0.1500 
 19 H        0.4510    -5.2890    -0.9410 H     1 <1>   0.1500 
 20 H        3.5950    -3.1230     1.2450 H     1 <1>   0.0800 
 21 H        3.7250    -2.4310    -0.3840 H     1 <1>   0.0800 
 22 H        4.9230    -4.4710    -1.1300 H     1 <1>   0.0800 
 23 H        4.7850    -5.1400     0.4780 H     1 <1>   0.0800 
 24 H        6.1590    -3.2820     1.2920 H     1 <1>   0.4500 
 25 H        6.0050    -1.5030    -0.1950 H     1 <1>   0.0800 
 26 H        6.3420    -2.5760    -1.5510 H     1 <1>   0.0800 
 27 H        7.2810    -5.0380    -0.7580 H     1 <1>   0.0800 
 28 H        7.3990    -5.1990     0.9920 H     1 <1>   0.0800 
 29 H        8.2390    -1.4720     0.4430 H     1 <1>   0.0800 
 30 H        8.5130    -1.8940    -1.2300 H     1 <1>   0.0800 
 31 H        9.3100    -3.9730    -0.5360 H     1 <1>   0.0800 
 32 H        9.0000    -3.5150     1.1210 H     1 <1>   0.0800 
@<TRIPOS>BOND
  1   1   2  1   
  2   2   3  ar  
  3   2   4  ar  
  4   3   5  ar  
  5   3  16  1   
  6   4   6  ar  
  7   4  17  1   
  8   5   7  1   
  9   5   8  ar  
 10   6   8  ar  
 11   6  18  1   
 12   7   9  1   
 13   8  19  1   
 14   9  10  1   
 15   9  20  1   
 16   9  21  1   
 17  10  11  1   
 18  10  22  1   
 19  10  23  1   
 20  11  12  1   
 21  11  13  1   
 22  11  24  1   
 23  12  14  1   
 24  12  25  1   
 25  12  26  1   
 26  13  15  1   
 27  13  27  1   
 28  13  28  1   
 29  14  15  1   
 30  14  29  1   
 31  14  30  1   
 32  15  31  1   
 33  15  32  1   
@<TRIPOS>SUBSTRUCTURE
  1 ****   9 GROUP 4 **** **** 0

# MOE 2024.06 (io_trps.svl 2023.06)
