@<TRIPOS>MOLECULE
NONAME
37 37 1 0 0 
SMALL
USER_CHARGES


@<TRIPOS>ATOM
  1 O        2.1830    -4.5040     0.3220 O.3   1 <1>  -0.3630 
  2 C        0.9800    -5.1260     0.3950 C.ar  1 <1>   0.0830 
  3 C        3.3660    -5.2260     0.0940 C.3   1 <1>   0.1200 
  4 C        0.8050    -6.5000     0.2520 C.ar  1 <1>  -0.1500 
  5 C       -0.1240    -4.3210     0.6260 C.ar  1 <1>  -0.1500 
  6 C        4.5120    -4.2130     0.0760 C.3   1 <1>   0.3430 
  7 C       -0.4630    -7.0480     0.3410 C.ar  1 <1>  -0.1500 
  8 C       -1.3890    -4.8740     0.7150 C.ar  1 <1>  -0.1500 
  9 N        5.8360    -4.8750    -0.1610 N.4   1 <1>  -0.9060 
 10 C       -1.5650    -6.2410     0.5750 C.ar  1 <1>  -0.1430 
 11 C        7.0050    -3.9920    -0.1970 C.3   1 <1>   0.5030 
 12 C       -2.9530    -6.8470     0.6710 C.3   1 <1>  -0.0970 
 13 C        8.2110    -4.8910    -0.4480 C.3   1 <1>  -0.2400 
 14 C        7.1590    -3.2810     1.1470 C.3   1 <1>  -0.2400 
 15 C        6.8610    -2.9860    -1.3390 C.3   1 <1>  -0.2400 
 16 H        3.2720    -5.7250    -0.8550 H     1 <1>   0.0800 
 17 H        3.4830    -5.9330     0.8960 H     1 <1>   0.0800 
 18 H        1.6280    -7.1610     0.0700 H     1 <1>   0.1500 
 19 H        0.0080    -3.2600     0.7360 H     1 <1>   0.1500 
 20 H        4.5260    -3.6980     1.0230 H     1 <1>   0.0800 
 21 H        4.3190    -3.4930    -0.7020 H     1 <1>   0.0800 
 22 H       -0.5940    -8.1110     0.2280 H     1 <1>   0.1500 
 23 H       -2.2360    -4.2350     0.8940 H     1 <1>   0.1500 
 24 H        5.8140    -5.3770    -1.0540 H     1 <1>   0.4500 
 25 H        6.0090    -5.5700     0.5710 H     1 <1>   0.4500 
 26 H       -2.9010    -7.8470     1.0620 H     1 <1>   0.0800 
 27 H       -3.4050    -6.8780    -0.3040 H     1 <1>   0.0800 
 28 H       -3.5760    -6.2610     1.3230 H     1 <1>   0.0800 
 29 H        8.1250    -5.4060    -1.3880 H     1 <1>   0.0800 
 30 H        8.3330    -5.6110     0.3420 H     1 <1>   0.0800 
 31 H        9.1080    -4.2970    -0.4850 H     1 <1>   0.0800 
 32 H        7.2090    -3.9860     1.9580 H     1 <1>   0.0800 
 33 H        6.3560    -2.5890     1.3260 H     1 <1>   0.0800 
 34 H        8.0730    -2.7120     1.1520 H     1 <1>   0.0800 
 35 H        6.7020    -3.4840    -2.2790 H     1 <1>   0.0800 
 36 H        7.7640    -2.4060    -1.4250 H     1 <1>   0.0800 
 37 H        6.0580    -2.2940    -1.1610 H     1 <1>   0.0800 
@<TRIPOS>BOND
  1   1   2  1   
  2   1   3  1   
  3   2   4  ar  
  4   2   5  ar  
  5   3   6  1   
  6   3  16  1   
  7   3  17  1   
  8   4   7  ar  
  9   4  18  1   
 10   5   8  ar  
 11   5  19  1   
 12   6   9  1   
 13   6  20  1   
 14   6  21  1   
 15   7  10  ar  
 16   7  22  1   
 17   8  10  ar  
 18   8  23  1   
 19   9  11  1   
 20   9  24  1   
 21   9  25  1   
 22  10  12  1   
 23  11  13  1   
 24  11  14  1   
 25  11  15  1   
 26  12  26  1   
 27  12  27  1   
 28  12  28  1   
 29  13  29  1   
 30  13  30  1   
 31  13  31  1   
 32  14  32  1   
 33  14  33  1   
 34  14  34  1   
 35  15  35  1   
 36  15  36  1   
 37  15  37  1   
@<TRIPOS>SUBSTRUCTURE
  1 ****   3 GROUP 4 **** **** 0

# MOE 2024.06 (io_trps.svl 2023.06)
