@<TRIPOS>MOLECULE
NONAME
32 32 1 0 0 
SMALL
USER_CHARGES


@<TRIPOS>ATOM
  1 O        0.8400    -1.4670    -1.6210 O.2   1 <1>  -0.5700 
  2 C        0.4140    -2.0610    -0.6520 C.2   1 <1>   0.6160 
  3 N        1.1450    -2.0590     0.4990 N.am  1 <1>  -0.7300 
  4 C       -0.8330    -2.7570    -0.7320 C.2   1 <1>  -0.1360 
  5 C        2.4200    -1.3300     0.6930 C.3   1 <1>   0.1400 
  6 C       -1.4640    -3.4810     0.2230 C.2   1 <1>  -0.1050 
  7 C        3.5870    -2.2230     0.2770 C.3   1 <1>  -0.0990 
  8 C       -2.7130    -4.1620     0.0940 C.2   1 <1>   0.0950 
  9 C        4.9170    -1.5360     0.4880 C.2   1 <1>   0.6590 
 10 O       -3.1910    -4.8360     1.1300 O.3   1 <1>  -0.2800 
 11 C       -3.5870    -4.2790    -0.9440 C.2   1 <1>  -0.1500 
 12 O        5.0580    -0.6380     1.2780 O.2   1 <1>  -0.5700 
 13 O        5.9220    -1.9990    -0.2420 O.3   1 <1>  -0.4300 
 14 C       -4.3390    -5.3780     0.7870 C.2   1 <1>  -0.0100 
 15 C       -4.6430    -5.0700    -0.4910 C.2   1 <1>  -0.1500 
 16 C        7.2160    -1.4510    -0.1430 C.3   1 <1>   0.1200 
 17 C        8.1240    -2.2050    -1.1090 C.3   1 <1>  -0.2400 
 18 H        0.7920    -2.5650     1.3110 H     1 <1>   0.3700 
 19 H       -1.2860    -2.6600    -1.7010 H     1 <1>   0.1500 
 20 H        2.4180    -0.4320     0.0960 H     1 <1>   0.0800 
 21 H        2.5140    -1.0440     1.7280 H     1 <1>   0.0800 
 22 H       -1.0250    -3.5880     1.1970 H     1 <1>   0.1500 
 23 H        3.4910    -2.4660    -0.7660 H     1 <1>   0.0800 
 24 H        3.5820    -3.1300     0.8510 H     1 <1>   0.0800 
 25 H       -3.5050    -3.8570    -1.9290 H     1 <1>   0.1500 
 26 H       -4.8760    -5.9670     1.5110 H     1 <1>   0.1500 
 27 H       -5.5070    -5.3580    -1.0650 H     1 <1>   0.1500 
 28 H        7.1630    -0.4060    -0.3960 H     1 <1>   0.0800 
 29 H        7.5550    -1.5600     0.8740 H     1 <1>   0.0800 
 30 H        7.7650    -2.0950    -2.1160 H     1 <1>   0.0800 
 31 H        8.1580    -3.2470    -0.8500 H     1 <1>   0.0800 
 32 H        9.1210    -1.8050    -1.0550 H     1 <1>   0.0800 
@<TRIPOS>BOND
  1   1   2  2   
  2   2   3  am  
  3   2   4  1   
  4   3   5  1   
  5   3  18  1   
  6   4   6  2   
  7   4  19  1   
  8   5   7  1   
  9   5  20  1   
 10   5  21  1   
 11   6   8  1   
 12   6  22  1   
 13   7   9  1   
 14   7  23  1   
 15   7  24  1   
 16   8  10  1   
 17   8  11  2   
 18   9  12  2   
 19   9  13  1   
 20  10  14  1   
 21  11  15  1   
 22  11  25  1   
 23  13  16  1   
 24  14  15  2   
 25  14  26  1   
 26  15  27  1   
 27  16  17  1   
 28  16  28  1   
 29  16  29  1   
 30  17  30  1   
 31  17  31  1   
 32  17  32  1   
@<TRIPOS>SUBSTRUCTURE
  1 ****   3 GROUP 4 **** **** 0

# MOE 2024.06 (io_trps.svl 2023.06)
