@<TRIPOS>MOLECULE
NONAME
40 41 1 0 0 
SMALL
USER_CHARGES


@<TRIPOS>ATOM
  1 S       -0.3990    -0.2520    -0.6030 S.3   1 <1>  -0.0800 
  2 C        0.8890    -1.3450    -0.2140 C.2   1 <1>   0.4420 
  3 C       -1.3620    -1.0790     0.5730 C.2   1 <1>   0.1980 
  4 N        0.5510    -2.1800     0.6990 N.2   1 <1>  -0.3380 
  5 N        2.0640    -1.1750    -0.9120 N.am  1 <1>  -0.4940 
  6 N       -0.7310    -2.0250     1.1440 N.2   1 <1>  -0.3380 
  7 C       -2.7860    -0.6120     0.7990 C.3   1 <1>   0.3000 
  8 C        3.2840    -1.7790    -0.9380 C.2   1 <1>   0.5690 
  9 O       -3.4940    -0.6420    -0.4220 O.3   1 <1>  -0.3630 
 10 O        4.0930    -1.3330    -1.7120 O.2   1 <1>  -0.5700 
 11 C        3.7200    -2.9740    -0.0740 C.3   1 <1>  -0.0190 
 12 C       -4.8300    -0.5010    -0.3120 C.ar  1 <1>   0.0820 
 13 C        2.9410    -4.2690    -0.3630 C.3   1 <1>  -0.2400 
 14 C        3.7800    -2.6650     1.4330 C.3   1 <1>  -0.2400 
 15 C       -5.6570    -1.6130    -0.1640 C.ar  1 <1>  -0.1440 
 16 C       -5.3560     0.7800    -0.3520 C.ar  1 <1>  -0.1500 
 17 C       -7.0280    -1.4150    -0.0190 C.ar  1 <1>  -0.1440 
 18 C       -5.0690    -3.0250    -0.1610 C.3   1 <1>  -0.0970 
 19 C       -6.7170     0.9670    -0.2170 C.ar  1 <1>  -0.1500 
 20 C       -7.5460    -0.1280    -0.0470 C.ar  1 <1>  -0.1500 
 21 C       -7.9920    -2.5790     0.1700 C.3   1 <1>  -0.0970 
 22 H        2.0370    -0.4160    -1.5880 H     1 <1>   0.3700 
 23 H       -2.7990     0.3950     1.1740 H     1 <1>   0.0800 
 24 H       -3.2790    -1.2650     1.4980 H     1 <1>   0.0800 
 25 H        4.7360    -3.1780    -0.3660 H     1 <1>   0.0800 
 26 H        1.9220    -4.2040    -0.0360 H     1 <1>   0.0800 
 27 H        3.4020    -5.0970     0.1460 H     1 <1>   0.0800 
 28 H        2.9500    -4.4750    -1.4190 H     1 <1>   0.0800 
 29 H        2.8030    -2.5210     1.8510 H     1 <1>   0.0800 
 30 H        4.3600    -1.7750     1.6020 H     1 <1>   0.0800 
 31 H        4.2500    -3.4790     1.9560 H     1 <1>   0.0800 
 32 H       -4.7030     1.6220    -0.4890 H     1 <1>   0.1500 
 33 H       -4.0730    -3.0410    -0.5640 H     1 <1>   0.0800 
 34 H       -5.6660    -3.6820    -0.7650 H     1 <1>   0.0800 
 35 H       -5.0380    -3.4050     0.8440 H     1 <1>   0.0800 
 36 H       -7.1330     1.9590    -0.2450 H     1 <1>   0.1500 
 37 H       -8.6040     0.0330     0.0590 H     1 <1>   0.1500 
 38 H       -7.6540    -3.2180     0.9650 H     1 <1>   0.0800 
 39 H       -8.0570    -3.1510    -0.7380 H     1 <1>   0.0800 
 40 H       -8.9770    -2.2290     0.4200 H     1 <1>   0.0800 
@<TRIPOS>BOND
  1   1   2  1   
  2   1   3  1   
  3   2   4  2   
  4   2   5  1   
  5   3   6  2   
  6   3   7  1   
  7   4   6  1   
  8   5   8  am  
  9   5  22  1   
 10   7   9  1   
 11   7  23  1   
 12   7  24  1   
 13   8  10  2   
 14   8  11  1   
 15   9  12  1   
 16  11  13  1   
 17  11  14  1   
 18  11  25  1   
 19  12  15  ar  
 20  12  16  ar  
 21  13  26  1   
 22  13  27  1   
 23  13  28  1   
 24  14  29  1   
 25  14  30  1   
 26  14  31  1   
 27  15  17  ar  
 28  15  18  1   
 29  16  19  ar  
 30  16  32  1   
 31  17  20  ar  
 32  17  21  1   
 33  18  33  1   
 34  18  34  1   
 35  18  35  1   
 36  19  20  ar  
 37  19  36  1   
 38  20  37  1   
 39  21  38  1   
 40  21  39  1   
 41  21  40  1   
@<TRIPOS>SUBSTRUCTURE
  1 ****   3 GROUP 4 **** **** 0

# MOE 2024.06 (io_trps.svl 2023.06)
