@<TRIPOS>MOLECULE
NONAME
52 55 1 0 0 
SMALL
USER_CHARGES


@<TRIPOS>ATOM
  1 F       -2.9690    -1.8910    -0.3470 F     1 <1>  -0.3400 
  2 C       -3.5350    -1.1290    -1.2730 C.3   1 <1>   1.1640 
  3 F       -4.6030    -1.7920    -1.7040 F     1 <1>  -0.3400 
  4 F       -2.6880    -1.0940    -2.2950 F     1 <1>  -0.3400 
  5 C       -3.8870     0.2680    -0.7390 C.ar  1 <1>  -0.1440 
  6 C       -5.0930     0.4860    -0.0840 C.ar  1 <1>  -0.1500 
  7 C       -3.0110     1.3380    -0.8880 C.ar  1 <1>  -0.1500 
  8 C       -5.4520     1.7370     0.4090 C.ar  1 <1>   0.1170 
  9 C       -3.3420     2.5880    -0.3980 C.ar  1 <1>  -0.1500 
 10 N       -6.6940     1.9360     1.0610 N.am  1 <1>  -0.2370 
 11 C       -4.5500     2.7830     0.2440 C.ar  1 <1>  -0.1500 
 12 C       -7.5140     3.0250     0.8920 C.2   1 <1>   0.5690 
 13 C       -7.2180     1.1170     2.0280 C.2   1 <1>   0.5690 
 14 O       -7.2930     3.9640     0.1660 O.2   1 <1>  -0.5700 
 15 C       -8.7150     2.9760     1.8230 C.3   1 <1>  -0.0190 
 16 O       -6.7680     0.0600     2.3920 O.2   1 <1>  -0.5700 
 17 C       -8.4610     1.7040     2.6530 C.3   1 <1>  -0.0990 
 18 C      -10.0800     3.0020     1.0880 C.3   1 <1>   0.0580 
 19 C      -10.1430     2.0950    -0.1550 C.2   1 <1>  -0.0380 
 20 C      -10.4530     4.4690     0.7620 C.3   1 <1>  -0.1600 
 21 N       -9.7150     0.7790     0.0290 N.pl3 1 <1>  -0.8380 
 22 C      -10.6260     2.5360    -1.3290 C.2   1 <1>  -0.2880 
 23 C      -11.6000     4.5700    -0.2460 C.3   1 <1>  -0.1600 
 24 C      -10.8230    -0.1640     0.3770 C.3   1 <1>   0.2090 
 25 C       -8.8590     0.1810    -1.0490 C.3   1 <1>   0.2090 
 26 C      -11.1910     3.9230    -1.5720 C.3   1 <1>  -0.0220 
 27 C      -10.2880    -1.5760     0.6760 C.3   1 <1>   0.1200 
 28 C       -8.4140    -1.2450    -0.6740 C.3   1 <1>   0.1200 
 29 O       -9.5210    -2.0540    -0.3930 O.3   1 <1>  -0.5600 
 30 H       -5.7700    -0.3360     0.0570 H     1 <1>   0.1500 
 31 H       -2.0630     1.2070    -1.3860 H     1 <1>   0.1500 
 32 H       -2.6600     3.4120    -0.5180 H     1 <1>   0.1500 
 33 H       -4.7920     3.7630     0.6160 H     1 <1>   0.1500 
 34 H       -8.6550     3.8220     2.4840 H     1 <1>   0.0800 
 35 H       -8.2620     1.9430     3.6810 H     1 <1>   0.0800 
 36 H       -9.2680     0.9980     2.6010 H     1 <1>   0.0800 
 37 H      -10.8300     2.6410     1.7690 H     1 <1>   0.0800 
 38 H       -9.6050     4.9810     0.3450 H     1 <1>   0.0800 
 39 H      -10.7270     4.9790     1.6690 H     1 <1>   0.0800 
 40 H      -10.6670     1.9220    -2.2080 H     1 <1>   0.1500 
 41 H      -11.8550     5.6020    -0.4130 H     1 <1>   0.0800 
 42 H      -12.4680     4.0670     0.1450 H     1 <1>   0.0800 
 43 H      -11.5200    -0.2160    -0.4420 H     1 <1>   0.0800 
 44 H      -11.3510     0.2060     1.2380 H     1 <1>   0.0800 
 45 H       -7.9960     0.8040    -1.2060 H     1 <1>   0.0800 
 46 H       -9.4080     0.1330    -1.9720 H     1 <1>   0.0800 
 47 H      -12.0540     3.8550    -2.2110 H     1 <1>   0.0800 
 48 H      -10.4480     4.5240    -2.0680 H     1 <1>   0.0800 
 49 H      -11.1050    -2.2590     0.8250 H     1 <1>   0.0800 
 50 H       -9.6760    -1.5670     1.5610 H     1 <1>   0.0800 
 51 H       -7.7820    -1.2290     0.1950 H     1 <1>   0.0800 
 52 H       -7.8760    -1.6940    -1.4890 H     1 <1>   0.0800 
@<TRIPOS>BOND
  1   1   2  1   
  2   2   3  1   
  3   2   4  1   
  4   2   5  1   
  5   5   6  ar  
  6   5   7  ar  
  7   6   8  ar  
  8   6  30  1   
  9   7   9  ar  
 10   7  31  1   
 11   8  10  1   
 12   8  11  ar  
 13   9  11  ar  
 14   9  32  1   
 15  10  12  am  
 16  10  13  am  
 17  11  33  1   
 18  12  14  2   
 19  12  15  1   
 20  13  16  2   
 21  13  17  1   
 22  15  17  1   
 23  15  18  1   
 24  15  34  1   
 25  17  35  1   
 26  17  36  1   
 27  18  19  1   
 28  18  20  1   
 29  18  37  1   
 30  19  21  1   
 31  19  22  2   
 32  20  23  1   
 33  20  38  1   
 34  20  39  1   
 35  21  24  1   
 36  21  25  1   
 37  22  26  1   
 38  22  40  1   
 39  23  26  1   
 40  23  41  1   
 41  23  42  1   
 42  24  27  1   
 43  24  43  1   
 44  24  44  1   
 45  25  28  1   
 46  25  45  1   
 47  25  46  1   
 48  26  47  1   
 49  26  48  1   
 50  27  29  1   
 51  27  49  1   
 52  27  50  1   
 53  28  29  1   
 54  28  51  1   
 55  28  52  1   
@<TRIPOS>SUBSTRUCTURE
  1 ****  10 GROUP 4 **** **** 0

# MOE 2024.06 (io_trps.svl 2023.06)
