@<TRIPOS>MOLECULE
NONAME
43 45 1 0 0 
SMALL
USER_CHARGES


@<TRIPOS>ATOM
  1 CL       0.0540     0.3270    -1.2770 Cl    1 <1>  -0.1770 
  2 C       -0.9070    -0.7910    -0.3350 C.ar  1 <1>   0.1770 
  3 C       -0.3060    -1.8730     0.3070 C.ar  1 <1>   0.0830 
  4 C       -2.2710    -0.5710    -0.2390 C.ar  1 <1>  -0.1500 
  5 O        1.0230    -2.1010     0.2300 O.3   1 <1>  -0.3630 
  6 C       -1.0830    -2.7330     1.0670 C.ar  1 <1>  -0.1500 
  7 C       -3.0480    -1.4380     0.5140 C.ar  1 <1>  -0.1500 
  8 C        1.4930    -2.7100    -0.9670 C.3   1 <1>   0.1810 
  9 C       -2.4450    -2.5050     1.1580 C.ar  1 <1>   0.1770 
 10 C        2.9920    -2.9710    -0.8950 C.2   1 <1>   0.5690 
 11 CL      -3.4250    -3.5910     2.1070 Cl    1 <1>  -0.1770 
 12 O        3.5010    -3.6050    -1.7850 O.2   1 <1>  -0.5700 
 13 N        3.6830    -2.4680     0.1700 N.am  1 <1>  -0.4940 
 14 C        5.0000    -2.5770     0.5590 C.2   1 <1>   0.4420 
 15 S        6.1210    -3.6090    -0.2720 S.3   1 <1>  -0.0800 
 16 N        5.5420    -1.9680     1.5490 N.2   1 <1>  -0.3380 
 17 C        7.3120    -3.1110     0.8800 C.2   1 <1>   0.1980 
 18 N        6.8630    -2.2730     1.7240 N.2   1 <1>  -0.3380 
 19 C        8.7130    -3.6710     0.7500 C.3   1 <1>   0.0810 
 20 C        8.7980    -5.1690     1.0050 C.2   1 <1>   0.5690 
 21 O        7.8600    -5.7230     1.5280 O.2   1 <1>  -0.5700 
 22 N        9.9250    -5.8730     0.6540 N.am  1 <1>  -0.6600 
 23 C       11.1860    -5.3130     0.0760 C.3   1 <1>   0.1400 
 24 C        9.9930    -7.3580     0.8260 C.3   1 <1>   0.1400 
 25 C       11.5900    -6.0930    -1.1870 C.3   1 <1>   0.1200 
 26 C       10.4720    -8.0310    -0.4710 C.3   1 <1>   0.1200 
 27 O       11.6740    -7.4620    -0.9100 O.3   1 <1>  -0.5600 
 28 H       -2.7150     0.2690    -0.7450 H     1 <1>   0.1500 
 29 H       -0.6370    -3.5640     1.5810 H     1 <1>   0.1500 
 30 H       -4.1100    -1.2910     0.6050 H     1 <1>   0.1500 
 31 H        1.2840    -2.0600    -1.7960 H     1 <1>   0.0800 
 32 H        0.9750    -3.6410    -1.1020 H     1 <1>   0.0800 
 33 H        3.1170    -1.9140     0.8140 H     1 <1>   0.3700 
 34 H        9.3530    -3.1710     1.4510 H     1 <1>   0.0800 
 35 H        9.0540    -3.4580    -0.2440 H     1 <1>   0.0800 
 36 H       11.9740    -5.4010     0.8040 H     1 <1>   0.0800 
 37 H       11.0830    -4.2730    -0.1700 H     1 <1>   0.0800 
 38 H        9.0300    -7.7580     1.0920 H     1 <1>   0.0800 
 39 H       10.6780    -7.5920     1.6220 H     1 <1>   0.0800 
 40 H       12.5560    -5.7700    -1.5320 H     1 <1>   0.0800 
 41 H       10.8720    -5.9440    -1.9750 H     1 <1>   0.0800 
 42 H        9.7340    -7.9240    -1.2460 H     1 <1>   0.0800 
 43 H       10.6470    -9.0780    -0.3020 H     1 <1>   0.0800 
@<TRIPOS>BOND
  1   1   2  1   
  2   2   3  ar  
  3   2   4  ar  
  4   3   5  1   
  5   3   6  ar  
  6   4   7  ar  
  7   4  28  1   
  8   5   8  1   
  9   6   9  ar  
 10   6  29  1   
 11   7   9  ar  
 12   7  30  1   
 13   8  10  1   
 14   8  31  1   
 15   8  32  1   
 16   9  11  1   
 17  10  12  2   
 18  10  13  am  
 19  13  14  1   
 20  13  33  1   
 21  14  15  1   
 22  14  16  2   
 23  15  17  1   
 24  16  18  1   
 25  17  18  2   
 26  17  19  1   
 27  19  20  1   
 28  19  34  1   
 29  19  35  1   
 30  20  21  2   
 31  20  22  am  
 32  22  23  1   
 33  22  24  1   
 34  23  25  1   
 35  23  36  1   
 36  23  37  1   
 37  24  26  1   
 38  24  38  1   
 39  24  39  1   
 40  25  27  1   
 41  25  40  1   
 42  25  41  1   
 43  26  27  1   
 44  26  42  1   
 45  26  43  1   
@<TRIPOS>SUBSTRUCTURE
  1 ****  14 GROUP 4 **** **** 0

# MOE 2024.06 (io_trps.svl 2023.06)
