@<TRIPOS>MOLECULE
NONAME
43 44 1 0 0 
SMALL
USER_CHARGES


@<TRIPOS>ATOM
  1 N        0.0900    -0.1660    -0.6310 N.4   1 <1>  -0.9590 
  2 C        1.3100     0.6990    -0.5140 C.3   1 <1>   0.4230 
  3 C       -1.0300     0.5790    -1.3250 C.3   1 <1>   0.3430 
  4 C       -0.3580    -0.7720     0.6850 C.3   1 <1>   0.3430 
  5 C        2.5610    -0.1740    -0.3070 C.3   1 <1>  -0.1600 
  6 C        1.1830     1.7760     0.5740 C.3   1 <1>  -0.1600 
  7 C       -2.3470    -0.2440    -1.4360 C.3   1 <1>   0.3430 
  8 C       -1.6730    -1.5960     0.5720 C.3   1 <1>   0.3430 
  9 C        3.7180     0.5780     0.3850 C.3   1 <1>  -0.0800 
 10 C        2.3780     2.7460     0.5110 C.3   1 <1>  -0.1600 
 11 N       -2.7930    -0.8490    -0.1230 N.4   1 <1>  -0.9590 
 12 C        3.6850     2.0750     0.0440 C.3   1 <1>  -0.1600 
 13 C        5.0700    -0.0380     0.0100 C.3   1 <1>  -0.2400 
 14 C       -3.9910    -1.7190    -0.3370 C.3   1 <1>   0.3430 
 15 C       -4.6620    -2.0070     1.0010 C.3   1 <1>  -0.2400 
 16 H        0.3890    -0.9360    -1.2500 H     1 <1>   0.4500 
 17 H        1.4510     1.2210    -1.4470 H     1 <1>   0.0800 
 18 H       -0.7130     0.8660    -2.3160 H     1 <1>   0.0800 
 19 H       -1.2440     1.4870    -0.7860 H     1 <1>   0.0800 
 20 H       -0.5180     0.0130     1.4060 H     1 <1>   0.0800 
 21 H        0.4190    -1.4090     1.0770 H     1 <1>   0.0800 
 22 H        2.8910    -0.5010    -1.2780 H     1 <1>   0.0800 
 23 H        2.3500    -1.0480     0.2800 H     1 <1>   0.0800 
 24 H        1.1870     1.3170     1.5470 H     1 <1>   0.0800 
 25 H        0.2790     2.3470     0.4660 H     1 <1>   0.0800 
 26 H       -2.1950    -1.0300    -2.1580 H     1 <1>   0.0800 
 27 H       -3.1250     0.3960    -1.8220 H     1 <1>   0.0800 
 28 H       -1.9870    -1.8810     1.5640 H     1 <1>   0.0800 
 29 H       -1.4600    -2.5050     0.0330 H     1 <1>   0.0800 
 30 H        3.6040     0.4850     1.4540 H     1 <1>   0.0800 
 31 H        2.5300     3.1710     1.4900 H     1 <1>   0.0800 
 32 H        2.1570     3.5640    -0.1550 H     1 <1>   0.0800 
 33 H       -3.1150    -0.0880     0.4970 H     1 <1>   0.4500 
 34 H        3.7920     2.1970    -1.0220 H     1 <1>   0.0800 
 35 H        4.5210     2.5770     0.5040 H     1 <1>   0.0800 
 36 H        5.2600     0.0600    -1.0450 H     1 <1>   0.0800 
 37 H        5.0950    -1.0820     0.2690 H     1 <1>   0.0800 
 38 H        5.8640     0.4560     0.5420 H     1 <1>   0.0800 
 39 H       -3.7090    -2.6440    -0.8160 H     1 <1>   0.0800 
 40 H       -4.7010    -1.2140    -0.9750 H     1 <1>   0.0800 
 41 H       -4.0390    -2.6030     1.6420 H     1 <1>   0.0800 
 42 H       -5.5640    -2.5670     0.8230 H     1 <1>   0.0800 
 43 H       -4.9390    -1.0960     1.5020 H     1 <1>   0.0800 
@<TRIPOS>BOND
  1   1   2  1   
  2   1   3  1   
  3   1   4  1   
  4   1  16  1   
  5   2   5  1   
  6   2   6  1   
  7   2  17  1   
  8   3   7  1   
  9   3  18  1   
 10   3  19  1   
 11   4   8  1   
 12   4  20  1   
 13   4  21  1   
 14   5   9  1   
 15   5  22  1   
 16   5  23  1   
 17   6  10  1   
 18   6  24  1   
 19   6  25  1   
 20   7  11  1   
 21   7  26  1   
 22   7  27  1   
 23   8  11  1   
 24   8  28  1   
 25   8  29  1   
 26   9  12  1   
 27   9  13  1   
 28   9  30  1   
 29  10  12  1   
 30  10  31  1   
 31  10  32  1   
 32  11  14  1   
 33  11  33  1   
 34  12  34  1   
 35  12  35  1   
 36  13  36  1   
 37  13  37  1   
 38  13  38  1   
 39  14  15  1   
 40  14  39  1   
 41  14  40  1   
 42  15  41  1   
 43  15  42  1   
 44  15  43  1   
@<TRIPOS>SUBSTRUCTURE
  1 ****   1 GROUP 4 **** **** 0

# MOE 2024.06 (io_trps.svl 2023.06)
