@<TRIPOS>MOLECULE
NONAME
28 28 1 0 0 
SMALL
USER_CHARGES


@<TRIPOS>ATOM
  1 BR       0.0430    -0.6790     0.8550 Br    1 <1>  -0.1110 
  2 C       -1.4340     0.5120     0.5290 C.ar  1 <1>   0.1110 
  3 C       -1.2770     1.8550     0.8110 C.ar  1 <1>  -0.1500 
  4 C       -2.6090    -0.0070     0.0230 C.ar  1 <1>  -0.1500 
  5 C       -2.3390     2.7150     0.5750 C.ar  1 <1>  -0.1440 
  6 C       -3.6680     0.8530    -0.2110 C.ar  1 <1>  -0.1500 
  7 C       -3.5370     2.2160     0.0620 C.ar  1 <1>   0.0830 
  8 C       -2.2010     4.1910     0.8830 C.3   1 <1>   0.4870 
  9 O       -4.5370     3.1110    -0.1600 O.3   1 <1>  -0.3630 
 10 N       -2.3820     4.9240    -0.3860 N.4   1 <1>  -0.9060 
 11 C       -5.8490     2.6830    -0.4600 C.3   1 <1>   0.1200 
 12 C       -2.3860     6.4060    -0.2390 C.3   1 <1>   0.2630 
 13 C       -6.7440     3.9160    -0.5290 C.3   1 <1>  -0.2400 
 14 H       -0.3370     2.1960     1.2090 H     1 <1>   0.1500 
 15 H       -2.6910    -1.0610    -0.1810 H     1 <1>   0.1500 
 16 H       -4.5770     0.4400    -0.6070 H     1 <1>   0.1500 
 17 H       -1.2310     4.3980     1.3060 H     1 <1>   0.0800 
 18 H       -2.9620     4.4800     1.5910 H     1 <1>   0.0800 
 19 H       -3.2900     4.5830    -0.7500 H     1 <1>   0.4500 
 20 H       -1.6730     4.6020    -1.0550 H     1 <1>   0.4500 
 21 H       -6.1810     2.0160     0.3190 H     1 <1>   0.0800 
 22 H       -5.8390     2.1700    -1.4070 H     1 <1>   0.0800 
 23 H       -3.1680     6.7130     0.4380 H     1 <1>   0.0800 
 24 H       -2.5580     6.8740    -1.1950 H     1 <1>   0.0800 
 25 H       -1.4390     6.7480     0.1460 H     1 <1>   0.0800 
 26 H       -6.7440     4.4320     0.4150 H     1 <1>   0.0800 
 27 H       -7.7530     3.6160    -0.7480 H     1 <1>   0.0800 
 28 H       -6.4140     4.5790    -1.3080 H     1 <1>   0.0800 
@<TRIPOS>BOND
  1   1   2  1   
  2   2   3  ar  
  3   2   4  ar  
  4   3   5  ar  
  5   3  14  1   
  6   4   6  ar  
  7   4  15  1   
  8   5   7  ar  
  9   5   8  1   
 10   6   7  ar  
 11   6  16  1   
 12   7   9  1   
 13   8  10  1   
 14   8  17  1   
 15   8  18  1   
 16   9  11  1   
 17  10  12  1   
 18  10  19  1   
 19  10  20  1   
 20  11  13  1   
 21  11  21  1   
 22  11  22  1   
 23  12  23  1   
 24  12  24  1   
 25  12  25  1   
 26  13  26  1   
 27  13  27  1   
 28  13  28  1   
@<TRIPOS>SUBSTRUCTURE
  1 ****   7 GROUP 4 **** **** 0

# MOE 2024.06 (io_trps.svl 2023.06)
