@<TRIPOS>MOLECULE
NONAME
35 35 1 0 0 
SMALL
USER_CHARGES


@<TRIPOS>ATOM
  1 S        0.0280     0.0830     0.5010 S.o2  1 <1>   1.4470 
  2 O        0.6140    -1.2180     0.2570 O.2   1 <1>  -0.6500 
  3 O        0.3520     0.7850     1.7260 O.2   1 <1>  -0.6500 
  4 N        0.5160     1.0930    -0.7770 N.am  1 <1>  -0.8490 
  5 C       -1.7720    -0.0200     0.2900 C.ar  1 <1>  -0.0090 
  6 C        1.9630     1.0350    -0.9950 C.3   1 <1>   0.1160 
  7 C        0.0890     2.4840    -0.6010 C.3   1 <1>   0.1160 
  8 C       -2.3270    -0.4480    -0.9090 C.ar  1 <1>  -0.1500 
  9 C       -2.6430     0.3280     1.3150 C.ar  1 <1>  -0.1500 
 10 C       -3.6980    -0.5240    -1.0830 C.ar  1 <1>  -0.1500 
 11 C       -4.0150     0.2550     1.1480 C.ar  1 <1>  -0.1500 
 12 C       -4.5580    -0.1720    -0.0540 C.ar  1 <1>  -0.1430 
 13 C       -6.0700    -0.2630    -0.2560 C.3   1 <1>   0.0630 
 14 C       -6.7070     1.1350    -0.1500 C.3   1 <1>  -0.1600 
 15 C       -6.6760    -1.2640     0.7380 C.3   1 <1>  -0.2400 
 16 C       -8.1940     1.1630    -0.5310 C.3   1 <1>  -0.2400 
 17 H        2.2610     0.0240    -1.2200 H     1 <1>   0.0800 
 18 H        2.4890     1.3610    -0.1120 H     1 <1>   0.0800 
 19 H        2.2410     1.6600    -1.8260 H     1 <1>   0.0800 
 20 H       -0.9810     2.5310    -0.4880 H     1 <1>   0.0800 
 21 H        0.3610     3.0650    -1.4650 H     1 <1>   0.0800 
 22 H        0.5510     2.9150     0.2720 H     1 <1>   0.0800 
 23 H       -1.6710    -0.7250    -1.7180 H     1 <1>   0.1500 
 24 H       -2.2430     0.6610     2.2580 H     1 <1>   0.1500 
 25 H       -4.0890    -0.8610    -2.0270 H     1 <1>   0.1500 
 26 H       -4.6590     0.5320     1.9640 H     1 <1>   0.1500 
 27 H       -6.2570    -0.6370    -1.2490 H     1 <1>   0.0800 
 28 H       -6.1750     1.8000    -0.8090 H     1 <1>   0.0800 
 29 H       -6.5920     1.5140     0.8500 H     1 <1>   0.0800 
 30 H       -6.6160    -0.8890     1.7430 H     1 <1>   0.0800 
 31 H       -6.1400    -2.1950     0.6870 H     1 <1>   0.0800 
 32 H       -7.7060    -1.4580     0.5020 H     1 <1>   0.0800 
 33 H       -8.3390     0.7630    -1.5190 H     1 <1>   0.0800 
 34 H       -8.5540     2.1770    -0.5200 H     1 <1>   0.0800 
 35 H       -8.7820     0.5930     0.1660 H     1 <1>   0.0800 
@<TRIPOS>BOND
  1   1   2  2   
  2   1   3  2   
  3   1   4  am  
  4   1   5  1   
  5   4   6  1   
  6   4   7  1   
  7   5   8  ar  
  8   5   9  ar  
  9   6  17  1   
 10   6  18  1   
 11   6  19  1   
 12   7  20  1   
 13   7  21  1   
 14   7  22  1   
 15   8  10  ar  
 16   8  23  1   
 17   9  11  ar  
 18   9  24  1   
 19  10  12  ar  
 20  10  25  1   
 21  11  12  ar  
 22  11  26  1   
 23  12  13  1   
 24  13  14  1   
 25  13  15  1   
 26  13  27  1   
 27  14  16  1   
 28  14  28  1   
 29  14  29  1   
 30  15  30  1   
 31  15  31  1   
 32  15  32  1   
 33  16  33  1   
 34  16  34  1   
 35  16  35  1   
@<TRIPOS>SUBSTRUCTURE
  1 ****   5 GROUP 4 **** **** 0

# MOE 2024.06 (io_trps.svl 2023.06)
