@<TRIPOS>MOLECULE
NONAME
37 37 1 0 0 
SMALL
USER_CHARGES


@<TRIPOS>ATOM
  1 BR      -0.2860    -0.4650     1.3540 Br    1 <1>  -0.1110 
  2 C       -2.0510    -0.0890     0.6810 C.ar  1 <1>   0.1110 
  3 C       -3.0090    -1.0810     0.7420 C.ar  1 <1>  -0.1500 
  4 C       -2.3060     1.1600     0.1510 C.ar  1 <1>  -0.1500 
  5 C       -4.2810    -0.8150     0.2620 C.ar  1 <1>  -0.1440 
  6 C       -3.5750     1.4370    -0.3320 C.ar  1 <1>  -0.1440 
  7 C       -4.5620     0.4520    -0.2540 C.ar  1 <1>   0.0830 
  8 C       -5.3340    -1.9150     0.3030 C.3   1 <1>  -0.0960 
  9 C       -3.8540     2.8040    -0.9420 C.3   1 <1>  -0.0960 
 10 O       -5.8100     0.7270    -0.6960 O.3   1 <1>  -0.3630 
 11 C       -6.6900     1.2540     0.2600 C.3   1 <1>   0.1200 
 12 C       -8.0270     1.5000    -0.4370 C.3   1 <1>  -0.1600 
 13 C       -9.0500     2.0670     0.5450 C.3   1 <1>   0.3430 
 14 N      -10.3190     2.4080    -0.1620 N.4   1 <1>  -0.9590 
 15 C      -11.1920     3.2570     0.7070 C.3   1 <1>   0.2630 
 16 C      -11.0670     1.1900    -0.6130 C.3   1 <1>   0.2630 
 17 H       -2.7550    -2.0410     1.1550 H     1 <1>   0.1500 
 18 H       -1.5210     1.8930     0.1170 H     1 <1>   0.1500 
 19 H       -4.8690    -2.8810     0.3810 H     1 <1>   0.0800 
 20 H       -5.9210    -1.9000    -0.5970 H     1 <1>   0.0800 
 21 H       -5.9800    -1.7750     1.1490 H     1 <1>   0.0800 
 22 H       -2.9380     3.2800    -1.2410 H     1 <1>   0.0800 
 23 H       -4.3500     3.4320    -0.2260 H     1 <1>   0.0800 
 24 H       -4.4760     2.7020    -1.8130 H     1 <1>   0.0800 
 25 H       -6.2670     2.1680     0.6410 H     1 <1>   0.0800 
 26 H       -6.7860     0.5390     1.0600 H     1 <1>   0.0800 
 27 H       -8.3710     0.5630    -0.8370 H     1 <1>   0.0800 
 28 H       -7.8660     2.1980    -1.2400 H     1 <1>   0.0800 
 29 H       -8.6400     2.9570     0.9950 H     1 <1>   0.0800 
 30 H       -9.2430     1.3520     1.3290 H     1 <1>   0.0800 
 31 H      -10.0710     2.9590    -0.9990 H     1 <1>   0.4500 
 32 H      -11.4740     2.7190     1.5970 H     1 <1>   0.0800 
 33 H      -12.0880     3.5380     0.1760 H     1 <1>   0.0800 
 34 H      -10.6720     4.1560     0.9970 H     1 <1>   0.0800 
 35 H      -11.3180     0.5690     0.2310 H     1 <1>   0.0800 
 36 H      -10.4700     0.6130    -1.3010 H     1 <1>   0.0800 
 37 H      -11.9790     1.4750    -1.1140 H     1 <1>   0.0800 
@<TRIPOS>BOND
  1   1   2  1   
  2   2   3  ar  
  3   2   4  ar  
  4   3   5  ar  
  5   3  17  1   
  6   4   6  ar  
  7   4  18  1   
  8   5   7  ar  
  9   5   8  1   
 10   6   7  ar  
 11   6   9  1   
 12   7  10  1   
 13   8  19  1   
 14   8  20  1   
 15   8  21  1   
 16   9  22  1   
 17   9  23  1   
 18   9  24  1   
 19  10  11  1   
 20  11  12  1   
 21  11  25  1   
 22  11  26  1   
 23  12  13  1   
 24  12  27  1   
 25  12  28  1   
 26  13  14  1   
 27  13  29  1   
 28  13  30  1   
 29  14  15  1   
 30  14  16  1   
 31  14  31  1   
 32  15  32  1   
 33  15  33  1   
 34  15  34  1   
 35  16  35  1   
 36  16  36  1   
 37  16  37  1   
@<TRIPOS>SUBSTRUCTURE
  1 ****  10 GROUP 4 **** **** 0

# MOE 2024.06 (io_trps.svl 2023.06)
