@<TRIPOS>MOLECULE
NONAME
39 39 1 0 0 
SMALL
USER_CHARGES


@<TRIPOS>ATOM
  1 F       -2.0600     1.4890     1.4740 F     1 <1>  -0.1900 
  2 C       -1.1660     2.2150     0.8530 C.ar  1 <1>   0.1900 
  3 C       -1.4140     2.5970    -0.4600 C.ar  1 <1>  -0.1440 
  4 C       -0.0260     2.5800     1.5400 C.ar  1 <1>  -0.1500 
  5 C       -0.4670     3.3810    -1.1120 C.ar  1 <1>  -0.1500 
  6 C       -2.6860     2.1580    -1.1610 C.3   1 <1>   0.4870 
  7 C        0.8870     3.3600     0.8610 C.ar  1 <1>   0.1900 
  8 C        0.6890     3.7660    -0.4480 C.ar  1 <1>  -0.1500 
  9 N       -3.8650     2.7060    -0.4160 N.4   1 <1>  -0.9590 
 10 F        1.9760     3.7300     1.4750 F     1 <1>  -0.1900 
 11 C       -5.1280     1.9710    -0.7940 C.3   1 <1>   0.3430 
 12 C       -3.9240     4.1900    -0.5740 C.3   1 <1>   0.3430 
 13 C       -6.3470     2.2530     0.1330 C.3   1 <1>   0.3430 
 14 C       -4.1810     4.8210     0.7880 C.3   1 <1>  -0.2400 
 15 N       -7.5850     1.4470    -0.1860 N.4   1 <1>  -0.9590 
 16 C       -8.7450     1.9390     0.6320 C.3   1 <1>   0.2630 
 17 C       -7.4200    -0.0280     0.0540 C.3   1 <1>   0.2630 
 18 H        0.1510     2.2740     2.5560 H     1 <1>   0.1500 
 19 H       -0.6060     3.6970    -2.1330 H     1 <1>   0.1500 
 20 H       -2.7170     1.0800    -1.1670 H     1 <1>   0.0800 
 21 H       -2.6880     2.5050    -2.1820 H     1 <1>   0.0800 
 22 H        1.4360     4.3720    -0.9340 H     1 <1>   0.1500 
 23 H       -3.6210     2.5190     0.5720 H     1 <1>   0.4500 
 24 H       -4.9270     0.9130    -0.7640 H     1 <1>   0.0800 
 25 H       -5.3930     2.2300    -1.8060 H     1 <1>   0.0800 
 26 H       -4.6930     4.4730    -1.2760 H     1 <1>   0.0800 
 27 H       -2.9820     4.5640    -0.9460 H     1 <1>   0.0800 
 28 H       -6.5920     3.3000     0.0560 H     1 <1>   0.0800 
 29 H       -6.0590     2.0540     1.1520 H     1 <1>   0.0800 
 30 H       -5.1290     4.5310     1.2010 H     1 <1>   0.0800 
 31 H       -4.1880     5.8920     0.6800 H     1 <1>   0.0800 
 32 H       -3.3930     4.5720     1.4770 H     1 <1>   0.0800 
 33 H       -7.8560     1.5820    -1.1770 H     1 <1>   0.4500 
 34 H       -8.5490     1.8100     1.6850 H     1 <1>   0.0800 
 35 H       -9.6400     1.3890     0.3840 H     1 <1>   0.0800 
 36 H       -8.9290     2.9840     0.4420 H     1 <1>   0.0800 
 37 H       -7.1670    -0.2180     1.0850 H     1 <1>   0.0800 
 38 H       -6.6460    -0.4370    -0.5740 H     1 <1>   0.0800 
 39 H       -8.3410    -0.5470    -0.1680 H     1 <1>   0.0800 
@<TRIPOS>BOND
  1   1   2  1   
  2   2   3  ar  
  3   2   4  ar  
  4   3   5  ar  
  5   3   6  1   
  6   4   7  ar  
  7   4  18  1   
  8   5   8  ar  
  9   5  19  1   
 10   6   9  1   
 11   6  20  1   
 12   6  21  1   
 13   7   8  ar  
 14   7  10  1   
 15   8  22  1   
 16   9  11  1   
 17   9  12  1   
 18   9  23  1   
 19  11  13  1   
 20  11  24  1   
 21  11  25  1   
 22  12  14  1   
 23  12  26  1   
 24  12  27  1   
 25  13  15  1   
 26  13  28  1   
 27  13  29  1   
 28  14  30  1   
 29  14  31  1   
 30  14  32  1   
 31  15  16  1   
 32  15  17  1   
 33  15  33  1   
 34  16  34  1   
 35  16  35  1   
 36  16  36  1   
 37  17  37  1   
 38  17  38  1   
 39  17  39  1   
@<TRIPOS>SUBSTRUCTURE
  1 ****   9 GROUP 4 **** **** 0

# MOE 2024.06 (io_trps.svl 2023.06)
