@<TRIPOS>MOLECULE
NONAME
44 46 1 0 0 
SMALL
USER_CHARGES


@<TRIPOS>ATOM
  1 BR      -0.1430     0.3390     0.5010 Br    1 <1>  -0.1110 
  2 C       -2.0500     0.2220     0.2860 C.ar  1 <1>   0.1110 
  3 C       -2.6040    -0.9680    -0.1420 C.ar  1 <1>  -0.1500 
  4 C       -2.8250     1.3310     0.5650 C.ar  1 <1>  -0.1500 
  5 C       -3.9780    -1.0430    -0.2940 C.ar  1 <1>  -0.1500 
  6 C       -4.1960     1.2360     0.4070 C.ar  1 <1>  -0.1500 
  7 C       -4.8040     0.0530    -0.0240 C.ar  1 <1>   0.0530 
  8 C       -6.2390    -0.0370    -0.1860 C.2   1 <1>   0.0870 
  9 O       -7.0130     1.0030     0.1030 O.3   1 <1>  -0.2800 
 10 C       -7.0330    -1.0560    -0.6130 C.2   1 <1>  -0.1500 
 11 C       -8.2700     0.6810    -0.1220 C.2   1 <1>  -0.0400 
 12 C       -8.3480    -0.5890    -0.5720 C.2   1 <1>  -0.1500 
 13 C       -9.3370     1.7260     0.1440 C.3   1 <1>   0.2900 
 14 N      -10.6740     1.1180     0.0840 N.3   1 <1>  -0.9000 
 15 C      -11.7380     2.0610     0.4200 C.3   1 <1>   0.1100 
 16 C      -13.1020     1.4380     0.0730 C.3   1 <1>   0.3430 
 17 N      -14.2470     2.3790     0.2920 N.4   1 <1>  -0.9590 
 18 C      -15.5540     1.6390     0.1940 C.3   1 <1>   0.3430 
 19 C      -14.2340     3.5250    -0.6890 C.3   1 <1>   0.3430 
 20 C      -16.7590     2.5960     0.2880 C.3   1 <1>   0.1200 
 21 C      -15.4970     4.3990    -0.5590 C.3   1 <1>   0.1200 
 22 O      -16.6450     3.6090    -0.6680 O.3   1 <1>  -0.5600 
 23 H       -1.9730    -1.8130    -0.3500 H     1 <1>   0.1500 
 24 H       -2.3640     2.2440     0.8970 H     1 <1>   0.1500 
 25 H       -4.4140    -1.9660    -0.6260 H     1 <1>   0.1500 
 26 H       -4.8080     2.0950     0.6210 H     1 <1>   0.1500 
 27 H       -6.7430    -2.0400    -0.9290 H     1 <1>   0.1500 
 28 H       -9.2220    -1.1500    -0.8530 H     1 <1>   0.1500 
 29 H       -9.2500     2.5090    -0.5900 H     1 <1>   0.0800 
 30 H       -9.1680     2.1470     1.1210 H     1 <1>   0.0800 
 31 H      -10.6540     0.3290     0.7470 H     1 <1>   0.3600 
 32 H      -11.5950     2.9580    -0.1570 H     1 <1>   0.0800 
 33 H      -11.6900     2.3000     1.4700 H     1 <1>   0.0800 
 34 H      -13.2360     0.5610     0.6840 H     1 <1>   0.0800 
 35 H      -13.0840     1.1270    -0.9600 H     1 <1>   0.0800 
 36 H      -14.1850     2.7700     1.2410 H     1 <1>   0.4500 
 37 H      -15.6230     0.9040     0.9800 H     1 <1>   0.0800 
 38 H      -15.6100     1.1200    -0.7490 H     1 <1>   0.0800 
 39 H      -14.1920     3.1420    -1.6960 H     1 <1>   0.0800 
 40 H      -13.3630     4.1400    -0.5340 H     1 <1>   0.0800 
 41 H      -16.8290     3.0440     1.2640 H     1 <1>   0.0800 
 42 H      -17.6720     2.0620     0.0900 H     1 <1>   0.0800 
 43 H      -15.5270     5.1270    -1.3510 H     1 <1>   0.0800 
 44 H      -15.5200     4.9180     0.3830 H     1 <1>   0.0800 
@<TRIPOS>BOND
  1   1   2  1   
  2   2   3  ar  
  3   2   4  ar  
  4   3   5  ar  
  5   3  23  1   
  6   4   6  ar  
  7   4  24  1   
  8   5   7  ar  
  9   5  25  1   
 10   6   7  ar  
 11   6  26  1   
 12   7   8  1   
 13   8   9  1   
 14   8  10  2   
 15   9  11  1   
 16  10  12  1   
 17  10  27  1   
 18  11  12  2   
 19  11  13  1   
 20  12  28  1   
 21  13  14  1   
 22  13  29  1   
 23  13  30  1   
 24  14  15  1   
 25  14  31  1   
 26  15  16  1   
 27  15  32  1   
 28  15  33  1   
 29  16  17  1   
 30  16  34  1   
 31  16  35  1   
 32  17  18  1   
 33  17  19  1   
 34  17  36  1   
 35  18  20  1   
 36  18  37  1   
 37  18  38  1   
 38  19  21  1   
 39  19  39  1   
 40  19  40  1   
 41  20  22  1   
 42  20  41  1   
 43  20  42  1   
 44  21  22  1   
 45  21  43  1   
 46  21  44  1   
@<TRIPOS>SUBSTRUCTURE
  1 ****  13 GROUP 4 **** **** 0

# MOE 2024.06 (io_trps.svl 2023.06)
