@<TRIPOS>MOLECULE
NONAME
38 39 1 0 0 
SMALL
USER_CHARGES


@<TRIPOS>ATOM
  1 F       -0.6190    -0.2910    -1.0520 F     1 <1>  -0.3400 
  2 C       -1.8540     0.1140    -0.7800 C.3   1 <1>   1.1640 
  3 F       -2.4560     0.2730    -1.9540 F     1 <1>  -0.3400 
  4 F       -1.7400     1.3270    -0.2540 F     1 <1>  -0.3400 
  5 C       -2.6040    -0.8480     0.1530 C.ar  1 <1>  -0.1440 
  6 C       -3.9820    -1.0050     0.0530 C.ar  1 <1>  -0.1500 
  7 C       -1.9200    -1.5750     1.1240 C.ar  1 <1>  -0.1500 
  8 C       -4.6740    -1.8700     0.8920 C.ar  1 <1>   0.1000 
  9 C       -2.6000    -2.4390     1.9660 C.ar  1 <1>  -0.1500 
 10 N       -6.0490    -2.0310     0.7950 N.pl3 1 <1>  -0.8380 
 11 C       -3.9680    -2.5830     1.8480 C.ar  1 <1>  -0.1500 
 12 C       -6.5610    -2.6510    -0.4620 C.3   1 <1>   0.2090 
 13 C       -6.8850    -0.8670     1.2110 C.3   1 <1>   0.2090 
 14 C       -8.0530    -3.0150    -0.3290 C.3   1 <1>   0.1100 
 15 C       -8.3730    -1.2560     1.3050 C.3   1 <1>   0.1100 
 16 N       -8.8820    -1.8460     0.0420 N.3   1 <1>  -0.8100 
 17 C      -10.3150    -2.2320     0.1690 C.3   1 <1>   0.1710 
 18 C      -11.2890    -1.0750     0.4200 C.2   1 <1>   0.6590 
 19 O      -11.6550    -0.7860     1.5330 O.2   1 <1>  -0.5700 
 20 O      -11.7230    -0.4220    -0.6540 O.3   1 <1>  -0.4300 
 21 C      -12.6170     0.6660    -0.5510 C.3   1 <1>   0.0400 
 22 H       -4.5440    -0.4550    -0.6800 H     1 <1>   0.1500 
 23 H       -0.8520    -1.4740     1.2320 H     1 <1>   0.1500 
 24 H       -2.0640    -2.9980     2.7130 H     1 <1>   0.1500 
 25 H       -4.5090    -3.2500     2.4940 H     1 <1>   0.1500 
 26 H       -5.9920    -3.5390    -0.6760 H     1 <1>   0.0800 
 27 H       -6.4380    -1.9650    -1.2810 H     1 <1>   0.0800 
 28 H       -6.7750    -0.0690     0.4980 H     1 <1>   0.0800 
 29 H       -6.5460    -0.5120     2.1690 H     1 <1>   0.0800 
 30 H       -8.1510    -3.7860     0.4170 H     1 <1>   0.0800 
 31 H       -8.3950    -3.4110    -1.2690 H     1 <1>   0.0800 
 32 H       -8.9380    -0.3720     1.5460 H     1 <1>   0.0800 
 33 H       -8.4930    -1.9570     2.1130 H     1 <1>   0.0800 
 34 H      -10.4230    -2.9370     0.9750 H     1 <1>   0.0800 
 35 H      -10.6250    -2.7190    -0.7380 H     1 <1>   0.0800 
 36 H      -12.8240     1.0320    -1.5400 H     1 <1>   0.0800 
 37 H      -12.1570     1.4370     0.0420 H     1 <1>   0.0800 
 38 H      -13.5250     0.3280    -0.0820 H     1 <1>   0.0800 
@<TRIPOS>BOND
  1   1   2  1   
  2   2   3  1   
  3   2   4  1   
  4   2   5  1   
  5   5   6  ar  
  6   5   7  ar  
  7   6   8  ar  
  8   6  22  1   
  9   7   9  ar  
 10   7  23  1   
 11   8  10  1   
 12   8  11  ar  
 13   9  11  ar  
 14   9  24  1   
 15  10  12  1   
 16  10  13  1   
 17  11  25  1   
 18  12  14  1   
 19  12  26  1   
 20  12  27  1   
 21  13  15  1   
 22  13  28  1   
 23  13  29  1   
 24  14  16  1   
 25  14  30  1   
 26  14  31  1   
 27  15  16  1   
 28  15  32  1   
 29  15  33  1   
 30  16  17  1   
 31  17  18  1   
 32  17  34  1   
 33  17  35  1   
 34  18  19  2   
 35  18  20  1   
 36  20  21  1   
 37  21  36  1   
 38  21  37  1   
 39  21  38  1   
@<TRIPOS>SUBSTRUCTURE
  1 ****  10 GROUP 4 **** **** 0

# MOE 2024.06 (io_trps.svl 2023.06)
