@<TRIPOS>MOLECULE
NONAME
32 32 1 0 0 
SMALL
USER_CHARGES


@<TRIPOS>ATOM
  1 O       -8.1580     3.4900    -0.1660 O.3   1 <1>  -0.3630 
  2 C       -9.3970     4.0410    -0.0780 C.ar  1 <1>   0.0830 
  3 C       -6.9780     4.2130     0.0730 C.3   1 <1>   0.1200 
  4 C      -10.4920     3.2050    -0.3080 C.ar  1 <1>   0.0730 
  5 C       -9.5980     5.3850     0.2290 C.ar  1 <1>  -0.1500 
  6 C       -5.8190     3.2330    -0.1130 C.3   1 <1>  -0.1600 
  7 C      -10.3100     1.8170    -0.6240 C.1   1 <1>   0.4840 
  8 C      -11.7730     3.7400    -0.2250 C.ar  1 <1>  -0.1500 
  9 C      -10.8800     5.8970     0.3060 C.ar  1 <1>  -0.1500 
 10 C       -4.4740     3.9090     0.1500 C.3   1 <1>   0.3430 
 11 N      -10.1770     0.7110    -0.8730 N.1   1 <1>  -0.5570 
 12 C      -11.9690     5.0750     0.0790 C.ar  1 <1>  -0.1500 
 13 N       -3.3530     2.9680    -0.1480 N.4   1 <1>  -0.9590 
 14 C       -3.2690     1.8460     0.8430 C.3   1 <1>   0.2630 
 15 C       -2.0510     3.7020    -0.2090 C.3   1 <1>   0.2630 
 16 H       -7.0140     4.5940     1.0800 H     1 <1>   0.0800 
 17 H       -6.9270     5.0220    -0.6360 H     1 <1>   0.0800 
 18 H       -8.7750     6.0500     0.4100 H     1 <1>   0.1500 
 19 H       -5.8480     2.8640    -1.1230 H     1 <1>   0.0800 
 20 H       -5.9630     2.4160     0.5710 H     1 <1>   0.0800 
 21 H      -12.6270     3.1070    -0.4000 H     1 <1>   0.1500 
 22 H      -11.0330     6.9360     0.5430 H     1 <1>   0.1500 
 23 H       -4.4200     4.2370     1.1760 H     1 <1>   0.0800 
 24 H       -4.3920     4.7760    -0.4860 H     1 <1>   0.0800 
 25 H      -12.9670     5.4750     0.1400 H     1 <1>   0.1500 
 26 H       -3.5320     2.5580    -1.0790 H     1 <1>   0.4500 
 27 H       -3.1180     2.2340     1.8370 H     1 <1>   0.0800 
 28 H       -2.4460     1.1930     0.5990 H     1 <1>   0.0800 
 29 H       -4.1760     1.2640     0.8330 H     1 <1>   0.0800 
 30 H       -1.8260     4.1500     0.7460 H     1 <1>   0.0800 
 31 H       -2.0930     4.4810    -0.9540 H     1 <1>   0.0800 
 32 H       -1.2520     3.0250    -0.4680 H     1 <1>   0.0800 
@<TRIPOS>BOND
  1   1   2  1   
  2   1   3  1   
  3   2   4  ar  
  4   2   5  ar  
  5   3   6  1   
  6   3  16  1   
  7   3  17  1   
  8   4   7  1   
  9   4   8  ar  
 10   5   9  ar  
 11   5  18  1   
 12   6  10  1   
 13   6  19  1   
 14   6  20  1   
 15   7  11  3   
 16   8  12  ar  
 17   8  21  1   
 18   9  12  ar  
 19   9  22  1   
 20  10  13  1   
 21  10  23  1   
 22  10  24  1   
 23  12  25  1   
 24  13  14  1   
 25  13  15  1   
 26  13  26  1   
 27  14  27  1   
 28  14  28  1   
 29  14  29  1   
 30  15  30  1   
 31  15  31  1   
 32  15  32  1   
@<TRIPOS>SUBSTRUCTURE
  1 ****   1 GROUP 4 **** **** 0

# MOE 2024.06 (io_trps.svl 2023.06)
