@<TRIPOS>MOLECULE
NONAME
54 56 1 0 0 
SMALL
USER_CHARGES


@<TRIPOS>ATOM
  1 O       -0.0880    -0.3750    -1.7320 O.2   1 <1>  -0.5700 
  2 C       -0.5490    -1.2050    -0.9650 C.2   1 <1>   0.5440 
  3 N       -1.6050    -0.8460    -0.1510 N.am  1 <1>  -0.6600 
  4 C        0.0310    -2.5300    -0.9150 C.ar  1 <1>   0.0860 
  5 C       -2.4820     0.3050    -0.4960 C.3   1 <1>   0.1400 
  6 C       -1.7910    -1.4670     1.1930 C.3   1 <1>   0.1400 
  7 C        1.3890    -2.7180    -0.6170 C.ar  1 <1>   0.1170 
  8 C       -0.7620    -3.6550    -1.1490 C.ar  1 <1>  -0.1500 
  9 C       -3.7270    -0.2060    -1.2270 C.3   1 <1>  -0.1600 
 10 C       -3.2600    -1.5900     1.6270 C.3   1 <1>  -0.1600 
 11 N        2.2080    -1.6030    -0.4150 N.am  1 <1>  -0.5470 
 12 C        1.9000    -4.0100    -0.5460 C.ar  1 <1>  -0.1500 
 13 C       -0.2410    -4.9320    -1.0780 C.ar  1 <1>  -0.1500 
 14 C       -4.7670    -0.8850    -0.3200 C.3   1 <1>  -0.1600 
 15 C       -4.2270    -2.0510     0.5230 C.3   1 <1>  -0.1600 
 16 C        3.2640    -1.3890     0.4410 C.2   1 <1>   0.5440 
 17 C        1.0970    -5.1100    -0.7710 C.ar  1 <1>  -0.1500 
 18 O        3.6030    -2.2710     1.2090 O.2   1 <1>  -0.5700 
 19 C        3.9150    -0.0990     0.4310 C.ar  1 <1>   0.0860 
 20 C        5.2940     0.0230     0.2080 C.ar  1 <1>   0.0820 
 21 C        3.1700     1.0750     0.6200 C.ar  1 <1>   0.0820 
 22 O        6.0030    -1.1090    -0.0240 O.3   1 <1>  -0.3630 
 23 C        5.9010     1.2760     0.2050 C.ar  1 <1>  -0.1500 
 24 O        1.8340     0.9600     0.8130 O.3   1 <1>  -0.3620 
 25 C        3.7890     2.3200     0.6100 C.ar  1 <1>  -0.1500 
 26 C        7.4110    -1.1380    -0.0700 C.3   1 <1>   0.0400 
 27 C        5.1510     2.4190     0.4070 C.ar  1 <1>  -0.1500 
 28 C        0.9360     1.9820     0.4400 C.3   1 <1>   0.0400 
 29 H       -1.9540     0.9830    -1.1440 H     1 <1>   0.0800 
 30 H       -2.7550     0.8490     0.3900 H     1 <1>   0.0800 
 31 H       -1.2560    -0.8800     1.9200 H     1 <1>   0.0800 
 32 H       -1.3570    -2.4510     1.2020 H     1 <1>   0.0800 
 33 H       -1.8010    -3.5140    -1.3900 H     1 <1>   0.1500 
 34 H       -3.4220    -0.8820    -2.0070 H     1 <1>   0.0800 
 35 H       -4.2010     0.6330    -1.7040 H     1 <1>   0.0800 
 36 H       -3.5930    -0.6550     2.0420 H     1 <1>   0.0800 
 37 H       -3.2930    -2.3050     2.4290 H     1 <1>   0.0800 
 38 H        1.8310    -0.7360    -0.8180 H     1 <1>   0.3700 
 39 H        2.9410    -4.1500    -0.3120 H     1 <1>   0.1500 
 40 H       -0.8690    -5.7880    -1.2590 H     1 <1>   0.1500 
 41 H       -5.5620    -1.2560    -0.9440 H     1 <1>   0.0800 
 42 H       -5.2000    -0.1480     0.3340 H     1 <1>   0.0800 
 43 H       -5.0680    -2.5290     0.9940 H     1 <1>   0.0800 
 44 H       -3.7560    -2.7840    -0.1090 H     1 <1>   0.0800 
 45 H        1.5120    -6.1010    -0.7100 H     1 <1>   0.1500 
 46 H        6.9560     1.3840     0.0410 H     1 <1>   0.1500 
 47 H        3.2240     3.2190     0.7700 H     1 <1>   0.1500 
 48 H        7.7170    -2.1630    -0.1770 H     1 <1>   0.0800 
 49 H        7.7990    -0.7360     0.8490 H     1 <1>   0.0800 
 50 H        7.7460    -0.5670    -0.9170 H     1 <1>   0.0800 
 51 H        5.6270     3.3850     0.4040 H     1 <1>   0.1500 
 52 H       -0.0600     1.5850     0.5020 H     1 <1>   0.0800 
 53 H        1.1450     2.2790    -0.5730 H     1 <1>   0.0800 
 54 H        1.0410     2.8100     1.1180 H     1 <1>   0.0800 
@<TRIPOS>BOND
  1   1   2  2   
  2   2   3  am  
  3   2   4  1   
  4   3   5  1   
  5   3   6  1   
  6   4   7  ar  
  7   4   8  ar  
  8   5   9  1   
  9   5  29  1   
 10   5  30  1   
 11   6  10  1   
 12   6  31  1   
 13   6  32  1   
 14   7  11  1   
 15   7  12  ar  
 16   8  13  ar  
 17   8  33  1   
 18   9  14  1   
 19   9  34  1   
 20   9  35  1   
 21  10  15  1   
 22  10  36  1   
 23  10  37  1   
 24  11  16  am  
 25  11  38  1   
 26  12  17  ar  
 27  12  39  1   
 28  13  17  ar  
 29  13  40  1   
 30  14  15  1   
 31  14  41  1   
 32  14  42  1   
 33  15  43  1   
 34  15  44  1   
 35  16  18  2   
 36  16  19  1   
 37  17  45  1   
 38  19  20  ar  
 39  19  21  ar  
 40  20  22  1   
 41  20  23  ar  
 42  21  24  1   
 43  21  25  ar  
 44  22  26  1   
 45  23  27  ar  
 46  23  46  1   
 47  24  28  1   
 48  25  27  ar  
 49  25  47  1   
 50  26  48  1   
 51  26  49  1   
 52  26  50  1   
 53  27  51  1   
 54  28  52  1   
 55  28  53  1   
 56  28  54  1   
@<TRIPOS>SUBSTRUCTURE
  1 ****  11 GROUP 4 **** **** 0

# MOE 2024.06 (io_trps.svl 2023.06)
