@<TRIPOS>MOLECULE
Structure2533
26 27 1 0 0 
SMALL
USER_CHARGES


@<TRIPOS>ATOM
  1 CL      -0.1690    -0.3320    -0.6750 Cl    1 <1>  -0.1770 
  2 C       -1.8750    -0.1070    -0.3830 C.ar  1 <1>   0.1770 
  3 C       -2.4230     1.1560    -0.5110 C.ar  1 <1>  -0.1500 
  4 C       -2.6520    -1.1940    -0.0290 C.ar  1 <1>  -0.1500 
  5 C       -3.7770     1.3390    -0.2810 C.ar  1 <1>  -0.1500 
  6 C       -4.0050    -1.0100     0.2000 C.ar  1 <1>  -0.1500 
  7 C       -4.5740     0.2500     0.0760 C.ar  1 <1>   0.0830 
  8 O       -5.9070     0.3380     0.3150 O.3   1 <1>  -0.3630 
  9 C       -6.5940     1.5610     0.2080 C.3   1 <1>   0.1200 
 10 C       -8.0580     1.2900     0.5500 C.3   1 <1>   0.0000 
 11 C       -8.6730     0.1270    -0.2560 C.3   1 <1>   0.4720 
 12 C       -9.0660     2.1870    -0.1950 C.3   1 <1>   0.4720 
 13 N       -9.9110     0.9630    -0.3780 N.4   1 <1>  -0.8440 
 14 H       -1.7910     1.9820    -0.7860 H     1 <1>   0.1500 
 15 H       -2.2010    -2.1650     0.0650 H     1 <1>   0.1500 
 16 H       -4.1800     2.3280    -0.3830 H     1 <1>   0.1500 
 17 H       -4.6210    -1.8460     0.4790 H     1 <1>   0.1500 
 18 H       -6.4810     1.9150    -0.8040 H     1 <1>   0.0800 
 19 H       -6.1600     2.2640     0.8990 H     1 <1>   0.0800 
 20 H       -8.2540     1.2250     1.6070 H     1 <1>   0.0000 
 21 H       -8.8380    -0.7710     0.3110 H     1 <1>   0.0000 
 22 H       -8.2080    -0.0200    -1.2140 H     1 <1>   0.0000 
 23 H       -8.6990     2.5490    -1.1380 H     1 <1>   0.0000 
 24 H       -9.5450     2.9280     0.4200 H     1 <1>   0.0000 
 25 H      -10.5570     0.8090     0.4040 H     1 <1>   0.4500 
 26 H      -10.3620     0.8960    -1.2970 H     1 <1>   0.4500 
@<TRIPOS>BOND
  1   1   2  1   
  2   2   3  ar  
  3   2   4  ar  
  4   3   5  ar  
  5   3  14  1   
  6   4   6  ar  
  7   4  15  1   
  8   5   7  ar  
  9   5  16  1   
 10   6   7  ar  
 11   6  17  1   
 12   7   8  1   
 13   8   9  1   
 14   9  10  1   
 15   9  18  1   
 16   9  19  1   
 17  10  11  1   
 18  10  12  1   
 19  10  20  1   
 20  11  13  1   
 21  11  21  1   
 22  11  22  1   
 23  12  13  1   
 24  12  23  1   
 25  12  24  1   
 26  13  25  1   
 27  13  26  1   
@<TRIPOS>SUBSTRUCTURE
  1 ****   7 GROUP 4 **** **** 0

# MOE 2024.06 (io_trps.svl 2023.06)
