@<TRIPOS>MOLECULE
NONAME
43 45 1 0 0 
SMALL
USER_CHARGES


@<TRIPOS>ATOM
  1 CL      -0.0900    -0.4690    -0.6120 Cl    1 <1>  -0.1770 
  2 C       -1.6990    -1.1370    -0.5430 C.ar  1 <1>   0.1770 
  3 C       -2.1970    -1.5850     0.6650 C.ar  1 <1>  -0.1500 
  4 C       -2.4530    -1.2090    -1.6990 C.ar  1 <1>  -0.1500 
  5 C       -3.4770    -2.1110     0.7190 C.ar  1 <1>  -0.1500 
  6 C       -3.7330    -1.7350    -1.6430 C.ar  1 <1>  -0.1500 
  7 C       -4.2530    -2.1830    -0.4330 C.ar  1 <1>  -0.1430 
  8 C       -5.6610    -2.7450    -0.3720 C.3   1 <1>   0.4870 
  9 N       -6.5520    -1.7370     0.2610 N.4   1 <1>  -0.9590 
 10 C       -7.9280    -2.2920     0.5310 C.3   1 <1>   0.3430 
 11 C       -6.6340    -0.4650    -0.5510 C.3   1 <1>   0.3430 
 12 C       -8.8600    -1.2680     1.2140 C.3   1 <1>   0.2090 
 13 C       -7.5360     0.6030     0.1020 C.3   1 <1>   0.2090 
 14 N       -8.8590     0.0410     0.5010 N.pl3 1 <1>  -0.8380 
 15 C       -9.9630     0.3480    -0.2930 C.ar  1 <1>   0.1000 
 16 C      -10.9280     1.2560     0.1460 C.ar  1 <1>  -0.1430 
 17 C      -10.1190    -0.2520    -1.5390 C.ar  1 <1>  -0.1500 
 18 C      -12.0180     1.5450    -0.6580 C.ar  1 <1>  -0.1500 
 19 C      -10.7970     1.9370     1.5010 C.3   1 <1>  -0.0970 
 20 C      -11.2090     0.0400    -2.3360 C.ar  1 <1>  -0.1500 
 21 C      -12.1610     0.9410    -1.8950 C.ar  1 <1>  -0.1500 
 22 H       -1.5820    -1.5220     1.5460 H     1 <1>   0.1500 
 23 H       -2.0340    -0.8590    -2.6270 H     1 <1>   0.1500 
 24 H       -3.8490    -2.4650     1.6660 H     1 <1>   0.1500 
 25 H       -4.3080    -1.7930    -2.5520 H     1 <1>   0.1500 
 26 H       -5.6550    -3.6540     0.2080 H     1 <1>   0.0800 
 27 H       -6.0080    -2.9790    -1.3660 H     1 <1>   0.0800 
 28 H       -6.1290    -1.4790     1.1610 H     1 <1>   0.4500 
 29 H       -7.8590    -3.1670     1.1550 H     1 <1>   0.0800 
 30 H       -8.3870    -2.5850    -0.3990 H     1 <1>   0.0800 
 31 H       -7.0330    -0.6850    -1.5270 H     1 <1>   0.0800 
 32 H       -5.6490    -0.0480    -0.6850 H     1 <1>   0.0800 
 33 H       -8.5490    -1.1120     2.2320 H     1 <1>   0.0800 
 34 H       -9.8640    -1.6590     1.2400 H     1 <1>   0.0800 
 35 H       -7.6870     1.4150    -0.5900 H     1 <1>   0.0800 
 36 H       -7.0500     1.0070     0.9730 H     1 <1>   0.0800 
 37 H       -9.3880    -0.9510    -1.8900 H     1 <1>   0.1500 
 38 H      -12.7670     2.2430    -0.3280 H     1 <1>   0.1500 
 39 H      -10.7870     1.1980     2.2800 H     1 <1>   0.0800 
 40 H      -11.6150     2.6120     1.6780 H     1 <1>   0.0800 
 41 H       -9.8790     2.4940     1.5410 H     1 <1>   0.0800 
 42 H      -11.3220    -0.4280    -3.2990 H     1 <1>   0.1500 
 43 H      -13.0130     1.1730    -2.5120 H     1 <1>   0.1500 
@<TRIPOS>BOND
  1   1   2  1   
  2   2   3  ar  
  3   2   4  ar  
  4   3   5  ar  
  5   3  22  1   
  6   4   6  ar  
  7   4  23  1   
  8   5   7  ar  
  9   5  24  1   
 10   6   7  ar  
 11   6  25  1   
 12   7   8  1   
 13   8   9  1   
 14   8  26  1   
 15   8  27  1   
 16   9  10  1   
 17   9  11  1   
 18   9  28  1   
 19  10  12  1   
 20  10  29  1   
 21  10  30  1   
 22  11  13  1   
 23  11  31  1   
 24  11  32  1   
 25  12  14  1   
 26  12  33  1   
 27  12  34  1   
 28  13  14  1   
 29  13  35  1   
 30  13  36  1   
 31  14  15  1   
 32  15  16  ar  
 33  15  17  ar  
 34  16  18  ar  
 35  16  19  1   
 36  17  20  ar  
 37  17  37  1   
 38  18  21  ar  
 39  18  38  1   
 40  19  39  1   
 41  19  40  1   
 42  19  41  1   
 43  20  21  ar  
 44  20  42  1   
 45  21  43  1   
@<TRIPOS>SUBSTRUCTURE
  1 ****  11 GROUP 4 **** **** 0

# MOE 2024.06 (io_trps.svl 2023.06)
