@<TRIPOS>MOLECULE
NONAME
43 44 1 0 0 
SMALL
USER_CHARGES


@<TRIPOS>ATOM
  1 O       -0.5020    -0.0660    -0.2500 O.2   1 <1>  -0.5700 
  2 C       -0.2340     1.0520     0.1010 C.2   1 <1>   0.6590 
  3 O        0.9870     1.4260     0.4460 O.3   1 <1>  -0.4300 
  4 C       -1.2930     2.1260     0.1730 C.3   1 <1>  -0.0990 
  5 C        2.0770     0.5250     0.4250 C.3   1 <1>   0.0400 
  6 C       -2.6360     1.5360    -0.2540 C.3   1 <1>   0.3430 
  7 N       -3.7160     2.5670    -0.2820 N.4   1 <1>  -0.9590 
  8 C       -4.0980     3.0590     1.0970 C.3   1 <1>   0.3430 
  9 C       -4.9380     2.0190    -0.9820 C.3   1 <1>   0.3430 
 10 C       -5.2420     4.0930     1.0610 C.3   1 <1>   0.2090 
 11 C       -6.0920     3.0390    -1.0460 C.3   1 <1>   0.2090 
 12 N       -6.4190     3.5660     0.3110 N.pl3 1 <1>  -0.8380 
 13 C       -7.5510     4.3930     0.3530 C.ar  1 <1>   0.1000 
 14 C       -7.6210     5.6620    -0.2520 C.ar  1 <1>   0.0820 
 15 C       -8.6600     3.9170     1.0380 C.ar  1 <1>  -0.1500 
 16 O       -6.5200     6.1240    -0.9270 O.3   1 <1>  -0.3620 
 17 C       -8.7930     6.4070    -0.1510 C.ar  1 <1>  -0.1500 
 18 C       -9.8200     4.6630     1.1330 C.ar  1 <1>  -0.1500 
 19 C       -6.5300     7.3860    -1.5610 C.3   1 <1>   0.0400 
 20 C       -9.8860     5.9090     0.5380 C.ar  1 <1>  -0.1500 
 21 H       -1.0050     2.9240    -0.4850 H     1 <1>   0.0800 
 22 H       -1.3310     2.4840     1.1840 H     1 <1>   0.0800 
 23 H        2.9610     1.0490     0.7430 H     1 <1>   0.0800 
 24 H        2.2070     0.1570    -0.5790 H     1 <1>   0.0800 
 25 H        1.8700    -0.2920     1.0950 H     1 <1>   0.0800 
 26 H       -2.9060     0.7350     0.4170 H     1 <1>   0.0800 
 27 H       -2.5210     1.1080    -1.2380 H     1 <1>   0.0800 
 28 H       -3.4040     3.3810    -0.8270 H     1 <1>   0.4500 
 29 H       -3.2460     3.5060     1.5800 H     1 <1>   0.0800 
 30 H       -4.4210     2.2270     1.7000 H     1 <1>   0.0800 
 31 H       -5.2940     1.1480    -0.4570 H     1 <1>   0.0800 
 32 H       -4.6840     1.7180    -1.9850 H     1 <1>   0.0800 
 33 H       -4.8930     5.0030     0.6060 H     1 <1>   0.0800 
 34 H       -5.5450     4.3250     2.0670 H     1 <1>   0.0800 
 35 H       -6.9670     2.5630    -1.4560 H     1 <1>   0.0800 
 36 H       -5.8230     3.8490    -1.7010 H     1 <1>   0.0800 
 37 H       -8.6090     2.9490     1.5000 H     1 <1>   0.1500 
 38 H       -8.8860     7.3770    -0.5980 H     1 <1>   0.1500 
 39 H      -10.6690     4.2750     1.6680 H     1 <1>   0.1500 
 40 H       -5.5730     7.5390    -2.0250 H     1 <1>   0.0800 
 41 H       -7.3030     7.3960    -2.3090 H     1 <1>   0.0800 
 42 H       -6.7010     8.1490    -0.8210 H     1 <1>   0.0800 
 43 H      -10.7880     6.4910     0.6110 H     1 <1>   0.1500 
@<TRIPOS>BOND
  1   1   2  2   
  2   2   3  1   
  3   2   4  1   
  4   3   5  1   
  5   4   6  1   
  6   4  21  1   
  7   4  22  1   
  8   5  23  1   
  9   5  24  1   
 10   5  25  1   
 11   6   7  1   
 12   6  26  1   
 13   6  27  1   
 14   7   8  1   
 15   7   9  1   
 16   7  28  1   
 17   8  10  1   
 18   8  29  1   
 19   8  30  1   
 20   9  11  1   
 21   9  31  1   
 22   9  32  1   
 23  10  12  1   
 24  10  33  1   
 25  10  34  1   
 26  11  12  1   
 27  11  35  1   
 28  11  36  1   
 29  12  13  1   
 30  13  14  ar  
 31  13  15  ar  
 32  14  16  1   
 33  14  17  ar  
 34  15  18  ar  
 35  15  37  1   
 36  16  19  1   
 37  17  20  ar  
 38  17  38  1   
 39  18  20  ar  
 40  18  39  1   
 41  19  40  1   
 42  19  41  1   
 43  19  42  1   
 44  20  43  1   
@<TRIPOS>SUBSTRUCTURE
  1 ****  10 GROUP 4 **** **** 0

# MOE 2024.06 (io_trps.svl 2023.06)
