@<TRIPOS>MOLECULE
NONAME
58 60 1 0 0 
SMALL
USER_CHARGES


@<TRIPOS>ATOM
  1 O       -0.1000    -0.1190    -0.4350 O.3   1 <1>  -0.3630 
  2 C       -1.1990    -0.9030    -0.6720 C.ar  1 <1>   0.0830 
  3 C       -0.0860     1.2460    -0.7870 C.3   1 <1>   0.1200 
  4 C       -1.1280    -2.2680    -0.3370 C.ar  1 <1>   0.1000 
  5 C       -2.3690    -0.3920    -1.2270 C.ar  1 <1>  -0.1500 
  6 C        1.2810     1.8140    -0.4180 C.3   1 <1>  -0.2400 
  7 N        0.0010    -2.8780     0.2290 N.pl3 1 <1>  -0.8380 
  8 C       -2.2330    -3.0720    -0.5740 C.ar  1 <1>  -0.1500 
  9 C       -3.4580    -1.2160    -1.4530 C.ar  1 <1>  -0.1500 
 10 C        0.3280    -2.4100     1.6080 C.3   1 <1>   0.2090 
 11 C        1.1860    -2.9450    -0.6810 C.3   1 <1>   0.2090 
 12 C       -3.3910    -2.5570    -1.1260 C.ar  1 <1>  -0.1500 
 13 C        1.4730    -3.2420     2.2190 C.3   1 <1>   0.3430 
 14 C        2.3340    -3.7570    -0.0490 C.3   1 <1>   0.3430 
 15 N        2.6920    -3.2750     1.3380 N.4   1 <1>  -0.9590 
 16 C        3.7840    -4.0970     1.9220 C.3   1 <1>   0.4860 
 17 C        5.0550    -3.8470     1.1370 C.ar  1 <1>  -0.1430 
 18 C        5.4170    -4.7100     0.1090 C.ar  1 <1>   0.0830 
 19 C        5.8560    -2.7560     1.4300 C.ar  1 <1>  -0.1500 
 20 O        4.6260    -5.7850    -0.1150 O.3   1 <1>  -0.3630 
 21 C        6.5400    -4.4550    -0.6750 C.ar  1 <1>  -0.1430 
 22 C        6.9990    -2.5190     0.6890 C.ar  1 <1>  -0.1500 
 23 C        5.1290    -7.0390     0.3040 C.3   1 <1>   0.0400 
 24 C        7.3450    -3.3610    -0.3650 C.ar  1 <1>   0.0830 
 25 C        6.9010    -5.3320    -1.8740 C.3   1 <1>  -0.0970 
 26 O        8.4570    -3.1580    -1.1210 O.3   1 <1>  -0.3630 
 27 C        9.3870    -2.1360    -0.8370 C.3   1 <1>   0.0400 
 28 H       -0.8660     1.7480    -0.2400 H     1 <1>   0.0800 
 29 H       -0.2580     1.3280    -1.8460 H     1 <1>   0.0800 
 30 H       -2.4620     0.6430    -1.4940 H     1 <1>   0.1500 
 31 H        1.4510     1.7160     0.6390 H     1 <1>   0.0800 
 32 H        1.3190     2.8570    -0.6750 H     1 <1>   0.0800 
 33 H        2.0550     1.3010    -0.9600 H     1 <1>   0.0800 
 34 H       -2.1800    -4.1150    -0.3200 H     1 <1>   0.1500 
 35 H       -4.3590    -0.8130    -1.8830 H     1 <1>   0.1500 
 36 H       -0.5500    -2.5010     2.2240 H     1 <1>   0.0800 
 37 H        0.6080    -1.3720     1.5880 H     1 <1>   0.0800 
 38 H        1.5330    -1.9520    -0.9080 H     1 <1>   0.0800 
 39 H        0.8910    -3.4080    -1.6070 H     1 <1>   0.0800 
 40 H       -4.2370    -3.1980    -1.3020 H     1 <1>   0.1500 
 41 H        1.1090    -4.2450     2.3690 H     1 <1>   0.0800 
 42 H        1.7250    -2.8320     3.1830 H     1 <1>   0.0800 
 43 H        3.1950    -3.6980    -0.6940 H     1 <1>   0.0800 
 44 H        2.0310    -4.7900    -0.0060 H     1 <1>   0.0800 
 45 H        3.0500    -2.3180     1.2290 H     1 <1>   0.4500 
 46 H        3.5240    -5.1430     1.8820 H     1 <1>   0.0800 
 47 H        3.9450    -3.8240     2.9510 H     1 <1>   0.0800 
 48 H        5.6090    -2.0830     2.2330 H     1 <1>   0.1500 
 49 H        7.6070    -1.6710     0.9430 H     1 <1>   0.1500 
 50 H        6.0380    -7.2590    -0.2260 H     1 <1>   0.0800 
 51 H        4.3920    -7.7910     0.0860 H     1 <1>   0.0800 
 52 H        5.3220    -7.0050     1.3620 H     1 <1>   0.0800 
 53 H        6.0580    -5.9050    -2.2150 H     1 <1>   0.0800 
 54 H        7.6980    -6.0030    -1.6090 H     1 <1>   0.0800 
 55 H        7.2290    -4.7230    -2.6980 H     1 <1>   0.0800 
 56 H       10.1890    -2.2070    -1.5500 H     1 <1>   0.0800 
 57 H        9.7710    -2.2780     0.1580 H     1 <1>   0.0800 
 58 H        8.9000    -1.1820    -0.9320 H     1 <1>   0.0800 
@<TRIPOS>BOND
  1   1   2  1   
  2   1   3  1   
  3   2   4  ar  
  4   2   5  ar  
  5   3   6  1   
  6   3  28  1   
  7   3  29  1   
  8   4   7  1   
  9   4   8  ar  
 10   5   9  ar  
 11   5  30  1   
 12   6  31  1   
 13   6  32  1   
 14   6  33  1   
 15   7  10  1   
 16   7  11  1   
 17   8  12  ar  
 18   8  34  1   
 19   9  12  ar  
 20   9  35  1   
 21  10  13  1   
 22  10  36  1   
 23  10  37  1   
 24  11  14  1   
 25  11  38  1   
 26  11  39  1   
 27  12  40  1   
 28  13  15  1   
 29  13  41  1   
 30  13  42  1   
 31  14  15  1   
 32  14  43  1   
 33  14  44  1   
 34  15  16  1   
 35  15  45  1   
 36  16  17  1   
 37  16  46  1   
 38  16  47  1   
 39  17  18  ar  
 40  17  19  ar  
 41  18  20  1   
 42  18  21  ar  
 43  19  22  ar  
 44  19  48  1   
 45  20  23  1   
 46  21  24  ar  
 47  21  25  1   
 48  22  24  ar  
 49  22  49  1   
 50  23  50  1   
 51  23  51  1   
 52  23  52  1   
 53  24  26  1   
 54  25  53  1   
 55  25  54  1   
 56  25  55  1   
 57  26  27  1   
 58  27  56  1   
 59  27  57  1   
 60  27  58  1   
@<TRIPOS>SUBSTRUCTURE
  1 ****  14 GROUP 4 **** **** 0

# MOE 2024.06 (io_trps.svl 2023.06)
