@<TRIPOS>MOLECULE
NONAME
44 45 1 0 0 
SMALL
USER_CHARGES


@<TRIPOS>ATOM
  1 CL      -0.7770     0.1670    -1.5030 Cl    1 <1>  -0.1770 
  2 C       -0.4860     1.7930    -0.9200 C.ar  1 <1>   0.1770 
  3 C       -1.5450     2.5760    -0.4730 C.ar  1 <1>   0.0830 
  4 C        0.8110     2.2680    -0.9170 C.ar  1 <1>  -0.1500 
  5 O       -2.7960     2.0400    -0.5070 O.3   1 <1>  -0.3630 
  6 C       -1.2750     3.8640    -0.0160 C.ar  1 <1>  -0.1500 
  7 C        1.0650     3.5490    -0.4600 C.ar  1 <1>  -0.1500 
  8 C       -3.9240     2.7440    -0.0590 C.3   1 <1>   0.1200 
  9 C        0.0250     4.3480    -0.0080 C.ar  1 <1>  -0.1440 
 10 C       -5.1240     1.8150    -0.2430 C.3   1 <1>  -0.1600 
 11 C        0.3160     5.7540     0.4900 C.3   1 <1>  -0.0970 
 12 C       -6.4130     2.4780     0.2350 C.3   1 <1>   0.3430 
 13 N       -7.5820     1.6020    -0.0530 N.4   1 <1>  -0.9590 
 14 C       -8.8660     2.3730     0.0300 C.3   1 <1>   0.3430 
 15 C       -7.6340     0.3840     0.8060 C.3   1 <1>   0.3430 
 16 C      -10.1110     1.4590    -0.0090 C.3   1 <1>  -0.0800 
 17 C       -8.6560    -0.6040     0.2280 C.3   1 <1>  -0.1600 
 18 C       -9.7950     0.0620    -0.5670 C.3   1 <1>  -0.1600 
 19 C      -11.2360     2.1150    -0.8210 C.3   1 <1>  -0.2400 
 20 H        1.6100     1.6400    -1.2690 H     1 <1>   0.1500 
 21 H       -2.0610     4.5040     0.3350 H     1 <1>   0.1500 
 22 H        2.0760     3.9210    -0.4590 H     1 <1>   0.1500 
 23 H       -4.0220     3.6370    -0.6530 H     1 <1>   0.0800 
 24 H       -3.7750     2.9940     0.9780 H     1 <1>   0.0800 
 25 H       -4.9350     0.9170     0.3170 H     1 <1>   0.0800 
 26 H       -5.2060     1.5750    -1.2880 H     1 <1>   0.0800 
 27 H       -0.4080     6.0520     1.2270 H     1 <1>   0.0800 
 28 H        0.2800     6.4460    -0.3320 H     1 <1>   0.0800 
 29 H        1.2920     5.8000     0.9380 H     1 <1>   0.0800 
 30 H       -6.5320     3.4170    -0.2830 H     1 <1>   0.0800 
 31 H       -6.3550     2.6820     1.2930 H     1 <1>   0.0800 
 32 H       -7.5010     1.2650    -1.0220 H     1 <1>   0.4500 
 33 H       -8.9130     3.0620    -0.7980 H     1 <1>   0.0800 
 34 H       -8.8920     2.9510     0.9390 H     1 <1>   0.0800 
 35 H       -7.9300     0.6640     1.8040 H     1 <1>   0.0800 
 36 H       -6.6700    -0.0940     0.8600 H     1 <1>   0.0800 
 37 H      -10.4650     1.3450     1.0020 H     1 <1>   0.0800 
 38 H       -9.0720    -1.1640     1.0480 H     1 <1>   0.0800 
 39 H       -8.1500    -1.3130    -0.4040 H     1 <1>   0.0800 
 40 H       -9.5050     0.1490    -1.6010 H     1 <1>   0.0800 
 41 H      -10.6720    -0.5640    -0.5320 H     1 <1>   0.0800 
 42 H      -10.9440     2.2500    -1.8480 H     1 <1>   0.0800 
 43 H      -11.4940     3.0740    -0.4070 H     1 <1>   0.0800 
 44 H      -12.1190     1.4980    -0.8000 H     1 <1>   0.0800 
@<TRIPOS>BOND
  1   1   2  1   
  2   2   3  ar  
  3   2   4  ar  
  4   3   5  1   
  5   3   6  ar  
  6   4   7  ar  
  7   4  20  1   
  8   5   8  1   
  9   6   9  ar  
 10   6  21  1   
 11   7   9  ar  
 12   7  22  1   
 13   8  10  1   
 14   8  23  1   
 15   8  24  1   
 16   9  11  1   
 17  10  12  1   
 18  10  25  1   
 19  10  26  1   
 20  11  27  1   
 21  11  28  1   
 22  11  29  1   
 23  12  13  1   
 24  12  30  1   
 25  12  31  1   
 26  13  14  1   
 27  13  15  1   
 28  13  32  1   
 29  14  16  1   
 30  14  33  1   
 31  14  34  1   
 32  15  17  1   
 33  15  35  1   
 34  15  36  1   
 35  16  18  1   
 36  16  19  1   
 37  16  37  1   
 38  17  18  1   
 39  17  38  1   
 40  17  39  1   
 41  18  40  1   
 42  18  41  1   
 43  19  42  1   
 44  19  43  1   
 45  19  44  1   
@<TRIPOS>SUBSTRUCTURE
  1 ****  10 GROUP 4 **** **** 0

# MOE 2024.06 (io_trps.svl 2023.06)
