@<TRIPOS>MOLECULE
NONAME
31 31 1 0 0 
SMALL
USER_CHARGES


@<TRIPOS>ATOM
  1 O       -0.6760    -0.2750    -0.7860 O.2   1 <1>  -0.5700 
  2 C       -1.6590    -0.9740    -0.6390 C.2   1 <1>   0.5440 
  3 N       -2.8580    -0.3310    -0.6850 N.am  1 <1>  -0.7300 
  4 C       -1.5230    -2.4040    -0.4210 C.ar  1 <1>   0.0860 
  5 C       -4.1660    -0.7990    -0.1730 C.3   1 <1>   0.1400 
  6 C       -2.4010    -3.3320    -0.9870 C.ar  1 <1>  -0.1500 
  7 C       -0.4850    -2.9080     0.3630 C.ar  1 <1>  -0.1500 
  8 C       -4.8300     0.3300     0.5970 C.3   1 <1>  -0.2660 
  9 C       -2.2660    -4.6910    -0.7670 C.ar  1 <1>  -0.1500 
 10 C       -0.3390    -4.2650     0.5860 C.ar  1 <1>  -0.1500 
 11 C       -6.2000    -0.1190     1.0170 C.2   1 <1>   0.9060 
 12 C       -1.2280    -5.1680     0.0280 C.ar  1 <1>   0.0820 
 13 O       -6.2930    -1.1090     1.7470 O.co2 1 <1>  -0.9000 
 14 O       -7.1780     0.4970     0.5900 O.co2 1 <1>  -0.9000 
 15 O       -1.0240    -6.4770     0.2980 O.3   1 <1>  -0.3630 
 16 C       -1.8940    -7.4770    -0.1770 C.3   1 <1>   0.1200 
 17 C       -1.3900    -8.8240     0.3340 C.3   1 <1>  -0.2400 
 18 H       -2.8020     0.6760    -0.8390 H     1 <1>   0.3700 
 19 H       -4.0380    -1.6480     0.4780 H     1 <1>   0.0800 
 20 H       -4.7940    -1.0880    -0.9990 H     1 <1>   0.0800 
 21 H       -3.2020    -2.9770    -1.6110 H     1 <1>   0.1500 
 22 H        0.2130    -2.2160     0.8000 H     1 <1>   0.1500 
 23 H       -4.9360     1.2020    -0.0180 H     1 <1>   0.0800 
 24 H       -4.2710     0.5660     1.4800 H     1 <1>   0.0800 
 25 H       -2.9730    -5.3590    -1.2200 H     1 <1>   0.1500 
 26 H        0.4660    -4.6330     1.1950 H     1 <1>   0.1500 
 27 H       -1.8870    -7.4520    -1.2530 H     1 <1>   0.0800 
 28 H       -2.8830    -7.2740     0.1970 H     1 <1>   0.0800 
 29 H       -0.3950    -9.0080    -0.0300 H     1 <1>   0.0800 
 30 H       -2.0340    -9.6110    -0.0130 H     1 <1>   0.0800 
 31 H       -1.3860    -8.8320     1.4090 H     1 <1>   0.0800 
@<TRIPOS>BOND
  1   1   2  2   
  2   2   3  am  
  3   2   4  1   
  4   3   5  1   
  5   3  18  1   
  6   4   6  ar  
  7   4   7  ar  
  8   5   8  1   
  9   5  19  1   
 10   5  20  1   
 11   6   9  ar  
 12   6  21  1   
 13   7  10  ar  
 14   7  22  1   
 15   8  11  1   
 16   8  23  1   
 17   8  24  1   
 18   9  12  ar  
 19   9  25  1   
 20  10  12  ar  
 21  10  26  1   
 22  11  13  ar  
 23  11  14  ar  
 24  12  15  1   
 25  15  16  1   
 26  16  17  1   
 27  16  27  1   
 28  16  28  1   
 29  17  29  1   
 30  17  30  1   
 31  17  31  1   
@<TRIPOS>SUBSTRUCTURE
  1 ****   6 GROUP 4 **** **** 0

# MOE 2024.06 (io_trps.svl 2023.06)
