@<TRIPOS>MOLECULE
NONAME
44 45 1 0 0 
SMALL
USER_CHARGES


@<TRIPOS>ATOM
  1 O       -4.9260    -1.3460    -0.1890 O.3   1 <1>  -0.3630 
  2 C       -6.2630    -1.5690    -0.1360 C.ar  1 <1>   0.0830 
  3 C       -3.9970    -2.3760     0.0920 C.3   1 <1>   0.1200 
  4 C       -7.0880    -0.4780    -0.3610 C.ar  1 <1>  -0.1500 
  5 C       -6.8320    -2.8140     0.1270 C.ar  1 <1>  -0.1500 
  6 C       -2.5740    -1.8160    -0.0210 C.3   1 <1>   0.2000 
  7 C       -8.4640    -0.6180    -0.3230 C.ar  1 <1>  -0.1500 
  8 C       -8.2090    -2.9510     0.1650 C.ar  1 <1>  -0.1500 
  9 O       -2.4380    -1.2150    -1.2670 O.3   1 <1>  -0.6800 
 10 C       -1.5030    -2.9150     0.1870 C.3   1 <1>   0.1100 
 11 C       -9.0250    -1.8560    -0.0600 C.ar  1 <1>  -0.1500 
 12 N       -0.1200    -2.5390    -0.2010 N.3   1 <1>  -0.8100 
 13 C        0.8180    -3.6680    -0.1090 C.3   1 <1>   0.1100 
 14 C        0.3920    -1.3310     0.4730 C.3   1 <1>   0.1100 
 15 C        2.1990    -3.2840    -0.6800 C.3   1 <1>   0.3430 
 16 C        1.7680    -0.9290    -0.0930 C.3   1 <1>   0.3430 
 17 N        2.7630    -2.0590    -0.0120 N.4   1 <1>  -0.9590 
 18 C        4.0750    -1.6970    -0.6050 C.3   1 <1>   0.3430 
 19 C        4.7950    -0.7070     0.3040 C.3   1 <1>  -0.2400 
 20 H       -4.1440    -3.1710    -0.6180 H     1 <1>   0.0800 
 21 H       -4.1810    -2.7350     1.0890 H     1 <1>   0.0800 
 22 H       -6.6470     0.4810    -0.5640 H     1 <1>   0.1500 
 23 H       -6.2270    -3.6820     0.3020 H     1 <1>   0.1500 
 24 H       -2.4510    -1.0510     0.7240 H     1 <1>   0.0800 
 25 H       -9.0970     0.2350    -0.4970 H     1 <1>   0.1500 
 26 H       -8.6480    -3.9120     0.3680 H     1 <1>   0.1500 
 27 H       -3.2690    -0.7360    -1.4700 H     1 <1>   0.4000 
 28 H       -1.7950    -3.7690    -0.4000 H     1 <1>   0.0800 
 29 H       -1.5150    -3.2160     1.2210 H     1 <1>   0.0800 
 30 H      -10.0950    -1.9660    -0.0300 H     1 <1>   0.1500 
 31 H        0.4310    -4.4960    -0.6780 H     1 <1>   0.0800 
 32 H        0.9190    -3.9850     0.9150 H     1 <1>   0.0800 
 33 H        0.4610    -1.4970     1.5340 H     1 <1>   0.0800 
 34 H       -0.2840    -0.5100     0.3050 H     1 <1>   0.0800 
 35 H        2.0830    -3.0990    -1.7360 H     1 <1>   0.0800 
 36 H        2.8740    -4.1140    -0.5590 H     1 <1>   0.0800 
 37 H        2.1330    -0.0730     0.4490 H     1 <1>   0.0800 
 38 H        1.6330    -0.6390    -1.1220 H     1 <1>   0.0800 
 39 H        2.9000    -2.2820     0.9800 H     1 <1>   0.4500 
 40 H        3.9360    -1.2700    -1.5860 H     1 <1>   0.0800 
 41 H        4.6840    -2.5820    -0.7060 H     1 <1>   0.0800 
 42 H        4.2700     0.2290     0.3610 H     1 <1>   0.0800 
 43 H        5.7710    -0.5080    -0.1000 H     1 <1>   0.0800 
 44 H        4.9230    -1.1150     1.2910 H     1 <1>   0.0800 
@<TRIPOS>BOND
  1   1   2  1   
  2   1   3  1   
  3   2   4  ar  
  4   2   5  ar  
  5   3   6  1   
  6   3  20  1   
  7   3  21  1   
  8   4   7  ar  
  9   4  22  1   
 10   5   8  ar  
 11   5  23  1   
 12   6   9  1   
 13   6  10  1   
 14   6  24  1   
 15   7  11  ar  
 16   7  25  1   
 17   8  11  ar  
 18   8  26  1   
 19   9  27  1   
 20  10  12  1   
 21  10  28  1   
 22  10  29  1   
 23  11  30  1   
 24  12  13  1   
 25  12  14  1   
 26  13  15  1   
 27  13  31  1   
 28  13  32  1   
 29  14  16  1   
 30  14  33  1   
 31  14  34  1   
 32  15  17  1   
 33  15  35  1   
 34  15  36  1   
 35  16  17  1   
 36  16  37  1   
 37  16  38  1   
 38  17  18  1   
 39  17  39  1   
 40  18  19  1   
 41  18  40  1   
 42  18  41  1   
 43  19  42  1   
 44  19  43  1   
 45  19  44  1   
@<TRIPOS>SUBSTRUCTURE
  1 ****   6 GROUP 4 **** **** 0

# MOE 2024.06 (io_trps.svl 2023.06)
