@<TRIPOS>MOLECULE
NONAME
48 47 1 0 0 
SMALL
USER_CHARGES


@<TRIPOS>ATOM
  1 O       -0.9900     2.0730     1.3960 O.3   1 <1>  -0.6800 
  2 C       -1.0940     1.5050     0.1440 C.3   1 <1>   0.4800 
  3 C       -2.3760     0.7320     0.2000 C.1   1 <1>  -0.2000 
  4 C        0.1440     0.5550    -0.0730 C.3   1 <1>  -0.0800 
  5 C       -1.2500     2.6440    -0.9250 C.3   1 <1>  -0.0800 
  6 C       -3.4110     0.1440     0.2500 C.1   1 <1>  -0.2000 
  7 C       -0.0430    -0.8880     0.4520 C.3   1 <1>  -0.2400 
  8 C        1.4770     1.0590     0.5340 C.3   1 <1>  -0.2400 
  9 C       -0.0010     3.5140    -1.1600 C.3   1 <1>  -0.2400 
 10 C       -2.4380     3.5970    -0.6490 C.3   1 <1>  -0.2400 
 11 C       -4.7350    -0.5500     0.3320 C.3   1 <1>   0.4800 
 12 O       -4.7280    -1.1450     1.5750 O.3   1 <1>  -0.6800 
 13 C       -4.8850    -1.6670    -0.7690 C.3   1 <1>  -0.0800 
 14 C       -5.8520     0.5520     0.3140 C.3   1 <1>  -0.0800 
 15 C       -5.8050    -2.8520    -0.3820 C.3   1 <1>  -0.2400 
 16 C       -3.5510    -2.2950    -1.2320 C.3   1 <1>  -0.2400 
 17 C       -5.7310     1.5910     1.4560 C.3   1 <1>  -0.2400 
 18 C       -7.3020     0.0330     0.3150 C.3   1 <1>  -0.2400 
 19 H       -1.1100     1.3570     2.0430 H     1 <1>   0.4000 
 20 H        0.2820     0.4710    -1.1370 H     1 <1>   0.0800 
 21 H       -1.4600     2.1550    -1.8600 H     1 <1>   0.0800 
 22 H       -0.2830    -0.8850     1.5010 H     1 <1>   0.0800 
 23 H        0.8560    -1.4610     0.3100 H     1 <1>   0.0800 
 24 H       -0.8290    -1.3950    -0.0800 H     1 <1>   0.0800 
 25 H        1.4410     1.0180     1.6090 H     1 <1>   0.0800 
 26 H        1.6970     2.0710     0.2580 H     1 <1>   0.0800 
 27 H        2.2940     0.4440     0.2020 H     1 <1>   0.0800 
 28 H        0.3240     3.9570    -0.2350 H     1 <1>   0.0800 
 29 H       -0.2170     4.3040    -1.8560 H     1 <1>   0.0800 
 30 H        0.7970     2.9290    -1.5780 H     1 <1>   0.0800 
 31 H       -2.2930     4.1150     0.2830 H     1 <1>   0.0800 
 32 H       -3.3680     3.0610    -0.6000 H     1 <1>   0.0800 
 33 H       -2.5250     4.3280    -1.4330 H     1 <1>   0.0800 
 34 H       -4.4300    -0.4690     2.2080 H     1 <1>   0.4000 
 35 H       -5.3100    -1.1920    -1.6350 H     1 <1>   0.0800 
 36 H       -5.7260     1.0930    -0.6090 H     1 <1>   0.0800 
 37 H       -5.3500    -3.4340     0.4010 H     1 <1>   0.0800 
 38 H       -5.9630    -3.4940    -1.2290 H     1 <1>   0.0800 
 39 H       -6.7630    -2.5300    -0.0300 H     1 <1>   0.0800 
 40 H       -3.0250    -2.7110    -0.3900 H     1 <1>   0.0800 
 41 H       -2.9230    -1.5650    -1.7100 H     1 <1>   0.0800 
 42 H       -3.7290    -3.0810    -1.9450 H     1 <1>   0.0800 
 43 H       -5.8940     1.1270     2.4130 H     1 <1>   0.0800 
 44 H       -6.4670     2.3660     1.3320 H     1 <1>   0.0800 
 45 H       -4.7660     2.0650     1.4610 H     1 <1>   0.0800 
 46 H       -7.4730    -0.6050     1.1650 H     1 <1>   0.0800 
 47 H       -7.5120    -0.5110    -0.5880 H     1 <1>   0.0800 
 48 H       -7.9980     0.8520     0.3620 H     1 <1>   0.0800 
@<TRIPOS>BOND
  1   1   2  1   
  2   1  19  1   
  3   2   3  1   
  4   2   4  1   
  5   2   5  1   
  6   3   6  3   
  7   4   7  1   
  8   4   8  1   
  9   4  20  1   
 10   5   9  1   
 11   5  10  1   
 12   5  21  1   
 13   6  11  1   
 14   7  22  1   
 15   7  23  1   
 16   7  24  1   
 17   8  25  1   
 18   8  26  1   
 19   8  27  1   
 20   9  28  1   
 21   9  29  1   
 22   9  30  1   
 23  10  31  1   
 24  10  32  1   
 25  10  33  1   
 26  11  12  1   
 27  11  13  1   
 28  11  14  1   
 29  12  34  1   
 30  13  15  1   
 31  13  16  1   
 32  13  35  1   
 33  14  17  1   
 34  14  18  1   
 35  14  36  1   
 36  15  37  1   
 37  15  38  1   
 38  15  39  1   
 39  16  40  1   
 40  16  41  1   
 41  16  42  1   
 42  17  43  1   
 43  17  44  1   
 44  17  45  1   
 45  18  46  1   
 46  18  47  1   
 47  18  48  1   
@<TRIPOS>SUBSTRUCTURE
  1 ****   3 GROUP 4 **** **** 0

# MOE 2024.06 (io_trps.svl 2023.06)
