@<TRIPOS>MOLECULE
NONAME
41 42 1 0 0 
SMALL
USER_CHARGES


@<TRIPOS>ATOM
  1 O        0.1790    -0.4640     1.5180 O.3   1 <1>  -0.6800 
  2 C        0.0420    -1.5160     0.6300 C.3   1 <1>   0.1200 
  3 C        1.3520    -2.3130     0.6250 C.3   1 <1>  -0.0800 
  4 C        2.5530    -1.3690     0.4690 C.3   1 <1>   0.3430 
  5 C        1.3400    -3.3790    -0.4840 C.3   1 <1>  -0.1600 
  6 N        3.8320    -2.1430     0.4390 N.4   1 <1>  -0.9590 
  7 C        2.6930    -4.1000    -0.5560 C.3   1 <1>  -0.1600 
  8 C        5.0050    -1.2260     0.5010 C.3   1 <1>   0.4230 
  9 C        3.8580    -3.1180    -0.6940 C.3   1 <1>   0.3430 
 10 C        5.2230    -0.4480    -0.8070 C.3   1 <1>  -0.1600 
 11 C        6.2650    -2.0110     0.8890 C.3   1 <1>  -0.1600 
 12 C        6.4270     0.4970    -0.6790 C.3   1 <1>  -0.1600 
 13 C        7.4710    -1.0690     1.0190 C.3   1 <1>  -0.1600 
 14 C        7.6990    -0.2660    -0.2720 C.3   1 <1>  -0.0800 
 15 C        8.8680     0.7080    -0.0940 C.3   1 <1>  -0.2400 
 16 H       -0.6750     0.0020     1.6430 H     1 <1>   0.4000 
 17 H       -0.1750    -1.1070    -0.3430 H     1 <1>   0.0800 
 18 H       -0.7810    -2.1330     0.9520 H     1 <1>   0.0800 
 19 H        1.4290    -2.8060     1.5790 H     1 <1>   0.0800 
 20 H        2.5610    -0.6750     1.2950 H     1 <1>   0.0800 
 21 H        2.4430    -0.8030    -0.4410 H     1 <1>   0.0800 
 22 H        1.1370    -2.9130    -1.4340 H     1 <1>   0.0800 
 23 H        0.5570    -4.0960    -0.2960 H     1 <1>   0.0800 
 24 H        3.8490    -2.6940     1.3050 H     1 <1>   0.4500 
 25 H        2.6950    -4.7660    -1.4030 H     1 <1>   0.0800 
 26 H        2.8370    -4.7030     0.3240 H     1 <1>   0.0800 
 27 H        4.8290    -0.5040     1.2830 H     1 <1>   0.0800 
 28 H        4.7870    -3.6640    -0.6970 H     1 <1>   0.0800 
 29 H        3.7710    -2.5900    -1.6300 H     1 <1>   0.0800 
 30 H        4.3540     0.1400    -1.0430 H     1 <1>   0.0800 
 31 H        5.4150    -1.1220    -1.6220 H     1 <1>   0.0800 
 32 H        6.4950    -2.7500     0.1420 H     1 <1>   0.0800 
 33 H        6.1120    -2.5060     1.8310 H     1 <1>   0.0800 
 34 H        6.2130     1.2550     0.0550 H     1 <1>   0.0800 
 35 H        6.5930     0.9940    -1.6210 H     1 <1>   0.0800 
 36 H        8.3530    -1.6470     1.2420 H     1 <1>   0.0800 
 37 H        7.3120    -0.3910     1.8410 H     1 <1>   0.0800 
 38 H        7.9570    -0.9520    -1.0630 H     1 <1>   0.0800 
 39 H        8.6610     1.4180     0.6880 H     1 <1>   0.0800 
 40 H        9.0490     1.2470    -1.0070 H     1 <1>   0.0800 
 41 H        9.7660     0.1720     0.1610 H     1 <1>   0.0800 
@<TRIPOS>BOND
  1   1   2  1   
  2   1  16  1   
  3   2   3  1   
  4   2  17  1   
  5   2  18  1   
  6   3   4  1   
  7   3   5  1   
  8   3  19  1   
  9   4   6  1   
 10   4  20  1   
 11   4  21  1   
 12   5   7  1   
 13   5  22  1   
 14   5  23  1   
 15   6   8  1   
 16   6   9  1   
 17   6  24  1   
 18   7   9  1   
 19   7  25  1   
 20   7  26  1   
 21   8  10  1   
 22   8  11  1   
 23   8  27  1   
 24   9  28  1   
 25   9  29  1   
 26  10  12  1   
 27  10  30  1   
 28  10  31  1   
 29  11  13  1   
 30  11  32  1   
 31  11  33  1   
 32  12  14  1   
 33  12  34  1   
 34  12  35  1   
 35  13  14  1   
 36  13  36  1   
 37  13  37  1   
 38  14  15  1   
 39  14  38  1   
 40  15  39  1   
 41  15  40  1   
 42  15  41  1   
@<TRIPOS>SUBSTRUCTURE
  1 ****   6 GROUP 4 **** **** 0

# MOE 2024.06 (io_trps.svl 2023.06)
