@<TRIPOS>MOLECULE
NONAME
42 44 1 0 0 
SMALL
USER_CHARGES


@<TRIPOS>ATOM
  1 O        0.5130     0.9270    -1.5060 O.2   1 <1>  -0.5700 
  2 C        1.3240     1.4610    -0.7910 C.2   1 <1>   0.5690 
  3 N        1.1310     2.5330     0.0130 N.am  1 <1>  -0.6600 
  4 C        2.7420     0.9750    -0.6980 C.3   1 <1>  -0.0990 
  5 C       -0.0900     3.3630     0.1530 C.3   1 <1>   0.2200 
  6 C        2.3560     2.9120     0.7380 C.3   1 <1>   0.1400 
  7 C        3.2820     1.6980     0.5520 C.3   1 <1>  -0.0190 
  8 C       -1.2520     2.5270     0.7030 C.3   1 <1>  -0.1600 
  9 C       -0.4550     4.0210    -1.1840 C.3   1 <1>  -0.1600 
 10 C        4.7590     2.0630     0.4890 C.2   1 <1>   0.5690 
 11 C       -2.5250     3.3770     0.8410 C.3   1 <1>  -0.1600 
 12 C       -1.7260     4.8730    -1.0490 C.3   1 <1>  -0.1600 
 13 O        5.1130     3.1420     0.9000 O.2   1 <1>  -0.5700 
 14 N        5.6280     1.1410    -0.0070 N.am  1 <1>  -0.4930 
 15 C       -2.8920     4.0430    -0.4930 C.3   1 <1>  -0.1600 
 16 C        7.0100     1.2110    -0.1750 C.2   1 <1>   0.3520 
 17 N        7.6650     0.2250    -0.6780 N.2   1 <1>  -0.4100 
 18 C        7.8690     2.2650     0.1410 C.2   1 <1>  -0.1500 
 19 O        8.9200     0.6000    -0.7010 O.3   1 <1>  -0.0190 
 20 C        9.0740     1.8060    -0.2220 C.2   1 <1>  -0.0400 
 21 C       10.4540     2.4260    -0.1610 C.3   1 <1>  -0.0600 
 22 H        3.2580     1.2810    -1.5910 H     1 <1>   0.0800 
 23 H        2.7700    -0.0940    -0.5960 H     1 <1>   0.0800 
 24 H        0.1140     4.1480     0.8610 H     1 <1>   0.0800 
 25 H        2.1530     3.0930     1.7790 H     1 <1>   0.0800 
 26 H        2.7690     3.7980     0.2860 H     1 <1>   0.0800 
 27 H        3.1390     1.0580     1.4040 H     1 <1>   0.0800 
 28 H       -0.9840     2.1240     1.6630 H     1 <1>   0.0800 
 29 H       -1.4550     1.7080     0.0350 H     1 <1>   0.0800 
 30 H       -0.6270     3.2600    -1.9250 H     1 <1>   0.0800 
 31 H        0.3600     4.6400    -1.5140 H     1 <1>   0.0800 
 32 H       -2.3690     4.1370     1.5880 H     1 <1>   0.0800 
 33 H       -3.3390     2.7540     1.1680 H     1 <1>   0.0800 
 34 H       -1.9950     5.2720    -2.0120 H     1 <1>   0.0800 
 35 H       -1.5320     5.7030    -0.3900 H     1 <1>   0.0800 
 36 H        5.2510     0.2500    -0.3200 H     1 <1>   0.3700 
 37 H       -3.7530     4.6740    -0.3570 H     1 <1>   0.0800 
 38 H       -3.1530     3.2800    -1.2080 H     1 <1>   0.0800 
 39 H        7.5900     3.2080     0.5720 H     1 <1>   0.1500 
 40 H       10.4000     3.4140     0.2580 H     1 <1>   0.0800 
 41 H       10.8700     2.4870    -1.1500 H     1 <1>   0.0800 
 42 H       11.0980     1.8210     0.4520 H     1 <1>   0.0800 
@<TRIPOS>BOND
  1   1   2  2   
  2   2   3  am  
  3   2   4  1   
  4   3   5  1   
  5   3   6  1   
  6   4   7  1   
  7   4  22  1   
  8   4  23  1   
  9   5   8  1   
 10   5   9  1   
 11   5  24  1   
 12   6   7  1   
 13   6  25  1   
 14   6  26  1   
 15   7  10  1   
 16   7  27  1   
 17   8  11  1   
 18   8  28  1   
 19   8  29  1   
 20   9  12  1   
 21   9  30  1   
 22   9  31  1   
 23  10  13  2   
 24  10  14  am  
 25  11  15  1   
 26  11  32  1   
 27  11  33  1   
 28  12  15  1   
 29  12  34  1   
 30  12  35  1   
 31  14  16  1   
 32  14  36  1   
 33  15  37  1   
 34  15  38  1   
 35  16  17  2   
 36  16  18  1   
 37  17  19  1   
 38  18  20  2   
 39  18  39  1   
 40  19  20  1   
 41  20  21  1   
 42  21  40  1   
 43  21  41  1   
 44  21  42  1   
@<TRIPOS>SUBSTRUCTURE
  1 ****   7 GROUP 4 **** **** 0

# MOE 2024.06 (io_trps.svl 2023.06)
