@<TRIPOS>MOLECULE
NONAME
38 39 1 0 0 
SMALL
USER_CHARGES


@<TRIPOS>ATOM
  1 O       -1.2180    -0.1350     1.4600 O.3   1 <1>  -0.5320 
  2 C       -1.9690     0.7020     0.7310 C.ar  1 <1>   0.0830 
  3 C       -3.2640     0.3320     0.4200 C.ar  1 <1>  -0.1500 
  4 C       -1.4570     1.9130     0.3000 C.ar  1 <1>  -0.1500 
  5 C       -4.0690     1.1830    -0.3230 C.ar  1 <1>  -0.1430 
  6 C       -2.2540     2.7590    -0.4510 C.ar  1 <1>  -0.1500 
  7 C       -3.5550     2.3970    -0.7620 C.ar  1 <1>  -0.1500 
  8 C       -5.4960     0.7860    -0.6410 C.3   1 <1>   0.4860 
  9 N       -6.2920     0.8630     0.6190 N.4   1 <1>  -0.9590 
 10 C       -7.6170     0.1850     0.5630 C.3   1 <1>   0.4230 
 11 C       -6.4070     2.2750     1.1020 C.3   1 <1>   0.2630 
 12 C       -7.4300    -1.3360     0.4910 C.3   1 <1>  -0.1600 
 13 C       -8.4910     0.6920    -0.5980 C.3   1 <1>  -0.1600 
 14 C       -8.7890    -2.0500     0.4920 C.3   1 <1>  -0.1600 
 15 C       -9.8530    -0.0190    -0.5980 C.3   1 <1>  -0.1600 
 16 C       -9.6840    -1.5430    -0.6470 C.3   1 <1>  -0.1600 
 17 H       -0.3090     0.1840     1.6040 H     1 <1>   0.4500 
 18 H       -3.6150    -0.6240     0.7660 H     1 <1>   0.1500 
 19 H       -0.4480     2.1990     0.5400 H     1 <1>   0.1500 
 20 H       -1.8590     3.7010    -0.7940 H     1 <1>   0.1500 
 21 H       -4.1530     3.0720    -1.3500 H     1 <1>   0.1500 
 22 H       -5.5000    -0.2180    -1.0300 H     1 <1>   0.0800 
 23 H       -5.9090     1.4440    -1.3870 H     1 <1>   0.0800 
 24 H       -5.7290     0.3600     1.3180 H     1 <1>   0.4500 
 25 H       -8.1440     0.3950     1.4800 H     1 <1>   0.0800 
 26 H       -6.9400     2.8770     0.3840 H     1 <1>   0.0800 
 27 H       -5.4270     2.7010     1.2490 H     1 <1>   0.0800 
 28 H       -6.9360     2.3070     2.0410 H     1 <1>   0.0800 
 29 H       -6.8620    -1.6760     1.3390 H     1 <1>   0.0800 
 30 H       -6.9080    -1.6140    -0.4070 H     1 <1>   0.0800 
 31 H       -8.0170     0.4990    -1.5430 H     1 <1>   0.0800 
 32 H       -8.6610     1.7490    -0.5050 H     1 <1>   0.0800 
 33 H       -9.2860    -1.8860     1.4340 H     1 <1>   0.0800 
 34 H       -8.6410    -3.1120     0.3850 H     1 <1>   0.0800 
 35 H      -10.4310     0.3030    -1.4490 H     1 <1>   0.0800 
 36 H      -10.4040     0.2490     0.2880 H     1 <1>   0.0800 
 37 H      -10.6520    -2.0140    -0.5790 H     1 <1>   0.0800 
 38 H       -9.2550    -1.8270    -1.5930 H     1 <1>   0.0800 
@<TRIPOS>BOND
  1   1   2  1   
  2   1  17  1   
  3   2   3  ar  
  4   2   4  ar  
  5   3   5  ar  
  6   3  18  1   
  7   4   6  ar  
  8   4  19  1   
  9   5   7  ar  
 10   5   8  1   
 11   6   7  ar  
 12   6  20  1   
 13   7  21  1   
 14   8   9  1   
 15   8  22  1   
 16   8  23  1   
 17   9  10  1   
 18   9  11  1   
 19   9  24  1   
 20  10  12  1   
 21  10  13  1   
 22  10  25  1   
 23  11  26  1   
 24  11  27  1   
 25  11  28  1   
 26  12  14  1   
 27  12  29  1   
 28  12  30  1   
 29  13  15  1   
 30  13  31  1   
 31  13  32  1   
 32  14  16  1   
 33  14  33  1   
 34  14  34  1   
 35  15  16  1   
 36  15  35  1   
 37  15  36  1   
 38  16  37  1   
 39  16  38  1   
@<TRIPOS>SUBSTRUCTURE
  1 ****   8 GROUP 4 **** **** 0

# MOE 2024.06 (io_trps.svl 2023.06)
