@<TRIPOS>MOLECULE
NONAME
49 51 1 0 0 
SMALL
USER_CHARGES


@<TRIPOS>ATOM
  1 CL      -0.8630    -0.8510    -0.7020 Cl    1 <1>  -0.1770 
  2 C        0.7070    -1.5930    -0.8710 C.ar  1 <1>   0.1770 
  3 C        1.5760    -1.5830     0.2040 C.ar  1 <1>  -0.1500 
  4 C        1.0560    -2.1760    -2.0740 C.ar  1 <1>  -0.1500 
  5 C        2.8290    -2.1670     0.0770 C.ar  1 <1>  -0.1440 
  6 C        2.3040    -2.7610    -2.2020 C.ar  1 <1>  -0.1500 
  7 C        3.1830    -2.7540    -1.1300 C.ar  1 <1>  -0.1500 
  8 C        3.8070    -2.1650     1.2440 C.3   1 <1>   0.2540 
  9 N        5.0130    -1.3820     0.9090 N.3   1 <1>  -0.8100 
 10 C        4.6960     0.0420     0.6200 C.3   1 <1>   0.1100 
 11 C        6.0390    -1.4800     1.9730 C.3   1 <1>   0.1100 
 12 C        5.9600     0.8790     0.3050 C.3   1 <1>   0.3430 
 13 C        7.3300    -0.7000     1.6160 C.3   1 <1>   0.3430 
 14 N        7.1860     0.0170     0.3020 N.4   1 <1>  -0.9590 
 15 C        8.4010     0.7010    -0.2120 C.3   1 <1>   0.4230 
 16 C        9.3890    -0.3660    -0.7030 C.3   1 <1>  -0.1600 
 17 C        8.9770     1.6680     0.8370 C.3   1 <1>  -0.1600 
 18 C       10.6740     0.1940    -1.3340 C.3   1 <1>  -0.1600 
 19 C        9.9150     2.7030     0.1970 C.3   1 <1>  -0.1600 
 20 C       11.6340     0.7840    -0.2910 C.3   1 <1>  -0.1600 
 21 C       11.3800     2.2560     0.0690 C.3   1 <1>  -0.1600 
 22 H        1.2630    -1.1230     1.1230 H     1 <1>   0.1500 
 23 H        0.3600    -2.1710    -2.8940 H     1 <1>   0.1500 
 24 H        2.5910    -3.2210    -3.1320 H     1 <1>   0.1500 
 25 H        4.1530    -3.2100    -1.2370 H     1 <1>   0.1500 
 26 H        4.0870    -3.1830     1.4550 H     1 <1>   0.0800 
 27 H        3.3350    -1.7600     2.1230 H     1 <1>   0.0800 
 28 H        4.1800     0.4830     1.4570 H     1 <1>   0.0800 
 29 H        4.0360     0.1000    -0.2290 H     1 <1>   0.0800 
 30 H        6.2950    -2.5150     2.1300 H     1 <1>   0.0800 
 31 H        5.6440    -1.1010     2.9000 H     1 <1>   0.0800 
 32 H        6.0590     1.6610     1.0390 H     1 <1>   0.0800 
 33 H        5.8350     1.3470    -0.6580 H     1 <1>   0.0800 
 34 H        8.1510    -1.3950     1.5670 H     1 <1>   0.0800 
 35 H        7.5450     0.0050     2.4010 H     1 <1>   0.0800 
 36 H        6.9320    -0.7390    -0.3520 H     1 <1>   0.4500 
 37 H        8.1140     1.2860    -1.0710 H     1 <1>   0.0800 
 38 H        8.8960    -0.9580    -1.4540 H     1 <1>   0.0800 
 39 H        9.6650    -1.0220     0.1030 H     1 <1>   0.0800 
 40 H        9.4950     1.1380     1.6170 H     1 <1>   0.0800 
 41 H        8.1710     2.2180     1.2870 H     1 <1>   0.0800 
 42 H       10.4510     0.9200    -2.0980 H     1 <1>   0.0800 
 43 H       11.1830    -0.6240    -1.8170 H     1 <1>   0.0800 
 44 H        9.9030     3.6000     0.7940 H     1 <1>   0.0800 
 45 H        9.5430     2.9790    -0.7750 H     1 <1>   0.0800 
 46 H       12.6380     0.7160    -0.6760 H     1 <1>   0.0800 
 47 H       11.6140     0.1850     0.6030 H     1 <1>   0.0800 
 48 H       11.8850     2.4570     0.9990 H     1 <1>   0.0800 
 49 H       11.8500     2.8780    -0.6740 H     1 <1>   0.0800 
@<TRIPOS>BOND
  1   1   2  1   
  2   2   3  ar  
  3   2   4  ar  
  4   3   5  ar  
  5   3  22  1   
  6   4   6  ar  
  7   4  23  1   
  8   5   7  ar  
  9   5   8  1   
 10   6   7  ar  
 11   6  24  1   
 12   7  25  1   
 13   8   9  1   
 14   8  26  1   
 15   8  27  1   
 16   9  10  1   
 17   9  11  1   
 18  10  12  1   
 19  10  28  1   
 20  10  29  1   
 21  11  13  1   
 22  11  30  1   
 23  11  31  1   
 24  12  14  1   
 25  12  32  1   
 26  12  33  1   
 27  13  14  1   
 28  13  34  1   
 29  13  35  1   
 30  14  15  1   
 31  14  36  1   
 32  15  16  1   
 33  15  17  1   
 34  15  37  1   
 35  16  18  1   
 36  16  38  1   
 37  16  39  1   
 38  17  19  1   
 39  17  40  1   
 40  17  41  1   
 41  18  20  1   
 42  18  42  1   
 43  18  43  1   
 44  19  21  1   
 45  19  44  1   
 46  19  45  1   
 47  20  21  1   
 48  20  46  1   
 49  20  47  1   
 50  21  48  1   
 51  21  49  1   
@<TRIPOS>SUBSTRUCTURE
  1 ****  10 GROUP 4 **** **** 0

# MOE 2024.06 (io_trps.svl 2023.06)
