@<TRIPOS>MOLECULE
NONAME
49 53 1 0 0 
SMALL
USER_CHARGES


@<TRIPOS>ATOM
  1 N       -0.4480     0.0090     0.1470 N.4   1 <1>  -0.9590 
  2 C       -1.7900    -0.5180     0.5990 C.3   1 <1>   0.4230 
  3 C        0.6970    -0.5210     0.9890 C.3   1 <1>   0.3430 
  4 C       -0.4090     1.5220     0.0810 C.3   1 <1>   0.3430 
  5 C       -1.8060    -2.0720     0.5990 C.3   1 <1>  -0.0800 
  6 C       -2.9260    -0.0190    -0.3360 C.3   1 <1>  -0.0800 
  7 C        2.1010     0.0560     0.6210 C.3   1 <1>   0.4230 
  8 C        0.9710     2.0880    -0.3610 C.3   1 <1>   0.3430 
  9 C       -1.6050    -2.6200    -0.8340 C.3   1 <1>  -0.1600 
 10 C       -3.1680    -2.5660     1.1270 C.3   1 <1>  -0.1600 
 11 C       -2.7300    -0.5600    -1.7720 C.3   1 <1>  -0.1600 
 12 C       -4.2820    -0.5250     0.1980 C.3   1 <1>  -0.1600 
 13 N        2.1450     1.5450     0.4270 N.4   1 <1>  -0.9590 
 14 C        2.6690    -0.4950    -0.6840 C.3   1 <1>  -0.1600 
 15 C       -2.7260    -2.1010    -1.7550 C.3   1 <1>  -0.0800 
 16 C       -4.3020    -2.0620     0.2190 C.3   1 <1>  -0.0800 
 17 C        3.4230     1.8060    -0.3030 C.3   1 <1>   0.3430 
 18 C        3.6470     0.5760    -1.1790 C.3   1 <1>  -0.1600 
 19 C       -4.0800    -2.5910    -1.2100 C.3   1 <1>  -0.1600 
 20 H       -0.3600    -0.3700    -0.8070 H     1 <1>   0.4500 
 21 H       -1.9940    -0.1730     1.6010 H     1 <1>   0.0800 
 22 H        0.7470    -1.5940     0.9020 H     1 <1>   0.0800 
 23 H        0.5040    -0.2960     2.0250 H     1 <1>   0.0800 
 24 H       -0.6560     1.9300     1.0470 H     1 <1>   0.0800 
 25 H       -1.1510     1.8750    -0.6160 H     1 <1>   0.0800 
 26 H       -1.0570    -2.4710     1.2570 H     1 <1>   0.0800 
 27 H       -2.9800     1.0540    -0.3470 H     1 <1>   0.0800 
 28 H        2.7920    -0.2070     1.4070 H     1 <1>   0.0800 
 29 H        0.9510     3.1630    -0.2820 H     1 <1>   0.0800 
 30 H        1.1060     1.8500    -1.4030 H     1 <1>   0.0800 
 31 H       -1.6390    -3.6980    -0.8130 H     1 <1>   0.0800 
 32 H       -0.6450    -2.3470    -1.2310 H     1 <1>   0.0800 
 33 H       -3.3290    -2.2200     2.1340 H     1 <1>   0.0800 
 34 H       -3.1840    -3.6430     1.1520 H     1 <1>   0.0800 
 35 H       -3.5390    -0.2180    -2.3970 H     1 <1>   0.0800 
 36 H       -1.8210    -0.1940    -2.2110 H     1 <1>   0.0800 
 37 H       -5.0810    -0.1660    -0.4300 H     1 <1>   0.0800 
 38 H       -4.4610    -0.1450     1.1900 H     1 <1>   0.0800 
 39 H        2.1990     2.0190     1.3420 H     1 <1>   0.4500 
 40 H        1.8920    -0.6430    -1.4130 H     1 <1>   0.0800 
 41 H        3.1660    -1.4370    -0.5220 H     1 <1>   0.0800 
 42 H       -2.5870    -2.4800    -2.7550 H     1 <1>   0.0800 
 43 H       -5.2520    -2.4110     0.5910 H     1 <1>   0.0800 
 44 H        4.2360     1.8910     0.4020 H     1 <1>   0.0800 
 45 H        3.3770     2.7110    -0.8900 H     1 <1>   0.0800 
 46 H        3.4700     0.8120    -2.2150 H     1 <1>   0.0800 
 47 H        4.6690     0.2470    -1.0830 H     1 <1>   0.0800 
 48 H       -4.1060    -3.6680    -1.2070 H     1 <1>   0.0800 
 49 H       -4.8770    -2.2550    -1.8510 H     1 <1>   0.0800 
@<TRIPOS>BOND
  1   1   2  1   
  2   1   3  1   
  3   1   4  1   
  4   1  20  1   
  5   2   5  1   
  6   2   6  1   
  7   2  21  1   
  8   3   7  1   
  9   3  22  1   
 10   3  23  1   
 11   4   8  1   
 12   4  24  1   
 13   4  25  1   
 14   5   9  1   
 15   5  10  1   
 16   5  26  1   
 17   6  11  1   
 18   6  12  1   
 19   6  27  1   
 20   7  13  1   
 21   7  14  1   
 22   7  28  1   
 23   8  13  1   
 24   8  29  1   
 25   8  30  1   
 26   9  15  1   
 27   9  31  1   
 28   9  32  1   
 29  10  16  1   
 30  10  33  1   
 31  10  34  1   
 32  11  15  1   
 33  11  35  1   
 34  11  36  1   
 35  12  16  1   
 36  12  37  1   
 37  12  38  1   
 38  13  17  1   
 39  13  39  1   
 40  14  18  1   
 41  14  40  1   
 42  14  41  1   
 43  15  19  1   
 44  15  42  1   
 45  16  19  1   
 46  16  43  1   
 47  17  18  1   
 48  17  44  1   
 49  17  45  1   
 50  18  46  1   
 51  18  47  1   
 52  19  48  1   
 53  19  49  1   
@<TRIPOS>SUBSTRUCTURE
  1 ****   1 GROUP 4 **** **** 0

# MOE 2024.06 (io_trps.svl 2023.06)
