@<TRIPOS>MOLECULE
NONAME
44 44 1 0 0 
SMALL
USER_CHARGES


@<TRIPOS>ATOM
  1 O       -9.6800     3.4510    -0.9090 O.3   1 <1>  -0.3630 
  2 C       -8.3630     3.1930    -0.7520 C.ar  1 <1>   0.0830 
  3 C      -10.3020     4.0690     0.1870 C.3   1 <1>   0.1200 
  4 C       -7.9590     1.9730    -0.2150 C.ar  1 <1>  -0.1440 
  5 C       -7.4240     4.1510    -1.1260 C.ar  1 <1>  -0.1440 
  6 C      -11.7610     4.3130    -0.1960 C.3   1 <1>   0.3430 
  7 C       -6.6090     1.7410    -0.0130 C.ar  1 <1>  -0.1500 
  8 C       -8.9590     0.8840     0.1500 C.3   1 <1>  -0.0970 
  9 C       -6.0810     3.8940    -0.9130 C.ar  1 <1>  -0.1500 
 10 C       -7.8290     5.4710    -1.7680 C.3   1 <1>  -0.0960 
 11 N      -12.5170     4.9790     0.9090 N.4   1 <1>  -0.9060 
 12 C       -5.6650     2.6960    -0.3550 C.ar  1 <1>  -0.1430 
 13 C      -13.9190     5.2620     0.5710 C.3   1 <1>   0.4230 
 14 C       -4.1820     2.4410    -0.1330 C.3   1 <1>   0.1220 
 15 C      -14.4540     6.2240     1.6220 C.3   1 <1>  -0.2400 
 16 C      -14.7130     3.9590     0.5750 C.3   1 <1>  -0.2400 
 17 C       -3.6430     3.3560     0.9530 C.2   1 <1>  -0.2880 
 18 C       -2.6400     4.2270     0.8040 C.2   1 <1>  -0.3000 
 19 H       -9.7880     4.9940     0.3840 H     1 <1>   0.0800 
 20 H      -10.2210     3.4090     1.0320 H     1 <1>   0.0800 
 21 H      -12.2160     3.3640    -0.4300 H     1 <1>   0.0800 
 22 H      -11.7870     4.9320    -1.0780 H     1 <1>   0.0800 
 23 H       -6.2870     0.8060     0.4110 H     1 <1>   0.1500 
 24 H       -9.7480     0.8420    -0.5780 H     1 <1>   0.0800 
 25 H       -9.3780     1.0780     1.1190 H     1 <1>   0.0800 
 26 H       -8.4780    -0.0780     0.1710 H     1 <1>   0.0800 
 27 H       -5.3420     4.6290    -1.1820 H     1 <1>   0.1500 
 28 H       -8.6490     5.3210    -2.4460 H     1 <1>   0.0800 
 29 H       -7.0090     5.8840    -2.3270 H     1 <1>   0.0800 
 30 H       -8.1170     6.1770    -1.0110 H     1 <1>   0.0800 
 31 H      -12.0630     5.8670     1.1520 H     1 <1>   0.4500 
 32 H      -12.5050     4.3950     1.7530 H     1 <1>   0.4500 
 33 H      -13.9810     5.7270    -0.4020 H     1 <1>   0.0800 
 34 H       -3.6520     2.6090    -1.0540 H     1 <1>   0.0800 
 35 H       -4.0190     1.4180     0.1550 H     1 <1>   0.0800 
 36 H      -14.4120     5.7940     2.6070 H     1 <1>   0.0800 
 37 H      -15.4830     6.4550     1.4060 H     1 <1>   0.0800 
 38 H      -13.9060     7.1500     1.6080 H     1 <1>   0.0800 
 39 H      -14.6520     3.4640     1.5280 H     1 <1>   0.0800 
 40 H      -14.3770     3.2930    -0.1990 H     1 <1>   0.0800 
 41 H      -15.7510     4.1730     0.3810 H     1 <1>   0.0800 
 42 H       -4.1680     3.2320     1.8860 H     1 <1>   0.1500 
 43 H       -2.2810     4.8660     1.5930 H     1 <1>   0.1500 
 44 H       -2.0960     4.3780    -0.1120 H     1 <1>   0.1500 
@<TRIPOS>BOND
  1   1   2  1   
  2   1   3  1   
  3   2   4  ar  
  4   2   5  ar  
  5   3   6  1   
  6   3  19  1   
  7   3  20  1   
  8   4   7  ar  
  9   4   8  1   
 10   5   9  ar  
 11   5  10  1   
 12   6  11  1   
 13   6  21  1   
 14   6  22  1   
 15   7  12  ar  
 16   7  23  1   
 17   8  24  1   
 18   8  25  1   
 19   8  26  1   
 20   9  12  ar  
 21   9  27  1   
 22  10  28  1   
 23  10  29  1   
 24  10  30  1   
 25  11  13  1   
 26  11  31  1   
 27  11  32  1   
 28  12  14  1   
 29  13  15  1   
 30  13  16  1   
 31  13  33  1   
 32  14  17  1   
 33  14  34  1   
 34  14  35  1   
 35  15  36  1   
 36  15  37  1   
 37  15  38  1   
 38  16  39  1   
 39  16  40  1   
 40  16  41  1   
 41  17  18  2   
 42  17  42  1   
 43  18  43  1   
 44  18  44  1   
@<TRIPOS>SUBSTRUCTURE
  1 ****   2 GROUP 4 **** **** 0

# MOE 2024.06 (io_trps.svl 2023.06)
