@<TRIPOS>MOLECULE
NONAME
51 53 1 0 0 
SMALL
USER_CHARGES


@<TRIPOS>ATOM
  1 O       -0.1980     0.4190    -0.1910 O.2   1 <1>  -0.5700 
  2 C       -0.1770     1.6300    -0.1070 C.2   1 <1>   0.3980 
  3 C       -1.4020     2.3800    -0.2980 C.ar  1 <1>   0.0860 
  4 C        1.0730     2.3060     0.1800 C.ar  1 <1>   0.0860 
  5 C       -2.6290     1.8570     0.1140 C.ar  1 <1>  -0.1500 
  6 C       -1.4190     3.6400    -0.9030 C.ar  1 <1>  -0.1500 
  7 C        2.2720     1.8460    -0.3650 C.ar  1 <1>  -0.1500 
  8 C        1.1340     3.4290     1.0070 C.ar  1 <1>  -0.1500 
  9 C       -3.8070     2.5590    -0.0520 C.ar  1 <1>  -0.1500 
 10 C       -2.5930     4.3500    -1.0740 C.ar  1 <1>  -0.1500 
 11 C        3.4730     2.4840    -0.1140 C.ar  1 <1>  -0.1500 
 12 C        2.3320     4.0730     1.2620 C.ar  1 <1>  -0.1500 
 13 C       -3.8020     3.8110    -0.6440 C.ar  1 <1>   0.0830 
 14 C        3.5040     3.6020     0.6990 C.ar  1 <1>  -0.1500 
 15 O       -4.9930     4.4370    -0.7700 O.3   1 <1>  -0.3620 
 16 C       -5.1120     5.6900    -1.4070 C.3   1 <1>   0.1200 
 17 C       -6.5850     6.1030    -1.3640 C.3   1 <1>   0.2000 
 18 O       -6.7110     7.4310    -1.7890 O.3   1 <1>  -0.6800 
 19 C       -7.1540     5.9760     0.0680 C.3   1 <1>   0.3430 
 20 N       -8.3480     6.8570     0.2540 N.4   1 <1>  -0.9590 
 21 C       -8.5270     7.2650     1.6740 C.3   1 <1>   0.3430 
 22 C       -9.5840     6.2740    -0.3400 C.3   1 <1>   0.3430 
 23 C       -9.6460     8.3040     1.7740 C.3   1 <1>  -0.1600 
 24 C      -10.7180     7.2980    -0.2730 C.3   1 <1>  -0.1600 
 25 C      -10.9560     7.7930     1.1590 C.3   1 <1>  -0.1600 
 26 H       -2.6480     0.8810     0.5700 H     1 <1>   0.1500 
 27 H       -0.4950     4.0680    -1.2530 H     1 <1>   0.1500 
 28 H        2.2540     0.9710    -0.9930 H     1 <1>   0.1500 
 29 H        0.2340     3.8030     1.4640 H     1 <1>   0.1500 
 30 H       -4.7370     2.1300     0.2750 H     1 <1>   0.1500 
 31 H       -2.5430     5.3130    -1.5450 H     1 <1>   0.1500 
 32 H        4.3840     2.1090    -0.5490 H     1 <1>   0.1500 
 33 H        2.3550     4.9390     1.9010 H     1 <1>   0.1500 
 34 H        4.4380     4.1010     0.8960 H     1 <1>   0.1500 
 35 H       -4.7700     5.5870    -2.4220 H     1 <1>   0.0800 
 36 H       -4.5030     6.3960    -0.8690 H     1 <1>   0.0800 
 37 H       -7.1500     5.4860    -2.0410 H     1 <1>   0.0800 
 38 H       -6.3850     7.5430    -2.7090 H     1 <1>   0.4000 
 39 H       -6.3800     6.2750     0.7540 H     1 <1>   0.0800 
 40 H       -7.3940     4.9470     0.2800 H     1 <1>   0.0800 
 41 H       -8.1170     7.7010    -0.3020 H     1 <1>   0.4500 
 42 H       -7.6120     7.6860     2.0570 H     1 <1>   0.0800 
 43 H       -8.7820     6.4040     2.2710 H     1 <1>   0.0800 
 44 H       -9.8670     5.3880     0.2050 H     1 <1>   0.0800 
 45 H       -9.4080     6.0020    -1.3680 H     1 <1>   0.0800 
 46 H       -9.3360     9.2070     1.2770 H     1 <1>   0.0800 
 47 H       -9.8090     8.5470     2.8090 H     1 <1>   0.0800 
 48 H      -11.6210     6.8490    -0.6500 H     1 <1>   0.0800 
 49 H      -10.4820     8.1300    -0.9140 H     1 <1>   0.0800 
 50 H      -11.6910     8.5810     1.1570 H     1 <1>   0.0800 
 51 H      -11.3440     6.9860     1.7590 H     1 <1>   0.0800 
@<TRIPOS>BOND
  1   1   2  2   
  2   2   3  1   
  3   2   4  1   
  4   3   5  ar  
  5   3   6  ar  
  6   4   7  ar  
  7   4   8  ar  
  8   5   9  ar  
  9   5  26  1   
 10   6  10  ar  
 11   6  27  1   
 12   7  11  ar  
 13   7  28  1   
 14   8  12  ar  
 15   8  29  1   
 16   9  13  ar  
 17   9  30  1   
 18  10  13  ar  
 19  10  31  1   
 20  11  14  ar  
 21  11  32  1   
 22  12  14  ar  
 23  12  33  1   
 24  13  15  1   
 25  14  34  1   
 26  15  16  1   
 27  16  17  1   
 28  16  35  1   
 29  16  36  1   
 30  17  18  1   
 31  17  19  1   
 32  17  37  1   
 33  18  38  1   
 34  19  20  1   
 35  19  39  1   
 36  19  40  1   
 37  20  21  1   
 38  20  22  1   
 39  20  41  1   
 40  21  23  1   
 41  21  42  1   
 42  21  43  1   
 43  22  24  1   
 44  22  44  1   
 45  22  45  1   
 46  23  25  1   
 47  23  46  1   
 48  23  47  1   
 49  24  25  1   
 50  24  48  1   
 51  24  49  1   
 52  25  50  1   
 53  25  51  1   
@<TRIPOS>SUBSTRUCTURE
  1 ****  13 GROUP 4 **** **** 0

# MOE 2024.06 (io_trps.svl 2023.06)
