@<TRIPOS>MOLECULE
NONAME
50 52 1 0 0 
SMALL
USER_CHARGES


@<TRIPOS>ATOM
  1 S        0.6790     0.1880    -0.2020 S.o2  1 <1>   1.3330 
  2 O        1.9930    -0.1700     0.2830 O.2   1 <1>  -0.6500 
  3 O       -0.3960    -0.7710    -0.1510 O.2   1 <1>  -0.6500 
  4 N        0.1990     1.6130     0.6550 N.am  1 <1>  -0.6930 
  5 C        0.8310     0.8050    -1.8650 C.3   1 <1>  -0.1350 
  6 C       -1.0340     2.2280     0.4430 C.ar  1 <1>   0.1990 
  7 C        1.2380     2.3070     1.4790 C.3   1 <1>   0.2570 
  8 C       -2.2210     1.5500     0.6880 C.ar  1 <1>  -0.1500 
  9 C       -1.1090     3.5350    -0.0210 C.ar  1 <1>  -0.1500 
 10 C        2.3290     3.0130     0.6660 C.2   1 <1>   0.5690 
 11 C       -3.4540     2.1430     0.4720 C.ar  1 <1>  -0.1440 
 12 C       -2.3330     4.1390    -0.2370 C.ar  1 <1>  -0.1500 
 13 O        2.2590     4.2100     0.5130 O.2   1 <1>  -0.5700 
 14 N        3.3520     2.2900     0.1390 N.am  1 <1>  -0.7300 
 15 C       -3.5120     3.4520     0.0050 C.ar  1 <1>  -0.1430 
 16 C       -4.7170     1.3420     0.7540 C.3   1 <1>  -0.0970 
 17 C        4.5030     2.8440    -0.6000 C.3   1 <1>   0.2200 
 18 C       -4.8410     4.1500    -0.2460 C.3   1 <1>  -0.0970 
 19 C        4.6420     2.2790    -2.0290 C.3   1 <1>  -0.0800 
 20 C        5.8320     2.4450     0.0590 C.3   1 <1>  -0.1600 
 21 C        6.1160     2.5480    -2.2920 C.3   1 <1>  -0.1600 
 22 C        4.6380     0.7360    -2.0280 C.3   1 <1>  -0.1600 
 23 C        6.6020     1.7620    -1.0850 C.3   1 <1>  -0.0800 
 24 C        5.9690     0.3850    -1.3410 C.3   1 <1>  -0.1600 
 25 H        1.1630     0.0230    -2.5190 H     1 <1>   0.0800 
 26 H        1.5370     1.6110    -1.9030 H     1 <1>   0.0800 
 27 H       -0.1180     1.1630    -2.2120 H     1 <1>   0.0800 
 28 H        1.7020     1.5920     2.1340 H     1 <1>   0.0800 
 29 H        0.7560     3.0420     2.1000 H     1 <1>   0.0800 
 30 H       -2.1700     0.5410     1.0560 H     1 <1>   0.1500 
 31 H       -0.2100     4.0870    -0.2200 H     1 <1>   0.1500 
 32 H       -2.3600     5.1530    -0.5960 H     1 <1>   0.1500 
 33 H        3.3490     1.2650     0.2440 H     1 <1>   0.3700 
 34 H       -4.4770     0.3490     1.0890 H     1 <1>   0.0800 
 35 H       -5.3100     1.2600    -0.1390 H     1 <1>   0.0800 
 36 H       -5.2970     1.8250     1.5190 H     1 <1>   0.0800 
 37 H        4.4320     3.9190    -0.6440 H     1 <1>   0.0800 
 38 H       -5.4010     3.6160    -0.9930 H     1 <1>   0.0800 
 39 H       -4.6890     5.1560    -0.5930 H     1 <1>   0.0800 
 40 H       -5.4140     4.1890     0.6620 H     1 <1>   0.0800 
 41 H        3.9720     2.7320    -2.7380 H     1 <1>   0.0800 
 42 H        5.7010     1.7900     0.9030 H     1 <1>   0.0800 
 43 H        6.3540     3.3300     0.3750 H     1 <1>   0.0800 
 44 H        6.3690     3.5940    -2.2380 H     1 <1>   0.0800 
 45 H        6.4590     2.1340    -3.2250 H     1 <1>   0.0800 
 46 H        4.6420     0.3700    -3.0410 H     1 <1>   0.0800 
 47 H        3.7980     0.3110    -1.5150 H     1 <1>   0.0800 
 48 H        7.6700     1.7370    -0.9450 H     1 <1>   0.0800 
 49 H        6.5880    -0.1950    -2.0040 H     1 <1>   0.0800 
 50 H        5.8180    -0.1650    -0.4280 H     1 <1>   0.0800 
@<TRIPOS>BOND
  1   1   2  2   
  2   1   3  2   
  3   1   4  am  
  4   1   5  1   
  5   4   6  1   
  6   4   7  1   
  7   5  25  1   
  8   5  26  1   
  9   5  27  1   
 10   6   8  ar  
 11   6   9  ar  
 12   7  10  1   
 13   7  28  1   
 14   7  29  1   
 15   8  11  ar  
 16   8  30  1   
 17   9  12  ar  
 18   9  31  1   
 19  10  13  2   
 20  10  14  am  
 21  11  15  ar  
 22  11  16  1   
 23  12  15  ar  
 24  12  32  1   
 25  14  17  1   
 26  14  33  1   
 27  15  18  1   
 28  16  34  1   
 29  16  35  1   
 30  16  36  1   
 31  17  19  1   
 32  17  20  1   
 33  17  37  1   
 34  18  38  1   
 35  18  39  1   
 36  18  40  1   
 37  19  21  1   
 38  19  22  1   
 39  19  41  1   
 40  20  23  1   
 41  20  42  1   
 42  20  43  1   
 43  21  23  1   
 44  21  44  1   
 45  21  45  1   
 46  22  24  1   
 47  22  46  1   
 48  22  47  1   
 49  23  24  1   
 50  23  48  1   
 51  24  49  1   
 52  24  50  1   
@<TRIPOS>SUBSTRUCTURE
  1 ****   4 GROUP 4 **** **** 0

# MOE 2024.06 (io_trps.svl 2023.06)
