@<TRIPOS>MOLECULE
NONAME
33 34 1 0 0 
SMALL
USER_CHARGES


@<TRIPOS>ATOM
  1 O       -1.1550    -0.1030    -0.9390 O.2   1 <1>  -0.5700 
  2 C       -2.1580     0.1580    -0.3210 C.2   1 <1>   0.5690 
  3 N       -3.0780    -0.7360     0.0980 N.am  1 <1>  -0.6600 
  4 C       -2.5590     1.5530     0.0670 C.3   1 <1>  -0.0990 
  5 C       -4.2230    -0.1160     0.7830 C.3   1 <1>   0.1400 
  6 C       -3.0040    -2.2010    -0.1090 C.3   1 <1>   0.1400 
  7 C       -4.0060     1.3900     0.5710 C.3   1 <1>  -0.1600 
  8 C       -3.5220    -2.5560    -1.5080 C.3   1 <1>   0.1400 
  9 N       -4.1530    -3.9010    -1.5130 N.am  1 <1>  -0.7300 
 10 C       -5.3190    -4.2520    -0.9040 C.2   1 <1>   0.5440 
 11 O       -5.4980    -5.4370    -0.7270 O.2   1 <1>  -0.5700 
 12 C       -6.2780    -3.2690    -0.4360 C.ar  1 <1>   0.0860 
 13 C       -6.8220    -2.3090    -1.2900 C.ar  1 <1>  -0.1500 
 14 C       -6.6800    -3.2470     0.8980 C.ar  1 <1>  -0.1500 
 15 C       -7.7120    -1.3560    -0.8280 C.ar  1 <1>  -0.1500 
 16 C       -7.5680    -2.2960     1.3680 C.ar  1 <1>  -0.1500 
 17 C       -8.0840    -1.3460     0.5040 C.ar  1 <1>  -0.1500 
 18 H       -2.4990     2.2130    -0.7780 H     1 <1>   0.0800 
 19 H       -1.9090     1.8960     0.8510 H     1 <1>   0.0800 
 20 H       -4.1950    -0.3670     1.8300 H     1 <1>   0.0800 
 21 H       -5.1530    -0.4440     0.3510 H     1 <1>   0.0800 
 22 H       -3.5920    -2.6870     0.6490 H     1 <1>   0.0800 
 23 H       -1.9820    -2.5230    -0.0130 H     1 <1>   0.0800 
 24 H       -4.6930     1.7370    -0.1810 H     1 <1>   0.0800 
 25 H       -4.1800     1.9420     1.4780 H     1 <1>   0.0800 
 26 H       -2.7040    -2.5360    -2.2090 H     1 <1>   0.0800 
 27 H       -4.2460    -1.8260    -1.8210 H     1 <1>   0.0800 
 28 H       -3.5490    -4.6870    -1.7680 H     1 <1>   0.3700 
 29 H       -6.5430    -2.3190    -2.3290 H     1 <1>   0.1500 
 30 H       -6.2870    -3.9920     1.5690 H     1 <1>   0.1500 
 31 H       -8.1190    -0.6240    -1.5050 H     1 <1>   0.1500 
 32 H       -7.8640    -2.2990     2.4030 H     1 <1>   0.1500 
 33 H       -8.7780    -0.6070     0.8660 H     1 <1>   0.1500 
@<TRIPOS>BOND
  1   1   2  2   
  2   2   3  am  
  3   2   4  1   
  4   3   5  1   
  5   3   6  1   
  6   4   7  1   
  7   4  18  1   
  8   4  19  1   
  9   5   7  1   
 10   5  20  1   
 11   5  21  1   
 12   6   8  1   
 13   6  22  1   
 14   6  23  1   
 15   7  24  1   
 16   7  25  1   
 17   8   9  1   
 18   8  26  1   
 19   8  27  1   
 20   9  10  am  
 21   9  28  1   
 22  10  11  2   
 23  10  12  1   
 24  12  13  ar  
 25  12  14  ar  
 26  13  15  ar  
 27  13  29  1   
 28  14  16  ar  
 29  14  30  1   
 30  15  17  ar  
 31  15  31  1   
 32  16  17  ar  
 33  16  32  1   
 34  17  33  1   
@<TRIPOS>SUBSTRUCTURE
  1 ****   6 GROUP 4 **** **** 0

# MOE 2024.06 (io_trps.svl 2023.06)
