@<TRIPOS>MOLECULE
NONAME
33 36 1 0 0 
SMALL
USER_CHARGES


@<TRIPOS>ATOM
  1 S        0.2070     0.1810    -0.0020 S.3   1 <1>  -0.0800 
  2 C        1.1570    -1.3110     0.0020 C.2   1 <1>   0.1660 
  3 C       -1.2730    -0.7630     0.0020 C.2   1 <1>  -0.1400 
  4 N        2.5220    -1.3070     0.0010 N.2   1 <1>  -0.5760 
  5 C        0.3470    -2.4170     0.0050 C.2   1 <1>  -0.0010 
  6 C       -1.0400    -2.0660     0.0050 C.2   1 <1>  -0.1810 
  7 C       -2.7080    -0.3440     0.0020 C.3   1 <1>   0.0200 
  8 C        3.0420    -2.4900     0.0030 C.2   1 <1>   0.6000 
  9 C        0.9820    -3.6890     0.0080 C.2   1 <1>   0.1870 
 10 C       -2.3270    -2.8450     0.0080 C.3   1 <1>   0.0210 
 11 C       -3.4120    -1.7280     0.0060 C.3   1 <1>  -0.1600 
 12 S        4.8240    -2.6450     0.0020 S.3   1 <1>  -0.3710 
 13 N        2.3300    -3.6900     0.0070 N.pl3 1 <1>   0.2940 
 14 N        0.5080    -4.9040     0.0110 N.2   1 <1>  -0.3380 
 15 C        5.4330    -0.9000    -0.0020 C.3   1 <1>   0.0700 
 16 C        2.6160    -4.9960     0.0100 C.2   1 <1>   0.0360 
 17 N        1.5540    -5.7280     0.0130 N.2   1 <1>  -0.3380 
 18 C        6.9620    -0.9330    -0.0030 C.3   1 <1>  -0.1600 
 19 C        7.5470     0.4830    -0.0070 C.3   1 <1>  -0.2400 
 20 H       -2.9410     0.2200    -0.8840 H     1 <1>   0.0800 
 21 H       -2.9390     0.2250     0.8850 H     1 <1>   0.0800 
 22 H       -2.3930    -3.4580     0.8900 H     1 <1>   0.0800 
 23 H       -2.3940    -3.4620    -0.8710 H     1 <1>   0.0800 
 24 H       -4.0330    -1.8250    -0.8660 H     1 <1>   0.0800 
 25 H       -4.0320    -1.8200     0.8810 H     1 <1>   0.0800 
 26 H        5.0450    -0.4190     0.8790 H     1 <1>   0.0800 
 27 H        5.0440    -0.4230    -0.8850 H     1 <1>   0.0800 
 28 H        3.6240    -5.3700     0.0100 H     1 <1>   0.1500 
 29 H        7.3060    -1.4630    -0.8750 H     1 <1>   0.0800 
 30 H        7.3080    -1.4580     0.8700 H     1 <1>   0.0800 
 31 H        7.2280     1.0210    -0.8830 H     1 <1>   0.0800 
 32 H        8.6220     0.4380    -0.0080 H     1 <1>   0.0800 
 33 H        7.2290     1.0250     0.8670 H     1 <1>   0.0800 
@<TRIPOS>BOND
  1   1   2  1   
  2   1   3  1   
  3   2   4  1   
  4   2   5  2   
  5   3   6  2   
  6   3   7  1   
  7   4   8  2   
  8   5   6  1   
  9   5   9  1   
 10   6  10  1   
 11   7  11  1   
 12   7  20  1   
 13   7  21  1   
 14   8  12  1   
 15   8  13  1   
 16   9  13  1   
 17   9  14  2   
 18  10  11  1   
 19  10  22  1   
 20  10  23  1   
 21  11  24  1   
 22  11  25  1   
 23  12  15  1   
 24  13  16  1   
 25  14  17  1   
 26  15  18  1   
 27  15  26  1   
 28  15  27  1   
 29  16  17  2   
 30  16  28  1   
 31  18  19  1   
 32  18  29  1   
 33  18  30  1   
 34  19  31  1   
 35  19  32  1   
 36  19  33  1   
@<TRIPOS>SUBSTRUCTURE
  1 ****   2 GROUP 4 **** **** 0

# MOE 2024.06 (io_trps.svl 2023.06)
