@<TRIPOS>MOLECULE
NONAME
49 50 1 0 0 
SMALL
USER_CHARGES


@<TRIPOS>ATOM
  1 O       -0.7040    -0.2400    -0.3920 O.2   1 <1>  -0.5700 
  2 C       -0.5250    -1.3770    -0.0050 C.2   1 <1>   0.5440 
  3 N       -1.5830    -2.1250     0.4600 N.am  1 <1>  -0.5470 
  4 C        0.8070    -1.9550    -0.0230 C.ar  1 <1>   0.0860 
  5 C       -2.9460    -1.8140     0.5920 C.ar  1 <1>   0.1170 
  6 C        1.0180    -3.3230    -0.1940 C.ar  1 <1>  -0.1500 
  7 C        1.9360    -1.1500     0.1330 C.ar  1 <1>  -0.1500 
  8 C       -3.8780    -2.8400     0.5040 C.ar  1 <1>  -0.1500 
  9 C       -3.4030    -0.5230     0.8310 C.ar  1 <1>  -0.1500 
 10 C        2.2880    -3.8740    -0.1890 C.ar  1 <1>   0.0830 
 11 C        3.2110    -1.6850     0.1370 C.ar  1 <1>  -0.1500 
 12 C       -5.2390    -2.6050     0.6450 C.ar  1 <1>   0.1170 
 13 C       -4.7540    -0.2690     0.9740 C.ar  1 <1>  -0.1500 
 14 O        2.3570    -5.2190    -0.3570 O.3   1 <1>  -0.3630 
 15 C        3.3930    -3.0460    -0.0210 C.ar  1 <1>  -0.1500 
 16 N       -6.1290    -3.6850     0.5240 N.am  1 <1>  -0.5470 
 17 C       -5.6670    -1.3030     0.8800 C.ar  1 <1>  -0.1500 
 18 C        3.5700    -5.9400    -0.3590 C.3   1 <1>   0.2000 
 19 C       -7.3930    -3.8590     1.0170 C.2   1 <1>   0.5690 
 20 C        3.3060    -7.2590    -1.0800 C.3   1 <1>  -0.2400 
 21 C        4.0050    -6.1830     1.0890 C.3   1 <1>  -0.2400 
 22 O       -7.9580    -3.0600     1.7210 O.2   1 <1>  -0.5700 
 23 C       -8.1110    -5.1470     0.6610 C.3   1 <1>  -0.0990 
 24 C       -8.5750    -5.1700    -0.8040 C.3   1 <1>  -0.1600 
 25 C       -9.3000    -6.4770    -1.1380 C.3   1 <1>  -0.2400 
 26 H       -1.3320    -3.0640     0.7610 H     1 <1>   0.3700 
 27 H        0.1880    -3.9860    -0.3470 H     1 <1>   0.1500 
 28 H        1.8040    -0.0880     0.2540 H     1 <1>   0.1500 
 29 H       -3.5360    -3.8390     0.3210 H     1 <1>   0.1500 
 30 H       -2.7030     0.2890     0.9110 H     1 <1>   0.1500 
 31 H        4.0640    -1.0380     0.2610 H     1 <1>   0.1500 
 32 H       -5.0960     0.7350     1.1570 H     1 <1>   0.1500 
 33 H        4.3930    -3.4360    -0.0120 H     1 <1>   0.1500 
 34 H       -5.7720    -4.4730    -0.0110 H     1 <1>   0.3700 
 35 H       -6.7150    -1.0890     0.9880 H     1 <1>   0.1500 
 36 H        4.3090    -5.3820    -0.9070 H     1 <1>   0.0800 
 37 H        2.5460    -7.8210    -0.5680 H     1 <1>   0.0800 
 38 H        4.2050    -7.8470    -1.1140 H     1 <1>   0.0800 
 39 H        2.9880    -7.0660    -2.0890 H     1 <1>   0.0800 
 40 H        3.2480    -6.7350     1.6170 H     1 <1>   0.0800 
 41 H        4.1790    -5.2520     1.5960 H     1 <1>   0.0800 
 42 H        4.9170    -6.7510     1.1060 H     1 <1>   0.0800 
 43 H       -8.9650    -5.2480     1.3080 H     1 <1>   0.0800 
 44 H       -7.4560    -5.9770     0.8560 H     1 <1>   0.0800 
 45 H       -7.7300    -5.0550    -1.4610 H     1 <1>   0.0800 
 46 H       -9.2420    -4.3400    -0.9760 H     1 <1>   0.0800 
 47 H       -8.6480    -7.3210    -0.9940 H     1 <1>   0.0800 
 48 H       -9.6220    -6.4670    -2.1650 H     1 <1>   0.0800 
 49 H      -10.1670    -6.5980    -0.5120 H     1 <1>   0.0800 
@<TRIPOS>BOND
  1   1   2  2   
  2   2   3  am  
  3   2   4  1   
  4   3   5  1   
  5   3  26  1   
  6   4   6  ar  
  7   4   7  ar  
  8   5   8  ar  
  9   5   9  ar  
 10   6  10  ar  
 11   6  27  1   
 12   7  11  ar  
 13   7  28  1   
 14   8  12  ar  
 15   8  29  1   
 16   9  13  ar  
 17   9  30  1   
 18  10  14  1   
 19  10  15  ar  
 20  11  15  ar  
 21  11  31  1   
 22  12  16  1   
 23  12  17  ar  
 24  13  17  ar  
 25  13  32  1   
 26  14  18  1   
 27  15  33  1   
 28  16  19  am  
 29  16  34  1   
 30  17  35  1   
 31  18  20  1   
 32  18  21  1   
 33  18  36  1   
 34  19  22  2   
 35  19  23  1   
 36  20  37  1   
 37  20  38  1   
 38  20  39  1   
 39  21  40  1   
 40  21  41  1   
 41  21  42  1   
 42  23  24  1   
 43  23  43  1   
 44  23  44  1   
 45  24  25  1   
 46  24  45  1   
 47  24  46  1   
 48  25  47  1   
 49  25  48  1   
 50  25  49  1   
@<TRIPOS>SUBSTRUCTURE
  1 ****   3 GROUP 4 **** **** 0

# MOE 2024.06 (io_trps.svl 2023.06)
