@<TRIPOS>MOLECULE
NONAME
45 46 1 0 0 
SMALL
USER_CHARGES


@<TRIPOS>ATOM
  1 O        0.4080     1.5040     0.8430 O.2   1 <1>  -0.5700 
  2 C        0.7040     1.7780    -0.2950 C.2   1 <1>   0.5690 
  3 N       -0.2060     2.2140    -1.2100 N.am  1 <1>  -0.7300 
  4 C        2.1580     1.6420    -0.7430 C.3   1 <1>  -0.0190 
  5 C       -1.6550     2.4410    -1.0050 C.3   1 <1>   0.2200 
  6 C        2.7920     0.3200    -0.2630 C.3   1 <1>  -0.1600 
  7 C        2.9980     2.8350    -0.2540 C.3   1 <1>  -0.1600 
  8 C       -1.8700     3.4980     0.0910 C.3   1 <1>  -0.1600 
  9 C       -2.3530     1.0950    -0.7680 C.3   1 <1>  -0.1600 
 10 C        4.2580     0.2120    -0.6870 C.3   1 <1>   0.1400 
 11 C        4.4660     2.7050    -0.6730 C.3   1 <1>   0.1400 
 12 C       -3.2850     4.0990     0.0550 C.3   1 <1>  -0.1600 
 13 C       -3.8740     1.1860    -0.5570 C.3   1 <1>  -0.1600 
 14 N        5.0080     1.4020    -0.1970 N.am  1 <1>  -0.6600 
 15 C       -4.3410     3.3130     0.8470 C.3   1 <1>  -0.1600 
 16 C       -4.2380     1.7800     0.8110 C.3   1 <1>  -0.1600 
 17 C        6.0950     1.3590     0.6410 C.2   1 <1>   0.5690 
 18 O        6.6950     2.3530     0.9720 O.2   1 <1>  -0.5700 
 19 C        6.5930     0.0430     1.1920 C.3   1 <1>  -0.1790 
 20 H        0.1160     2.4320    -2.1510 H     1 <1>   0.3700 
 21 H        2.1760     1.6400    -1.8170 H     1 <1>   0.0800 
 22 H       -2.0400     2.8460    -1.9250 H     1 <1>   0.0800 
 23 H        2.2400    -0.5100    -0.6650 H     1 <1>   0.0800 
 24 H        2.7370     0.2590     0.8110 H     1 <1>   0.0800 
 25 H        2.9500     2.8970     0.8200 H     1 <1>   0.0800 
 26 H        2.5970     3.7510    -0.6500 H     1 <1>   0.0800 
 27 H       -1.1720     4.2980    -0.0810 H     1 <1>   0.0800 
 28 H       -1.6630     3.0870     1.0630 H     1 <1>   0.0800 
 29 H       -1.9140     0.6070     0.0850 H     1 <1>   0.0800 
 30 H       -2.1710     0.4720    -1.6250 H     1 <1>   0.0800 
 31 H        4.3260     0.1780    -1.7610 H     1 <1>   0.0800 
 32 H        4.6740    -0.7010    -0.3010 H     1 <1>   0.0800 
 33 H        5.0280     3.5270    -0.2620 H     1 <1>   0.0800 
 34 H        4.5520     2.7490    -1.7450 H     1 <1>   0.0800 
 35 H       -3.6070     4.2000    -0.9670 H     1 <1>   0.0800 
 36 H       -3.2440     5.0940     0.4640 H     1 <1>   0.0800 
 37 H       -4.2640     0.1840    -0.5940 H     1 <1>   0.0800 
 38 H       -4.3410     1.7410    -1.3520 H     1 <1>   0.0800 
 39 H       -5.3120     3.6030     0.4830 H     1 <1>   0.0800 
 40 H       -4.2930     3.6180     1.8790 H     1 <1>   0.0800 
 41 H       -3.5200     1.4540     1.5440 H     1 <1>   0.0800 
 42 H       -5.1900     1.3810     1.1160 H     1 <1>   0.0800 
 43 H        5.8100    -0.4410     1.7430 H     1 <1>   0.0800 
 44 H        7.4210     0.2190     1.8540 H     1 <1>   0.0800 
 45 H        6.9230    -0.5870     0.3880 H     1 <1>   0.0800 
@<TRIPOS>BOND
  1   1   2  2   
  2   2   3  am  
  3   2   4  1   
  4   3   5  1   
  5   3  20  1   
  6   4   6  1   
  7   4   7  1   
  8   4  21  1   
  9   5   8  1   
 10   5   9  1   
 11   5  22  1   
 12   6  10  1   
 13   6  23  1   
 14   6  24  1   
 15   7  11  1   
 16   7  25  1   
 17   7  26  1   
 18   8  12  1   
 19   8  27  1   
 20   8  28  1   
 21   9  13  1   
 22   9  29  1   
 23   9  30  1   
 24  10  14  1   
 25  10  31  1   
 26  10  32  1   
 27  11  14  1   
 28  11  33  1   
 29  11  34  1   
 30  12  15  1   
 31  12  35  1   
 32  12  36  1   
 33  13  16  1   
 34  13  37  1   
 35  13  38  1   
 36  14  17  am  
 37  15  16  1   
 38  15  39  1   
 39  15  40  1   
 40  16  41  1   
 41  16  42  1   
 42  17  18  2   
 43  17  19  1   
 44  19  43  1   
 45  19  44  1   
 46  19  45  1   
@<TRIPOS>SUBSTRUCTURE
  1 ****   2 GROUP 4 **** **** 0

# MOE 2024.06 (io_trps.svl 2023.06)
