@<TRIPOS>MOLECULE
NONAME
38 40 1 0 0 
SMALL
USER_CHARGES


@<TRIPOS>ATOM
  1 O       -0.0920    -0.3040    -0.0910 O.2   1 <1>  -0.5700 
  2 C       -0.1400    -1.5090    -0.2530 C.2   1 <1>   0.5440 
  3 N        1.0380    -2.2270    -0.2700 N.am  1 <1>  -0.6600 
  4 C       -1.4290    -2.1520    -0.4130 C.ar  1 <1>   0.0860 
  5 C        2.3490    -1.5090    -0.2940 C.3   1 <1>   0.1400 
  6 C        1.0800    -3.7110    -0.0850 C.3   1 <1>   0.1400 
  7 C       -2.4450    -1.9470     0.5260 C.ar  1 <1>  -0.1500 
  8 C       -1.6950    -2.9900    -1.5080 C.ar  1 <1>  -0.1500 
  9 C        3.4650    -2.4230    -0.8240 C.3   1 <1>  -0.0800 
 10 C        2.3150    -4.1220     0.7310 C.3   1 <1>  -0.0800 
 11 C       -3.6550    -2.5840     0.3550 C.ar  1 <1>   0.0830 
 12 C       -2.9190    -3.6240    -1.6690 C.ar  1 <1>  -0.1500 
 13 C        3.6260    -3.6900     0.0430 C.3   1 <1>  -0.1600 
 14 C        4.7960    -1.6680    -0.9320 C.3   1 <1>  -0.2400 
 15 C        2.3190    -5.6310     1.0080 C.3   1 <1>  -0.2400 
 16 O       -4.7400    -2.5280     1.1350 O.3   1 <1>  -0.3630 
 17 C       -3.8880    -3.4030    -0.7110 C.ar  1 <1>   0.0830 
 18 C       -5.7280    -3.3560     0.5230 C.3   1 <1>   0.4000 
 19 O       -5.1250    -3.8970    -0.6500 O.3   1 <1>  -0.3630 
 20 H        2.5840    -1.1790     0.7030 H     1 <1>   0.0800 
 21 H        2.2650    -0.6390    -0.9230 H     1 <1>   0.0800 
 22 H        1.1110    -4.1840    -1.0510 H     1 <1>   0.0800 
 23 H        0.1930    -4.0400     0.4280 H     1 <1>   0.0800 
 24 H       -2.2840    -1.2990     1.3690 H     1 <1>   0.1500 
 25 H       -0.9240    -3.1360    -2.2440 H     1 <1>   0.1500 
 26 H        3.1790    -2.7240    -1.8180 H     1 <1>   0.0800 
 27 H        2.2460    -3.6170     1.6800 H     1 <1>   0.0800 
 28 H       -3.1220    -4.2660    -2.5070 H     1 <1>   0.1500 
 29 H        4.3630    -3.5240     0.8090 H     1 <1>   0.0800 
 30 H        3.9930    -4.4800    -0.5900 H     1 <1>   0.0800 
 31 H        5.1130    -1.3160     0.0340 H     1 <1>   0.0800 
 32 H        4.6910    -0.8210    -1.5880 H     1 <1>   0.0800 
 33 H        5.5590    -2.3130    -1.3320 H     1 <1>   0.0800 
 34 H        2.3570    -6.1870     0.0870 H     1 <1>   0.0800 
 35 H        1.4300    -5.9150     1.5440 H     1 <1>   0.0800 
 36 H        3.1730    -5.8960     1.6060 H     1 <1>   0.0800 
 37 H       -6.5800    -2.7590     0.2490 H     1 <1>   0.0800 
 38 H       -5.9970    -4.1530     1.1920 H     1 <1>   0.0800 
@<TRIPOS>BOND
  1   1   2  2   
  2   2   3  am  
  3   2   4  1   
  4   3   5  1   
  5   3   6  1   
  6   4   7  ar  
  7   4   8  ar  
  8   5   9  1   
  9   5  20  1   
 10   5  21  1   
 11   6  10  1   
 12   6  22  1   
 13   6  23  1   
 14   7  11  ar  
 15   7  24  1   
 16   8  12  ar  
 17   8  25  1   
 18   9  13  1   
 19   9  14  1   
 20   9  26  1   
 21  10  13  1   
 22  10  15  1   
 23  10  27  1   
 24  11  16  1   
 25  11  17  ar  
 26  12  17  ar  
 27  12  28  1   
 28  13  29  1   
 29  13  30  1   
 30  14  31  1   
 31  14  32  1   
 32  14  33  1   
 33  15  34  1   
 34  15  35  1   
 35  15  36  1   
 36  16  18  1   
 37  17  19  1   
 38  18  19  1   
 39  18  37  1   
 40  18  38  1   
@<TRIPOS>SUBSTRUCTURE
  1 ****   4 GROUP 4 **** **** 0

# MOE 2024.06 (io_trps.svl 2023.06)
