@<TRIPOS>MOLECULE
NONAME
43 44 1 0 0 
SMALL
USER_CHARGES


@<TRIPOS>ATOM
  1 S        0.2950     0.0530     0.2910 S.3   1 <1>  -0.0800 
  2 C        1.0600     1.4070    -0.5400 C.2   1 <1>  -0.0450 
  3 C       -1.1190     0.9860     0.6850 C.2   1 <1>  -0.1400 
  4 C        0.2220     2.4870    -0.4820 C.2   1 <1>   0.1250 
  5 C        2.3560     1.1990    -1.1120 C.2   1 <1>   0.8050 
  6 C       -1.0340     2.2570     0.2060 C.2   1 <1>  -0.0860 
  7 C       -2.1760     0.2350     1.4780 C.3   1 <1>  -0.0600 
  8 N        0.5090     3.7020    -1.0690 N.2   1 <1>  -0.5750 
  9 O        3.0810     2.0880    -1.5220 O.2   1 <1>  -0.5700 
 10 O        2.8130    -0.0580    -1.1800 O.3   1 <1>  -0.4300 
 11 C       -2.0690     3.2720     0.3490 C.2   1 <1>   0.7160 
 12 C        1.3720     4.5060    -0.5820 C.2   1 <1>   0.4390 
 13 C        4.0780    -0.3600    -1.7250 C.3   1 <1>   0.1200 
 14 O       -3.2280     2.9860     0.5600 O.2   1 <1>  -0.5700 
 15 N       -1.8080     4.5900     0.2590 N.am  1 <1>  -0.8000 
 16 N        1.5780     5.6580    -1.2590 N.pl3 1 <1>  -0.8190 
 17 C        2.1590     4.2950     0.7140 C.3   1 <1>  -0.0990 
 18 C        4.2750    -1.8700    -1.6490 C.3   1 <1>  -0.2400 
 19 C        2.5730     6.7110    -0.9860 C.3   1 <1>   0.2090 
 20 C        1.8480     5.3550     1.7850 C.3   1 <1>  -0.1600 
 21 C        2.2250     7.4460     0.3100 C.3   1 <1>  -0.1600 
 22 C        2.6060     6.6760     1.5850 C.3   1 <1>  -0.1600 
 23 H       -2.9520     0.8900     1.8260 H     1 <1>   0.0800 
 24 H       -1.7250    -0.2330     2.3350 H     1 <1>   0.0800 
 25 H       -2.6200    -0.5250     0.8620 H     1 <1>   0.0800 
 26 H        4.1010    -0.0170    -2.7460 H     1 <1>   0.0800 
 27 H        4.8290     0.1580    -1.1520 H     1 <1>   0.0800 
 28 H       -2.5870     5.2420     0.2200 H     1 <1>   0.3700 
 29 H       -0.9330     4.8740    -0.1940 H     1 <1>   0.3700 
 30 H        1.1120     5.7100    -2.1680 H     1 <1>   0.4000 
 31 H        1.9340     3.3380     1.1410 H     1 <1>   0.0800 
 32 H        3.2090     4.2870     0.4880 H     1 <1>   0.0800 
 33 H        3.5120    -2.3720    -2.2160 H     1 <1>   0.0800 
 34 H        4.2400    -2.1980    -0.6260 H     1 <1>   0.0800 
 35 H        5.2340    -2.1310    -2.0600 H     1 <1>   0.0800 
 36 H        3.5580     6.2790    -0.9260 H     1 <1>   0.0800 
 37 H        2.5630     7.4100    -1.8050 H     1 <1>   0.0800 
 38 H        0.7870     5.5380     1.8150 H     1 <1>   0.0800 
 39 H        2.1300     4.9560     2.7440 H     1 <1>   0.0800 
 40 H        2.7680     8.3740     0.3160 H     1 <1>   0.0800 
 41 H        1.1760     7.6880     0.3180 H     1 <1>   0.0800 
 42 H        3.6650     6.4810     1.5820 H     1 <1>   0.0800 
 43 H        2.4030     7.3090     2.4320 H     1 <1>   0.0800 
@<TRIPOS>BOND
  1   1   2  1   
  2   1   3  1   
  3   2   4  2   
  4   2   5  1   
  5   3   6  2   
  6   3   7  1   
  7   4   6  1   
  8   4   8  1   
  9   5   9  2   
 10   5  10  1   
 11   6  11  1   
 12   7  23  1   
 13   7  24  1   
 14   7  25  1   
 15   8  12  2   
 16  10  13  1   
 17  11  14  2   
 18  11  15  am  
 19  12  16  1   
 20  12  17  1   
 21  13  18  1   
 22  13  26  1   
 23  13  27  1   
 24  15  28  1   
 25  15  29  1   
 26  16  19  1   
 27  16  30  1   
 28  17  20  1   
 29  17  31  1   
 30  17  32  1   
 31  18  33  1   
 32  18  34  1   
 33  18  35  1   
 34  19  21  1   
 35  19  36  1   
 36  19  37  1   
 37  20  22  1   
 38  20  38  1   
 39  20  39  1   
 40  21  22  1   
 41  21  40  1   
 42  21  41  1   
 43  22  42  1   
 44  22  43  1   
@<TRIPOS>SUBSTRUCTURE
  1 ****   4 GROUP 4 **** **** 0

# MOE 2024.06 (io_trps.svl 2023.06)
