@<TRIPOS>MOLECULE
NONAME
47 49 1 0 0 
SMALL
USER_CHARGES


@<TRIPOS>ATOM
  1 CL      -2.3370     1.6750     2.2780 Cl    1 <1>  -0.1770 
  2 C       -1.1690     2.4480     1.2310 C.ar  1 <1>   0.1770 
  3 C       -1.3640     2.4410    -0.1430 C.ar  1 <1>  -0.1440 
  4 C       -0.0750     3.0680     1.8040 C.ar  1 <1>  -0.1500 
  5 C       -0.4280     3.0720    -0.9510 C.ar  1 <1>  -0.1500 
  6 C       -2.5730     1.7560    -0.7490 C.3   1 <1>   0.4870 
  7 C        0.8490     3.6970     0.9900 C.ar  1 <1>  -0.1500 
  8 C        0.6710     3.6980    -0.3840 C.ar  1 <1>  -0.1500 
  9 N       -3.8140     2.4700    -0.3130 N.4   1 <1>  -0.9590 
 10 C       -5.0310     1.7180    -0.7020 C.3   1 <1>   0.3430 
 11 C       -3.8310     3.8820    -0.7800 C.3   1 <1>   0.3430 
 12 C       -6.2680     2.4040    -0.1200 C.3   1 <1>  -0.1600 
 13 C       -5.0470     4.6020    -0.1990 C.3   1 <1>  -0.1600 
 14 C       -6.3680     3.8840    -0.5310 C.3   1 <1>   0.4230 
 15 N       -7.5210     4.5500     0.1680 N.4   1 <1>  -0.9590 
 16 C       -8.8420     3.8770    -0.0870 C.3   1 <1>   0.3430 
 17 C       -7.6490     6.0140    -0.1550 C.3   1 <1>   0.3430 
 18 C       -9.9240     4.4730     0.8140 C.3   1 <1>  -0.1600 
 19 C       -8.7000     6.6660     0.7440 C.3   1 <1>  -0.1600 
 20 C      -10.0650     5.9840     0.6070 C.3   1 <1>  -0.1600 
 21 H        0.0560     3.0570     2.8730 H     1 <1>   0.1500 
 22 H       -0.5300     3.0840    -2.0240 H     1 <1>   0.1500 
 23 H       -2.5970     0.7310    -0.4130 H     1 <1>   0.0800 
 24 H       -2.4950     1.7590    -1.8250 H     1 <1>   0.0800 
 25 H        1.7090     4.1840     1.4220 H     1 <1>   0.1500 
 26 H        1.3980     4.1870    -1.0130 H     1 <1>   0.1500 
 27 H       -3.7410     2.4730     0.7190 H     1 <1>   0.4500 
 28 H       -4.9740     0.7060    -0.3290 H     1 <1>   0.0800 
 29 H       -5.1070     1.6750    -1.7780 H     1 <1>   0.0800 
 30 H       -3.8650     3.9110    -1.8580 H     1 <1>   0.0800 
 31 H       -2.9310     4.3880    -0.4620 H     1 <1>   0.0800 
 32 H       -6.2410     2.3130     0.9520 H     1 <1>   0.0800 
 33 H       -7.1200     1.8580    -0.4820 H     1 <1>   0.0800 
 34 H       -5.0440     5.5920    -0.6160 H     1 <1>   0.0800 
 35 H       -4.9220     4.6850     0.8670 H     1 <1>   0.0800 
 36 H       -6.5280     3.9360    -1.5970 H     1 <1>   0.0800 
 37 H       -7.3670     4.4980     1.1840 H     1 <1>   0.4500 
 38 H       -8.7790     2.8220     0.1200 H     1 <1>   0.0800 
 39 H       -9.1260     4.0040    -1.1200 H     1 <1>   0.0800 
 40 H       -7.9340     6.1390    -1.1880 H     1 <1>   0.0800 
 41 H       -6.7130     6.5230     0.0030 H     1 <1>   0.0800 
 42 H       -9.6940     4.2620     1.8440 H     1 <1>   0.0800 
 43 H      -10.8660     3.9990     0.5940 H     1 <1>   0.0800 
 44 H       -8.7980     7.7040     0.4760 H     1 <1>   0.0800 
 45 H       -8.3720     6.6310     1.7690 H     1 <1>   0.0800 
 46 H      -10.7540     6.3920     1.3300 H     1 <1>   0.0800 
 47 H      -10.4690     6.1780    -0.3730 H     1 <1>   0.0800 
@<TRIPOS>BOND
  1   1   2  1   
  2   2   3  ar  
  3   2   4  ar  
  4   3   5  ar  
  5   3   6  1   
  6   4   7  ar  
  7   4  21  1   
  8   5   8  ar  
  9   5  22  1   
 10   6   9  1   
 11   6  23  1   
 12   6  24  1   
 13   7   8  ar  
 14   7  25  1   
 15   8  26  1   
 16   9  10  1   
 17   9  11  1   
 18   9  27  1   
 19  10  12  1   
 20  10  28  1   
 21  10  29  1   
 22  11  13  1   
 23  11  30  1   
 24  11  31  1   
 25  12  14  1   
 26  12  32  1   
 27  12  33  1   
 28  13  14  1   
 29  13  34  1   
 30  13  35  1   
 31  14  15  1   
 32  14  36  1   
 33  15  16  1   
 34  15  17  1   
 35  15  37  1   
 36  16  18  1   
 37  16  38  1   
 38  16  39  1   
 39  17  19  1   
 40  17  40  1   
 41  17  41  1   
 42  18  20  1   
 43  18  42  1   
 44  18  43  1   
 45  19  20  1   
 46  19  44  1   
 47  19  45  1   
 48  20  46  1   
 49  20  47  1   
@<TRIPOS>SUBSTRUCTURE
  1 ****  11 GROUP 4 **** **** 0

# MOE 2024.06 (io_trps.svl 2023.06)
