@<TRIPOS>MOLECULE
NONAME
41 42 1 0 0 
SMALL
USER_CHARGES


@<TRIPOS>ATOM
  1 CL       1.1080     0.5840     1.2360 Cl    1 <1>  -0.1770 
  2 C        0.8700    -1.0780     0.7400 C.ar  1 <1>   0.1770 
  3 C        1.9620    -1.8710     0.4040 C.ar  1 <1>   0.0830 
  4 C       -0.4190    -1.5720     0.6940 C.ar  1 <1>  -0.1500 
  5 O        3.2020    -1.3150     0.4750 O.3   1 <1>  -0.3630 
  6 C        1.7340    -3.1890     0.0140 C.ar  1 <1>  -0.1500 
  7 C       -0.6320    -2.8830     0.3040 C.ar  1 <1>  -0.1500 
  8 C        4.3620    -2.0280     0.1340 C.3   1 <1>   0.1200 
  9 C        0.4420    -3.6930    -0.0380 C.ar  1 <1>  -0.1440 
 10 C        5.5380    -1.0700     0.3260 C.3   1 <1>  -0.1600 
 11 C        0.1970    -5.1300    -0.4620 C.3   1 <1>  -0.0970 
 12 C        6.8600    -1.7410    -0.0380 C.3   1 <1>   0.3430 
 13 N        8.0030    -0.8350     0.2650 N.4   1 <1>  -0.9590 
 14 C        8.0690     0.3330    -0.6680 C.3   1 <1>   0.3430 
 15 C        9.2890    -1.5940     0.2760 C.3   1 <1>   0.3430 
 16 C        9.1810     1.2860    -0.2240 C.3   1 <1>  -0.1600 
 17 C       10.4240    -0.6810     0.7420 C.3   1 <1>  -0.1600 
 18 C       10.5370     0.5760    -0.1300 C.3   1 <1>  -0.1600 
 19 H       -1.2440    -0.9360     0.9600 H     1 <1>   0.1500 
 20 H        2.5460    -3.8370    -0.2520 H     1 <1>   0.1500 
 21 H       -1.6360    -3.2700     0.2690 H     1 <1>   0.1500 
 22 H        4.2740    -2.3420    -0.8920 H     1 <1>   0.0800 
 23 H        4.4380    -2.8810     0.7870 H     1 <1>   0.0800 
 24 H        5.5590    -0.7650     1.3580 H     1 <1>   0.0800 
 25 H        5.3700    -0.2120    -0.2980 H     1 <1>   0.0800 
 26 H        0.9640    -5.4620    -1.1390 H     1 <1>   0.0800 
 27 H       -0.7520    -5.2190    -0.9600 H     1 <1>   0.0800 
 28 H        0.1960    -5.7700     0.4020 H     1 <1>   0.0800 
 29 H        6.8650    -2.0070    -1.0840 H     1 <1>   0.0800 
 30 H        6.9590    -2.6470     0.5390 H     1 <1>   0.0800 
 31 H        7.8690    -0.4560     1.2120 H     1 <1>   0.4500 
 32 H        7.1310     0.8640    -0.6710 H     1 <1>   0.0800 
 33 H        8.2690    -0.0100    -1.6700 H     1 <1>   0.0800 
 34 H        9.5060    -1.9590    -0.7150 H     1 <1>   0.0800 
 35 H        9.2150    -2.4390     0.9420 H     1 <1>   0.0800 
 36 H        8.9240     1.7160     0.7290 H     1 <1>   0.0800 
 37 H        9.2520     2.0960    -0.9310 H     1 <1>   0.0800 
 38 H       11.3520    -1.2250     0.7010 H     1 <1>   0.0800 
 39 H       10.2620    -0.4020     1.7690 H     1 <1>   0.0800 
 40 H       11.2730     1.2450     0.2840 H     1 <1>   0.0800 
 41 H       10.8670     0.2990    -1.1180 H     1 <1>   0.0800 
@<TRIPOS>BOND
  1   1   2  1   
  2   2   3  ar  
  3   2   4  ar  
  4   3   5  1   
  5   3   6  ar  
  6   4   7  ar  
  7   4  19  1   
  8   5   8  1   
  9   6   9  ar  
 10   6  20  1   
 11   7   9  ar  
 12   7  21  1   
 13   8  10  1   
 14   8  22  1   
 15   8  23  1   
 16   9  11  1   
 17  10  12  1   
 18  10  24  1   
 19  10  25  1   
 20  11  26  1   
 21  11  27  1   
 22  11  28  1   
 23  12  13  1   
 24  12  29  1   
 25  12  30  1   
 26  13  14  1   
 27  13  15  1   
 28  13  31  1   
 29  14  16  1   
 30  14  32  1   
 31  14  33  1   
 32  15  17  1   
 33  15  34  1   
 34  15  35  1   
 35  16  18  1   
 36  16  36  1   
 37  16  37  1   
 38  17  18  1   
 39  17  38  1   
 40  17  39  1   
 41  18  40  1   
 42  18  41  1   
@<TRIPOS>SUBSTRUCTURE
  1 ****   8 GROUP 4 **** **** 0

# MOE 2024.06 (io_trps.svl 2023.06)
