@<TRIPOS>MOLECULE
NONAME
49 49 1 0 0 
SMALL
USER_CHARGES


@<TRIPOS>ATOM
  1 O       -0.7980    -1.1290     2.4630 O.2   1 <1>  -0.5700 
  2 C       -1.0640    -1.9410     1.6090 C.2   1 <1>   0.4950 
  3 C       -2.0710    -1.7280     0.6150 C.2   1 <1>   0.0290 
  4 C       -0.2640    -3.2310     1.6550 C.3   1 <1>  -0.0990 
  5 C       -2.4310    -2.8300    -0.2340 C.2   1 <1>   0.4950 
  6 C       -2.6740    -0.4910     0.5100 C.2   1 <1>  -0.0500 
  7 C       -0.1820    -3.9330     0.2910 C.3   1 <1>   0.0000 
  8 O       -3.4090    -2.8410    -0.9550 O.2   1 <1>  -0.5700 
  9 C       -1.6090    -4.1090    -0.2490 C.3   1 <1>  -0.0990 
 10 N       -3.5820    -0.1410    -0.4310 N.pl3 1 <1>  -0.8690 
 11 C        0.4760    -5.3110     0.4620 C.3   1 <1>  -0.2400 
 12 C        0.6720    -3.1110    -0.6920 C.3   1 <1>  -0.2400 
 13 C       -4.3240     1.1390    -0.5250 C.3   1 <1>   0.2090 
 14 C       -5.7620     0.9740     0.0230 C.3   1 <1>   0.0000 
 15 C       -6.3640    -0.3100    -0.6020 C.3   1 <1>   0.3430 
 16 C       -5.7170     0.8600     1.5630 C.3   1 <1>  -0.2400 
 17 C       -6.5750     2.2310    -0.3470 C.3   1 <1>  -0.2400 
 18 N       -7.7430    -0.6200    -0.1070 N.4   1 <1>  -0.9590 
 19 C       -7.8630    -2.0840     0.1680 C.3   1 <1>   0.2630 
 20 C       -8.7970    -0.1720    -1.0670 C.3   1 <1>   0.2630 
 21 H        0.7280    -3.0110     2.0090 H     1 <1>   0.0800 
 22 H       -0.7270    -3.8780     2.3780 H     1 <1>   0.0800 
 23 H       -2.4080     0.2730     1.2290 H     1 <1>   0.1500 
 24 H       -2.1360    -4.8380     0.3420 H     1 <1>   0.0800 
 25 H       -1.5700    -4.4840    -1.2570 H     1 <1>   0.0800 
 26 H       -3.7820    -0.8420    -1.1690 H     1 <1>   0.4000 
 27 H        1.4760    -5.2070     0.8470 H     1 <1>   0.0800 
 28 H        0.5320    -5.8250    -0.4820 H     1 <1>   0.0800 
 29 H       -0.0840    -5.9240     1.1460 H     1 <1>   0.0800 
 30 H        0.2630    -2.1310    -0.8650 H     1 <1>   0.0800 
 31 H        0.7390    -3.6130    -1.6420 H     1 <1>   0.0800 
 32 H        1.6710    -2.9890    -0.3110 H     1 <1>   0.0800 
 33 H       -3.8010     1.9000     0.0290 H     1 <1>   0.0800 
 34 H       -4.3490     1.4450    -1.5580 H     1 <1>   0.0800 
 35 H       -5.7130    -1.1320    -0.3470 H     1 <1>   0.0800 
 36 H       -6.3660    -0.2240    -1.6760 H     1 <1>   0.0800 
 37 H       -5.1870     1.6980     1.9840 H     1 <1>   0.0800 
 38 H       -5.2000    -0.0360     1.8620 H     1 <1>   0.0800 
 39 H       -6.7000     0.8460     1.9960 H     1 <1>   0.0800 
 40 H       -6.6710     2.3250    -1.4150 H     1 <1>   0.0800 
 41 H       -7.5580     2.2060     0.0880 H     1 <1>   0.0800 
 42 H       -6.0810     3.1140     0.0210 H     1 <1>   0.0800 
 43 H       -7.8540    -0.1130     0.7840 H     1 <1>   0.4500 
 44 H       -7.7230    -2.6490    -0.7390 H     1 <1>   0.0800 
 45 H       -8.8360    -2.3120     0.5720 H     1 <1>   0.0800 
 46 H       -7.1150    -2.3920     0.8820 H     1 <1>   0.0800 
 47 H       -8.6940    -0.6930    -2.0050 H     1 <1>   0.0800 
 48 H       -9.7770    -0.3730    -0.6670 H     1 <1>   0.0800 
 49 H       -8.7130     0.8870    -1.2520 H     1 <1>   0.0800 
@<TRIPOS>BOND
  1   1   2  2   
  2   2   3  1   
  3   2   4  1   
  4   3   5  1   
  5   3   6  2   
  6   4   7  1   
  7   4  21  1   
  8   4  22  1   
  9   5   8  2   
 10   5   9  1   
 11   6  10  1   
 12   6  23  1   
 13   7   9  1   
 14   7  11  1   
 15   7  12  1   
 16   9  24  1   
 17   9  25  1   
 18  10  13  1   
 19  10  26  1   
 20  11  27  1   
 21  11  28  1   
 22  11  29  1   
 23  12  30  1   
 24  12  31  1   
 25  12  32  1   
 26  13  14  1   
 27  13  33  1   
 28  13  34  1   
 29  14  15  1   
 30  14  16  1   
 31  14  17  1   
 32  15  18  1   
 33  15  35  1   
 34  15  36  1   
 35  16  37  1   
 36  16  38  1   
 37  16  39  1   
 38  17  40  1   
 39  17  41  1   
 40  17  42  1   
 41  18  19  1   
 42  18  20  1   
 43  18  43  1   
 44  19  44  1   
 45  19  45  1   
 46  19  46  1   
 47  20  47  1   
 48  20  48  1   
 49  20  49  1   
@<TRIPOS>SUBSTRUCTURE
  1 ****   6 GROUP 4 **** **** 0

# MOE 2024.06 (io_trps.svl 2023.06)
