@<TRIPOS>MOLECULE
Structure2243
28 29 1 0 0 
SMALL
USER_CHARGES


@<TRIPOS>ATOM
  1 CL      -0.0540    -0.1920     0.6110 Cl    1 <1>  -0.1770 
  2 C       -1.7680    -0.0750     0.3060 C.ar  1 <1>   0.1770 
  3 C       -2.2160     0.6370    -0.7880 C.ar  1 <1>  -0.1500 
  4 C       -2.6530    -0.6960     1.1650 C.ar  1 <1>  -0.1500 
  5 C       -3.5770     0.7300    -1.0260 C.ar  1 <1>  -0.1500 
  6 C       -4.0130    -0.6010     0.9230 C.ar  1 <1>  -0.1500 
  7 C       -4.4860     0.1160    -0.1730 C.ar  1 <1>  -0.1430 
  8 C       -5.9800     0.2400    -0.4480 C.3   1 <1>   0.0640 
  9 C       -6.6770     0.9350     0.7330 C.3   1 <1>   0.3430 
 10 C       -6.6100    -1.1330    -0.7420 C.3   1 <1>  -0.1600 
 11 N       -8.1600     1.0000     0.5310 N.4   1 <1>  -0.9060 
 12 C       -8.1360    -1.0200    -0.8890 C.3   1 <1>  -0.1600 
 13 C       -8.7790    -0.3390     0.3220 C.3   1 <1>   0.3430 
 14 H       -1.5050     1.1090    -1.4430 H     1 <1>   0.1500 
 15 H       -2.2750    -1.2480     2.0070 H     1 <1>   0.1500 
 16 H       -3.9110     1.2850    -1.8870 H     1 <1>   0.1500 
 17 H       -4.6870    -1.0970     1.5990 H     1 <1>   0.1500 
 18 H       -6.1140     0.8620    -1.3160 H     1 <1>   0.0800 
 19 H       -6.2730     1.9280     0.8460 H     1 <1>   0.0800 
 20 H       -6.4620     0.3850     1.6350 H     1 <1>   0.0800 
 21 H       -6.3840    -1.8210     0.0550 H     1 <1>   0.0800 
 22 H       -6.1840    -1.5370    -1.6460 H     1 <1>   0.0800 
 23 H       -8.3620     1.5880    -0.2870 H     1 <1>   0.4500 
 24 H       -8.5980     1.4600     1.3400 H     1 <1>   0.4500 
 25 H       -8.5530    -2.0070    -0.9980 H     1 <1>   0.0800 
 26 H       -8.3810    -0.4720    -1.7830 H     1 <1>   0.0800 
 27 H       -9.8410    -0.2380     0.1610 H     1 <1>   0.0800 
 28 H       -8.6270    -0.9510     1.1980 H     1 <1>   0.0800 
@<TRIPOS>BOND
  1   1   2  1   
  2   2   3  ar  
  3   2   4  ar  
  4   3   5  ar  
  5   3  14  1   
  6   4   6  ar  
  7   4  15  1   
  8   5   7  ar  
  9   5  16  1   
 10   6   7  ar  
 11   6  17  1   
 12   7   8  1   
 13   8   9  1   
 14   8  10  1   
 15   8  18  1   
 16   9  11  1   
 17   9  19  1   
 18   9  20  1   
 19  10  12  1   
 20  10  21  1   
 21  10  22  1   
 22  11  13  1   
 23  11  23  1   
 24  11  24  1   
 25  12  13  1   
 26  12  25  1   
 27  12  26  1   
 28  13  27  1   
 29  13  28  1   
@<TRIPOS>SUBSTRUCTURE
  1 ****   7 GROUP 4 **** **** 0

# MOE 2024.06 (io_trps.svl 2023.06)
