@<TRIPOS>MOLECULE
NONAME
41 41 1 0 0 
SMALL
USER_CHARGES


@<TRIPOS>ATOM
  1 O        0.8240     1.4590     2.0500 O.2   1 <1>  -0.5700 
  2 C        0.2300     1.8440     1.0700 C.2   1 <1>   0.5690 
  3 N        0.8160     1.9750    -0.1530 N.am  1 <1>  -0.7300 
  4 C       -1.2440     2.1960     1.2220 C.3   1 <1>   0.1810 
  5 C        2.1940     1.7090    -0.5660 C.3   1 <1>   0.3000 
  6 O       -1.8100     2.6310    -0.0100 O.3   1 <1>  -0.3620 
  7 C        3.1480     2.6160     0.2130 C.3   1 <1>  -0.2400 
  8 C        2.2740     2.0350    -2.0560 C.3   1 <1>  -0.2400 
  9 C        2.5220     0.2330    -0.3430 C.3   1 <1>  -0.2400 
 10 C       -3.1140     2.9940    -0.0900 C.ar  1 <1>   0.0820 
 11 C       -3.5730     3.4040    -1.3300 C.ar  1 <1>  -0.1500 
 12 C       -3.9930     2.9740     0.9880 C.ar  1 <1>  -0.1500 
 13 C       -4.8900     3.7900    -1.4990 C.ar  1 <1>  -0.1500 
 14 C       -5.3100     3.3620     0.8140 C.ar  1 <1>  -0.1500 
 15 C       -5.7730     3.7730    -0.4290 C.ar  1 <1>  -0.1440 
 16 C       -7.2240     4.2030    -0.6320 C.3   1 <1>   0.0630 
 17 C       -7.5560     5.4280     0.2260 C.3   1 <1>  -0.2400 
 18 C       -8.1840     3.0480    -0.3290 C.3   1 <1>  -0.2400 
 19 H        0.2110     2.3090    -0.9060 H     1 <1>   0.3700 
 20 H       -1.3440     2.9880     1.9400 H     1 <1>   0.0800 
 21 H       -1.7810     1.3270     1.5530 H     1 <1>   0.0800 
 22 H        2.8780     3.6470     0.0810 H     1 <1>   0.0800 
 23 H        4.1560     2.4780    -0.1340 H     1 <1>   0.0800 
 24 H        3.1230     2.3790     1.2610 H     1 <1>   0.0800 
 25 H        2.0330     3.0690    -2.2300 H     1 <1>   0.0800 
 26 H        1.5980     1.4140    -2.6150 H     1 <1>   0.0800 
 27 H        3.2710     1.8580    -2.4190 H     1 <1>   0.0800 
 28 H        2.4970    -0.0060     0.7050 H     1 <1>   0.0800 
 29 H        3.5080     0.0120    -0.7090 H     1 <1>   0.0800 
 30 H        1.8170    -0.3920    -0.8600 H     1 <1>   0.0800 
 31 H       -2.8950     3.4190    -2.1630 H     1 <1>   0.1500 
 32 H       -3.6790     2.6630     1.9660 H     1 <1>   0.1500 
 33 H       -5.2240     4.1050    -2.4720 H     1 <1>   0.1500 
 34 H       -5.9790     3.3420     1.6560 H     1 <1>   0.1500 
 35 H       -7.3610     4.4800    -1.6640 H     1 <1>   0.0800 
 36 H       -7.4870     5.1950     1.2720 H     1 <1>   0.0800 
 37 H       -8.5540     5.7700     0.0150 H     1 <1>   0.0800 
 38 H       -6.8680     6.2250     0.0060 H     1 <1>   0.0800 
 39 H       -8.1280     2.7640     0.7060 H     1 <1>   0.0800 
 40 H       -7.9300     2.1950    -0.9330 H     1 <1>   0.0800 
 41 H       -9.1950     3.3370    -0.5510 H     1 <1>   0.0800 
@<TRIPOS>BOND
  1   1   2  2   
  2   2   3  am  
  3   2   4  1   
  4   3   5  1   
  5   3  19  1   
  6   4   6  1   
  7   4  20  1   
  8   4  21  1   
  9   5   7  1   
 10   5   8  1   
 11   5   9  1   
 12   6  10  1   
 13   7  22  1   
 14   7  23  1   
 15   7  24  1   
 16   8  25  1   
 17   8  26  1   
 18   8  27  1   
 19   9  28  1   
 20   9  29  1   
 21   9  30  1   
 22  10  11  ar  
 23  10  12  ar  
 24  11  13  ar  
 25  11  31  1   
 26  12  14  ar  
 27  12  32  1   
 28  13  15  ar  
 29  13  33  1   
 30  14  15  ar  
 31  14  34  1   
 32  15  16  1   
 33  16  17  1   
 34  16  18  1   
 35  16  35  1   
 36  17  36  1   
 37  17  37  1   
 38  17  38  1   
 39  18  39  1   
 40  18  40  1   
 41  18  41  1   
@<TRIPOS>SUBSTRUCTURE
  1 ****   6 GROUP 4 **** **** 0

# MOE 2024.06 (io_trps.svl 2023.06)
