@<TRIPOS>MOLECULE
NONAME
43 44 1 0 0 
SMALL
USER_CHARGES


@<TRIPOS>ATOM
  1 O       -0.1080    -0.0830     0.7550 O.2   1 <1>  -0.5700 
  2 C       -0.0330    -1.1710     0.2140 C.2   1 <1>   0.6900 
  3 N       -1.1800    -1.7970    -0.2200 N.am  1 <1>  -0.6600 
  4 N        1.1660    -1.8030     0.0520 N.am  1 <1>  -0.5470 
  5 C       -2.4910    -1.2840     0.2610 C.3   1 <1>   0.2200 
  6 C       -1.1640    -2.8200    -1.3120 C.3   1 <1>   0.0600 
  7 C        2.4830    -1.3880     0.2990 C.ar  1 <1>   0.1170 
  8 C       -3.5050    -2.4020     0.5190 C.3   1 <1>  -0.1600 
  9 C       -3.0530    -0.2560    -0.7200 C.3   1 <1>  -0.1600 
 10 C        3.4680    -2.3390     0.5780 C.ar  1 <1>  -0.1440 
 11 C        2.8470    -0.0450     0.2500 C.ar  1 <1>  -0.1500 
 12 C       -4.8070    -1.8010     1.0430 C.3   1 <1>   0.3430 
 13 C       -4.3590     0.3150    -0.1810 C.3   1 <1>   0.3430 
 14 C        4.7750    -1.9360     0.8010 C.ar  1 <1>  -0.1500 
 15 C        3.1360    -3.8250     0.6510 C.3   1 <1>  -0.0970 
 16 C        4.1510     0.3500     0.4750 C.ar  1 <1>  -0.1500 
 17 N       -5.3330    -0.7920     0.0710 N.4   1 <1>  -0.9590 
 18 C        5.1190    -0.5970     0.7510 C.ar  1 <1>  -0.1500 
 19 C       -6.6420    -0.2420     0.5380 C.3   1 <1>   0.2630 
 20 H        1.0690    -2.7850    -0.1690 H     1 <1>   0.3700 
 21 H       -2.3290    -0.7860     1.2050 H     1 <1>   0.0800 
 22 H       -0.2400    -2.7760    -1.8620 H     1 <1>   0.0800 
 23 H       -1.9650    -2.6390    -2.0060 H     1 <1>   0.0800 
 24 H       -1.2770    -3.8040    -0.8920 H     1 <1>   0.0800 
 25 H       -3.1080    -3.0750     1.2590 H     1 <1>   0.0800 
 26 H       -3.7110    -2.9600    -0.3760 H     1 <1>   0.0800 
 27 H       -3.2170    -0.6930    -1.6880 H     1 <1>   0.0800 
 28 H       -2.3450     0.5480    -0.8300 H     1 <1>   0.0800 
 29 H        2.1060     0.7010     0.0310 H     1 <1>   0.1500 
 30 H       -4.6250    -1.3280     1.9950 H     1 <1>   0.0800 
 31 H       -5.5320    -2.5860     1.1890 H     1 <1>   0.0800 
 32 H       -4.7670     1.0130    -0.8950 H     1 <1>   0.0800 
 33 H       -4.1630     0.8460     0.7370 H     1 <1>   0.0800 
 34 H        5.5400    -2.6610     1.0180 H     1 <1>   0.1500 
 35 H        2.3480    -3.9920     1.3640 H     1 <1>   0.0800 
 36 H        3.9930    -4.3950     0.9630 H     1 <1>   0.0800 
 37 H        2.8270    -4.1820    -0.3140 H     1 <1>   0.0800 
 38 H        4.4110     1.3930     0.4350 H     1 <1>   0.1500 
 39 H       -5.4870    -1.2750    -0.8260 H     1 <1>   0.4500 
 40 H        6.1360    -0.2930     0.9270 H     1 <1>   0.1500 
 41 H       -6.5190     0.2750     1.4770 H     1 <1>   0.0800 
 42 H       -7.3560    -1.0380     0.6750 H     1 <1>   0.0800 
 43 H       -7.0370     0.4510    -0.1870 H     1 <1>   0.0800 
@<TRIPOS>BOND
  1   1   2  2   
  2   2   3  am  
  3   2   4  am  
  4   3   5  1   
  5   3   6  1   
  6   4   7  1   
  7   4  20  1   
  8   5   8  1   
  9   5   9  1   
 10   5  21  1   
 11   6  22  1   
 12   6  23  1   
 13   6  24  1   
 14   7  10  ar  
 15   7  11  ar  
 16   8  12  1   
 17   8  25  1   
 18   8  26  1   
 19   9  13  1   
 20   9  27  1   
 21   9  28  1   
 22  10  14  ar  
 23  10  15  1   
 24  11  16  ar  
 25  11  29  1   
 26  12  17  1   
 27  12  30  1   
 28  12  31  1   
 29  13  17  1   
 30  13  32  1   
 31  13  33  1   
 32  14  18  ar  
 33  14  34  1   
 34  15  35  1   
 35  15  36  1   
 36  15  37  1   
 37  16  18  ar  
 38  16  38  1   
 39  17  19  1   
 40  17  39  1   
 41  18  40  1   
 42  19  41  1   
 43  19  42  1   
 44  19  43  1   
@<TRIPOS>SUBSTRUCTURE
  1 ****   2 GROUP 4 **** **** 0

# MOE 2024.06 (io_trps.svl 2023.06)
