@<TRIPOS>MOLECULE
NONAME
33 34 1 0 0 
SMALL
USER_CHARGES


@<TRIPOS>ATOM
  1 BR       0.7010     1.2260     0.9440 Br    1 <1>  -0.0570 
  2 C       -1.0170     1.9560     0.4150 C.2   1 <1>   0.0570 
  3 C       -1.5560     3.1310     0.9020 C.2   1 <1>   0.1080 
  4 C       -1.8900     1.4300    -0.4610 C.2   1 <1>  -0.3320 
  5 N       -2.7160     3.3490     0.3710 N.2   1 <1>  -0.7070 
  6 C       -0.9160     4.0530     1.9160 C.3   1 <1>  -0.0590 
  7 N       -2.9540     2.3010    -0.5090 N.pl3 1 <1>   0.5840 
  8 C       -1.7760     0.1330    -1.2530 C.3   1 <1>  -0.0600 
  9 S       -4.4960     2.0670    -1.4300 S.o2  1 <1>   1.4240 
 10 O       -5.2060     3.3180    -1.6250 O.2   1 <1>  -0.6500 
 11 O       -4.2500     1.2580    -2.6110 O.2   1 <1>  -0.6500 
 12 N       -5.4890     1.1260    -0.4120 N.am  1 <1>  -0.8490 
 13 C       -6.6540     0.6170    -1.1420 C.3   1 <1>   0.1960 
 14 C       -5.9120     1.8870     0.7720 C.3   1 <1>   0.1960 
 15 C       -7.4660    -0.3320    -0.2530 C.3   1 <1>  -0.1600 
 16 C       -6.6850     0.9800     1.7350 C.3   1 <1>  -0.1600 
 17 C       -7.9020     0.3500     1.0480 C.3   1 <1>  -0.1600 
 18 H        0.0910     4.2830     1.6190 H     1 <1>   0.0800 
 19 H       -0.9020     3.5790     2.8800 H     1 <1>   0.0800 
 20 H       -1.4760     4.9680     1.9840 H     1 <1>   0.0800 
 21 H       -0.8770    -0.3950    -0.9870 H     1 <1>   0.0800 
 22 H       -1.7450     0.3390    -2.3090 H     1 <1>   0.0800 
 23 H       -2.6170    -0.5070    -1.0490 H     1 <1>   0.0800 
 24 H       -6.3300     0.0740    -2.0160 H     1 <1>   0.0800 
 25 H       -7.2710     1.4390    -1.4680 H     1 <1>   0.0800 
 26 H       -6.5340     2.7170     0.4770 H     1 <1>   0.0800 
 27 H       -5.0520     2.2810     1.2870 H     1 <1>   0.0800 
 28 H       -6.8610    -1.1940    -0.0270 H     1 <1>   0.0800 
 29 H       -8.3320    -0.6720    -0.7930 H     1 <1>   0.0800 
 30 H       -7.0060     1.5540     2.5850 H     1 <1>   0.0800 
 31 H       -6.0250     0.2070     2.0880 H     1 <1>   0.0800 
 32 H       -8.3670    -0.3660     1.7030 H     1 <1>   0.0800 
 33 H       -8.6230     1.1190     0.8240 H     1 <1>   0.0800 
@<TRIPOS>BOND
  1   1   2  1   
  2   2   3  1   
  3   2   4  2   
  4   3   5  2   
  5   3   6  1   
  6   4   7  1   
  7   4   8  1   
  8   5   7  1   
  9   6  18  1   
 10   6  19  1   
 11   6  20  1   
 12   7   9  1   
 13   8  21  1   
 14   8  22  1   
 15   8  23  1   
 16   9  10  2   
 17   9  11  2   
 18   9  12  am  
 19  12  13  1   
 20  12  14  1   
 21  13  15  1   
 22  13  24  1   
 23  13  25  1   
 24  14  16  1   
 25  14  26  1   
 26  14  27  1   
 27  15  17  1   
 28  15  28  1   
 29  15  29  1   
 30  16  17  1   
 31  16  30  1   
 32  16  31  1   
 33  17  32  1   
 34  17  33  1   
@<TRIPOS>SUBSTRUCTURE
  1 ****   7 GROUP 4 **** **** 0

# MOE 2024.06 (io_trps.svl 2023.06)
