@<TRIPOS>MOLECULE
NONAME
40 41 1 0 0 
SMALL
USER_CHARGES


@<TRIPOS>ATOM
  1 CL      -0.1920     0.5020    -0.1390 Cl    1 <1>  -0.1770 
  2 C        1.4380    -0.1140    -0.0410 C.ar  1 <1>   0.1770 
  3 C        1.9040    -0.9600    -1.0300 C.ar  1 <1>  -0.1500 
  4 C        2.2400     0.2530     1.0220 C.ar  1 <1>  -0.1500 
  5 C        3.1960    -1.4500    -0.9500 C.ar  1 <1>  -0.1500 
  6 C        3.5320    -0.2390     1.0980 C.ar  1 <1>  -0.1500 
  7 C        4.0130    -1.0940     0.1150 C.ar  1 <1>  -0.1430 
  8 C        5.4370    -1.6300     0.2050 C.3   1 <1>   0.0890 
  9 S        6.6840    -0.4440    -0.3240 S.o2  1 <1>   1.3330 
 10 O        6.7890     0.6480     0.6150 O.2   1 <1>  -0.6500 
 11 O        6.6210    -0.1920    -1.7410 O.2   1 <1>  -0.6500 
 12 N        8.1400    -1.2770    -0.2150 N.am  1 <1>  -0.9140 
 13 C        9.2700    -0.3570    -0.0800 C.3   1 <1>   0.1960 
 14 C       10.6100    -1.1110    -0.0100 C.3   1 <1>   0.3430 
 15 N       11.7680    -0.2120     0.3190 N.4   1 <1>  -0.9590 
 16 C       12.0260     0.8300    -0.7430 C.3   1 <1>   0.3430 
 17 C       13.0160    -1.0210     0.5620 C.3   1 <1>   0.3430 
 18 C       13.2980     1.6470    -0.4420 C.3   1 <1>   0.1200 
 19 C       14.2410    -0.1180     0.8040 C.3   1 <1>   0.1200 
 20 O       14.3850     0.7910    -0.2480 O.3   1 <1>  -0.5600 
 21 H        1.2610    -1.2270    -1.8490 H     1 <1>   0.1500 
 22 H        1.8570     0.9170     1.7760 H     1 <1>   0.1500 
 23 H        3.5580    -2.1050    -1.7250 H     1 <1>   0.1500 
 24 H        4.1590     0.0550     1.9250 H     1 <1>   0.1500 
 25 H        5.5130    -2.5150    -0.3950 H     1 <1>   0.0800 
 26 H        5.6310    -1.9140     1.2210 H     1 <1>   0.0800 
 27 H        8.1940    -1.7090    -1.1410 H     1 <1>   0.4200 
 28 H        9.1540     0.2050     0.8330 H     1 <1>   0.0800 
 29 H        9.2690     0.3290    -0.9110 H     1 <1>   0.0800 
 30 H       10.7900    -1.6000    -0.9540 H     1 <1>   0.0800 
 31 H       10.5250    -1.8680     0.7520 H     1 <1>   0.0800 
 32 H       11.5590     0.2860     1.1970 H     1 <1>   0.4500 
 33 H       11.1870     1.5030    -0.8180 H     1 <1>   0.0800 
 34 H       12.1530     0.3520    -1.7000 H     1 <1>   0.0800 
 35 H       13.2210    -1.6420    -0.2950 H     1 <1>   0.0800 
 36 H       12.8790    -1.6670     1.4130 H     1 <1>   0.0800 
 37 H       13.1730     2.2570     0.4360 H     1 <1>   0.0800 
 38 H       13.5320     2.2880    -1.2740 H     1 <1>   0.0800 
 39 H       15.1380    -0.7130     0.8460 H     1 <1>   0.0800 
 40 H       14.1500     0.4280     1.7270 H     1 <1>   0.0800 
@<TRIPOS>BOND
  1   1   2  1   
  2   2   3  ar  
  3   2   4  ar  
  4   3   5  ar  
  5   3  21  1   
  6   4   6  ar  
  7   4  22  1   
  8   5   7  ar  
  9   5  23  1   
 10   6   7  ar  
 11   6  24  1   
 12   7   8  1   
 13   8   9  1   
 14   8  25  1   
 15   8  26  1   
 16   9  10  2   
 17   9  11  2   
 18   9  12  am  
 19  12  13  1   
 20  12  27  1   
 21  13  14  1   
 22  13  28  1   
 23  13  29  1   
 24  14  15  1   
 25  14  30  1   
 26  14  31  1   
 27  15  16  1   
 28  15  17  1   
 29  15  32  1   
 30  16  18  1   
 31  16  33  1   
 32  16  34  1   
 33  17  19  1   
 34  17  35  1   
 35  17  36  1   
 36  18  20  1   
 37  18  37  1   
 38  18  38  1   
 39  19  20  1   
 40  19  39  1   
 41  19  40  1   
@<TRIPOS>SUBSTRUCTURE
  1 ****   9 GROUP 4 **** **** 0

# MOE 2024.06 (io_trps.svl 2023.06)
