@<TRIPOS>MOLECULE
NONAME
59 61 1 0 0 
SMALL
USER_CHARGES


@<TRIPOS>ATOM
  1 S        0.0640    -0.5810    -0.0990 S.3   1 <1>  -0.0800 
  2 C        0.9150     0.9510     0.0590 C.2   1 <1>   0.1040 
  3 C       -1.4570     0.2310    -0.3680 C.2   1 <1>  -0.1400 
  4 N        2.2830     0.9550     0.3060 N.am  1 <1>  -0.4940 
  5 C        0.0530     2.0100    -0.0950 C.2   1 <1>  -0.0860 
  6 C       -1.3010     1.5620    -0.3540 C.2   1 <1>  -0.1810 
  7 C       -2.7180    -0.5860    -0.5650 C.3   1 <1>   0.3200 
  8 C        3.1870    -0.0620     0.5160 C.2   1 <1>   0.5690 
  9 C        0.4410     3.3970     0.0020 C.2   1 <1>   0.8060 
 10 C       -2.5200     2.4500    -0.5910 C.3   1 <1>   0.0210 
 11 N       -3.8890     0.3370    -0.6060 N.am  1 <1>  -0.6600 
 12 O        2.8980    -1.2320     0.5650 O.2   1 <1>  -0.5700 
 13 C        4.6760     0.2820     0.6910 C.3   1 <1>   0.4040 
 14 O       -0.3310     4.3340    -0.0520 O.2   1 <1>  -0.5700 
 15 O        1.7470     3.6720     0.1650 O.3   1 <1>  -0.4300 
 16 C       -3.6660     1.6660    -1.2570 C.3   1 <1>   0.1400 
 17 C       -5.1060    -0.0250    -0.1010 C.2   1 <1>   0.7800 
 18 N        5.5920    -0.8820     0.3880 N.4   1 <1>  -0.9590 
 19 C        2.2070     5.0040     0.2670 C.3   1 <1>   0.1200 
 20 O       -6.0690     0.7170    -0.1110 O.2   1 <1>  -0.5700 
 21 O       -5.2250    -1.2530     0.4080 O.3   1 <1>  -0.4300 
 22 C        6.9640    -0.7020     0.9390 C.3   1 <1>   0.3430 
 23 C        5.5900    -1.2280    -1.0650 C.3   1 <1>   0.3430 
 24 C        3.7210     4.9700     0.4500 C.3   1 <1>  -0.2400 
 25 C       -6.4480    -1.6960     0.9500 C.3   1 <1>   0.1200 
 26 C        7.7690    -1.9880     0.7450 C.3   1 <1>  -0.1600 
 27 C        6.3770    -2.5210    -1.2860 C.3   1 <1>  -0.1600 
 28 C       -6.2510    -3.1230     1.4530 C.3   1 <1>  -0.2400 
 29 C        7.8020    -2.4260    -0.7250 C.3   1 <1>  -0.1600 
 30 H        2.6540     1.9100     0.3480 H     1 <1>   0.3700 
 31 H       -2.8140    -1.2830     0.2490 H     1 <1>   0.0800 
 32 H       -2.6590    -1.1350    -1.4880 H     1 <1>   0.0800 
 33 H       -2.2680     3.2700    -1.2370 H     1 <1>   0.0800 
 34 H       -2.8570     2.8550     0.3470 H     1 <1>   0.0800 
 35 H        4.8180     0.5870     1.7130 H     1 <1>   0.0800 
 36 H        4.9230     1.1130     0.0540 H     1 <1>   0.0800 
 37 H       -3.4200     1.4970    -2.2910 H     1 <1>   0.0800 
 38 H       -4.5650     2.2580    -1.2270 H     1 <1>   0.0800 
 39 H        5.1550    -1.6960     0.8550 H     1 <1>   0.4500 
 40 H        1.7270     5.4710     1.1120 H     1 <1>   0.0800 
 41 H        1.9390     5.5310    -0.6340 H     1 <1>   0.0800 
 42 H        6.9150    -0.4680     1.9910 H     1 <1>   0.0800 
 43 H        7.4590     0.1090     0.4300 H     1 <1>   0.0800 
 44 H        6.0400    -0.4320    -1.6350 H     1 <1>   0.0800 
 45 H        4.5770    -1.3690    -1.4110 H     1 <1>   0.0800 
 46 H        3.9780     4.4480     1.3540 H     1 <1>   0.0800 
 47 H        4.0920     5.9770     0.5270 H     1 <1>   0.0800 
 48 H        4.1910     4.5030    -0.3960 H     1 <1>   0.0800 
 49 H       -7.1970    -1.6570     0.1770 H     1 <1>   0.0800 
 50 H       -6.7230    -1.0360     1.7550 H     1 <1>   0.0800 
 51 H        7.3430    -2.7700     1.3510 H     1 <1>   0.0800 
 52 H        8.7760    -1.8290     1.0910 H     1 <1>   0.0800 
 53 H        6.4220    -2.7280    -2.3420 H     1 <1>   0.0800 
 54 H        5.8520    -3.3390    -0.8230 H     1 <1>   0.0800 
 55 H       -5.9680    -3.7670     0.6400 H     1 <1>   0.0800 
 56 H       -7.1690    -3.4870     1.8760 H     1 <1>   0.0800 
 57 H       -5.4900    -3.1450     2.2130 H     1 <1>   0.0800 
 58 H        8.2930    -3.3820    -0.8110 H     1 <1>   0.0800 
 59 H        8.3690    -1.7140    -1.3010 H     1 <1>   0.0800 
@<TRIPOS>BOND
  1   1   2  1   
  2   1   3  1   
  3   2   4  1   
  4   2   5  2   
  5   3   6  2   
  6   3   7  1   
  7   4   8  am  
  8   4  30  1   
  9   5   6  1   
 10   5   9  1   
 11   6  10  1   
 12   7  11  1   
 13   7  31  1   
 14   7  32  1   
 15   8  12  2   
 16   8  13  1   
 17   9  14  2   
 18   9  15  1   
 19  10  16  1   
 20  10  33  1   
 21  10  34  1   
 22  11  16  1   
 23  11  17  am  
 24  13  18  1   
 25  13  35  1   
 26  13  36  1   
 27  15  19  1   
 28  16  37  1   
 29  16  38  1   
 30  17  20  2   
 31  17  21  1   
 32  18  22  1   
 33  18  23  1   
 34  18  39  1   
 35  19  24  1   
 36  19  40  1   
 37  19  41  1   
 38  21  25  1   
 39  22  26  1   
 40  22  42  1   
 41  22  43  1   
 42  23  27  1   
 43  23  44  1   
 44  23  45  1   
 45  24  46  1   
 46  24  47  1   
 47  24  48  1   
 48  25  28  1   
 49  25  49  1   
 50  25  50  1   
 51  26  29  1   
 52  26  51  1   
 53  26  52  1   
 54  27  29  1   
 55  27  53  1   
 56  27  54  1   
 57  28  55  1   
 58  28  56  1   
 59  28  57  1   
 60  29  58  1   
 61  29  59  1   
@<TRIPOS>SUBSTRUCTURE
  1 ****   2 GROUP 4 **** **** 0

# MOE 2024.06 (io_trps.svl 2023.06)
