@<TRIPOS>MOLECULE
NONAME
42 42 1 0 0 
SMALL
USER_CHARGES


@<TRIPOS>ATOM
  1 O      -11.7600     2.6500    -0.2550 O.3   1 <1>  -0.3630 
  2 C      -10.4150     2.5890    -0.4750 C.ar  1 <1>   0.0830 
  3 C      -12.6520     1.6430    -0.6740 C.3   1 <1>   0.1200 
  4 C       -9.5800     3.6450    -0.0680 C.ar  1 <1>   0.0820 
  5 C       -9.8400     1.4820    -1.0970 C.ar  1 <1>  -0.1500 
  6 C      -14.0620     2.0750    -0.2860 C.3   1 <1>  -0.2400 
  7 O       -9.9550     4.8030     0.5510 O.3   1 <1>  -0.3620 
  8 C       -8.2160     3.5560    -0.2890 C.ar  1 <1>  -0.1500 
  9 C       -8.4740     1.4100    -1.3060 C.ar  1 <1>  -0.1500 
 10 C      -11.2990     5.1960     0.7170 C.3   1 <1>   0.0400 
 11 C       -7.6520     2.4470    -0.8990 C.ar  1 <1>  -0.1430 
 12 C       -6.1570     2.3760    -1.0930 C.3   1 <1>   0.4860 
 13 N       -5.6060     1.8350     0.1590 N.4   1 <1>  -0.9060 
 14 C       -4.1370     1.7070     0.2170 C.3   1 <1>   0.4230 
 15 C       -3.7920     0.5140     1.1380 C.3   1 <1>   0.1200 
 16 C       -3.5280     3.0330     0.6930 C.3   1 <1>  -0.1600 
 17 O       -4.7530    -0.4940     0.9830 O.3   1 <1>  -0.6800 
 18 C       -1.9920     3.0170     0.6850 C.3   1 <1>  -0.2400 
 19 H      -12.3880     0.7240    -0.1810 H     1 <1>   0.0800 
 20 H      -12.5690     1.5360    -1.7420 H     1 <1>   0.0800 
 21 H      -10.4400     0.6550    -1.4280 H     1 <1>   0.1500 
 22 H      -14.1310     2.1970     0.7810 H     1 <1>   0.0800 
 23 H      -14.7700     1.3270    -0.5910 H     1 <1>   0.0800 
 24 H      -14.3120     3.0020    -0.7710 H     1 <1>   0.0800 
 25 H       -7.6060     4.3830     0.0300 H     1 <1>   0.1500 
 26 H       -8.0680     0.5370    -1.7890 H     1 <1>   0.1500 
 27 H      -11.3100     6.1870     1.1320 H     1 <1>   0.0800 
 28 H      -11.7810     4.5130     1.3930 H     1 <1>   0.0800 
 29 H      -11.7850     5.1950    -0.2420 H     1 <1>   0.0800 
 30 H       -5.7650     3.3620    -1.2860 H     1 <1>   0.0800 
 31 H       -5.9180     1.7310    -1.9240 H     1 <1>   0.0800 
 32 H       -5.9510     0.8670     0.2880 H     1 <1>   0.4500 
 33 H       -5.9750     2.3580     0.9580 H     1 <1>   0.4500 
 34 H       -3.7610     1.4790    -0.7670 H     1 <1>   0.0800 
 35 H       -3.7900     0.8160     2.1720 H     1 <1>   0.0800 
 36 H       -2.8240     0.1130     0.8890 H     1 <1>   0.0800 
 37 H       -3.8660     3.2570     1.6910 H     1 <1>   0.0800 
 38 H       -3.8510     3.8290     0.0430 H     1 <1>   0.0800 
 39 H       -4.5130    -1.2920     1.5070 H     1 <1>   0.4000 
 40 H       -1.6020     2.2960     1.3820 H     1 <1>   0.0800 
 41 H       -1.6170     3.9860     0.9700 H     1 <1>   0.0800 
 42 H       -1.6140     2.7910    -0.2980 H     1 <1>   0.0800 
@<TRIPOS>BOND
  1   1   2  1   
  2   1   3  1   
  3   2   4  ar  
  4   2   5  ar  
  5   3   6  1   
  6   3  19  1   
  7   3  20  1   
  8   4   7  1   
  9   4   8  ar  
 10   5   9  ar  
 11   5  21  1   
 12   6  22  1   
 13   6  23  1   
 14   6  24  1   
 15   7  10  1   
 16   8  11  ar  
 17   8  25  1   
 18   9  11  ar  
 19   9  26  1   
 20  10  27  1   
 21  10  28  1   
 22  10  29  1   
 23  11  12  1   
 24  12  13  1   
 25  12  30  1   
 26  12  31  1   
 27  13  14  1   
 28  13  32  1   
 29  13  33  1   
 30  14  15  1   
 31  14  16  1   
 32  14  34  1   
 33  15  17  1   
 34  15  35  1   
 35  15  36  1   
 36  16  18  1   
 37  16  37  1   
 38  16  38  1   
 39  17  39  1   
 40  18  40  1   
 41  18  41  1   
 42  18  42  1   
@<TRIPOS>SUBSTRUCTURE
  1 ****  11 GROUP 4 **** **** 0

# MOE 2024.06 (io_trps.svl 2023.06)
