@<TRIPOS>MOLECULE
NONAME
50 51 1 0 0 
SMALL
USER_CHARGES


@<TRIPOS>ATOM
  1 CL      -0.9220    -0.8270    -1.8630 Cl    1 <1>  -0.1770 
  2 C        0.2770    -1.9920    -1.3420 C.ar  1 <1>   0.1770 
  3 C       -0.0260    -2.9770    -0.4080 C.ar  1 <1>  -0.1440 
  4 C        1.5320    -1.8900    -1.9080 C.ar  1 <1>  -0.1500 
  5 C        0.9660    -3.8960    -0.0580 C.ar  1 <1>  -0.1440 
  6 C       -1.4250    -3.0390     0.2090 C.3   1 <1>  -0.0960 
  7 C        2.5190    -2.7840    -1.5450 C.ar  1 <1>  -0.1500 
  8 C        2.2430    -3.7870    -0.6180 C.ar  1 <1>   0.0830 
  9 C        0.6590    -5.0190     0.9370 C.3   1 <1>  -0.0960 
 10 O        3.1920    -4.6800    -0.2250 O.3   1 <1>  -0.3630 
 11 C        4.5360    -4.5700    -0.6210 C.3   1 <1>   0.1200 
 12 C        5.3050    -5.6950     0.0800 C.3   1 <1>   0.3430 
 13 N        6.7690    -5.7050    -0.2580 N.4   1 <1>  -0.9590 
 14 C        7.3890    -6.9810     0.2030 C.3   1 <1>   0.3430 
 15 C        7.4870    -4.5210     0.3040 C.3   1 <1>   0.3430 
 16 C        8.8350    -7.0520    -0.2840 C.3   1 <1>  -0.1600 
 17 C        8.9350    -4.5270    -0.1810 C.3   1 <1>  -0.1600 
 18 C        9.6620    -5.8380     0.1780 C.3   1 <1>  -0.0190 
 19 C       11.0620    -5.8730    -0.4280 C.2   1 <1>   0.6590 
 20 O       11.2280    -5.7620    -1.6140 O.2   1 <1>  -0.5700 
 21 O       12.0610    -6.0350     0.4250 O.3   1 <1>  -0.4300 
 22 C       13.4000    -6.0870    -0.0130 C.3   1 <1>   0.1200 
 23 C       14.2910    -6.2800     1.2090 C.3   1 <1>  -0.2400 
 24 H        1.7250    -1.1140    -2.6260 H     1 <1>   0.1500 
 25 H       -1.9130    -2.0830     0.1870 H     1 <1>   0.0800 
 26 H       -1.3800    -3.3370     1.2400 H     1 <1>   0.0800 
 27 H       -2.0300    -3.7440    -0.3330 H     1 <1>   0.0800 
 28 H        3.4820    -2.6780    -2.0030 H     1 <1>   0.1500 
 29 H       -0.3170    -5.4310     0.7540 H     1 <1>   0.0800 
 30 H        0.6940    -4.6360     1.9400 H     1 <1>   0.0800 
 31 H        1.3560    -5.8320     0.8580 H     1 <1>   0.0800 
 32 H        4.8910    -3.6020    -0.3170 H     1 <1>   0.0800 
 33 H        4.5790    -4.6830    -1.6900 H     1 <1>   0.0800 
 34 H        4.8650    -6.6320    -0.2200 H     1 <1>   0.0800 
 35 H        5.1810    -5.5900     1.1450 H     1 <1>   0.0800 
 36 H        6.8710    -5.6790    -1.2830 H     1 <1>   0.4500 
 37 H        6.8390    -7.8230    -0.1870 H     1 <1>   0.0800 
 38 H        7.3660    -7.0320     1.2810 H     1 <1>   0.0800 
 39 H        7.4650    -4.5570     1.3820 H     1 <1>   0.0800 
 40 H        7.0120    -3.6080    -0.0150 H     1 <1>   0.0800 
 41 H        8.8430    -7.1160    -1.3590 H     1 <1>   0.0800 
 42 H        9.2880    -7.9540     0.0910 H     1 <1>   0.0800 
 43 H        9.4580    -3.6980     0.2640 H     1 <1>   0.0800 
 44 H        8.9510    -4.3770    -1.2470 H     1 <1>   0.0800 
 45 H        9.7690    -5.8850     1.2490 H     1 <1>   0.0800 
 46 H       13.6310    -5.1630    -0.5180 H     1 <1>   0.0800 
 47 H       13.5040    -6.9090    -0.7020 H     1 <1>   0.0800 
 48 H       14.1720    -5.4570     1.8910 H     1 <1>   0.0800 
 49 H       15.3200    -6.3230     0.9030 H     1 <1>   0.0800 
 50 H       14.0450    -7.2010     1.7070 H     1 <1>   0.0800 
@<TRIPOS>BOND
  1   1   2  1   
  2   2   3  ar  
  3   2   4  ar  
  4   3   5  ar  
  5   3   6  1   
  6   4   7  ar  
  7   4  24  1   
  8   5   8  ar  
  9   5   9  1   
 10   6  25  1   
 11   6  26  1   
 12   6  27  1   
 13   7   8  ar  
 14   7  28  1   
 15   8  10  1   
 16   9  29  1   
 17   9  30  1   
 18   9  31  1   
 19  10  11  1   
 20  11  12  1   
 21  11  32  1   
 22  11  33  1   
 23  12  13  1   
 24  12  34  1   
 25  12  35  1   
 26  13  14  1   
 27  13  15  1   
 28  13  36  1   
 29  14  16  1   
 30  14  37  1   
 31  14  38  1   
 32  15  17  1   
 33  15  39  1   
 34  15  40  1   
 35  16  18  1   
 36  16  41  1   
 37  16  42  1   
 38  17  18  1   
 39  17  43  1   
 40  17  44  1   
 41  18  19  1   
 42  18  45  1   
 43  19  20  2   
 44  19  21  1   
 45  21  22  1   
 46  22  23  1   
 47  22  46  1   
 48  22  47  1   
 49  23  48  1   
 50  23  49  1   
 51  23  50  1   
@<TRIPOS>SUBSTRUCTURE
  1 ****  11 GROUP 4 **** **** 0

# MOE 2024.06 (io_trps.svl 2023.06)
