@<TRIPOS>MOLECULE
NONAME
31 31 1 0 0 
SMALL
USER_CHARGES


@<TRIPOS>ATOM
  1 I        0.3880    -0.1800     0.9070 I     1 <1>  -0.0810 
  2 C       -1.7150     0.0060     0.6190 C.ar  1 <1>   0.0810 
  3 C       -2.4590    -1.1370     0.3990 C.ar  1 <1>  -0.1500 
  4 C       -2.2820     1.2630     0.6590 C.ar  1 <1>  -0.1500 
  5 C       -3.8280    -1.0220     0.2120 C.ar  1 <1>  -0.1440 
  6 C       -3.6470     1.3690     0.4690 C.ar  1 <1>  -0.1500 
  7 C       -4.4350     0.2400     0.2480 C.ar  1 <1>   0.1170 
  8 C       -4.6430    -2.2890    -0.0240 C.3   1 <1>  -0.0960 
  9 N       -5.8220     0.3400     0.0400 N.am  1 <1>  -0.5470 
 10 C       -6.7420     1.2800     0.4200 C.2   1 <1>   0.5690 
 11 O       -6.4450     2.2550     1.0700 O.2   1 <1>  -0.5700 
 12 C       -8.2260     1.0830     0.0120 C.3   1 <1>   0.0610 
 13 C       -8.6750     2.2490    -0.8880 C.3   1 <1>  -0.2400 
 14 C       -9.1170     1.0630     1.2680 C.3   1 <1>  -0.2400 
 15 C       -8.4760    -0.2320    -0.7610 C.3   1 <1>  -0.2400 
 16 H       -1.9700    -2.0950     0.3770 H     1 <1>   0.1500 
 17 H       -1.6790     2.1370     0.8320 H     1 <1>   0.1500 
 18 H       -4.0990     2.3440     0.4910 H     1 <1>   0.1500 
 19 H       -4.0250    -3.1650     0.0600 H     1 <1>   0.0800 
 20 H       -5.0730    -2.2740    -1.0090 H     1 <1>   0.0800 
 21 H       -5.4280    -2.3640     0.7070 H     1 <1>   0.0800 
 22 H       -6.2240    -0.4610    -0.4390 H     1 <1>   0.3700 
 23 H       -8.0730     2.2880    -1.7790 H     1 <1>   0.0800 
 24 H       -8.5610     3.1850    -0.3670 H     1 <1>   0.0800 
 25 H       -9.7070     2.1430    -1.1720 H     1 <1>   0.0800 
 26 H       -9.0130     1.9860     1.8130 H     1 <1>   0.0800 
 27 H       -8.8260     0.2580     1.9200 H     1 <1>   0.0800 
 28 H      -10.1520     0.9390     1.0070 H     1 <1>   0.0800 
 29 H       -9.5170    -0.3220    -1.0190 H     1 <1>   0.0800 
 30 H       -7.9080    -0.2520    -1.6750 H     1 <1>   0.0800 
 31 H       -8.2100    -1.0840    -0.1600 H     1 <1>   0.0800 
@<TRIPOS>BOND
  1   1   2  1   
  2   2   3  ar  
  3   2   4  ar  
  4   3   5  ar  
  5   3  16  1   
  6   4   6  ar  
  7   4  17  1   
  8   5   7  ar  
  9   5   8  1   
 10   6   7  ar  
 11   6  18  1   
 12   7   9  1   
 13   8  19  1   
 14   8  20  1   
 15   8  21  1   
 16   9  10  am  
 17   9  22  1   
 18  10  11  2   
 19  10  12  1   
 20  12  13  1   
 21  12  14  1   
 22  12  15  1   
 23  13  23  1   
 24  13  24  1   
 25  13  25  1   
 26  14  26  1   
 27  14  27  1   
 28  14  28  1   
 29  15  29  1   
 30  15  30  1   
 31  15  31  1   
@<TRIPOS>SUBSTRUCTURE
  1 ****   7 GROUP 4 **** **** 0

# MOE 2024.06 (io_trps.svl 2023.06)
