@<TRIPOS>MOLECULE
NONAME
40 40 1 0 0 
SMALL
USER_CHARGES


@<TRIPOS>ATOM
  1 O        4.1570    -6.4800    -0.0010 O.3   1 <1>  -0.3630 
  2 C        5.3890    -5.9030     0.0020 C.ar  1 <1>   0.0830 
  3 C        2.9780    -5.7160     0.0020 C.3   1 <1>   0.1200 
  4 C        6.4990    -6.7500     0.0010 C.ar  1 <1>  -0.1440 
  5 C        5.5660    -4.5200     0.0060 C.ar  1 <1>  -0.1500 
  6 C        1.8080    -6.7010    -0.0020 C.3   1 <1>   0.3430 
  7 C        7.7700    -6.1870     0.0040 C.ar  1 <1>  -0.1500 
  8 C        6.2750    -8.2670    -0.0040 C.3   1 <1>  -0.0160 
  9 C        6.8380    -3.9800     0.0090 C.ar  1 <1>  -0.1500 
 10 N        0.4880    -6.0000     0.0010 N.4   1 <1>  -0.9060 
 11 C        7.9390    -4.8140     0.0080 C.ar  1 <1>  -0.1500 
 12 C        7.5410    -9.1320    -0.0060 C.3   1 <1>  -0.2400 
 13 C       -0.6450    -6.9560    -0.0020 C.3   1 <1>   0.3430 
 14 C       -1.9540    -6.1710     0.0020 C.3   1 <1>  -0.1600 
 15 C       -3.1590    -7.1210    -0.0010 C.3   1 <1>  -0.1600 
 16 C       -4.4740    -6.3360     0.0030 C.3   1 <1>  -0.2400 
 17 H        2.9760    -5.1060    -0.8850 H     1 <1>   0.0800 
 18 H        2.9760    -5.1120     0.8920 H     1 <1>   0.0800 
 19 H        4.7370    -3.8410     0.0070 H     1 <1>   0.1500 
 20 H        1.8860    -7.3300     0.8710 H     1 <1>   0.0800 
 21 H        1.8850    -7.3230    -0.8790 H     1 <1>   0.0800 
 22 H        8.6520    -6.8000     0.0030 H     1 <1>   0.1500 
 23 H        5.6940    -8.5200    -0.8730 H     1 <1>   0.0800 
 24 H        5.6920    -8.5250     0.8620 H     1 <1>   0.0800 
 25 H        6.9760    -2.9130     0.0130 H     1 <1>   0.1500 
 26 H        0.4090    -5.3910    -0.8240 H     1 <1>   0.4500 
 27 H        0.4090    -5.3970     0.8310 H     1 <1>   0.4500 
 28 H        8.9310    -4.3960     0.0100 H     1 <1>   0.1500 
 29 H        8.1320    -8.9330    -0.8830 H     1 <1>   0.0800 
 30 H        7.2720   -10.1730    -0.0090 H     1 <1>   0.0800 
 31 H        8.1300    -8.9380     0.8730 H     1 <1>   0.0800 
 32 H       -0.6010    -7.5880     0.8720 H     1 <1>   0.0800 
 33 H       -0.6020    -7.5820    -0.8790 H     1 <1>   0.0800 
 34 H       -2.0070    -5.5440    -0.8710 H     1 <1>   0.0800 
 35 H       -2.0060    -5.5510     0.8810 H     1 <1>   0.0800 
 36 H       -3.1320    -7.7570     0.8690 H     1 <1>   0.0800 
 37 H       -3.1340    -7.7500    -0.8750 H     1 <1>   0.0800 
 38 H       -4.5470    -5.7170     0.8810 H     1 <1>   0.0800 
 39 H       -5.3080    -7.0170     0.0010 H     1 <1>   0.0800 
 40 H       -4.5490    -5.7100    -0.8690 H     1 <1>   0.0800 
@<TRIPOS>BOND
  1   1   2  1   
  2   1   3  1   
  3   2   4  ar  
  4   2   5  ar  
  5   3   6  1   
  6   3  17  1   
  7   3  18  1   
  8   4   7  ar  
  9   4   8  1   
 10   5   9  ar  
 11   5  19  1   
 12   6  10  1   
 13   6  20  1   
 14   6  21  1   
 15   7  11  ar  
 16   7  22  1   
 17   8  12  1   
 18   8  23  1   
 19   8  24  1   
 20   9  11  ar  
 21   9  25  1   
 22  10  13  1   
 23  10  26  1   
 24  10  27  1   
 25  11  28  1   
 26  12  29  1   
 27  12  30  1   
 28  12  31  1   
 29  13  14  1   
 30  13  32  1   
 31  13  33  1   
 32  14  15  1   
 33  14  34  1   
 34  14  35  1   
 35  15  16  1   
 36  15  36  1   
 37  15  37  1   
 38  16  38  1   
 39  16  39  1   
 40  16  40  1   
@<TRIPOS>SUBSTRUCTURE
  1 ****   3 GROUP 4 **** **** 0

# MOE 2024.06 (io_trps.svl 2023.06)
