@<TRIPOS>MOLECULE
NONAME
55 57 1 0 0 
SMALL
USER_CHARGES


@<TRIPOS>ATOM
  1 F        0.1770    -0.1320    -2.4990 F     1 <1>  -0.3400 
  2 C        0.1640    -1.4580    -2.4170 C.3   1 <1>   1.1640 
  3 F        0.4590    -1.9090    -3.6290 F     1 <1>  -0.3400 
  4 F       -1.0990    -1.8010    -2.1890 F     1 <1>  -0.3400 
  5 C        1.1340    -1.9950    -1.3530 C.ar  1 <1>  -0.1440 
  6 C        2.3370    -1.3450    -1.1050 C.ar  1 <1>  -0.1500 
  7 C        0.8370    -3.1430    -0.6240 C.ar  1 <1>  -0.1500 
  8 C        3.2310    -1.8120    -0.1530 C.ar  1 <1>   0.1000 
  9 C        1.7210    -3.6200     0.3290 C.ar  1 <1>  -0.1500 
 10 N        4.4200    -1.1280     0.0620 N.pl3 1 <1>  -0.8380 
 11 C        2.9100    -2.9580     0.5640 C.ar  1 <1>  -0.1500 
 12 C        5.6710    -1.8250    -0.3390 C.3   1 <1>   0.2090 
 13 C        4.5190    -0.3600     1.3330 C.3   1 <1>   0.2090 
 14 C        6.8420    -0.8220    -0.4050 C.3   1 <1>   0.3430 
 15 C        5.6960     0.6360     1.2640 C.3   1 <1>   0.3430 
 16 N        7.0130    -0.0180     0.8770 N.4   1 <1>  -0.9590 
 17 C        8.1430     0.9630     0.8790 C.3   1 <1>   0.4230 
 18 C        8.0630     1.9640    -0.2810 C.3   1 <1>  -0.1600 
 19 C        9.4870     0.2320     0.8530 C.3   1 <1>  -0.1600 
 20 C        9.2330     2.9470    -0.2250 C.3   1 <1>   0.3430 
 21 C       10.6470     1.2290     0.8970 C.3   1 <1>   0.3430 
 22 N       10.5280     2.2060    -0.2280 N.4   1 <1>  -0.9590 
 23 C       11.6610     3.1840    -0.2200 C.3   1 <1>   0.3430 
 24 C       12.9630     2.5010    -0.6430 C.3   1 <1>  -0.1600 
 25 C       14.0990     3.5230    -0.7560 C.3   1 <1>  -0.2400 
 26 H        2.6010    -0.4580    -1.6540 H     1 <1>   0.1500 
 27 H       -0.0840    -3.6770    -0.7930 H     1 <1>   0.1500 
 28 H        1.4780    -4.5090     0.8870 H     1 <1>   0.1500 
 29 H        3.5890    -3.3340     1.3060 H     1 <1>   0.1500 
 30 H        5.5290    -2.2760    -1.3080 H     1 <1>   0.0800 
 31 H        5.8930    -2.6120     0.3620 H     1 <1>   0.0800 
 32 H        4.6510    -1.0380     2.1600 H     1 <1>   0.0800 
 33 H        3.6000     0.1800     1.4920 H     1 <1>   0.0800 
 34 H        6.6460    -0.1540    -1.2270 H     1 <1>   0.0800 
 35 H        7.7450    -1.3650    -0.6270 H     1 <1>   0.0800 
 36 H        5.7920     1.1220     2.2210 H     1 <1>   0.0800 
 37 H        5.4390     1.3880     0.5370 H     1 <1>   0.0800 
 38 H        7.1960    -0.7110     1.6170 H     1 <1>   0.4500 
 39 H        8.0960     1.5220     1.8020 H     1 <1>   0.0800 
 40 H        7.1510     2.5320    -0.2200 H     1 <1>   0.0800 
 41 H        8.0850     1.4660    -1.2330 H     1 <1>   0.0800 
 42 H        9.5880    -0.3700    -0.0320 H     1 <1>   0.0800 
 43 H        9.5670    -0.4130     1.7110 H     1 <1>   0.0800 
 44 H        9.1610     3.5500     0.6680 H     1 <1>   0.0800 
 45 H        9.1880     3.6100    -1.0760 H     1 <1>   0.0800 
 46 H       11.5800     0.6930     0.8250 H     1 <1>   0.0800 
 47 H       10.6400     1.7570     1.8390 H     1 <1>   0.0800 
 48 H       10.6120     1.6960    -1.1200 H     1 <1>   0.4500 
 49 H       11.7770     3.6190     0.7610 H     1 <1>   0.0800 
 50 H       11.4550     3.9820    -0.9160 H     1 <1>   0.0800 
 51 H       12.8370     2.0290    -1.6030 H     1 <1>   0.0800 
 52 H       13.2550     1.7560     0.0760 H     1 <1>   0.0800 
 53 H       13.8690     4.2760    -1.4900 H     1 <1>   0.0800 
 54 H       15.0080     3.0310    -1.0570 H     1 <1>   0.0800 
 55 H       14.2790     4.0060     0.1900 H     1 <1>   0.0800 
@<TRIPOS>BOND
  1   1   2  1   
  2   2   3  1   
  3   2   4  1   
  4   2   5  1   
  5   5   6  ar  
  6   5   7  ar  
  7   6   8  ar  
  8   6  26  1   
  9   7   9  ar  
 10   7  27  1   
 11   8  10  1   
 12   8  11  ar  
 13   9  11  ar  
 14   9  28  1   
 15  10  12  1   
 16  10  13  1   
 17  11  29  1   
 18  12  14  1   
 19  12  30  1   
 20  12  31  1   
 21  13  15  1   
 22  13  32  1   
 23  13  33  1   
 24  14  16  1   
 25  14  34  1   
 26  14  35  1   
 27  15  16  1   
 28  15  36  1   
 29  15  37  1   
 30  16  17  1   
 31  16  38  1   
 32  17  18  1   
 33  17  19  1   
 34  17  39  1   
 35  18  20  1   
 36  18  40  1   
 37  18  41  1   
 38  19  21  1   
 39  19  42  1   
 40  19  43  1   
 41  20  22  1   
 42  20  44  1   
 43  20  45  1   
 44  21  22  1   
 45  21  46  1   
 46  21  47  1   
 47  22  23  1   
 48  22  48  1   
 49  23  24  1   
 50  23  49  1   
 51  23  50  1   
 52  24  25  1   
 53  24  51  1   
 54  24  52  1   
 55  25  53  1   
 56  25  54  1   
 57  25  55  1   
@<TRIPOS>SUBSTRUCTURE
  1 ****  14 GROUP 4 **** **** 0

# MOE 2024.06 (io_trps.svl 2023.06)
