@<TRIPOS>MOLECULE
NONAME
48 51 1 0 0 
SMALL
USER_CHARGES


@<TRIPOS>ATOM
  1 O        0.0190     0.5620     1.8260 O.2   1 <1>  -0.5700 
  2 C        0.1540     1.4300     0.9850 C.2   1 <1>   0.5440 
  3 N        1.3810     1.6060     0.4150 N.am  1 <1>  -0.7300 
  4 C       -0.9710     2.2550     0.5800 C.ar  1 <1>   0.0860 
  5 C        2.6070     0.8420     0.7300 C.3   1 <1>   0.2200 
  6 C       -2.2790     1.7840     0.6760 C.ar  1 <1>  -0.1500 
  7 C       -0.7950     3.5450     0.0800 C.ar  1 <1>  -0.1500 
  8 C        3.7540     1.8050     1.1030 C.3   1 <1>  -0.0800 
  9 C        3.0290    -0.0130    -0.4840 C.3   1 <1>  -0.0800 
 10 C       -3.3640     2.5480     0.2830 C.ar  1 <1>   0.0830 
 11 C       -1.8650     4.3250    -0.3210 C.ar  1 <1>   0.0830 
 12 C        4.9870     0.9650     1.4990 C.3   1 <1>  -0.1600 
 13 C        4.1360     2.7010    -0.0980 C.3   1 <1>  -0.1600 
 14 C        4.2630    -0.8510    -0.0860 C.3   1 <1>  -0.1600 
 15 C        3.4110     0.8840    -1.6850 C.3   1 <1>  -0.1600 
 16 O       -4.5880     1.9790     0.4200 O.3   1 <1>  -0.3630 
 17 C       -3.1590     3.8270    -0.2220 C.ar  1 <1>  -0.1500 
 18 O       -1.5660     5.5600    -0.7970 O.3   1 <1>  -0.3630 
 19 C        5.4250     0.0790     0.3160 C.3   1 <1>  -0.0800 
 20 C        4.5660     1.8270    -1.2930 C.3   1 <1>  -0.0800 
 21 C       -5.7700     2.6730     0.0900 C.3   1 <1>   0.0400 
 22 C       -2.5740     6.4590    -1.2040 C.3   1 <1>   0.0400 
 23 C        5.7850     0.9800    -0.8810 C.3   1 <1>  -0.1600 
 24 H        1.4880     2.2560    -0.3610 H     1 <1>   0.3700 
 25 H        2.4100     0.1920     1.5660 H     1 <1>   0.0800 
 26 H       -2.4530     0.7970     1.0670 H     1 <1>   0.1500 
 27 H        0.1910     3.9630     0.0060 H     1 <1>   0.1500 
 28 H        3.4530     2.4100     1.9400 H     1 <1>   0.0800 
 29 H        2.2230    -0.6740    -0.7510 H     1 <1>   0.0800 
 30 H        4.7480     0.3480     2.3480 H     1 <1>   0.0800 
 31 H        5.7940     1.6160     1.7870 H     1 <1>   0.0800 
 32 H        4.9450     3.3530     0.1820 H     1 <1>   0.0800 
 33 H        3.3070     3.3250    -0.3790 H     1 <1>   0.0800 
 34 H        4.5630    -1.4740    -0.9100 H     1 <1>   0.0800 
 35 H        4.0130    -1.4980     0.7370 H     1 <1>   0.0800 
 36 H        2.5610     1.4570    -2.0090 H     1 <1>   0.0800 
 37 H        3.7130     0.2670    -2.5130 H     1 <1>   0.0800 
 38 H       -3.9920     4.4230    -0.5320 H     1 <1>   0.1500 
 39 H        6.2810    -0.5090     0.5990 H     1 <1>   0.0800 
 40 H        4.8250     2.4530    -2.1290 H     1 <1>   0.0800 
 41 H       -6.6040     2.0280     0.2980 H     1 <1>   0.0800 
 42 H       -5.7500     2.9190    -0.9570 H     1 <1>   0.0800 
 43 H       -5.8340     3.5600     0.6950 H     1 <1>   0.0800 
 44 H       -2.1000     7.3680    -1.5270 H     1 <1>   0.0800 
 45 H       -3.2200     6.6610    -0.3690 H     1 <1>   0.0800 
 46 H       -3.1220     6.0240    -2.0210 H     1 <1>   0.0800 
 47 H        6.1050     0.3730    -1.7100 H     1 <1>   0.0800 
 48 H        6.6050     1.6260    -0.6160 H     1 <1>   0.0800 
@<TRIPOS>BOND
  1   1   2  2   
  2   2   3  am  
  3   2   4  1   
  4   3   5  1   
  5   3  24  1   
  6   4   6  ar  
  7   4   7  ar  
  8   5   8  1   
  9   5   9  1   
 10   5  25  1   
 11   6  10  ar  
 12   6  26  1   
 13   7  11  ar  
 14   7  27  1   
 15   8  12  1   
 16   8  13  1   
 17   8  28  1   
 18   9  14  1   
 19   9  15  1   
 20   9  29  1   
 21  10  16  1   
 22  10  17  ar  
 23  11  17  ar  
 24  11  18  1   
 25  12  19  1   
 26  12  30  1   
 27  12  31  1   
 28  13  20  1   
 29  13  32  1   
 30  13  33  1   
 31  14  19  1   
 32  14  34  1   
 33  14  35  1   
 34  15  20  1   
 35  15  36  1   
 36  15  37  1   
 37  16  21  1   
 38  17  38  1   
 39  18  22  1   
 40  19  23  1   
 41  19  39  1   
 42  20  23  1   
 43  20  40  1   
 44  21  41  1   
 45  21  42  1   
 46  21  43  1   
 47  22  44  1   
 48  22  45  1   
 49  22  46  1   
 50  23  47  1   
 51  23  48  1   
@<TRIPOS>SUBSTRUCTURE
  1 ****   3 GROUP 4 **** **** 0

# MOE 2024.06 (io_trps.svl 2023.06)
