@<TRIPOS>MOLECULE
NONAME
48 49 1 0 0 
SMALL
USER_CHARGES


@<TRIPOS>ATOM
  1 O        0.8120    -1.8680    -0.6900 O.2   1 <1>  -0.5700 
  2 C       -0.2430    -1.8650    -0.0840 C.2   1 <1>   0.7060 
  3 O       -0.2340    -1.3980     1.1740 O.3   1 <1>  -0.4300 
  4 C       -1.4860    -2.3330    -0.6280 C.2   1 <1>  -0.1240 
  5 C        0.9440    -0.8940     1.7730 C.3   1 <1>   0.0400 
  6 C       -1.6630    -3.2300    -1.6370 C.2   1 <1>  -0.0380 
  7 C       -2.7260    -1.6940     0.0140 C.3   1 <1>   0.3400 
  8 N       -2.9190    -3.5780    -2.0730 N.pl3 1 <1>  -0.6000 
  9 C       -0.5570    -3.9570    -2.3880 C.3   1 <1>  -0.1020 
 10 C       -4.0750    -2.2530    -0.4610 C.2   1 <1>  -0.1240 
 11 C       -2.6990    -0.1890    -0.2730 C.ar  1 <1>  -0.1440 
 12 C       -4.0850    -3.1550    -1.4800 C.2   1 <1>  -0.0380 
 13 C       -5.2070    -1.7100     0.2350 C.2   1 <1>   0.7060 
 14 C       -2.7870     0.2690    -1.5800 C.ar  1 <1>  -0.1500 
 15 C       -2.5910     0.7340     0.7580 C.ar  1 <1>  -0.1500 
 16 C       -5.3210    -3.8100    -2.0790 C.3   1 <1>  -0.1020 
 17 O       -6.3290    -1.6450    -0.2320 O.2   1 <1>  -0.5700 
 18 O       -5.0260    -1.2460     1.4800 O.3   1 <1>  -0.4300 
 19 C       -2.7640     1.6250    -1.8510 C.ar  1 <1>  -0.1500 
 20 C       -2.5690     2.0890     0.4840 C.ar  1 <1>  -0.1500 
 21 C       -6.0810    -0.6610     2.2180 C.3   1 <1>   0.0400 
 22 C       -2.6490     2.5490    -0.8240 C.ar  1 <1>   0.1170 
 23 N       -2.6290     3.9140    -1.1190 N.am  1 <1>  -0.5470 
 24 C       -1.7240     4.8710    -0.7920 C.2   1 <1>   0.5690 
 25 O       -1.9070     6.0110    -1.1270 O.2   1 <1>  -0.5700 
 26 C       -0.4700     4.5260    -0.0230 C.3   1 <1>  -0.1790 
 27 H        0.7100    -0.5760     2.7730 H     1 <1>   0.0800 
 28 H        1.2990    -0.0600     1.1920 H     1 <1>   0.0800 
 29 H        1.6850    -1.6740     1.7950 H     1 <1>   0.0800 
 30 H       -2.6630    -1.8680     1.0740 H     1 <1>   0.0800 
 31 H       -2.9900    -4.2350    -2.8580 H     1 <1>   0.4000 
 32 H       -0.4070    -3.4980    -3.3480 H     1 <1>   0.0800 
 33 H       -0.8240    -4.9880    -2.5330 H     1 <1>   0.0800 
 34 H        0.3730    -3.9450    -1.8540 H     1 <1>   0.0800 
 35 H       -2.8730    -0.4350    -2.3910 H     1 <1>   0.1500 
 36 H       -2.5270     0.4000     1.7800 H     1 <1>   0.1500 
 37 H       -5.5680    -3.3340    -3.0110 H     1 <1>   0.0800 
 38 H       -6.1710    -3.7470    -1.4270 H     1 <1>   0.0800 
 39 H       -5.1370    -4.8540    -2.2600 H     1 <1>   0.0800 
 40 H       -2.8300     1.9650    -2.8690 H     1 <1>   0.1500 
 41 H       -2.4970     2.7950     1.2910 H     1 <1>   0.1500 
 42 H       -5.7010    -0.3590     3.1770 H     1 <1>   0.0800 
 43 H       -6.8660    -1.3880     2.3410 H     1 <1>   0.0800 
 44 H       -6.4490     0.1950     1.6780 H     1 <1>   0.0800 
 45 H       -3.3710     4.2630    -1.7270 H     1 <1>   0.3700 
 46 H       -0.6960     4.4560     1.0230 H     1 <1>   0.0800 
 47 H        0.2640     5.2960    -0.1700 H     1 <1>   0.0800 
 48 H       -0.0670     3.5930    -0.3690 H     1 <1>   0.0800 
@<TRIPOS>BOND
  1   1   2  2   
  2   2   3  1   
  3   2   4  1   
  4   3   5  1   
  5   4   6  2   
  6   4   7  1   
  7   5  27  1   
  8   5  28  1   
  9   5  29  1   
 10   6   8  1   
 11   6   9  1   
 12   7  10  1   
 13   7  11  1   
 14   7  30  1   
 15   8  12  1   
 16   8  31  1   
 17   9  32  1   
 18   9  33  1   
 19   9  34  1   
 20  10  12  2   
 21  10  13  1   
 22  11  14  ar  
 23  11  15  ar  
 24  12  16  1   
 25  13  17  2   
 26  13  18  1   
 27  14  19  ar  
 28  14  35  1   
 29  15  20  ar  
 30  15  36  1   
 31  16  37  1   
 32  16  38  1   
 33  16  39  1   
 34  18  21  1   
 35  19  22  ar  
 36  19  40  1   
 37  20  22  ar  
 38  20  41  1   
 39  21  42  1   
 40  21  43  1   
 41  21  44  1   
 42  22  23  1   
 43  23  24  am  
 44  23  45  1   
 45  24  25  2   
 46  24  26  1   
 47  26  46  1   
 48  26  47  1   
 49  26  48  1   
@<TRIPOS>SUBSTRUCTURE
  1 ****  11 GROUP 4 **** **** 0

# MOE 2024.06 (io_trps.svl 2023.06)
