@<TRIPOS>MOLECULE
NONAME
28 28 1 0 0 
SMALL
USER_CHARGES


@<TRIPOS>ATOM
  1 S       -0.0800    -0.2980    -0.4780 S.o2  1 <1>   1.3330 
  2 O       -0.1020     0.2210    -1.8270 O.2   1 <1>  -0.6500 
  3 O        0.4220    -1.6440    -0.2980 O.2   1 <1>  -0.6500 
  4 N       -1.6750    -0.3090     0.0880 N.am  1 <1>  -0.8490 
  5 C        0.8840     0.7520     0.5920 C.3   1 <1>  -0.1350 
  6 C       -2.4330    -1.3390    -0.6170 C.3   1 <1>   0.3390 
  7 C       -2.3680     1.0280    -0.0130 C.3   1 <1>   0.0900 
  8 C       -3.8260    -1.5470    -0.0270 C.ar  1 <1>  -0.1430 
  9 C       -1.7680     2.2170     0.7530 C.2   1 <1>   0.9060 
 10 C       -4.0010    -1.6220     1.3510 C.ar  1 <1>  -0.1500 
 11 C       -4.9270    -1.6680    -0.8680 C.ar  1 <1>  -0.1500 
 12 O       -1.4400     3.2240     0.1160 O.co2 1 <1>  -0.9000 
 13 O       -1.5740     2.1340     1.9720 O.co2 1 <1>  -0.9000 
 14 C       -5.2610    -1.8190     1.8910 C.ar  1 <1>  -0.1500 
 15 C       -6.1930    -1.8670    -0.3410 C.ar  1 <1>  -0.1500 
 16 C       -6.3350    -1.9390     1.0310 C.ar  1 <1>   0.1900 
 17 F       -7.5260    -2.1280     1.5320 F     1 <1>  -0.1900 
 18 H        1.9280     0.5620     0.4480 H     1 <1>   0.0800 
 19 H        0.6320     0.5660     1.6180 H     1 <1>   0.0800 
 20 H        0.7030     1.7860     0.3760 H     1 <1>   0.0800 
 21 H       -1.9120    -2.2790    -0.5500 H     1 <1>   0.0800 
 22 H       -2.5040    -1.0770    -1.6600 H     1 <1>   0.0800 
 23 H       -3.3720     0.9370     0.3530 H     1 <1>   0.0800 
 24 H       -2.4220     1.3190    -1.0460 H     1 <1>   0.0800 
 25 H       -3.1470    -1.5150     2.0010 H     1 <1>   0.1500 
 26 H       -4.8020    -1.6080    -1.9360 H     1 <1>   0.1500 
 27 H       -5.4050    -1.8730     2.9540 H     1 <1>   0.1500 
 28 H       -7.0540    -1.9620    -0.9770 H     1 <1>   0.1500 
@<TRIPOS>BOND
  1   1   2  2   
  2   1   3  2   
  3   1   4  am  
  4   1   5  1   
  5   4   6  1   
  6   4   7  1   
  7   5  18  1   
  8   5  19  1   
  9   5  20  1   
 10   6   8  1   
 11   6  21  1   
 12   6  22  1   
 13   7   9  1   
 14   7  23  1   
 15   7  24  1   
 16   8  10  ar  
 17   8  11  ar  
 18   9  12  ar  
 19   9  13  ar  
 20  10  14  ar  
 21  10  25  1   
 22  11  15  ar  
 23  11  26  1   
 24  14  16  ar  
 25  14  27  1   
 26  15  16  ar  
 27  15  28  1   
 28  16  17  1   
@<TRIPOS>SUBSTRUCTURE
  1 ****   4 GROUP 4 **** **** 0

# MOE 2024.06 (io_trps.svl 2023.06)
