@<TRIPOS>MOLECULE
NONAME
37 39 1 0 0 
SMALL
USER_CHARGES


@<TRIPOS>ATOM
  1 S        0.4180    -0.7320    -1.4750 S.3   1 <1>  -0.0800 
  2 C       -1.0220    -1.7100    -1.6850 C.2   1 <1>  -0.1100 
  3 C        0.1850    -0.6830     0.2610 C.2   1 <1>  -0.1100 
  4 C       -1.6170    -1.9490    -0.4990 C.2   1 <1>  -0.1810 
  5 C       -0.9190    -1.3670     0.6130 C.2   1 <1>  -0.1500 
  6 C       -2.8890    -2.7470    -0.3050 C.3   1 <1>   0.5240 
  7 N       -4.0460    -1.8430    -0.5310 N.4   1 <1>  -0.9590 
  8 C       -4.1090    -0.7290     0.4890 C.3   1 <1>   0.3430 
  9 C       -5.3480    -2.6030    -0.5820 C.3   1 <1>   0.3430 
 10 C       -5.3180     0.2040     0.2720 C.3   1 <1>   0.2090 
 11 C       -6.5640    -1.6800    -0.8080 C.3   1 <1>   0.2090 
 12 N       -6.5910    -0.5750     0.1970 N.pl3 1 <1>  -0.8380 
 13 C       -7.7590     0.2000     0.1940 C.ar  1 <1>   0.1000 
 14 C       -8.1470     1.0490    -0.8500 C.ar  1 <1>   0.1900 
 15 C       -8.6030     0.1350     1.2960 C.ar  1 <1>  -0.1500 
 16 F       -7.3880     1.1500    -1.9160 F     1 <1>  -0.1900 
 17 C       -9.3070     1.7980    -0.8160 C.ar  1 <1>  -0.1500 
 18 C       -9.7720     0.8790     1.3480 C.ar  1 <1>  -0.1500 
 19 C      -10.1260     1.7100     0.2970 C.ar  1 <1>  -0.1500 
 20 H       -1.2600    -1.9970    -2.6950 H     1 <1>   0.1500 
 21 H        0.9160    -0.1440     0.8400 H     1 <1>   0.1500 
 22 H       -1.2570    -1.4860     1.6290 H     1 <1>   0.1500 
 23 H       -2.9190    -3.1680     0.6870 H     1 <1>   0.0800 
 24 H       -2.9100    -3.5520    -1.0210 H     1 <1>   0.0800 
 25 H       -3.8960    -1.3950    -1.4440 H     1 <1>   0.4500 
 26 H       -3.2080    -0.1400     0.4470 H     1 <1>   0.0800 
 27 H       -4.1850    -1.1480     1.4780 H     1 <1>   0.0800 
 28 H       -5.4980    -3.1240     0.3490 H     1 <1>   0.0800 
 29 H       -5.3170    -3.3360    -1.3720 H     1 <1>   0.0800 
 30 H       -5.1800     0.7700    -0.6330 H     1 <1>   0.0800 
 31 H       -5.3800     0.9020     1.0900 H     1 <1>   0.0800 
 32 H       -7.4700    -2.2550    -0.7210 H     1 <1>   0.0800 
 33 H       -6.5290    -1.2700    -1.8020 H     1 <1>   0.0800 
 34 H       -8.3390    -0.5050     2.1170 H     1 <1>   0.1500 
 35 H       -9.5640     2.4370    -1.6420 H     1 <1>   0.1500 
 36 H      -10.4100     0.8120     2.2130 H     1 <1>   0.1500 
 37 H      -11.0360     2.2850     0.3460 H     1 <1>   0.1500 
@<TRIPOS>BOND
  1   1   2  1   
  2   1   3  1   
  3   2   4  2   
  4   2  20  1   
  5   3   5  2   
  6   3  21  1   
  7   4   5  1   
  8   4   6  1   
  9   5  22  1   
 10   6   7  1   
 11   6  23  1   
 12   6  24  1   
 13   7   8  1   
 14   7   9  1   
 15   7  25  1   
 16   8  10  1   
 17   8  26  1   
 18   8  27  1   
 19   9  11  1   
 20   9  28  1   
 21   9  29  1   
 22  10  12  1   
 23  10  30  1   
 24  10  31  1   
 25  11  12  1   
 26  11  32  1   
 27  11  33  1   
 28  12  13  1   
 29  13  14  ar  
 30  13  15  ar  
 31  14  16  1   
 32  14  17  ar  
 33  15  18  ar  
 34  15  34  1   
 35  17  19  ar  
 36  17  35  1   
 37  18  19  ar  
 38  18  36  1   
 39  19  37  1   
@<TRIPOS>SUBSTRUCTURE
  1 ****  10 GROUP 4 **** **** 0

# MOE 2024.06 (io_trps.svl 2023.06)
