@<TRIPOS>MOLECULE
NONAME
32 33 1 0 0 
SMALL
USER_CHARGES


@<TRIPOS>ATOM
  1 BR      -2.1810    -2.3810    -2.2100 Br    1 <1>  -0.1110 
  2 C       -0.8460    -2.8180    -0.8950 C.ar  1 <1>   0.1110 
  3 C        0.3660    -3.3250    -1.3220 C.ar  1 <1>  -0.1500 
  4 C       -1.1400    -2.6110     0.4400 C.ar  1 <1>  -0.1500 
  5 C        1.3490    -3.6420    -0.3860 C.ar  1 <1>   0.0860 
  6 C       -0.1740    -2.9310     1.3790 C.ar  1 <1>  -0.1500 
  7 C        1.0460    -3.4390     0.9620 C.ar  1 <1>   0.1770 
  8 C        2.6270    -4.1630    -0.8100 C.2   1 <1>   0.5440 
  9 CL       2.2210    -3.8290     2.1930 Cl    1 <1>  -0.1770 
 10 O        2.6860    -5.3190    -1.1820 O.2   1 <1>  -0.5700 
 11 N        3.7610    -3.3770    -0.8410 N.am  1 <1>  -0.6600 
 12 C        3.7650    -1.9050    -0.6130 C.3   1 <1>   0.1400 
 13 C        5.1050    -3.9560    -1.1200 C.3   1 <1>   0.1400 
 14 C        4.7130    -1.5570     0.5380 C.3   1 <1>  -0.1600 
 15 C        6.0570    -3.6240     0.0330 C.3   1 <1>  -0.1600 
 16 C        6.1260    -2.1120     0.2960 C.3   1 <1>  -0.0800 
 17 C        7.0350    -1.8130     1.4930 C.3   1 <1>  -0.2400 
 18 H        0.5530    -3.4790    -2.3700 H     1 <1>   0.1500 
 19 H       -2.0970    -2.2150     0.7330 H     1 <1>   0.1500 
 20 H       -0.3630    -2.7900     2.4290 H     1 <1>   0.1500 
 21 H        2.7780    -1.5430    -0.3880 H     1 <1>   0.0800 
 22 H        4.0980    -1.4180    -1.5140 H     1 <1>   0.0800 
 23 H        5.4810    -3.5430    -2.0390 H     1 <1>   0.0800 
 24 H        5.0450    -5.0250    -1.2350 H     1 <1>   0.0800 
 25 H        4.3130    -1.9600     1.4510 H     1 <1>   0.0800 
 26 H        4.7580    -0.4880     0.6440 H     1 <1>   0.0800 
 27 H        7.0370    -3.9980    -0.2040 H     1 <1>   0.0800 
 28 H        5.7150    -4.1370     0.9160 H     1 <1>   0.0800 
 29 H        6.5390    -1.6310    -0.5750 H     1 <1>   0.0800 
 30 H        6.6540    -2.2790     2.3840 H     1 <1>   0.0800 
 31 H        7.0960    -0.7520     1.6600 H     1 <1>   0.0800 
 32 H        8.0280    -2.1840     1.3090 H     1 <1>   0.0800 
@<TRIPOS>BOND
  1   1   2  1   
  2   2   3  ar  
  3   2   4  ar  
  4   3   5  ar  
  5   3  18  1   
  6   4   6  ar  
  7   4  19  1   
  8   5   7  ar  
  9   5   8  1   
 10   6   7  ar  
 11   6  20  1   
 12   7   9  1   
 13   8  10  2   
 14   8  11  am  
 15  11  12  1   
 16  11  13  1   
 17  12  14  1   
 18  12  21  1   
 19  12  22  1   
 20  13  15  1   
 21  13  23  1   
 22  13  24  1   
 23  14  16  1   
 24  14  25  1   
 25  14  26  1   
 26  15  16  1   
 27  15  27  1   
 28  15  28  1   
 29  16  17  1   
 30  16  29  1   
 31  17  30  1   
 32  17  31  1   
 33  17  32  1   
@<TRIPOS>SUBSTRUCTURE
  1 ****   8 GROUP 4 **** **** 0

# MOE 2024.06 (io_trps.svl 2023.06)
