@<TRIPOS>MOLECULE
NONAME
41 44 1 0 0 
SMALL
USER_CHARGES


@<TRIPOS>ATOM
  1 O        1.3270    -1.5810    -1.5640 O.3   1 <1>  -0.5600 
  2 C        0.7580    -1.1150    -0.3790 C.3   1 <1>   0.4180 
  3 C        0.3590    -1.2050    -2.4840 C.3   1 <1>   0.3380 
  4 C       -0.6010    -1.7540    -0.4920 C.2   1 <1>  -0.2880 
  5 C        0.6480     0.3780    -0.7210 C.3   1 <1>  -0.0800 
  6 C        1.7140    -1.4000     0.7860 C.3   1 <1>   0.3430 
  7 C       -0.8520    -1.7970    -1.7950 C.2   1 <1>  -0.2880 
  8 C        0.3990     0.3120    -2.2510 C.3   1 <1>  -0.1600 
  9 C        1.8880     1.1780    -0.2400 C.3   1 <1>  -0.1600 
 10 N        3.0990    -0.9670     0.3730 N.4   1 <1>  -0.9060 
 11 C        3.2550     0.4250    -0.1430 C.3   1 <1>   0.5030 
 12 C        3.9600     0.3250    -1.5070 C.3   1 <1>  -0.1600 
 13 C        4.1990     1.1630     0.8200 C.3   1 <1>  -0.1600 
 14 C        4.3900     1.6890    -2.0510 C.3   1 <1>   0.3430 
 15 C        4.6070     2.5390     0.2850 C.3   1 <1>   0.3430 
 16 N        5.2480     2.3930    -1.0540 N.4   1 <1>  -0.9590 
 17 C        5.6520     3.7390    -1.5820 C.3   1 <1>   0.2630 
 18 H        0.5850    -1.5760    -3.4700 H     1 <1>   0.0800 
 19 H       -1.1810    -2.0530     0.3650 H     1 <1>   0.1500 
 20 H       -0.2290     0.7850    -0.2430 H     1 <1>   0.0800 
 21 H        1.6950    -2.4550     1.0020 H     1 <1>   0.0800 
 22 H        1.3860    -0.8640     1.6610 H     1 <1>   0.0800 
 23 H       -1.7020    -2.1420    -2.3600 H     1 <1>   0.1500 
 24 H       -0.5390     0.7600    -2.5300 H     1 <1>   0.0800 
 25 H        1.1890     0.7560    -2.8270 H     1 <1>   0.0800 
 26 H        1.6450     1.5270     0.7500 H     1 <1>   0.0800 
 27 H        1.9720     2.0690    -0.8360 H     1 <1>   0.0800 
 28 H        3.2900    -1.5850    -0.4320 H     1 <1>   0.4500 
 29 H        3.7840    -1.1980     1.1000 H     1 <1>   0.4500 
 30 H        3.3130    -0.1300    -2.2330 H     1 <1>   0.0800 
 31 H        4.8380    -0.2920    -1.4290 H     1 <1>   0.0800 
 32 H        5.0950     0.5900     0.9840 H     1 <1>   0.0800 
 33 H        3.7210     1.3000     1.7750 H     1 <1>   0.0800 
 34 H        3.5200     2.2870    -2.2710 H     1 <1>   0.0800 
 35 H        4.9370     1.5520    -2.9730 H     1 <1>   0.0800 
 36 H        5.2970     3.0040     0.9730 H     1 <1>   0.0800 
 37 H        3.7380     3.1740     0.2060 H     1 <1>   0.0800 
 38 H        6.1220     1.8530    -0.9400 H     1 <1>   0.4500 
 39 H        4.7860     4.3640    -1.7280 H     1 <1>   0.0800 
 40 H        6.1630     3.6350    -2.5270 H     1 <1>   0.0800 
 41 H        6.3170     4.2310    -0.8900 H     1 <1>   0.0800 
@<TRIPOS>BOND
  1   1   2  1   
  2   1   3  1   
  3   2   4  1   
  4   2   5  1   
  5   2   6  1   
  6   3   7  1   
  7   3   8  1   
  8   3  18  1   
  9   4   7  2   
 10   4  19  1   
 11   5   8  1   
 12   5   9  1   
 13   5  20  1   
 14   6  10  1   
 15   6  21  1   
 16   6  22  1   
 17   7  23  1   
 18   8  24  1   
 19   8  25  1   
 20   9  11  1   
 21   9  26  1   
 22   9  27  1   
 23  10  11  1   
 24  10  28  1   
 25  10  29  1   
 26  11  12  1   
 27  11  13  1   
 28  12  14  1   
 29  12  30  1   
 30  12  31  1   
 31  13  15  1   
 32  13  32  1   
 33  13  33  1   
 34  14  16  1   
 35  14  34  1   
 36  14  35  1   
 37  15  16  1   
 38  15  36  1   
 39  15  37  1   
 40  16  17  1   
 41  16  38  1   
 42  17  39  1   
 43  17  40  1   
 44  17  41  1   
@<TRIPOS>SUBSTRUCTURE
  1 ****  11 GROUP 4 **** **** 0

# MOE 2024.06 (io_trps.svl 2023.06)
