@<TRIPOS>MOLECULE
NONAME
41 43 1 0 0 
SMALL
USER_CHARGES


@<TRIPOS>ATOM
  1 O       -0.5990    -0.6310     1.3010 O.2   1 <1>  -0.5700 
  2 C       -0.3890    -1.7550     0.9180 C.2   1 <1>   0.5690 
  3 N       -1.2970    -2.7210     1.2360 N.am  1 <1>  -0.5470 
  4 C        0.8710    -1.9960     0.0720 C.3   1 <1>  -0.0190 
  5 C       -1.3640    -4.0860     0.9210 C.ar  1 <1>   0.1170 
  6 C        0.6190    -2.7380    -1.2580 C.3   1 <1>  -0.1600 
  7 C        2.0200    -2.6550     0.8600 C.3   1 <1>  -0.1600 
  8 C       -2.2790    -4.5490    -0.0640 C.ar  1 <1>   0.3100 
  9 C       -0.5540    -4.9780     1.5820 C.ar  1 <1>  -0.1500 
 10 C        1.8990    -2.8140    -2.1010 C.3   1 <1>  -0.1600 
 11 C        3.2980    -2.7420     0.0130 C.3   1 <1>  -0.1600 
 12 N       -3.1090    -3.6640    -0.6840 N.ar  1 <1>  -0.6200 
 13 C       -2.2920    -5.9300    -0.3740 C.ar  1 <1>   0.0000 
 14 C       -0.5710    -6.3380     1.2770 C.ar  1 <1>   0.0820 
 15 C        3.0390    -3.4730    -1.3120 C.3   1 <1>  -0.1600 
 16 C       -3.9190    -4.1230    -1.5900 C.ar  1 <1>   0.1600 
 17 C       -1.4270    -6.8050     0.3070 C.ar  1 <1>  -0.1500 
 18 C       -3.1840    -6.3800    -1.3630 C.ar  1 <1>  -0.1500 
 19 O        0.2850    -7.1160     1.9820 O.3   1 <1>  -0.3620 
 20 C       -3.9950    -5.4680    -1.9670 C.ar  1 <1>  -0.1500 
 21 C        0.3620    -8.5080     1.7660 C.3   1 <1>   0.0400 
 22 H       -2.1890    -2.3060     1.5100 H     1 <1>   0.3700 
 23 H        1.2180    -1.0130    -0.1980 H     1 <1>   0.0800 
 24 H       -0.1520    -2.2310    -1.8130 H     1 <1>   0.0800 
 25 H        0.2840    -3.7400    -1.0680 H     1 <1>   0.0800 
 26 H        1.7390    -3.6470     1.1560 H     1 <1>   0.0800 
 27 H        2.2170    -2.0850     1.7510 H     1 <1>   0.0800 
 28 H        0.1080    -4.6400     2.3570 H     1 <1>   0.1500 
 29 H        2.1940    -1.8220    -2.3960 H     1 <1>   0.0800 
 30 H        1.7060    -3.3800    -2.9960 H     1 <1>   0.0800 
 31 H        4.0620    -3.2590     0.5670 H     1 <1>   0.0800 
 32 H        3.6570    -1.7480    -0.1940 H     1 <1>   0.0800 
 33 H        3.9360    -3.4700    -1.9060 H     1 <1>   0.0800 
 34 H        2.7820    -4.4990    -1.1070 H     1 <1>   0.0800 
 35 H       -4.5740    -3.4240    -2.0830 H     1 <1>   0.1500 
 36 H       -1.4640    -7.8450     0.0450 H     1 <1>   0.1500 
 37 H       -3.2140    -7.4230    -1.6240 H     1 <1>   0.1500 
 38 H       -4.6950    -5.7570    -2.7300 H     1 <1>   0.1500 
 39 H        1.1030    -8.9080     2.4340 H     1 <1>   0.0800 
 40 H        0.6550    -8.6880     0.7460 H     1 <1>   0.0800 
 41 H       -0.5960    -8.9480     1.9770 H     1 <1>   0.0800 
@<TRIPOS>BOND
  1   1   2  2   
  2   2   3  am  
  3   2   4  1   
  4   3   5  1   
  5   3  22  1   
  6   4   6  1   
  7   4   7  1   
  8   4  23  1   
  9   5   8  ar  
 10   5   9  ar  
 11   6  10  1   
 12   6  24  1   
 13   6  25  1   
 14   7  11  1   
 15   7  26  1   
 16   7  27  1   
 17   8  12  ar  
 18   8  13  ar  
 19   9  14  ar  
 20   9  28  1   
 21  10  15  1   
 22  10  29  1   
 23  10  30  1   
 24  11  15  1   
 25  11  31  1   
 26  11  32  1   
 27  12  16  ar  
 28  13  17  ar  
 29  13  18  ar  
 30  14  17  ar  
 31  14  19  1   
 32  15  33  1   
 33  15  34  1   
 34  16  20  ar  
 35  16  35  1   
 36  17  36  1   
 37  18  20  ar  
 38  18  37  1   
 39  19  21  1   
 40  20  38  1   
 41  21  39  1   
 42  21  40  1   
 43  21  41  1   
@<TRIPOS>SUBSTRUCTURE
  1 ****   5 GROUP 4 **** **** 0

# MOE 2024.06 (io_trps.svl 2023.06)
