@<TRIPOS>MOLECULE
NONAME
54 58 1 0 0 
SMALL
USER_CHARGES


@<TRIPOS>ATOM
  1 N        0.1370     0.7550    -0.4800 N.4   1 <1>  -0.9590 
  2 C        1.2260     1.6960    -0.0700 C.3   1 <1>   0.4230 
  3 C        0.4620    -0.4360    -1.3280 C.3   1 <1>   0.3430 
  4 C       -1.0330     1.4840    -1.0710 C.3   1 <1>   0.3430 
  5 C        2.2090     2.1320    -1.1840 C.3   1 <1>  -0.0800 
  6 C        2.0160     1.2160     1.1660 C.3   1 <1>  -0.0800 
  7 C       -0.7590    -1.3820    -1.4500 C.3   1 <1>   0.1100 
  8 C       -2.2460     0.5400    -1.2540 C.3   1 <1>   0.1100 
  9 C        3.2780     1.0610    -1.5160 C.3   1 <1>  -0.1600 
 10 C        2.9550     3.3700    -0.6390 C.3   1 <1>  -0.1600 
 11 C        3.0650     0.1350     0.8230 C.3   1 <1>  -0.1600 
 12 C        2.7650     2.4500     1.7150 C.3   1 <1>  -0.1600 
 13 N       -1.9610    -0.8370    -0.7760 N.3   1 <1>  -0.8100 
 14 C        4.0460     0.6620    -0.2430 C.3   1 <1>  -0.0800 
 15 C        3.7320     3.0010     0.6450 C.3   1 <1>  -0.0800 
 16 C       -3.1250    -1.7330    -0.9240 C.3   1 <1>   0.2530 
 17 C        4.7620     1.9080     0.3080 C.3   1 <1>  -0.1600 
 18 C       -4.3070    -1.2130    -0.1190 C.ar  1 <1>  -0.1440 
 19 C       -5.4790    -0.8270    -0.7540 C.ar  1 <1>  -0.1500 
 20 C       -4.2200    -1.1160     1.2620 C.ar  1 <1>  -0.1500 
 21 C       -6.5480    -0.3470    -0.0170 C.ar  1 <1>  -0.1500 
 22 C       -5.2880    -0.6360     2.0000 C.ar  1 <1>  -0.1500 
 23 C       -6.4530    -0.2510     1.3600 C.ar  1 <1>  -0.1500 
 24 H       -0.2650     0.3340     0.3710 H     1 <1>   0.4500 
 25 H        0.7280     2.5970     0.2500 H     1 <1>   0.0800 
 26 H        1.2820    -0.9880    -0.9080 H     1 <1>   0.0800 
 27 H        0.7560    -0.1130    -2.3120 H     1 <1>   0.0800 
 28 H       -0.7630     1.9080    -2.0230 H     1 <1>   0.0800 
 29 H       -1.3250     2.2940    -0.4220 H     1 <1>   0.0800 
 30 H        1.6690     2.4140    -2.0710 H     1 <1>   0.0800 
 31 H        1.3410     0.8570     1.9230 H     1 <1>   0.0800 
 32 H       -0.5060    -2.3320    -1.0080 H     1 <1>   0.0800 
 33 H       -0.9670    -1.5560    -2.4920 H     1 <1>   0.0800 
 34 H       -2.5270     0.5180    -2.2940 H     1 <1>   0.0800 
 35 H       -3.0760     0.9530    -0.7060 H     1 <1>   0.0800 
 36 H        2.8550     0.1900    -1.9730 H     1 <1>   0.0800 
 37 H        3.9750     1.4660    -2.2320 H     1 <1>   0.0800 
 38 H        2.2590     4.1630    -0.4240 H     1 <1>   0.0800 
 39 H        3.6420     3.7430    -1.3800 H     1 <1>   0.0800 
 40 H        2.5970    -0.7700     0.4880 H     1 <1>   0.0800 
 41 H        3.6180    -0.1190     1.7130 H     1 <1>   0.0800 
 42 H        2.0640     3.2170     1.9990 H     1 <1>   0.0800 
 43 H        3.3190     2.1810     2.5990 H     1 <1>   0.0800 
 44 H        4.7760    -0.0960    -0.4770 H     1 <1>   0.0800 
 45 H        4.2420     3.8700     1.0270 H     1 <1>   0.0800 
 46 H       -2.8710    -2.7150    -0.5600 H     1 <1>   0.0800 
 47 H       -3.3950    -1.8220    -1.9630 H     1 <1>   0.0800 
 48 H        5.4650     2.2790    -0.4190 H     1 <1>   0.0800 
 49 H        5.3220     1.6480     1.1910 H     1 <1>   0.0800 
 50 H       -5.5700    -0.8990    -1.8230 H     1 <1>   0.1500 
 51 H       -3.3160    -1.4130     1.7630 H     1 <1>   0.1500 
 52 H       -7.4560    -0.0500    -0.5130 H     1 <1>   0.1500 
 53 H       -5.2150    -0.5650     3.0710 H     1 <1>   0.1500 
 54 H       -7.2850     0.1210     1.9330 H     1 <1>   0.1500 
@<TRIPOS>BOND
  1   1   2  1   
  2   1   3  1   
  3   1   4  1   
  4   1  24  1   
  5   2   5  1   
  6   2   6  1   
  7   2  25  1   
  8   3   7  1   
  9   3  26  1   
 10   3  27  1   
 11   4   8  1   
 12   4  28  1   
 13   4  29  1   
 14   5   9  1   
 15   5  10  1   
 16   5  30  1   
 17   6  11  1   
 18   6  12  1   
 19   6  31  1   
 20   7  13  1   
 21   7  32  1   
 22   7  33  1   
 23   8  13  1   
 24   8  34  1   
 25   8  35  1   
 26   9  14  1   
 27   9  36  1   
 28   9  37  1   
 29  10  15  1   
 30  10  38  1   
 31  10  39  1   
 32  11  14  1   
 33  11  40  1   
 34  11  41  1   
 35  12  15  1   
 36  12  42  1   
 37  12  43  1   
 38  13  16  1   
 39  14  17  1   
 40  14  44  1   
 41  15  17  1   
 42  15  45  1   
 43  16  18  1   
 44  16  46  1   
 45  16  47  1   
 46  17  48  1   
 47  17  49  1   
 48  18  19  ar  
 49  18  20  ar  
 50  19  21  ar  
 51  19  50  1   
 52  20  22  ar  
 53  20  51  1   
 54  21  23  ar  
 55  21  52  1   
 56  22  23  ar  
 57  22  53  1   
 58  23  54  1   
@<TRIPOS>SUBSTRUCTURE
  1 ****   1 GROUP 4 **** **** 0

# MOE 2024.06 (io_trps.svl 2023.06)
