@<TRIPOS>MOLECULE
NONAME
42 43 1 0 0 
SMALL
USER_CHARGES


@<TRIPOS>ATOM
  1 O       -0.7830     0.8690    -0.0750 O.3   1 <1>  -0.3620 
  2 C       -0.2450     2.1020    -0.2610 C.ar  1 <1>   0.0830 
  3 C       -0.4120     0.0440     1.0070 C.3   1 <1>   0.2580 
  4 C       -0.7350     2.8590    -1.3230 C.ar  1 <1>  -0.1440 
  5 C        0.7460     2.6290     0.5620 C.ar  1 <1>  -0.1500 
  6 C       -1.2870    -1.1920     0.9420 C.2   1 <1>  -0.2880 
  7 C       -0.2330     4.1310    -1.5520 C.ar  1 <1>  -0.1500 
  8 C       -1.8170     2.2950    -2.2270 C.3   1 <1>   0.4870 
  9 C        1.2380     3.9000     0.3260 C.ar  1 <1>  -0.1500 
 10 C       -2.1660    -1.5700     1.8760 C.2   1 <1>  -0.3000 
 11 C        0.7500     4.6500    -0.7290 C.ar  1 <1>  -0.1500 
 12 N       -3.0020     1.9670    -1.3970 N.4   1 <1>  -0.9590 
 13 C       -3.9830     1.1050    -2.0930 C.3   1 <1>   0.3430 
 14 C       -3.6350     3.1670    -0.8010 C.3   1 <1>   0.3430 
 15 C       -4.7210     0.2140    -1.0910 C.3   1 <1>  -0.1600 
 16 C       -3.8950     2.9370     0.6880 C.3   1 <1>  -0.1600 
 17 C       -5.4200     0.9370     0.0770 C.3   1 <1>  -0.1600 
 18 C       -4.4310     1.5480     1.0820 C.3   1 <1>  -0.1600 
 19 H       -0.5760     0.5820     1.9250 H     1 <1>   0.0800 
 20 H        0.6280    -0.2160     0.9050 H     1 <1>   0.0800 
 21 H        1.1530     2.0740     1.3870 H     1 <1>   0.1500 
 22 H       -1.1230    -1.7570     0.0410 H     1 <1>   0.1500 
 23 H       -0.5940     4.7320    -2.3710 H     1 <1>   0.1500 
 24 H       -1.4410     1.4010    -2.6970 H     1 <1>   0.0800 
 25 H       -2.0780     3.0070    -2.9920 H     1 <1>   0.0800 
 26 H        2.0060     4.3080     0.9620 H     1 <1>   0.1500 
 27 H       -2.7720    -2.4590     1.8040 H     1 <1>   0.1500 
 28 H       -2.3550    -1.0360     2.7920 H     1 <1>   0.1500 
 29 H        1.1400     5.6380    -0.9080 H     1 <1>   0.1500 
 30 H       -2.6040     1.4220    -0.6120 H     1 <1>   0.4500 
 31 H       -3.4750     0.4710    -2.8020 H     1 <1>   0.0800 
 32 H       -4.6890     1.7140    -2.6340 H     1 <1>   0.0800 
 33 H       -4.5660     3.3740    -1.3020 H     1 <1>   0.0800 
 34 H       -2.9950     4.0280    -0.9120 H     1 <1>   0.0800 
 35 H       -4.0340    -0.5170    -0.7010 H     1 <1>   0.0800 
 36 H       -5.4690    -0.3340    -1.6380 H     1 <1>   0.0800 
 37 H       -4.6030     3.6820     1.0070 H     1 <1>   0.0800 
 38 H       -2.9850     3.1260     1.2320 H     1 <1>   0.0800 
 39 H       -6.0080     0.2030     0.6040 H     1 <1>   0.0800 
 40 H       -6.1060     1.6840    -0.2860 H     1 <1>   0.0800 
 41 H       -4.9240     1.6440     2.0350 H     1 <1>   0.0800 
 42 H       -3.6090     0.8690     1.2330 H     1 <1>   0.0800 
@<TRIPOS>BOND
  1   1   2  1   
  2   1   3  1   
  3   2   4  ar  
  4   2   5  ar  
  5   3   6  1   
  6   3  19  1   
  7   3  20  1   
  8   4   7  ar  
  9   4   8  1   
 10   5   9  ar  
 11   5  21  1   
 12   6  10  2   
 13   6  22  1   
 14   7  11  ar  
 15   7  23  1   
 16   8  12  1   
 17   8  24  1   
 18   8  25  1   
 19   9  11  ar  
 20   9  26  1   
 21  10  27  1   
 22  10  28  1   
 23  11  29  1   
 24  12  13  1   
 25  12  14  1   
 26  12  30  1   
 27  13  15  1   
 28  13  31  1   
 29  13  32  1   
 30  14  16  1   
 31  14  33  1   
 32  14  34  1   
 33  15  17  1   
 34  15  35  1   
 35  15  36  1   
 36  16  18  1   
 37  16  37  1   
 38  16  38  1   
 39  17  18  1   
 40  17  39  1   
 41  17  40  1   
 42  18  41  1   
 43  18  42  1   
@<TRIPOS>SUBSTRUCTURE
  1 ****   1 GROUP 4 **** **** 0

# MOE 2024.06 (io_trps.svl 2023.06)
