@<TRIPOS>MOLECULE
NONAME
37 38 1 0 0 
SMALL
USER_CHARGES


@<TRIPOS>ATOM
  1 CL      -0.6030    -0.2870     1.8700 Cl    1 <1>  -0.1770 
  2 C       -1.7450     0.7830     1.0820 C.ar  1 <1>   0.1770 
  3 C       -2.9460     0.2750     0.5740 C.ar  1 <1>   0.1990 
  4 C       -1.4170     2.1240     0.9890 C.ar  1 <1>  -0.1500 
  5 N       -3.2780    -1.0820     0.6680 N.am  1 <1>  -0.6930 
  6 C       -3.8170     1.1670    -0.0430 C.ar  1 <1>  -0.1500 
  7 C       -2.2980     2.9980     0.3740 C.ar  1 <1>  -0.1500 
  8 S       -2.9870    -2.1280    -0.6790 S.o2  1 <1>   1.3330 
  9 C       -4.3130    -1.5270     1.6580 C.3   1 <1>   0.3370 
 10 C       -3.4870     2.5060    -0.1340 C.ar  1 <1>   0.1770 
 11 O       -3.9590    -3.1930    -0.5970 O.2   1 <1>  -0.6500 
 12 O       -2.9160    -1.3030    -1.8570 O.2   1 <1>  -0.6500 
 13 C       -1.3750    -2.7900    -0.3230 C.3   1 <1>  -0.1350 
 14 C       -5.7530    -1.1690     1.2190 C.2   1 <1>   0.5690 
 15 C       -3.9470    -0.9990     3.0550 C.3   1 <1>  -0.2400 
 16 CL      -4.5950     3.6070    -0.9120 Cl    1 <1>  -0.1770 
 17 O       -6.3610    -0.2910     1.7910 O.2   1 <1>  -0.5700 
 18 N       -6.3000    -1.8480     0.1730 N.am  1 <1>  -0.5790 
 19 C       -7.6070    -1.5900    -0.4410 C.3   1 <1>   0.0490 
 20 C       -8.2800    -2.7160    -1.1530 C.3   1 <1>  -0.2000 
 21 C       -7.6790    -1.5840    -1.9310 C.3   1 <1>  -0.2000 
 22 H       -0.4840     2.4780     1.3930 H     1 <1>   0.1500 
 23 H       -4.7470     0.8230    -0.4570 H     1 <1>   0.1500 
 24 H       -2.0720     4.0470     0.2870 H     1 <1>   0.1500 
 25 H       -4.2730    -2.5990     1.7300 H     1 <1>   0.0800 
 26 H       -0.6420    -2.0080    -0.3330 H     1 <1>   0.0800 
 27 H       -1.1050    -3.5170    -1.0640 H     1 <1>   0.0800 
 28 H       -1.3680    -3.2610     0.6400 H     1 <1>   0.0800 
 29 H       -4.0090     0.0740     3.0870 H     1 <1>   0.0800 
 30 H       -2.9570    -1.3140     3.3300 H     1 <1>   0.0800 
 31 H       -4.6410    -1.3890     3.7780 H     1 <1>   0.0800 
 32 H       -5.7220    -2.5480    -0.3150 H     1 <1>   0.3700 
 33 H       -8.2100    -0.8840     0.1090 H     1 <1>   0.1000 
 34 H       -9.3520    -2.7880    -1.1080 H     1 <1>   0.1000 
 35 H       -7.7990    -3.6780    -1.1760 H     1 <1>   0.1000 
 36 H       -6.7750    -1.7520    -2.4920 H     1 <1>   0.1000 
 37 H       -8.3410    -0.8860    -2.4120 H     1 <1>   0.1000 
@<TRIPOS>BOND
  1   1   2  1   
  2   2   3  ar  
  3   2   4  ar  
  4   3   5  1   
  5   3   6  ar  
  6   4   7  ar  
  7   4  22  1   
  8   5   8  am  
  9   5   9  1   
 10   6  10  ar  
 11   6  23  1   
 12   7  10  ar  
 13   7  24  1   
 14   8  11  2   
 15   8  12  2   
 16   8  13  1   
 17   9  14  1   
 18   9  15  1   
 19   9  25  1   
 20  10  16  1   
 21  13  26  1   
 22  13  27  1   
 23  13  28  1   
 24  14  17  2   
 25  14  18  am  
 26  15  29  1   
 27  15  30  1   
 28  15  31  1   
 29  18  19  1   
 30  18  32  1   
 31  19  20  1   
 32  19  21  1   
 33  19  33  1   
 34  20  21  1   
 35  20  34  1   
 36  20  35  1   
 37  21  36  1   
 38  21  37  1   
@<TRIPOS>SUBSTRUCTURE
  1 ****   5 GROUP 4 **** **** 0

# MOE 2024.06 (io_trps.svl 2023.06)
