@<TRIPOS>MOLECULE
NONAME
56 57 1 0 0 
SMALL
USER_CHARGES


@<TRIPOS>ATOM
  1 O        1.5820    -1.2430     1.6700 O.2   1 <1>  -0.5700 
  2 C        1.8180    -1.3050     0.4860 C.2   1 <1>   0.5690 
  3 N        1.0410    -2.0450    -0.3710 N.am  1 <1>  -0.6600 
  4 C        3.0450    -0.5390     0.0030 C.3   1 <1>  -0.0190 
  5 C        1.1380    -2.0110    -1.8580 C.3   1 <1>   0.1400 
  6 C       -0.1150    -2.8220     0.1660 C.3   1 <1>   0.1400 
  7 C        4.0890    -0.5620     1.1260 C.3   1 <1>   0.3430 
  8 C        2.7000     0.9170    -0.3880 C.3   1 <1>  -0.1600 
  9 C        1.9320    -3.2140    -2.3630 C.3   1 <1>  -0.2400 
 10 C        0.3690    -4.1490     0.7490 C.3   1 <1>  -0.2400 
 11 N        5.3620     0.1540     0.7570 N.4   1 <1>  -0.9590 
 12 C        3.9160     1.8610    -0.3130 C.3   1 <1>  -0.1600 
 13 C        5.2460     1.1120    -0.3900 C.3   1 <1>   0.3430 
 14 C        6.4890    -0.7980     0.5590 C.3   1 <1>   0.4860 
 15 C        7.7770    -0.0040     0.4720 C.ar  1 <1>  -0.1440 
 16 C        8.4030     0.1840    -0.7510 C.ar  1 <1>  -0.1500 
 17 C        8.3360     0.5500     1.6140 C.ar  1 <1>  -0.1500 
 18 C        9.5650     0.9300    -0.8310 C.ar  1 <1>  -0.1500 
 19 C        9.4990     1.2950     1.5280 C.ar  1 <1>  -0.1500 
 20 C       10.1230     1.4950     0.3060 C.ar  1 <1>  -0.1440 
 21 C       11.4060     2.3210     0.2330 C.3   1 <1>   0.0630 
 22 C       11.2100     3.5610    -0.6450 C.3   1 <1>  -0.2400 
 23 C       12.5740     1.4720    -0.2790 C.3   1 <1>  -0.2400 
 24 H        3.4660    -1.0570    -0.8370 H     1 <1>   0.0800 
 25 H        1.6130    -1.1040    -2.1830 H     1 <1>   0.0800 
 26 H        0.1510    -2.0200    -2.2890 H     1 <1>   0.0800 
 27 H       -0.8370    -3.0070    -0.6100 H     1 <1>   0.0800 
 28 H       -0.6040    -2.2500     0.9380 H     1 <1>   0.0800 
 29 H        4.2960    -1.5830     1.4020 H     1 <1>   0.0800 
 30 H        3.6520    -0.0810     1.9870 H     1 <1>   0.0800 
 31 H        1.9320     1.2960     0.2680 H     1 <1>   0.0800 
 32 H        2.2940     0.9270    -1.3850 H     1 <1>   0.0800 
 33 H        2.8960    -3.2630    -1.8910 H     1 <1>   0.0800 
 34 H        2.0720    -3.1320    -3.4250 H     1 <1>   0.0800 
 35 H        1.3930    -4.1240    -2.1700 H     1 <1>   0.0800 
 36 H        0.8470    -4.7480    -0.0020 H     1 <1>   0.0800 
 37 H       -0.4720    -4.6960     1.1350 H     1 <1>   0.0800 
 38 H        1.0540    -3.9720     1.5580 H     1 <1>   0.0800 
 39 H        5.6320     0.7240     1.5690 H     1 <1>   0.4500 
 40 H        3.8870     2.4210     0.6060 H     1 <1>   0.0800 
 41 H        3.8620     2.5750    -1.1180 H     1 <1>   0.0800 
 42 H        5.2900     0.5720    -1.3230 H     1 <1>   0.0800 
 43 H        6.0680     1.8120    -0.3700 H     1 <1>   0.0800 
 44 H        6.3440    -1.3680    -0.3440 H     1 <1>   0.0800 
 45 H        6.5500    -1.4810     1.3900 H     1 <1>   0.0800 
 46 H        8.0020    -0.2450    -1.6540 H     1 <1>   0.1500 
 47 H        7.8850     0.4090     2.5810 H     1 <1>   0.1500 
 48 H       10.0410     1.0680    -1.7860 H     1 <1>   0.1500 
 49 H        9.9220     1.7190     2.4230 H     1 <1>   0.1500 
 50 H       11.6590     2.6590     1.2240 H     1 <1>   0.0800 
 51 H       11.0060     3.2840    -1.6630 H     1 <1>   0.0800 
 52 H       12.0950     4.1720    -0.6260 H     1 <1>   0.0800 
 53 H       10.3850     4.1450    -0.2750 H     1 <1>   0.0800 
 54 H       12.4020     1.1490    -1.2900 H     1 <1>   0.0800 
 55 H       12.6950     0.6030     0.3430 H     1 <1>   0.0800 
 56 H       13.4870     2.0410    -0.2520 H     1 <1>   0.0800 
@<TRIPOS>BOND
  1   1   2  2   
  2   2   3  am  
  3   2   4  1   
  4   3   5  1   
  5   3   6  1   
  6   4   7  1   
  7   4   8  1   
  8   4  24  1   
  9   5   9  1   
 10   5  25  1   
 11   5  26  1   
 12   6  10  1   
 13   6  27  1   
 14   6  28  1   
 15   7  11  1   
 16   7  29  1   
 17   7  30  1   
 18   8  12  1   
 19   8  31  1   
 20   8  32  1   
 21   9  33  1   
 22   9  34  1   
 23   9  35  1   
 24  10  36  1   
 25  10  37  1   
 26  10  38  1   
 27  11  13  1   
 28  11  14  1   
 29  11  39  1   
 30  12  13  1   
 31  12  40  1   
 32  12  41  1   
 33  13  42  1   
 34  13  43  1   
 35  14  15  1   
 36  14  44  1   
 37  14  45  1   
 38  15  16  ar  
 39  15  17  ar  
 40  16  18  ar  
 41  16  46  1   
 42  17  19  ar  
 43  17  47  1   
 44  18  20  ar  
 45  18  48  1   
 46  19  20  ar  
 47  19  49  1   
 48  20  21  1   
 49  21  22  1   
 50  21  23  1   
 51  21  50  1   
 52  22  51  1   
 53  22  52  1   
 54  22  53  1   
 55  23  54  1   
 56  23  55  1   
 57  23  56  1   
@<TRIPOS>SUBSTRUCTURE
  1 ****  11 GROUP 4 **** **** 0

# MOE 2024.06 (io_trps.svl 2023.06)
