@<TRIPOS>MOLECULE
NONAME
44 45 1 0 0 
SMALL
USER_CHARGES


@<TRIPOS>ATOM
  1 S       -0.1030    -0.0020     0.1200 S.o2  1 <1>   1.4470 
  2 O       -0.3480     0.3890     1.4890 O.2   1 <1>  -0.6500 
  3 O        0.3800     0.9740    -0.8320 O.2   1 <1>  -0.6500 
  4 N       -1.6350    -0.4430    -0.3870 N.am  1 <1>  -0.9140 
  5 C        0.8610    -1.5330     0.0120 C.ar  1 <1>  -0.0090 
  6 C       -2.4440     0.6950    -0.7240 C.3   1 <1>   0.4190 
  7 C        2.1170    -1.6080     0.6080 C.ar  1 <1>   0.0820 
  8 C        0.3950    -2.6490    -0.6750 C.ar  1 <1>  -0.1500 
  9 C       -3.8190     0.4690    -0.1080 C.ar  1 <1>  -0.1440 
 10 C       -2.5240     0.8140    -2.2430 C.3   1 <1>  -0.2400 
 11 O        2.5650    -0.4990     1.2530 O.3   1 <1>  -0.3630 
 12 C        2.8690    -2.7790     0.5310 C.ar  1 <1>  -0.1500 
 13 C        1.1340    -3.8160    -0.7580 C.ar  1 <1>   0.0820 
 14 C       -4.3200     1.3790     0.8120 C.ar  1 <1>  -0.1500 
 15 C       -4.5880    -0.6400    -0.4370 C.ar  1 <1>  -0.1500 
 16 C        3.8150    -0.4590     1.9040 C.3   1 <1>   0.0400 
 17 C        2.3800    -3.8790    -0.1470 C.ar  1 <1>  -0.1500 
 18 O        0.5770    -4.8430    -1.4490 O.3   1 <1>  -0.3620 
 19 C       -5.5660     1.1890     1.3850 C.ar  1 <1>  -0.1500 
 20 C       -5.8340    -0.8290     0.1350 C.ar  1 <1>  -0.1500 
 21 C        1.2590    -6.0660    -1.6180 C.3   1 <1>   0.0400 
 22 C       -6.3310     0.0850     1.0480 C.ar  1 <1>  -0.1430 
 23 C       -7.6970    -0.1220     1.6770 C.3   1 <1>  -0.0970 
 24 H       -2.0630    -0.7760     0.4760 H     1 <1>   0.4200 
 25 H       -2.0280     1.6040    -0.3150 H     1 <1>   0.0800 
 26 H       -0.5620    -2.6260    -1.1660 H     1 <1>   0.1500 
 27 H       -2.8880    -0.0970    -2.6800 H     1 <1>   0.0800 
 28 H       -1.5540     1.0370    -2.6490 H     1 <1>   0.0800 
 29 H       -3.1920     1.6130    -2.5050 H     1 <1>   0.0800 
 30 H        3.8360    -2.8520     0.9900 H     1 <1>   0.1500 
 31 H       -3.7420     2.2430     1.0930 H     1 <1>   0.1500 
 32 H       -4.2160    -1.3630    -1.1420 H     1 <1>   0.1500 
 33 H        3.9320     0.5180     2.3380 H     1 <1>   0.0800 
 34 H        4.5930    -0.6310     1.1810 H     1 <1>   0.0800 
 35 H        3.8310    -1.2050     2.6780 H     1 <1>   0.0800 
 36 H        2.9790    -4.7690    -0.1900 H     1 <1>   0.1500 
 37 H       -5.9360     1.9050     2.0970 H     1 <1>   0.1500 
 38 H       -6.4140    -1.6940    -0.1340 H     1 <1>   0.1500 
 39 H        0.6340    -6.7180    -2.2030 H     1 <1>   0.0800 
 40 H        1.4390    -6.5030    -0.6520 H     1 <1>   0.0800 
 41 H        2.1820    -5.8820    -2.1390 H     1 <1>   0.0800 
 42 H       -8.1550     0.8240     1.9020 H     1 <1>   0.0800 
 43 H       -7.5960    -0.6850     2.5870 H     1 <1>   0.0800 
 44 H       -8.3430    -0.6590     1.0060 H     1 <1>   0.0800 
@<TRIPOS>BOND
  1   1   2  2   
  2   1   3  2   
  3   1   4  am  
  4   1   5  1   
  5   4   6  1   
  6   4  24  1   
  7   5   7  ar  
  8   5   8  ar  
  9   6   9  1   
 10   6  10  1   
 11   6  25  1   
 12   7  11  1   
 13   7  12  ar  
 14   8  13  ar  
 15   8  26  1   
 16   9  14  ar  
 17   9  15  ar  
 18  10  27  1   
 19  10  28  1   
 20  10  29  1   
 21  11  16  1   
 22  12  17  ar  
 23  12  30  1   
 24  13  17  ar  
 25  13  18  1   
 26  14  19  ar  
 27  14  31  1   
 28  15  20  ar  
 29  15  32  1   
 30  16  33  1   
 31  16  34  1   
 32  16  35  1   
 33  17  36  1   
 34  18  21  1   
 35  19  22  ar  
 36  19  37  1   
 37  20  22  ar  
 38  20  38  1   
 39  21  39  1   
 40  21  40  1   
 41  21  41  1   
 42  22  23  1   
 43  23  42  1   
 44  23  43  1   
 45  23  44  1   
@<TRIPOS>SUBSTRUCTURE
  1 ****   4 GROUP 4 **** **** 0

# MOE 2024.06 (io_trps.svl 2023.06)
