@<TRIPOS>MOLECULE
NONAME
51 53 1 0 0 
SMALL
USER_CHARGES


@<TRIPOS>ATOM
  1 O       -6.1500    -0.2440    -0.7640 O.3   1 <1>  -0.6800 
  2 C       -6.5510    -0.2920     0.5760 C.3   1 <1>   0.2000 
  3 C       -6.0490     0.9600     1.3150 C.3   1 <1>   0.0960 
  4 C       -6.0420    -1.6100     1.2030 C.3   1 <1>   0.3430 
  5 N       -6.5250     2.1610     0.6010 N.pl3 1 <1>   0.0480 
  6 N       -5.9480    -2.6760     0.1590 N.4   1 <1>  -0.9060 
  7 C       -7.8490     2.5300     0.5490 C.ar  1 <1>  -0.1520 
  8 C       -5.8600     2.8220    -0.4030 C.2   1 <1>  -0.3320 
  9 C       -7.0210    -3.6880     0.1420 C.3   1 <1>   0.4230 
 10 C       -8.0140     3.4150    -0.5100 C.ar  1 <1>   0.0000 
 11 C       -8.9410     2.1600     1.3430 C.ar  1 <1>  -0.1500 
 12 C       -6.7400     3.5900    -1.0920 C.2   1 <1>  -0.1810 
 13 C       -4.3610     2.6710    -0.6290 C.3   1 <1>  -0.0600 
 14 C       -6.6360    -4.7570    -0.8860 C.3   1 <1>  -0.1600 
 15 C       -8.3720    -3.0460    -0.2090 C.3   1 <1>  -0.1600 
 16 C       -9.2840     3.9260    -0.7960 C.ar  1 <1>  -0.1500 
 17 C      -10.1850     2.6700     1.0510 C.ar  1 <1>  -0.1500 
 18 C       -6.5130     4.5100    -2.2780 C.3   1 <1>  -0.0590 
 19 C       -7.7340    -5.8210    -1.0270 C.3   1 <1>  -0.1600 
 20 C       -9.4740    -4.1060    -0.3610 C.3   1 <1>  -0.1600 
 21 C      -10.3570     3.5520    -0.0220 C.ar  1 <1>  -0.1500 
 22 C       -9.0800    -5.1790    -1.3830 C.3   1 <1>  -0.1600 
 23 H       -6.3580     0.6550    -1.1280 H     1 <1>   0.4000 
 24 H       -7.6280    -0.2900     0.5850 H     1 <1>   0.0800 
 25 H       -4.9760     0.9710     1.3630 H     1 <1>   0.0800 
 26 H       -6.4330     0.9850     2.3180 H     1 <1>   0.0800 
 27 H       -6.6860    -1.9140     2.0120 H     1 <1>   0.0800 
 28 H       -5.0610    -1.4310     1.6120 H     1 <1>   0.0800 
 29 H       -5.0360    -3.1400     0.1940 H     1 <1>   0.4500 
 30 H       -5.9710    -2.1510    -0.7360 H     1 <1>   0.4500 
 31 H       -7.0970    -4.1570     1.1100 H     1 <1>   0.0800 
 32 H       -8.8130     1.4960     2.1760 H     1 <1>   0.1500 
 33 H       -4.1150     1.6610    -0.9010 H     1 <1>   0.0800 
 34 H       -3.8270     2.9340     0.2670 H     1 <1>   0.0800 
 35 H       -4.0210     3.3190    -1.4150 H     1 <1>   0.0800 
 36 H       -5.7240    -5.2440    -0.5870 H     1 <1>   0.0800 
 37 H       -6.4810    -4.3000    -1.8490 H     1 <1>   0.0800 
 38 H       -8.2890    -2.5020    -1.1340 H     1 <1>   0.0800 
 39 H       -8.6760    -2.3660     0.5660 H     1 <1>   0.0800 
 40 H       -9.4030     4.6060    -1.6190 H     1 <1>   0.1500 
 41 H      -11.0400     2.4020     1.6460 H     1 <1>   0.1500 
 42 H       -5.4900     4.4960    -2.5980 H     1 <1>   0.0800 
 43 H       -6.7720     5.5170    -2.0050 H     1 <1>   0.0800 
 44 H       -7.1340     4.2030    -3.1000 H     1 <1>   0.0800 
 45 H       -7.8320    -6.3700    -0.1050 H     1 <1>   0.0800 
 46 H       -7.4610    -6.5250    -1.7960 H     1 <1>   0.0800 
 47 H      -10.3890    -3.6330    -0.6760 H     1 <1>   0.0800 
 48 H       -9.6620    -4.5750     0.5910 H     1 <1>   0.0800 
 49 H      -11.3390     3.9380    -0.2320 H     1 <1>   0.1500 
 50 H       -9.8430    -5.9390    -1.4180 H     1 <1>   0.0800 
 51 H       -9.0200    -4.7360    -2.3630 H     1 <1>   0.0800 
@<TRIPOS>BOND
  1   1   2  1   
  2   1  23  1   
  3   2   3  1   
  4   2   4  1   
  5   2  24  1   
  6   3   5  1   
  7   3  25  1   
  8   3  26  1   
  9   4   6  1   
 10   4  27  1   
 11   4  28  1   
 12   5   7  1   
 13   5   8  1   
 14   6   9  1   
 15   6  29  1   
 16   6  30  1   
 17   7  10  ar  
 18   7  11  ar  
 19   8  12  2   
 20   8  13  1   
 21   9  14  1   
 22   9  15  1   
 23   9  31  1   
 24  10  12  1   
 25  10  16  ar  
 26  11  17  ar  
 27  11  32  1   
 28  12  18  1   
 29  13  33  1   
 30  13  34  1   
 31  13  35  1   
 32  14  19  1   
 33  14  36  1   
 34  14  37  1   
 35  15  20  1   
 36  15  38  1   
 37  15  39  1   
 38  16  21  ar  
 39  16  40  1   
 40  17  21  ar  
 41  17  41  1   
 42  18  42  1   
 43  18  43  1   
 44  18  44  1   
 45  19  22  1   
 46  19  45  1   
 47  19  46  1   
 48  20  22  1   
 49  20  47  1   
 50  20  48  1   
 51  21  49  1   
 52  22  50  1   
 53  22  51  1   
@<TRIPOS>SUBSTRUCTURE
  1 ****   2 GROUP 4 **** **** 0

# MOE 2024.06 (io_trps.svl 2023.06)
