@<TRIPOS>MOLECULE
NONAME
45 46 1 0 0 
SMALL
USER_CHARGES


@<TRIPOS>ATOM
  1 O       -0.2980     0.5710    -0.6850 O.2   1 <1>  -0.5700 
  2 C       -1.2730     1.1190    -0.1950 C.2   1 <1>   0.5440 
  3 N       -1.3620     2.5100    -0.2120 N.am  1 <1>  -0.2980 
  4 C       -2.3120     0.2950     0.3990 C.ar  1 <1>   0.0860 
  5 N       -2.5250     3.2310    -0.0120 N.2   1 <1>  -0.5120 
  6 C       -0.2520     3.4250    -0.6220 C.3   1 <1>   0.5800 
  7 C       -1.9760    -0.6730     1.3470 C.ar  1 <1>  -0.1500 
  8 C       -3.6590     0.4060     0.0520 C.ar  1 <1>  -0.1500 
  9 C       -2.3730     4.4170    -0.4040 C.2   1 <1>   0.3280 
 10 O        0.2870     2.9310    -1.7890 O.3   1 <1>  -0.6800 
 11 C        0.8750     3.6240     0.4800 C.3   1 <1>   0.0000 
 12 C       -1.0100     4.7140    -0.9720 C.3   1 <1>  -0.0990 
 13 C       -2.9350    -1.4800     1.9310 C.ar  1 <1>  -0.1500 
 14 C       -4.6250    -0.3970     0.6310 C.ar  1 <1>  -0.1500 
 15 C       -3.4180     5.5360    -0.3660 C.3   1 <1>  -0.0190 
 16 C        0.2970     4.1830     1.8010 C.3   1 <1>  -0.2400 
 17 C        1.6100     2.3150     0.8450 C.3   1 <1>  -0.2400 
 18 C        1.9700     4.6050    -0.0020 C.3   1 <1>  -0.2400 
 19 C       -4.2640    -1.3420     1.5740 C.ar  1 <1>  -0.1500 
 20 C       -3.1100     6.5400     0.7550 C.3   1 <1>  -0.2400 
 21 C       -4.8450     4.9930    -0.1890 C.3   1 <1>  -0.2400 
 22 H       -0.9420    -0.7900     1.6220 H     1 <1>   0.1500 
 23 H       -3.9500     1.1350    -0.6840 H     1 <1>   0.1500 
 24 H        0.3530     1.9560    -1.6480 H     1 <1>   0.4000 
 25 H       -1.0800     4.8570    -2.0340 H     1 <1>   0.0800 
 26 H       -0.5930     5.5870    -0.5190 H     1 <1>   0.0800 
 27 H       -2.6480    -2.2170     2.6610 H     1 <1>   0.1500 
 28 H       -5.6580    -0.2860     0.3480 H     1 <1>   0.1500 
 29 H       -3.3810     6.0520    -1.3100 H     1 <1>   0.0800 
 30 H       -0.4620     3.5250     2.1890 H     1 <1>   0.0800 
 31 H       -0.1410     5.1540     1.6650 H     1 <1>   0.0800 
 32 H        1.0690     4.2730     2.5450 H     1 <1>   0.0800 
 33 H        0.9460     1.6210     1.3290 H     1 <1>   0.0800 
 34 H        2.4220     2.5060     1.5230 H     1 <1>   0.0800 
 35 H        2.0160     1.8450    -0.0330 H     1 <1>   0.0800 
 36 H        1.5780     5.5860    -0.1930 H     1 <1>   0.0800 
 37 H        2.4240     4.2440    -0.9090 H     1 <1>   0.0800 
 38 H        2.7450     4.7050     0.7380 H     1 <1>   0.0800 
 39 H       -5.0140    -1.9670     2.0270 H     1 <1>   0.1500 
 40 H       -3.1090     6.0420     1.7090 H     1 <1>   0.0800 
 41 H       -3.8520     7.3190     0.7750 H     1 <1>   0.0800 
 42 H       -2.1480     6.9980     0.6060 H     1 <1>   0.0800 
 43 H       -4.9390     4.4800     0.7530 H     1 <1>   0.0800 
 44 H       -5.0760     4.2980    -0.9770 H     1 <1>   0.0800 
 45 H       -5.5620     5.7940    -0.2190 H     1 <1>   0.0800 
@<TRIPOS>BOND
  1   1   2  2   
  2   2   3  am  
  3   2   4  1   
  4   3   5  1   
  5   3   6  1   
  6   4   7  ar  
  7   4   8  ar  
  8   5   9  2   
  9   6  10  1   
 10   6  11  1   
 11   6  12  1   
 12   7  13  ar  
 13   7  22  1   
 14   8  14  ar  
 15   8  23  1   
 16   9  12  1   
 17   9  15  1   
 18  10  24  1   
 19  11  16  1   
 20  11  17  1   
 21  11  18  1   
 22  12  25  1   
 23  12  26  1   
 24  13  19  ar  
 25  13  27  1   
 26  14  19  ar  
 27  14  28  1   
 28  15  20  1   
 29  15  21  1   
 30  15  29  1   
 31  16  30  1   
 32  16  31  1   
 33  16  32  1   
 34  17  33  1   
 35  17  34  1   
 36  17  35  1   
 37  18  36  1   
 38  18  37  1   
 39  18  38  1   
 40  19  39  1   
 41  20  40  1   
 42  20  41  1   
 43  20  42  1   
 44  21  43  1   
 45  21  44  1   
 46  21  45  1   
@<TRIPOS>SUBSTRUCTURE
  1 ****   3 GROUP 4 **** **** 0

# MOE 2024.06 (io_trps.svl 2023.06)
