@<TRIPOS>MOLECULE
NONAME
37 38 1 0 0 
SMALL
USER_CHARGES


@<TRIPOS>ATOM
  1 O        0.5460     0.0140    -0.2150 O.2   1 <1>  -0.5700 
  2 C        1.6320    -0.0410    -0.7340 C.2   1 <1>   0.5690 
  3 N        2.0780    -1.1970    -1.2630 N.am  1 <1>  -0.8000 
  4 C        2.5190     1.2080    -0.8030 C.3   1 <1>   0.1710 
  5 N        3.9850     0.9260    -0.8300 N.3   1 <1>  -0.8100 
  6 C        4.7420     2.1470    -1.1930 C.3   1 <1>   0.1100 
  7 C        4.4520     0.4370     0.4920 C.3   1 <1>   0.1100 
  8 C        6.2640     1.9070    -1.2070 C.3   1 <1>   0.2090 
  9 C        5.9690     0.1670     0.5140 C.3   1 <1>   0.2090 
 10 N        6.7350     1.3800     0.1060 N.pl3 1 <1>  -0.8380 
 11 C        8.1140     1.3060     0.2720 C.ar  1 <1>   0.1000 
 12 C        8.9000     0.4530    -0.4930 C.ar  1 <1>  -0.1500 
 13 C        8.7280     2.1030     1.2270 C.ar  1 <1>  -0.1500 
 14 C       10.2700     0.3930    -0.3140 C.ar  1 <1>   0.0820 
 15 C       10.0970     2.0530     1.4170 C.ar  1 <1>  -0.1500 
 16 O       10.9540    -0.4700    -1.1090 O.3   1 <1>  -0.3620 
 17 C       10.8730     1.2000     0.6500 C.ar  1 <1>  -0.1500 
 18 C       12.3540    -0.6050    -1.0050 C.3   1 <1>   0.0400 
 19 H        1.5130    -2.0440    -1.2320 H     1 <1>   0.3700 
 20 H        3.0240    -1.2510    -1.6490 H     1 <1>   0.3700 
 21 H        2.2850     1.8420     0.0340 H     1 <1>   0.0800 
 22 H        2.2460     1.7340    -1.6990 H     1 <1>   0.0800 
 23 H        4.5280     2.9340    -0.4900 H     1 <1>   0.0800 
 24 H        4.4380     2.4770    -2.1710 H     1 <1>   0.0800 
 25 H        3.9380    -0.4730     0.7450 H     1 <1>   0.0800 
 26 H        4.2270     1.1670     1.2520 H     1 <1>   0.0800 
 27 H        6.7720     2.8320    -1.4180 H     1 <1>   0.0800 
 28 H        6.5050     1.2060    -1.9870 H     1 <1>   0.0800 
 29 H        6.1940    -0.6460    -0.1540 H     1 <1>   0.0800 
 30 H        6.2670    -0.1220     1.5070 H     1 <1>   0.0800 
 31 H        8.4420    -0.1700    -1.2350 H     1 <1>   0.1500 
 32 H        8.1160     2.7610     1.8170 H     1 <1>   0.1500 
 33 H       10.5570     2.6770     2.1620 H     1 <1>   0.1500 
 34 H       11.9320     1.1790     0.8150 H     1 <1>   0.1500 
 35 H       12.6730    -1.3360    -1.7250 H     1 <1>   0.0800 
 36 H       12.5990    -0.9380    -0.0120 H     1 <1>   0.0800 
 37 H       12.8120     0.3440    -1.2190 H     1 <1>   0.0800 
@<TRIPOS>BOND
  1   1   2  2   
  2   2   3  am  
  3   2   4  1   
  4   3  19  1   
  5   3  20  1   
  6   4   5  1   
  7   4  21  1   
  8   4  22  1   
  9   5   6  1   
 10   5   7  1   
 11   6   8  1   
 12   6  23  1   
 13   6  24  1   
 14   7   9  1   
 15   7  25  1   
 16   7  26  1   
 17   8  10  1   
 18   8  27  1   
 19   8  28  1   
 20   9  10  1   
 21   9  29  1   
 22   9  30  1   
 23  10  11  1   
 24  11  12  ar  
 25  11  13  ar  
 26  12  14  ar  
 27  12  31  1   
 28  13  15  ar  
 29  13  32  1   
 30  14  16  1   
 31  14  17  ar  
 32  15  17  ar  
 33  15  33  1   
 34  16  18  1   
 35  17  34  1   
 36  18  35  1   
 37  18  36  1   
 38  18  37  1   
@<TRIPOS>SUBSTRUCTURE
  1 ****  10 GROUP 4 **** **** 0

# MOE 2024.06 (io_trps.svl 2023.06)
