@<TRIPOS>MOLECULE
NONAME
28 29 1 0 0 
SMALL
USER_CHARGES


@<TRIPOS>ATOM
  1 CL       0.4880     0.0720    -0.7040 Cl    1 <1>  -0.1770 
  2 C        0.1650     1.7410    -0.2940 C.ar  1 <1>   0.1770 
  3 C        1.2170     2.6290    -0.1180 C.ar  1 <1>  -0.1440 
  4 C       -1.1500     2.1370    -0.1500 C.ar  1 <1>  -0.1500 
  5 C        0.9190     3.9420     0.2110 C.ar  1 <1>  -0.1500 
  6 C        2.6620     2.1830    -0.2800 C.3   1 <1>  -0.0960 
  7 C       -1.4510     3.4540     0.1770 C.ar  1 <1>   0.1170 
  8 C       -0.3980     4.3450     0.3560 C.ar  1 <1>  -0.1500 
  9 N       -2.7640     3.9140     0.3540 N.am  1 <1>  -0.5470 
 10 C       -3.9430     3.4540    -0.1620 C.2   1 <1>   0.6900 
 11 O       -3.9720     2.5800    -1.0060 O.2   1 <1>  -0.5700 
 12 N       -5.0940     4.0170     0.2920 N.am  1 <1>  -0.5790 
 13 C       -6.4490     3.6730    -0.1640 C.3   1 <1>   0.0490 
 14 C       -7.4870     4.7450    -0.1500 C.3   1 <1>  -0.2000 
 15 C       -7.5420     3.6320     0.8520 C.3   1 <1>  -0.2000 
 16 H       -1.9310     1.4140    -0.2920 H     1 <1>   0.1500 
 17 H        1.7110     4.6570     0.3540 H     1 <1>   0.1500 
 18 H        2.8200     1.8080    -1.2760 H     1 <1>   0.0800 
 19 H        2.8860     1.4010     0.4230 H     1 <1>   0.0800 
 20 H        3.3410     2.9990    -0.1110 H     1 <1>   0.0800 
 21 H       -0.6050     5.3690     0.6090 H     1 <1>   0.1500 
 22 H       -2.8460     4.7890     0.8580 H     1 <1>   0.3700 
 23 H       -5.0610     4.6560     1.0810 H     1 <1>   0.3700 
 24 H       -6.4620     2.9520    -0.9670 H     1 <1>   0.1000 
 25 H       -8.2230     4.7590    -0.9350 H     1 <1>   0.1000 
 26 H       -7.2130     5.7330     0.1770 H     1 <1>   0.1000 
 27 H       -7.3060     3.8380     1.8810 H     1 <1>   0.1000 
 28 H       -8.3140     2.8900     0.7460 H     1 <1>   0.1000 
@<TRIPOS>BOND
  1   1   2  1   
  2   2   3  ar  
  3   2   4  ar  
  4   3   5  ar  
  5   3   6  1   
  6   4   7  ar  
  7   4  16  1   
  8   5   8  ar  
  9   5  17  1   
 10   6  18  1   
 11   6  19  1   
 12   6  20  1   
 13   7   8  ar  
 14   7   9  1   
 15   8  21  1   
 16   9  10  am  
 17   9  22  1   
 18  10  11  2   
 19  10  12  am  
 20  12  13  1   
 21  12  23  1   
 22  13  14  1   
 23  13  15  1   
 24  13  24  1   
 25  14  15  1   
 26  14  25  1   
 27  14  26  1   
 28  15  27  1   
 29  15  28  1   
@<TRIPOS>SUBSTRUCTURE
  1 ****   7 GROUP 4 **** **** 0

# MOE 2024.06 (io_trps.svl 2023.06)
