@<TRIPOS>MOLECULE
NONAME
33 33 1 0 0 
SMALL
USER_CHARGES


@<TRIPOS>ATOM
  1 O       -0.0960     0.0270    -0.2980 O.2   1 <1>  -0.5700 
  2 C       -0.1650     1.2150    -0.0550 C.2   1 <1>   0.6900 
  3 N       -1.3610     1.8700    -0.0260 N.am  1 <1>  -0.5470 
  4 N        0.9420     1.9620     0.1930 N.am  1 <1>  -0.7300 
  5 C       -2.6760     1.3890    -0.0910 C.ar  1 <1>   0.1170 
  6 C        2.3600     1.5660     0.1910 C.3   1 <1>   0.3000 
  7 C       -3.0290     0.0980     0.2900 C.ar  1 <1>  -0.1500 
  8 C       -3.6810     2.2430    -0.5330 C.ar  1 <1>  -0.1500 
  9 C        3.1510     2.8560     0.5040 C.3   1 <1>  -0.1600 
 10 C        2.5830     0.5080     1.2770 C.3   1 <1>  -0.2400 
 11 C        2.7300     1.0200    -1.1930 C.3   1 <1>  -0.2400 
 12 C       -4.3430    -0.3290     0.2250 C.ar  1 <1>  -0.1500 
 13 C       -4.9970     1.8210    -0.5980 C.ar  1 <1>  -0.1500 
 14 C        4.6840     2.7230     0.5630 C.3   1 <1>  -0.2400 
 15 C       -5.3310     0.5330    -0.2190 C.ar  1 <1>  -0.1500 
 16 H       -1.2720     2.8770    -0.0810 H     1 <1>   0.3700 
 17 H        0.7990     2.8880     0.5810 H     1 <1>   0.3700 
 18 H       -2.2730    -0.5810     0.6410 H     1 <1>   0.1500 
 19 H       -3.4350     3.2440    -0.8330 H     1 <1>   0.1500 
 20 H        2.8220     3.2390     1.4550 H     1 <1>   0.0800 
 21 H        2.9160     3.5920    -0.2450 H     1 <1>   0.0800 
 22 H        2.3210     0.8980     2.2440 H     1 <1>   0.0800 
 23 H        3.6110     0.1990     1.2990 H     1 <1>   0.0800 
 24 H        1.9920    -0.3670     1.0830 H     1 <1>   0.0800 
 25 H        2.5600     1.7660    -1.9480 H     1 <1>   0.0800 
 26 H        2.1480     0.1480    -1.4280 H     1 <1>   0.0800 
 27 H        3.7630     0.7300    -1.2220 H     1 <1>   0.0800 
 28 H       -4.5960    -1.3320     0.5210 H     1 <1>   0.1500 
 29 H       -5.7640     2.4930    -0.9450 H     1 <1>   0.1500 
 30 H        4.9860     2.0320     1.3300 H     1 <1>   0.0800 
 31 H        5.1200     3.6800     0.7910 H     1 <1>   0.0800 
 32 H        5.0830     2.3950    -0.3800 H     1 <1>   0.0800 
 33 H       -6.3530     0.2010    -0.2700 H     1 <1>   0.1500 
@<TRIPOS>BOND
  1   1   2  2   
  2   2   3  am  
  3   2   4  am  
  4   3   5  1   
  5   3  16  1   
  6   4   6  1   
  7   4  17  1   
  8   5   7  ar  
  9   5   8  ar  
 10   6   9  1   
 11   6  10  1   
 12   6  11  1   
 13   7  12  ar  
 14   7  18  1   
 15   8  13  ar  
 16   8  19  1   
 17   9  14  1   
 18   9  20  1   
 19   9  21  1   
 20  10  22  1   
 21  10  23  1   
 22  10  24  1   
 23  11  25  1   
 24  11  26  1   
 25  11  27  1   
 26  12  15  ar  
 27  12  28  1   
 28  13  15  ar  
 29  13  29  1   
 30  14  30  1   
 31  14  31  1   
 32  14  32  1   
 33  15  33  1   
@<TRIPOS>SUBSTRUCTURE
  1 ****   2 GROUP 4 **** **** 0

# MOE 2024.06 (io_trps.svl 2023.06)
