@<TRIPOS>MOLECULE
NONAME
47 49 1 0 0 
SMALL
USER_CHARGES


@<TRIPOS>ATOM
  1 CL      -0.8460     0.5110    -1.5050 Cl    1 <1>  -0.1770 
  2 C       -0.1720     1.9730    -0.8310 C.ar  1 <1>   0.1770 
  3 C        1.1730     2.2320    -0.9760 C.ar  1 <1>  -0.1500 
  4 C       -1.0010     2.8490    -0.1630 C.ar  1 <1>  -0.1500 
  5 C        1.7510     3.3930    -0.4530 C.ar  1 <1>   0.0860 
  6 C       -0.4620     4.0040     0.3690 C.ar  1 <1>  -0.1500 
  7 C        0.9000     4.2830     0.2350 C.ar  1 <1>   0.0830 
  8 C        3.1780     3.6060    -0.6510 C.2   1 <1>   0.5440 
  9 O        1.4300     5.4140     0.7720 O.3   1 <1>  -0.3630 
 10 O        3.9060     2.6640    -0.9040 O.2   1 <1>  -0.5700 
 11 N        3.7320     4.8610    -0.5650 N.am  1 <1>  -0.5470 
 12 C        0.6880     6.3120     1.5730 C.3   1 <1>   0.0400 
 13 C        5.0450     5.2930    -0.7780 C.ar  1 <1>   0.1170 
 14 C        5.8630     4.7250    -1.7480 C.ar  1 <1>  -0.1500 
 15 C        5.5560     6.3280    -0.0070 C.ar  1 <1>  -0.1500 
 16 C        7.1630     5.1580    -1.9240 C.ar  1 <1>  -0.1500 
 17 C        6.8570     6.7660    -0.1760 C.ar  1 <1>  -0.1500 
 18 C        7.6740     6.1720    -1.1280 C.ar  1 <1>  -0.1430 
 19 C        9.1200     6.6000    -1.2830 C.3   1 <1>   0.4860 
 20 N        9.8990     6.0480    -0.1420 N.4   1 <1>  -0.9590 
 21 C       11.3380     6.4710    -0.1270 C.3   1 <1>   0.3430 
 22 C        9.7730     4.5570     0.0140 C.3   1 <1>   0.3430 
 23 C       12.1160     5.7960     1.0270 C.3   1 <1>   0.1200 
 24 C       10.5390     4.0610     1.2620 C.3   1 <1>   0.1200 
 25 O       11.2470     5.1040     1.8820 O.3   1 <1>  -0.5600 
 26 H        1.7820     1.5190    -1.5050 H     1 <1>   0.1500 
 27 H       -2.0490     2.6250    -0.0650 H     1 <1>   0.1500 
 28 H       -1.1250     4.6720     0.8850 H     1 <1>   0.1500 
 29 H        3.0910     5.5470    -0.1580 H     1 <1>   0.3700 
 30 H        1.3510     7.0900     1.9090 H     1 <1>   0.0800 
 31 H        0.2920     5.7820     2.4200 H     1 <1>   0.0800 
 32 H       -0.1020     6.7410     0.9810 H     1 <1>   0.0800 
 33 H        5.4730     3.9350    -2.3670 H     1 <1>   0.1500 
 34 H        4.9290     6.7870     0.7370 H     1 <1>   0.1500 
 35 H        7.7630     4.6880    -2.6850 H     1 <1>   0.1500 
 36 H        7.2190     7.5680     0.4450 H     1 <1>   0.1500 
 37 H        9.1770     7.6770    -1.2890 H     1 <1>   0.0800 
 38 H        9.5110     6.2300    -2.2170 H     1 <1>   0.0800 
 39 H        9.4880     6.4190     0.7260 H     1 <1>   0.4500 
 40 H       11.4040     7.5410    -0.0120 H     1 <1>   0.0800 
 41 H       11.8120     6.2150    -1.0600 H     1 <1>   0.0800 
 42 H       10.1610     4.0590    -0.8580 H     1 <1>   0.0800 
 43 H        8.7350     4.2770     0.1110 H     1 <1>   0.0800 
 44 H       12.6330     6.5380     1.6120 H     1 <1>   0.0800 
 45 H       12.8460     5.1030     0.6440 H     1 <1>   0.0800 
 46 H       11.2320     3.2810     0.9990 H     1 <1>   0.0800 
 47 H        9.8470     3.6640     1.9850 H     1 <1>   0.0800 
@<TRIPOS>BOND
  1   1   2  1   
  2   2   3  ar  
  3   2   4  ar  
  4   3   5  ar  
  5   3  26  1   
  6   4   6  ar  
  7   4  27  1   
  8   5   7  ar  
  9   5   8  1   
 10   6   7  ar  
 11   6  28  1   
 12   7   9  1   
 13   8  10  2   
 14   8  11  am  
 15   9  12  1   
 16  11  13  1   
 17  11  29  1   
 18  12  30  1   
 19  12  31  1   
 20  12  32  1   
 21  13  14  ar  
 22  13  15  ar  
 23  14  16  ar  
 24  14  33  1   
 25  15  17  ar  
 26  15  34  1   
 27  16  18  ar  
 28  16  35  1   
 29  17  18  ar  
 30  17  36  1   
 31  18  19  1   
 32  19  20  1   
 33  19  37  1   
 34  19  38  1   
 35  20  21  1   
 36  20  22  1   
 37  20  39  1   
 38  21  23  1   
 39  21  40  1   
 40  21  41  1   
 41  22  24  1   
 42  22  42  1   
 43  22  43  1   
 44  23  25  1   
 45  23  44  1   
 46  23  45  1   
 47  24  25  1   
 48  24  46  1   
 49  24  47  1   
@<TRIPOS>SUBSTRUCTURE
  1 ****  13 GROUP 4 **** **** 0

# MOE 2024.06 (io_trps.svl 2023.06)
