@<TRIPOS>MOLECULE
NONAME
37 39 1 0 0 
SMALL
USER_CHARGES


@<TRIPOS>ATOM
  1 BR      -2.7030    -0.2760    -3.7640 Br    1 <1>  -0.0580 
  2 C       -2.8960    -0.0770    -1.8590 C.2   1 <1>   0.1980 
  3 O       -3.9780    -0.5740    -1.3010 O.3   1 <1>  -0.2800 
  4 C       -2.0680     0.5160    -0.9800 C.2   1 <1>  -0.1500 
  5 C       -3.8690    -0.3090    -0.0070 C.2   1 <1>  -0.0400 
  6 C       -2.7190     0.3620     0.2540 C.2   1 <1>  -0.1500 
  7 C       -4.9920    -0.7620     0.9070 C.3   1 <1>   0.5230 
  8 N       -6.2820    -0.3480     0.2930 N.4   1 <1>  -0.9590 
  9 C       -6.4310     1.1550     0.2640 C.3   1 <1>   0.3430 
 10 C       -7.4710    -1.0150     0.9380 C.3   1 <1>   0.3430 
 11 C       -7.7650     1.6050    -0.3680 C.3   1 <1>   0.2090 
 12 C       -8.8100    -0.5720     0.3090 C.3   1 <1>   0.2090 
 13 N       -8.9160     0.9160     0.2870 N.pl3 1 <1>  -0.8380 
 14 C      -10.1770     1.4370     0.0260 C.ar  1 <1>   0.1000 
 15 C      -10.7440     1.3680    -1.2420 C.ar  1 <1>  -0.1500 
 16 C      -10.8970     2.0420     1.0500 C.ar  1 <1>  -0.1500 
 17 C      -11.9990     1.8970    -1.4590 C.ar  1 <1>   0.1770 
 18 C      -12.1570     2.5700     0.8240 C.ar  1 <1>  -0.1500 
 19 CL     -12.6980     1.8030    -3.0550 Cl    1 <1>  -0.1770 
 20 C      -12.7160     2.4990    -0.4410 C.ar  1 <1>  -0.1500 
 21 H       -1.1230     0.9990    -1.1580 H     1 <1>   0.1500 
 22 H       -2.3320     0.7240     1.1930 H     1 <1>   0.1500 
 23 H       -4.8780    -0.3310     1.8870 H     1 <1>   0.0800 
 24 H       -4.9550    -1.8360     0.9920 H     1 <1>   0.0800 
 25 H       -6.2200    -0.6560    -0.6890 H     1 <1>   0.4500 
 26 H       -5.6170     1.5950    -0.2900 H     1 <1>   0.0800 
 27 H       -6.3940     1.5410     1.2690 H     1 <1>   0.0800 
 28 H       -7.5010    -0.7640     1.9850 H     1 <1>   0.0800 
 29 H       -7.3840    -2.0860     0.8550 H     1 <1>   0.0800 
 30 H       -7.7620     1.3880    -1.4220 H     1 <1>   0.0800 
 31 H       -7.8760     2.6700    -0.2500 H     1 <1>   0.0800 
 32 H       -9.6270    -0.9760     0.8840 H     1 <1>   0.0800 
 33 H       -8.8900    -0.9560    -0.6940 H     1 <1>   0.0800 
 34 H      -10.2160     0.9070    -2.0540 H     1 <1>   0.1500 
 35 H      -10.4600     2.0970     2.0300 H     1 <1>   0.1500 
 36 H      -12.7010     3.0360     1.6280 H     1 <1>   0.1500 
 37 H      -13.6930     2.9030    -0.6390 H     1 <1>   0.1500 
@<TRIPOS>BOND
  1   1   2  1   
  2   2   3  1   
  3   2   4  2   
  4   3   5  1   
  5   4   6  1   
  6   4  21  1   
  7   5   6  2   
  8   5   7  1   
  9   6  22  1   
 10   7   8  1   
 11   7  23  1   
 12   7  24  1   
 13   8   9  1   
 14   8  10  1   
 15   8  25  1   
 16   9  11  1   
 17   9  26  1   
 18   9  27  1   
 19  10  12  1   
 20  10  28  1   
 21  10  29  1   
 22  11  13  1   
 23  11  30  1   
 24  11  31  1   
 25  12  13  1   
 26  12  32  1   
 27  12  33  1   
 28  13  14  1   
 29  14  15  ar  
 30  14  16  ar  
 31  15  17  ar  
 32  15  34  1   
 33  16  18  ar  
 34  16  35  1   
 35  17  19  1   
 36  17  20  ar  
 37  18  20  ar  
 38  18  36  1   
 39  20  37  1   
@<TRIPOS>SUBSTRUCTURE
  1 ****  11 GROUP 4 **** **** 0

# MOE 2024.06 (io_trps.svl 2023.06)
