@<TRIPOS>MOLECULE
NONAME
26 26 1 0 0 
SMALL
USER_CHARGES


@<TRIPOS>ATOM
  1 F       -1.6620    -0.8650     3.2440 F     1 <1>  -0.3400 
  2 C       -1.7080    -0.5020     1.9690 C.3   1 <1>   1.1640 
  3 F       -0.4550    -0.5340     1.5270 F     1 <1>  -0.3400 
  4 F       -2.0690     0.7760     1.9580 F     1 <1>  -0.3400 
  5 C       -2.6530    -1.3960     1.1520 C.ar  1 <1>  -0.1440 
  6 C       -3.9980    -1.0700     1.0110 C.ar  1 <1>  -0.1500 
  7 C       -2.1840    -2.5560     0.5430 C.ar  1 <1>  -0.1500 
  8 C       -4.8730    -1.8660     0.2800 C.ar  1 <1>   0.1170 
  9 C       -3.0400    -3.3590    -0.1880 C.ar  1 <1>  -0.1500 
 10 N       -6.2140    -1.4650     0.1820 N.am  1 <1>  -0.5470 
 11 C       -4.3720    -3.0160    -0.3190 C.ar  1 <1>  -0.1500 
 12 C       -7.3360    -2.0580    -0.3270 C.2   1 <1>   0.5690 
 13 O       -7.3590    -3.1530    -0.8340 O.2   1 <1>  -0.5700 
 14 C       -8.6400    -1.2690    -0.2370 C.3   1 <1>   0.1810 
 15 O       -8.4510    -0.0260     0.4040 O.3   1 <1>  -0.5600 
 16 C       -9.6140     0.7310     0.5110 C.3   1 <1>   0.0400 
 17 H       -4.3840    -0.1810     1.4770 H     1 <1>   0.1500 
 18 H       -1.1490    -2.8440     0.6350 H     1 <1>   0.1500 
 19 H       -2.6710    -4.2550    -0.6580 H     1 <1>   0.1500 
 20 H       -6.4370    -0.5470     0.5780 H     1 <1>   0.3700 
 21 H       -5.0180    -3.6530    -0.8950 H     1 <1>   0.1500 
 22 H       -9.3570    -1.8420     0.3220 H     1 <1>   0.0800 
 23 H       -9.0120    -1.0930    -1.2300 H     1 <1>   0.0800 
 24 H       -9.3700     1.6530     1.0100 H     1 <1>   0.0800 
 25 H      -10.3420     0.1880     1.0900 H     1 <1>   0.0800 
 26 H       -9.9940     0.9430    -0.4740 H     1 <1>   0.0800 
@<TRIPOS>BOND
  1   1   2  1   
  2   2   3  1   
  3   2   4  1   
  4   2   5  1   
  5   5   6  ar  
  6   5   7  ar  
  7   6   8  ar  
  8   6  17  1   
  9   7   9  ar  
 10   7  18  1   
 11   8  10  1   
 12   8  11  ar  
 13   9  11  ar  
 14   9  19  1   
 15  10  12  am  
 16  10  20  1   
 17  11  21  1   
 18  12  13  2   
 19  12  14  1   
 20  14  15  1   
 21  14  22  1   
 22  14  23  1   
 23  15  16  1   
 24  16  24  1   
 25  16  25  1   
 26  16  26  1   
@<TRIPOS>SUBSTRUCTURE
  1 ****   8 GROUP 4 **** **** 0

# MOE 2024.06 (io_trps.svl 2023.06)
