@<TRIPOS>MOLECULE
NONAME
31 31 1 0 0 
SMALL
USER_CHARGES


@<TRIPOS>ATOM
  1 BR      -0.4360    -0.0110    -0.0350 Br    1 <1>  -0.1110 
  2 C        0.6630    -1.5980    -0.0040 C.ar  1 <1>   0.1110 
  3 C        0.0590    -2.8490     0.0090 C.ar  1 <1>   0.0820 
  4 C        2.0350    -1.4340     0.0020 C.ar  1 <1>  -0.1500 
  5 O       -1.2990    -2.9110     0.0020 O.3   1 <1>  -0.3630 
  6 C        0.8850    -3.9700     0.0300 C.ar  1 <1>  -0.1500 
  7 C        2.8460    -2.5580     0.0250 C.ar  1 <1>  -0.1430 
  8 C       -1.9840    -4.1350     0.0170 C.3   1 <1>   0.1200 
  9 C        2.2640    -3.8180     0.0370 C.ar  1 <1>  -0.1500 
 10 C        4.3570    -2.4150     0.0310 C.3   1 <1>  -0.0960 
 11 C       -3.4760    -3.8050     0.0040 C.3   1 <1>  -0.1600 
 12 C       -4.3220    -5.0720     0.0190 C.3   1 <1>   0.3430 
 13 N       -5.7550    -4.6880     0.0050 N.4   1 <1>  -0.9060 
 14 C       -6.6690    -5.8690     0.0190 C.3   1 <1>   0.2630 
 15 H        2.4530    -0.4440    -0.0100 H     1 <1>   0.1500 
 16 H        0.4840    -4.9640     0.0410 H     1 <1>   0.1500 
 17 H       -1.7050    -4.6650     0.9120 H     1 <1>   0.0800 
 18 H       -1.6950    -4.6930    -0.8590 H     1 <1>   0.0800 
 19 H        2.8900    -4.6930     0.0520 H     1 <1>   0.1500 
 20 H        4.6450    -1.4490     0.4070 H     1 <1>   0.0800 
 21 H        4.7370    -2.5250    -0.9680 H     1 <1>   0.0800 
 22 H        4.8010    -3.1680     0.6570 H     1 <1>   0.0800 
 23 H       -3.6880    -3.2360    -0.8850 H     1 <1>   0.0800 
 24 H       -3.6970    -3.2080     0.8720 H     1 <1>   0.0800 
 25 H       -4.1010    -5.6460     0.9050 H     1 <1>   0.0800 
 26 H       -4.0910    -5.6740    -0.8470 H     1 <1>   0.0800 
 27 H       -5.9410    -4.1120    -0.8280 H     1 <1>   0.4500 
 28 H       -5.9490    -4.0860     0.8180 H     1 <1>   0.4500 
 29 H       -6.4970    -6.4890    -0.8470 H     1 <1>   0.0800 
 30 H       -7.6980    -5.5450     0.0080 H     1 <1>   0.0800 
 31 H       -6.5060    -6.4610     0.9060 H     1 <1>   0.0800 
@<TRIPOS>BOND
  1   1   2  1   
  2   2   3  ar  
  3   2   4  ar  
  4   3   5  1   
  5   3   6  ar  
  6   4   7  ar  
  7   4  15  1   
  8   5   8  1   
  9   6   9  ar  
 10   6  16  1   
 11   7   9  ar  
 12   7  10  1   
 13   8  11  1   
 14   8  17  1   
 15   8  18  1   
 16   9  19  1   
 17  10  20  1   
 18  10  21  1   
 19  10  22  1   
 20  11  12  1   
 21  11  23  1   
 22  11  24  1   
 23  12  13  1   
 24  12  25  1   
 25  12  26  1   
 26  13  14  1   
 27  13  27  1   
 28  13  28  1   
 29  14  29  1   
 30  14  30  1   
 31  14  31  1   
@<TRIPOS>SUBSTRUCTURE
  1 ****   5 GROUP 4 **** **** 0

# MOE 2024.06 (io_trps.svl 2023.06)
