@<TRIPOS>MOLECULE
NONAME
40 41 1 0 0 
SMALL
USER_CHARGES


@<TRIPOS>ATOM
  1 CL       0.0620    -0.9840    -2.9760 Cl    1 <1>  -0.1770 
  2 C        1.0120    -1.7730    -1.7420 C.ar  1 <1>   0.1770 
  3 C        2.3780    -1.8920    -1.9130 C.ar  1 <1>  -0.1500 
  4 C        0.3790    -2.2630    -0.6150 C.ar  1 <1>  -0.1500 
  5 C        3.1430    -2.5230    -0.9410 C.ar  1 <1>   0.1170 
  6 C        1.1340    -2.8880     0.3640 C.ar  1 <1>  -0.1500 
  7 N        4.5370    -2.6580    -1.1150 N.am  1 <1>  -0.2370 
  8 C        2.5070    -3.0210     0.2020 C.ar  1 <1>   0.0830 
  9 C        5.4290    -1.6270    -1.0740 C.2   1 <1>   0.5690 
 10 C        5.1990    -3.8450    -1.2460 C.2   1 <1>   0.5690 
 11 O        3.2470    -3.6210     1.1670 O.3   1 <1>  -0.3630 
 12 O        5.1460    -0.4560    -1.1620 O.2   1 <1>  -0.5700 
 13 C        6.8680    -2.1570    -1.0020 C.3   1 <1>   0.2510 
 14 O        4.7000    -4.9350    -1.3660 O.2   1 <1>  -0.5700 
 15 C        6.6940    -3.6560    -1.2690 C.3   1 <1>  -0.0990 
 16 C        2.9410    -4.9660     1.4630 C.3   1 <1>   0.0400 
 17 N        7.5100    -1.9500     0.3200 N.3   1 <1>  -0.9000 
 18 C        8.9360    -1.7050     0.3890 C.3   1 <1>   0.2700 
 19 C        9.2710    -1.6390     1.8750 C.3   1 <1>  -0.2400 
 20 C        9.7250    -2.8390    -0.2650 C.3   1 <1>  -0.2400 
 21 C        9.2530    -0.3580    -0.2610 C.3   1 <1>  -0.2400 
 22 H        2.8400    -1.4910    -2.7960 H     1 <1>   0.1500 
 23 H       -0.6850    -2.1520    -0.5070 H     1 <1>   0.1500 
 24 H        0.6570    -3.2600     1.2530 H     1 <1>   0.1500 
 25 H        7.4360    -1.6910    -1.7860 H     1 <1>   0.0800 
 26 H        7.0640    -3.9150    -2.2440 H     1 <1>   0.0800 
 27 H        7.1570    -4.2740    -0.5230 H     1 <1>   0.0800 
 28 H        3.7080    -5.3500     2.1110 H     1 <1>   0.0800 
 29 H        2.9230    -5.5300     0.5450 H     1 <1>   0.0800 
 30 H        1.9870    -5.0150     1.9550 H     1 <1>   0.0800 
 31 H        7.2580    -2.6980     0.9740 H     1 <1>   0.3600 
 32 H        9.0490    -2.5730     2.3590 H     1 <1>   0.0800 
 33 H        8.7070    -0.8550     2.3490 H     1 <1>   0.0800 
 34 H       10.3170    -1.4300     2.0130 H     1 <1>   0.0800 
 35 H        9.4780    -3.7830     0.1860 H     1 <1>   0.0800 
 36 H       10.7780    -2.6720    -0.1280 H     1 <1>   0.0800 
 37 H        9.5390    -2.8840    -1.3210 H     1 <1>   0.0800 
 38 H        8.6270     0.4110     0.1560 H     1 <1>   0.0800 
 39 H        9.1090    -0.3870    -1.3240 H     1 <1>   0.0800 
 40 H       10.2790    -0.0940    -0.0790 H     1 <1>   0.0800 
@<TRIPOS>BOND
  1   1   2  1   
  2   2   3  ar  
  3   2   4  ar  
  4   3   5  ar  
  5   3  22  1   
  6   4   6  ar  
  7   4  23  1   
  8   5   7  1   
  9   5   8  ar  
 10   6   8  ar  
 11   6  24  1   
 12   7   9  am  
 13   7  10  am  
 14   8  11  1   
 15   9  12  2   
 16   9  13  1   
 17  10  14  2   
 18  10  15  1   
 19  11  16  1   
 20  13  15  1   
 21  13  17  1   
 22  13  25  1   
 23  15  26  1   
 24  15  27  1   
 25  16  28  1   
 26  16  29  1   
 27  16  30  1   
 28  17  18  1   
 29  17  31  1   
 30  18  19  1   
 31  18  20  1   
 32  18  21  1   
 33  19  32  1   
 34  19  33  1   
 35  19  34  1   
 36  20  35  1   
 37  20  36  1   
 38  20  37  1   
 39  21  38  1   
 40  21  39  1   
 41  21  40  1   
@<TRIPOS>SUBSTRUCTURE
  1 ****   7 GROUP 4 **** **** 0

# MOE 2024.06 (io_trps.svl 2023.06)
