@<TRIPOS>MOLECULE
NONAME
45 49 1 0 0 
SMALL
USER_CHARGES


@<TRIPOS>ATOM
  1 O        0.2270     0.0340     0.6290 O.2   1 <1>  -0.5700 
  2 C        0.2350    -1.1150     0.2060 C.2   1 <1>   0.7160 
  3 N       -0.9570    -1.7840    -0.0200 N.am  1 <1>  -0.4200 
  4 C        1.4230    -1.8320    -0.0770 C.2   1 <1>  -0.0860 
  5 C       -0.9200    -3.0820    -0.4850 C.2   1 <1>   0.4500 
  6 C       -2.2600    -1.1040     0.2420 C.3   1 <1>   0.2200 
  7 C        1.3320    -3.1170    -0.5360 C.2   1 <1>  -0.0260 
  8 C        2.8000    -1.5130     0.0050 C.ar  1 <1>   0.2560 
  9 N        0.1460    -3.7560    -0.7470 N.2   1 <1>  -0.5760 
 10 C       -3.0400    -1.8040     1.3670 C.3   1 <1>  -0.1600 
 11 C       -3.1730    -1.1220    -0.9930 C.3   1 <1>  -0.1600 
 12 N        2.5790    -3.6360    -0.7420 N.pl3 1 <1>   0.0480 
 13 N        3.3820    -0.4000     0.3860 N.ar  1 <1>  -0.5660 
 14 C        3.5030    -2.6640    -0.4250 C.ar  1 <1>   0.1050 
 15 C       -4.4580    -2.0250     0.8370 C.3   1 <1>  -0.1600 
 16 C       -4.3090    -2.0950    -0.6780 C.3   1 <1>  -0.1600 
 17 C        2.8870    -4.9970    -1.2210 C.3   1 <1>   0.2340 
 18 C        4.7240    -0.4730     0.3220 C.ar  1 <1>   0.3100 
 19 N        4.8080    -2.7680    -0.5100 N.ar  1 <1>  -0.5670 
 20 C        2.7960    -5.9970    -0.0780 C.2   1 <1>  -0.2880 
 21 C        5.4280    -1.6370    -0.1190 C.ar  1 <1>   0.3100 
 22 C        5.4760     0.6540     0.7080 C.ar  1 <1>  -0.1500 
 23 C        3.8050    -6.7490     0.3740 C.2   1 <1>  -0.3000 
 24 C        6.8360    -1.5960    -0.1450 C.ar  1 <1>  -0.1500 
 25 C        6.8430     0.6580     0.6690 C.ar  1 <1>  -0.1500 
 26 C        7.5330    -0.4830     0.2370 C.ar  1 <1>  -0.1500 
 27 H       -1.8700    -3.5610    -0.6350 H     1 <1>   0.0600 
 28 H       -2.0980    -0.0760     0.5200 H     1 <1>   0.0800 
 29 H       -3.0590    -1.1930     2.2530 H     1 <1>   0.0800 
 30 H       -2.6000    -2.7530     1.6160 H     1 <1>   0.0800 
 31 H       -2.6550    -1.3770    -1.9010 H     1 <1>   0.0800 
 32 H       -3.5940    -0.1380    -1.1110 H     1 <1>   0.0800 
 33 H       -5.0710    -1.1760     1.0930 H     1 <1>   0.0800 
 34 H       -4.9080    -2.9150     1.2420 H     1 <1>   0.0800 
 35 H       -4.0310    -3.0940    -0.9690 H     1 <1>   0.0800 
 36 H       -5.2210    -1.8270    -1.1850 H     1 <1>   0.0800 
 37 H        3.8750    -5.0030    -1.6450 H     1 <1>   0.0800 
 38 H        2.1830    -5.2580    -1.9910 H     1 <1>   0.0800 
 39 H        1.8050    -6.0370     0.3450 H     1 <1>   0.1500 
 40 H        4.9290     1.5190     1.0370 H     1 <1>   0.1500 
 41 H        3.7140    -7.4480     1.1870 H     1 <1>   0.1500 
 42 H        4.8050    -6.7260    -0.0240 H     1 <1>   0.1500 
 43 H        7.3480    -2.4800    -0.4790 H     1 <1>   0.1500 
 44 H        7.4030     1.5280     0.9680 H     1 <1>   0.1500 
 45 H        8.6090    -0.4660     0.2120 H     1 <1>   0.1500 
@<TRIPOS>BOND
  1   1   2  2   
  2   2   3  am  
  3   2   4  1   
  4   3   5  1   
  5   3   6  1   
  6   4   7  2   
  7   4   8  1   
  8   5   9  2   
  9   5  27  1   
 10   6  10  1   
 11   6  11  1   
 12   6  28  1   
 13   7   9  1   
 14   7  12  1   
 15   8  13  ar  
 16   8  14  ar  
 17  10  15  1   
 18  10  29  1   
 19  10  30  1   
 20  11  16  1   
 21  11  31  1   
 22  11  32  1   
 23  12  14  1   
 24  12  17  1   
 25  13  18  ar  
 26  14  19  ar  
 27  15  16  1   
 28  15  33  1   
 29  15  34  1   
 30  16  35  1   
 31  16  36  1   
 32  17  20  1   
 33  17  37  1   
 34  17  38  1   
 35  18  21  ar  
 36  18  22  ar  
 37  19  21  ar  
 38  20  23  2   
 39  20  39  1   
 40  21  24  ar  
 41  22  25  ar  
 42  22  40  1   
 43  23  41  1   
 44  23  42  1   
 45  24  26  ar  
 46  24  43  1   
 47  25  26  ar  
 48  25  44  1   
 49  26  45  1   
@<TRIPOS>SUBSTRUCTURE
  1 ****   4 GROUP 4 **** **** 0

# MOE 2024.06 (io_trps.svl 2023.06)
