@<TRIPOS>MOLECULE
NONAME
48 50 1 0 0 
SMALL
USER_CHARGES


@<TRIPOS>ATOM
  1 S        0.0850     0.9890    -2.6780 S.3   1 <1>  -0.4600 
  2 C        0.1510     2.7180    -2.0680 C.3   1 <1>   0.4320 
  3 C       -1.3160     0.1480    -1.8560 C.3   1 <1>   0.1310 
  4 C        1.3550     2.9290    -1.1490 C.ar  1 <1>  -0.1440 
  5 C       -1.1210     3.1650    -1.3860 C.2   1 <1>  -0.1240 
  6 C       -1.2490     0.2380    -0.3370 C.2   1 <1>   0.5690 
  7 C        1.8680     1.9360    -0.3210 C.ar  1 <1>  -0.1500 
  8 C        1.9470     4.1850    -1.1270 C.ar  1 <1>  -0.1500 
  9 C       -1.7360     4.3720    -1.7070 C.2   1 <1>   0.6160 
 10 C       -1.8120     2.6100    -0.3490 C.2   1 <1>   0.2090 
 11 O       -0.9570    -0.7290     0.3180 O.2   1 <1>  -0.5700 
 12 N       -1.5750     1.4040     0.2730 N.am  1 <1>  -0.5390 
 13 C        2.9470     2.1910     0.5070 C.ar  1 <1>  -0.1500 
 14 C        3.0260     4.4430    -0.3010 C.ar  1 <1>  -0.1500 
 15 O       -1.3730     5.2260    -2.5260 O.2   1 <1>  -0.5700 
 16 N       -2.8010     4.5320    -0.8930 N.am  1 <1>  -0.4100 
 17 N       -2.8390     3.4200     0.0100 N.pl3 1 <1>  -0.4890 
 18 C        3.5330     3.4520     0.5220 C.ar  1 <1>   0.0830 
 19 C       -4.1240     2.9660     0.6090 C.3   1 <1>   0.2890 
 20 O        4.5890     3.7880     1.3040 O.3   1 <1>  -0.3630 
 21 C       -5.0900     2.5340    -0.5090 C.3   1 <1>  -0.1600 
 22 C       -4.6860     4.0900     1.4820 C.3   1 <1>  -0.2400 
 23 C        5.1800     2.8520     2.1740 C.3   1 <1>   0.1200 
 24 C       -6.3690     1.8620     0.0130 C.3   1 <1>  -0.2400 
 25 C        6.3330     3.5420     2.8980 C.3   1 <1>  -0.2400 
 26 H        0.2960     3.3040    -2.9590 H     1 <1>   0.0800 
 27 H       -1.2770    -0.8810    -2.1620 H     1 <1>   0.0800 
 28 H       -2.2200     0.5950    -2.2250 H     1 <1>   0.0800 
 29 H        1.4380     0.9500    -0.3070 H     1 <1>   0.1500 
 30 H        1.5680     4.9760    -1.7540 H     1 <1>   0.1500 
 31 H       -1.6070     1.3710     1.2910 H     1 <1>   0.3700 
 32 H        3.3120     1.3970     1.1290 H     1 <1>   0.1500 
 33 H        3.4810     5.4170    -0.2870 H     1 <1>   0.1500 
 34 H       -2.9800     5.4830    -0.5580 H     1 <1>   0.3700 
 35 H       -3.9230     2.1160     1.2380 H     1 <1>   0.0800 
 36 H       -4.5810     1.8340    -1.1480 H     1 <1>   0.0800 
 37 H       -5.3590     3.3900    -1.1030 H     1 <1>   0.0800 
 38 H       -4.9890     4.9250     0.8780 H     1 <1>   0.0800 
 39 H       -3.9420     4.4120     2.1880 H     1 <1>   0.0800 
 40 H       -5.5390     3.7410     2.0340 H     1 <1>   0.0800 
 41 H        5.5400     2.0230     1.5890 H     1 <1>   0.0800 
 42 H        4.4340     2.5210     2.8760 H     1 <1>   0.0800 
 43 H       -6.1270     1.0160     0.6320 H     1 <1>   0.0800 
 44 H       -6.9630     1.5170    -0.8160 H     1 <1>   0.0800 
 45 H       -6.9630     2.5540     0.5830 H     1 <1>   0.0800 
 46 H        7.0630     3.8840     2.1860 H     1 <1>   0.0800 
 47 H        6.8060     2.8520     3.5710 H     1 <1>   0.0800 
 48 H        5.9650     4.3780     3.4650 H     1 <1>   0.0800 
@<TRIPOS>BOND
  1   1   2  1   
  2   1   3  1   
  3   2   4  1   
  4   2   5  1   
  5   2  26  1   
  6   3   6  1   
  7   3  27  1   
  8   3  28  1   
  9   4   7  ar  
 10   4   8  ar  
 11   5   9  1   
 12   5  10  2   
 13   6  11  2   
 14   6  12  am  
 15   7  13  ar  
 16   7  29  1   
 17   8  14  ar  
 18   8  30  1   
 19   9  15  2   
 20   9  16  am  
 21  10  12  1   
 22  10  17  1   
 23  12  31  1   
 24  13  18  ar  
 25  13  32  1   
 26  14  18  ar  
 27  14  33  1   
 28  16  17  1   
 29  16  34  1   
 30  17  19  1   
 31  18  20  1   
 32  19  21  1   
 33  19  22  1   
 34  19  35  1   
 35  20  23  1   
 36  21  24  1   
 37  21  36  1   
 38  21  37  1   
 39  22  38  1   
 40  22  39  1   
 41  22  40  1   
 42  23  25  1   
 43  23  41  1   
 44  23  42  1   
 45  24  43  1   
 46  24  44  1   
 47  24  45  1   
 48  25  46  1   
 49  25  47  1   
 50  25  48  1   
@<TRIPOS>SUBSTRUCTURE
  1 ****   5 GROUP 4 **** **** 0

# MOE 2024.06 (io_trps.svl 2023.06)
