@<TRIPOS>MOLECULE
NONAME
32 33 1 0 0 
SMALL
USER_CHARGES


@<TRIPOS>ATOM
  1 O       -1.3140     0.2550    -1.1830 O.3   1 <1>  -0.6800 
  2 C       -1.4000     0.6180     0.1470 C.3   1 <1>   0.4240 
  3 C       -0.1980     1.5310     0.4210 C.ar  1 <1>  -0.1440 
  4 C       -1.4370    -0.6910     0.9500 C.3   1 <1>  -0.1600 
  5 C       -2.7230     1.3770     0.3370 C.3   1 <1>  -0.1600 
  6 C        0.0210     2.6300    -0.4050 C.ar  1 <1>  -0.1500 
  7 C        0.6900     1.3130     1.4720 C.ar  1 <1>  -0.1500 
  8 C       -2.6080    -1.6030     0.5580 C.3   1 <1>   0.3430 
  9 C       -3.9510     0.4710     0.4790 C.3   1 <1>   0.3430 
 10 C        1.0910     3.4810    -0.1950 C.ar  1 <1>  -0.1500 
 11 C        1.7610     2.1640     1.6830 C.ar  1 <1>  -0.1500 
 12 N       -3.6800    -0.8450    -0.1550 N.4   1 <1>  -0.9590 
 13 C        1.9640     3.2480     0.8500 C.ar  1 <1>  -0.1500 
 14 C       -4.9120    -1.6580    -0.3670 C.3   1 <1>   0.2630 
 15 H       -0.3950     0.4440    -1.4740 H     1 <1>   0.4000 
 16 H       -1.5330    -0.4560     1.9940 H     1 <1>   0.0800 
 17 H       -0.5130    -1.2280     0.8290 H     1 <1>   0.0800 
 18 H       -2.8710     2.0610    -0.4790 H     1 <1>   0.0800 
 19 H       -2.6570     1.9740     1.2290 H     1 <1>   0.0800 
 20 H       -0.6430     2.8400    -1.2270 H     1 <1>   0.1500 
 21 H        0.5770     0.4870     2.1490 H     1 <1>   0.1500 
 22 H       -3.0080    -2.0710     1.4430 H     1 <1>   0.0800 
 23 H       -2.2410    -2.3800    -0.0940 H     1 <1>   0.0800 
 24 H       -4.8010     0.9450     0.0140 H     1 <1>   0.0800 
 25 H       -4.1750     0.3240     1.5230 H     1 <1>   0.0800 
 26 H        1.2460     4.3260    -0.8440 H     1 <1>   0.1500 
 27 H        2.4410     1.9840     2.4980 H     1 <1>   0.1500 
 28 H       -3.2540    -0.6100    -1.0750 H     1 <1>   0.4500 
 29 H        2.7980     3.9090     1.0160 H     1 <1>   0.1500 
 30 H       -5.3620    -1.9100     0.5800 H     1 <1>   0.0800 
 31 H       -4.6730    -2.5690    -0.8910 H     1 <1>   0.0800 
 32 H       -5.6280    -1.1040    -0.9530 H     1 <1>   0.0800 
@<TRIPOS>BOND
  1   1   2  1   
  2   1  15  1   
  3   2   3  1   
  4   2   4  1   
  5   2   5  1   
  6   3   6  ar  
  7   3   7  ar  
  8   4   8  1   
  9   4  16  1   
 10   4  17  1   
 11   5   9  1   
 12   5  18  1   
 13   5  19  1   
 14   6  10  ar  
 15   6  20  1   
 16   7  11  ar  
 17   7  21  1   
 18   8  12  1   
 19   8  22  1   
 20   8  23  1   
 21   9  12  1   
 22   9  24  1   
 23   9  25  1   
 24  10  13  ar  
 25  10  26  1   
 26  11  13  ar  
 27  11  27  1   
 28  12  14  1   
 29  12  28  1   
 30  13  29  1   
 31  14  30  1   
 32  14  31  1   
 33  14  32  1   
@<TRIPOS>SUBSTRUCTURE
  1 ****   2 GROUP 4 **** **** 0

# MOE 2024.06 (io_trps.svl 2023.06)
