@<TRIPOS>MOLECULE
NONAME
56 58 1 0 0 
SMALL
USER_CHARGES


@<TRIPOS>ATOM
  1 O        0.2170    -1.0290    -1.4270 O.3   1 <1>  -0.3630 
  2 C       -0.2950    -2.2600    -1.1750 C.ar  1 <1>   0.0830 
  3 C       -0.1090    -0.4300    -2.6640 C.3   1 <1>   0.0400 
  4 C       -0.0830    -3.3680    -2.0030 C.ar  1 <1>   0.0830 
  5 C       -1.0580    -2.3970    -0.0320 C.ar  1 <1>  -0.1500 
  6 O        0.7060    -3.3270    -3.0990 O.3   1 <1>  -0.3630 
  7 C       -0.6890    -4.5730    -1.6920 C.ar  1 <1>  -0.1500 
  8 C       -1.6510    -3.6110     0.3120 C.ar  1 <1>   0.0860 
  9 C        2.0920    -3.2310    -2.8580 C.3   1 <1>   0.0400 
 10 C       -1.4630    -4.6900    -0.5520 C.ar  1 <1>  -0.1500 
 11 C       -2.4330    -3.7410     1.5220 C.2   1 <1>   0.3030 
 12 N       -2.1810    -4.4780     2.5330 N.2   1 <1>  -0.6520 
 13 C       -3.7140    -2.9210     1.5470 C.3   1 <1>   0.0440 
 14 N       -1.0450    -5.2850     2.5160 N.pl3 1 <1>   0.5050 
 15 C       -4.7080    -3.4960     0.5500 C.ar  1 <1>  -0.1430 
 16 C        0.2620    -4.9690     2.6100 C.2   1 <1>   0.0070 
 17 C       -1.0040    -6.6230     2.3800 C.2   1 <1>   0.0060 
 18 C       -5.3470    -4.6910     0.8340 C.ar  1 <1>  -0.1500 
 19 C       -4.9740    -2.8580    -0.6500 C.ar  1 <1>  -0.1500 
 20 N        1.0130    -6.0120     2.5170 N.2   1 <1>  -0.3380 
 21 C        0.7920    -3.5630     2.8170 C.3   1 <1>  -0.0600 
 22 N        0.2050    -7.0680     2.3680 N.2   1 <1>  -0.3380 
 23 C       -2.2440    -7.4890     2.2560 C.3   1 <1>  -0.0600 
 24 C       -6.2440    -5.2580    -0.0550 C.ar  1 <1>   0.0830 
 25 C       -5.8620    -3.4130    -1.5550 C.ar  1 <1>  -0.1500 
 26 O       -6.8030    -6.4300     0.3580 O.3   1 <1>  -0.3630 
 27 C       -6.5020    -4.6200    -1.2800 C.ar  1 <1>   0.0830 
 28 C       -8.1470    -6.7310     0.0540 C.3   1 <1>   0.0400 
 29 O       -7.3520    -5.1970    -2.1800 O.3   1 <1>  -0.3630 
 30 C       -7.5090    -4.6950    -3.4890 C.3   1 <1>   0.0400 
 31 H       -1.1620    -0.5510    -2.8460 H     1 <1>   0.0800 
 32 H        0.4620    -0.8930    -3.4470 H     1 <1>   0.0800 
 33 H        0.1380     0.6150    -2.6060 H     1 <1>   0.0800 
 34 H       -1.1870    -1.5390     0.6030 H     1 <1>   0.1500 
 35 H       -0.5440    -5.4180    -2.3410 H     1 <1>   0.1500 
 36 H        2.3990    -4.0720    -2.2600 H     1 <1>   0.0800 
 37 H        2.3000    -2.3110    -2.3430 H     1 <1>   0.0800 
 38 H        2.6010    -3.2470    -3.8050 H     1 <1>   0.0800 
 39 H       -1.9270    -5.6340    -0.3260 H     1 <1>   0.1500 
 40 H       -4.1460    -2.9510     2.5320 H     1 <1>   0.0800 
 41 H       -3.5020    -1.8930     1.3190 H     1 <1>   0.0800 
 42 H       -5.1520    -5.2010     1.7610 H     1 <1>   0.1500 
 43 H       -4.4880    -1.9290    -0.8910 H     1 <1>   0.1500 
 44 H        0.1340    -3.0030     3.4560 H     1 <1>   0.0800 
 45 H        0.8850    -3.0630     1.8710 H     1 <1>   0.0800 
 46 H        1.7630    -3.6070     3.2760 H     1 <1>   0.0800 
 47 H       -2.8300    -7.1820     1.4090 H     1 <1>   0.0800 
 48 H       -2.8410    -7.3980     3.1450 H     1 <1>   0.0800 
 49 H       -1.9620    -8.5190     2.1290 H     1 <1>   0.0800 
 50 H       -6.0360    -2.8860    -2.4730 H     1 <1>   0.1500 
 51 H       -8.7340    -5.8310     0.1170 H     1 <1>   0.0800 
 52 H       -8.4990    -7.4530     0.7670 H     1 <1>   0.0800 
 53 H       -8.1940    -7.1470    -0.9360 H     1 <1>   0.0800 
 54 H       -6.5480    -4.6720    -3.9730 H     1 <1>   0.0800 
 55 H       -7.9410    -3.7120    -3.4380 H     1 <1>   0.0800 
 56 H       -8.1690    -5.3560    -4.0220 H     1 <1>   0.0800 
@<TRIPOS>BOND
  1   1   2  1   
  2   1   3  1   
  3   2   4  ar  
  4   2   5  ar  
  5   3  31  1   
  6   3  32  1   
  7   3  33  1   
  8   4   6  1   
  9   4   7  ar  
 10   5   8  ar  
 11   5  34  1   
 12   6   9  1   
 13   7  10  ar  
 14   7  35  1   
 15   8  10  ar  
 16   8  11  1   
 17   9  36  1   
 18   9  37  1   
 19   9  38  1   
 20  10  39  1   
 21  11  12  2   
 22  11  13  1   
 23  12  14  1   
 24  13  15  1   
 25  13  40  1   
 26  13  41  1   
 27  14  16  1   
 28  14  17  1   
 29  15  18  ar  
 30  15  19  ar  
 31  16  20  2   
 32  16  21  1   
 33  17  22  2   
 34  17  23  1   
 35  18  24  ar  
 36  18  42  1   
 37  19  25  ar  
 38  19  43  1   
 39  20  22  1   
 40  21  44  1   
 41  21  45  1   
 42  21  46  1   
 43  23  47  1   
 44  23  48  1   
 45  23  49  1   
 46  24  26  1   
 47  24  27  ar  
 48  25  27  ar  
 49  25  50  1   
 50  26  28  1   
 51  27  29  1   
 52  28  51  1   
 53  28  52  1   
 54  28  53  1   
 55  29  30  1   
 56  30  54  1   
 57  30  55  1   
 58  30  56  1   
@<TRIPOS>SUBSTRUCTURE
  1 ****   8 GROUP 4 **** **** 0

# MOE 2024.06 (io_trps.svl 2023.06)
