@<TRIPOS>MOLECULE
NONAME
23 23 1 0 0 
SMALL
USER_CHARGES


@<TRIPOS>ATOM
  1 O       -2.6610     3.3990    -1.2770 O.co2 1 <1>  -0.9000 
  2 C       -2.6280     2.7150    -0.2620 C.2   1 <1>   0.9060 
  3 O       -1.5730     2.3080     0.2420 O.co2 1 <1>  -0.9000 
  4 C       -3.8890     2.0650     0.2500 C.3   1 <1>  -0.1860 
  5 C       -3.9000     0.6900    -0.4070 C.3   1 <1>   0.4230 
  6 C       -5.1820     2.8480    -0.0690 C.3   1 <1>  -0.1600 
  7 N       -2.7060    -0.0610     0.0130 N.4   1 <1>  -0.8530 
  8 C       -5.1500    -0.1150    -0.0340 C.3   1 <1>  -0.1600 
  9 C       -6.4290     2.0440     0.3210 C.3   1 <1>  -0.1600 
 10 C       -6.4330     0.6670    -0.3560 C.3   1 <1>  -0.1600 
 11 H       -3.8070     1.9650     1.3160 H     1 <1>   0.0800 
 12 H       -3.8740     0.8400    -1.4760 H     1 <1>   0.0800 
 13 H       -5.1700     3.7890     0.4550 H     1 <1>   0.0800 
 14 H       -5.2200     3.0710    -1.1240 H     1 <1>   0.0800 
 15 H       -2.7890    -0.4040     0.9670 H     1 <1>   0.4500 
 16 H       -1.9390     0.6590     0.0430 H     1 <1>   0.4500 
 17 H       -2.4310    -0.7840    -0.6480 H     1 <1>   0.4500 
 18 H       -5.1630    -1.0420    -0.5790 H     1 <1>   0.0800 
 19 H       -5.1420    -0.3330     1.0200 H     1 <1>   0.0800 
 20 H       -6.4560     1.9230     1.3910 H     1 <1>   0.0800 
 21 H       -7.3100     2.5910     0.0320 H     1 <1>   0.0800 
 22 H       -6.5180     0.7990    -1.4220 H     1 <1>   0.0800 
 23 H       -7.2930     0.1080    -0.0260 H     1 <1>   0.0800 
@<TRIPOS>BOND
  1   1   2  ar  
  2   2   3  ar  
  3   2   4  1   
  4   4   5  1   
  5   4   6  1   
  6   4  11  1   
  7   5   7  1   
  8   5   8  1   
  9   5  12  1   
 10   6   9  1   
 11   6  13  1   
 12   6  14  1   
 13   7  15  1   
 14   7  16  1   
 15   7  17  1   
 16   8  10  1   
 17   8  18  1   
 18   8  19  1   
 19   9  10  1   
 20   9  20  1   
 21   9  21  1   
 22  10  22  1   
 23  10  23  1   
@<TRIPOS>SUBSTRUCTURE
  1 ****   4 GROUP 4 **** **** 0

# MOE 2024.06 (io_trps.svl 2023.06)
