@<TRIPOS>MOLECULE
NONAME
46 48 1 0 0 
SMALL
USER_CHARGES


@<TRIPOS>ATOM
  1 BR      -0.0050     0.0180    -1.0750 Br    1 <1>  -0.1110 
  2 C        1.7770    -0.6250    -0.7280 C.ar  1 <1>   0.1110 
  3 C        2.3050    -0.4740     0.5400 C.ar  1 <1>  -0.1500 
  4 C        2.4840    -1.2210    -1.7530 C.ar  1 <1>  -0.1500 
  5 C        3.5860    -0.9390     0.7820 C.ar  1 <1>  -0.1500 
  6 C        3.7640    -1.6800    -1.4950 C.ar  1 <1>  -0.1500 
  7 C        4.3300    -1.5490    -0.2270 C.ar  1 <1>   0.1170 
  8 N        5.6290    -1.9900     0.0720 N.am  1 <1>  -0.5470 
  9 C        6.4100    -2.9500    -0.5210 C.2   1 <1>   0.5690 
 10 O        6.0210    -3.6510    -1.4240 O.2   1 <1>  -0.5700 
 11 C        7.8190    -3.1870     0.0410 C.3   1 <1>   0.1710 
 12 N        8.8800    -2.2310    -0.3930 N.3   1 <1>  -0.8100 
 13 C        8.6520    -0.8350     0.0450 C.3   1 <1>   0.1100 
 14 C       10.2110    -2.7080     0.0420 C.3   1 <1>   0.1100 
 15 C        9.7640     0.1150    -0.4360 C.3   1 <1>   0.1400 
 16 C       11.3440    -1.7960    -0.4540 C.3   1 <1>   0.1400 
 17 N       11.1100    -0.3860    -0.0250 N.am  1 <1>  -0.6600 
 18 C       12.0770     0.3530     0.6200 C.2   1 <1>   0.5690 
 19 O       13.1450    -0.1510     0.8990 O.2   1 <1>  -0.5700 
 20 C       11.8180     1.8270     1.0320 C.3   1 <1>   0.2610 
 21 O       11.5180     2.6280    -0.0810 O.3   1 <1>  -0.5600 
 22 C       13.0040     2.5600     1.6620 C.3   1 <1>  -0.1600 
 23 C       12.6980     3.0860    -0.6630 C.3   1 <1>   0.1200 
 24 C       13.7290     3.1490     0.4610 C.3   1 <1>  -0.1600 
 25 H        1.7240    -0.0060     1.3140 H     1 <1>   0.1500 
 26 H        2.0440    -1.3240    -2.7290 H     1 <1>   0.1500 
 27 H        4.0060    -0.8310     1.7650 H     1 <1>   0.1500 
 28 H        4.3240    -2.1400    -2.2900 H     1 <1>   0.1500 
 29 H        6.0550    -1.5340     0.8740 H     1 <1>   0.3700 
 30 H        8.1090    -4.1750    -0.2710 H     1 <1>   0.0800 
 31 H        7.7640    -3.1960     1.1150 H     1 <1>   0.0800 
 32 H        8.5980    -0.7920     1.1190 H     1 <1>   0.0800 
 33 H        7.7230    -0.4780    -0.3610 H     1 <1>   0.0800 
 34 H       10.3790    -3.6980    -0.3470 H     1 <1>   0.0800 
 35 H       10.2520    -2.7590     1.1170 H     1 <1>   0.0800 
 36 H        9.5760     1.0960    -0.0420 H     1 <1>   0.0800 
 37 H        9.7300     0.1810    -1.5100 H     1 <1>   0.0800 
 38 H       11.3860    -1.8350    -1.5280 H     1 <1>   0.0800 
 39 H       12.2830    -2.1590    -0.0730 H     1 <1>   0.0800 
 40 H       10.9740     1.8510     1.6960 H     1 <1>   0.0800 
 41 H       13.6310     1.9160     2.2540 H     1 <1>   0.0800 
 42 H       12.6290     3.3490     2.2880 H     1 <1>   0.0800 
 43 H       12.5130     4.0510    -1.1040 H     1 <1>   0.0800 
 44 H       12.9930     2.3820    -1.4230 H     1 <1>   0.0800 
 45 H       14.5840     2.5510     0.1980 H     1 <1>   0.0800 
 46 H       14.0480     4.1600     0.6450 H     1 <1>   0.0800 
@<TRIPOS>BOND
  1   1   2  1   
  2   2   3  ar  
  3   2   4  ar  
  4   3   5  ar  
  5   3  25  1   
  6   4   6  ar  
  7   4  26  1   
  8   5   7  ar  
  9   5  27  1   
 10   6   7  ar  
 11   6  28  1   
 12   7   8  1   
 13   8   9  am  
 14   8  29  1   
 15   9  10  2   
 16   9  11  1   
 17  11  12  1   
 18  11  30  1   
 19  11  31  1   
 20  12  13  1   
 21  12  14  1   
 22  13  15  1   
 23  13  32  1   
 24  13  33  1   
 25  14  16  1   
 26  14  34  1   
 27  14  35  1   
 28  15  17  1   
 29  15  36  1   
 30  15  37  1   
 31  16  17  1   
 32  16  38  1   
 33  16  39  1   
 34  17  18  am  
 35  18  19  2   
 36  18  20  1   
 37  20  21  1   
 38  20  22  1   
 39  20  40  1   
 40  21  23  1   
 41  22  24  1   
 42  22  41  1   
 43  22  42  1   
 44  23  24  1   
 45  23  43  1   
 46  23  44  1   
 47  24  45  1   
 48  24  46  1   
@<TRIPOS>SUBSTRUCTURE
  1 ****  13 GROUP 4 **** **** 0

# MOE 2024.06 (io_trps.svl 2023.06)
