@<TRIPOS>MOLECULE
NONAME
38 40 1 0 0 
SMALL
USER_CHARGES


@<TRIPOS>ATOM
  1 O        0.2040    -1.5030    -1.4530 O.2   1 <1>  -0.5700 
  2 C       -0.2530    -2.2040    -0.5810 C.2   1 <1>   0.5690 
  3 N        0.4700    -2.8740     0.3610 N.am  1 <1>  -0.4200 
  4 C       -1.7550    -2.5230    -0.4460 C.3   1 <1>   0.2510 
  5 C       -0.3310    -3.7000     1.0810 C.2   1 <1>   0.5690 
  6 C        1.9350    -2.7790     0.5970 C.3   1 <1>   0.2200 
  7 N       -2.6460    -1.4060    -0.0090 N.3   1 <1>  -0.8100 
  8 C       -1.7660    -3.6250     0.6270 C.3   1 <1>  -0.0990 
  9 O        0.0240    -4.4350     1.9650 O.2   1 <1>  -0.5700 
 10 C        2.3570    -1.3580     0.9960 C.3   1 <1>  -0.1600 
 11 C        2.7570    -3.1480    -0.6460 C.3   1 <1>  -0.1600 
 12 C       -4.0760    -1.7680    -0.1570 C.3   1 <1>   0.1100 
 13 C       -2.3930    -0.1520    -0.7590 C.3   1 <1>   0.1100 
 14 C        3.6560    -1.0870     0.2390 C.3   1 <1>  -0.1600 
 15 C        3.5090    -1.8800    -1.0540 C.3   1 <1>  -0.1600 
 16 C       -4.9950    -0.6040     0.2520 C.3   1 <1>   0.1200 
 17 C       -3.3770     0.9620    -0.3560 C.3   1 <1>   0.1200 
 18 O       -4.7000     0.5330    -0.5040 O.3   1 <1>  -0.5600 
 19 H       -2.0960    -2.9110    -1.3910 H     1 <1>   0.0800 
 20 H        2.2100    -3.4530     1.3910 H     1 <1>   0.0800 
 21 H       -2.0540    -4.5700     0.2070 H     1 <1>   0.0800 
 22 H       -2.3880    -3.3840     1.4680 H     1 <1>   0.0800 
 23 H        2.5020    -1.2770     2.0590 H     1 <1>   0.0800 
 24 H        1.6200    -0.6390     0.6840 H     1 <1>   0.0800 
 25 H        2.1520    -3.5220    -1.4540 H     1 <1>   0.0800 
 26 H        3.4730    -3.9030    -0.3720 H     1 <1>   0.0800 
 27 H       -4.3080    -2.6170     0.4600 H     1 <1>   0.0800 
 28 H       -4.2880    -2.0280    -1.1800 H     1 <1>   0.0800 
 29 H       -2.4760    -0.3290    -1.8180 H     1 <1>   0.0800 
 30 H       -1.3970     0.2000    -0.5550 H     1 <1>   0.0800 
 31 H        4.4910    -1.4690     0.8020 H     1 <1>   0.0800 
 32 H        3.8040    -0.0370     0.0530 H     1 <1>   0.0800 
 33 H        2.9080    -1.3180    -1.7490 H     1 <1>   0.0800 
 34 H        4.4600    -2.0990    -1.5090 H     1 <1>   0.0800 
 35 H       -4.8690    -0.3690     1.2950 H     1 <1>   0.0800 
 36 H       -6.0240    -0.8580     0.0730 H     1 <1>   0.0800 
 37 H       -3.2390     1.8240    -0.9840 H     1 <1>   0.0800 
 38 H       -3.2200     1.2490     0.6690 H     1 <1>   0.0800 
@<TRIPOS>BOND
  1   1   2  2   
  2   2   3  am  
  3   2   4  1   
  4   3   5  am  
  5   3   6  1   
  6   4   7  1   
  7   4   8  1   
  8   4  19  1   
  9   5   8  1   
 10   5   9  2   
 11   6  10  1   
 12   6  11  1   
 13   6  20  1   
 14   7  12  1   
 15   7  13  1   
 16   8  21  1   
 17   8  22  1   
 18  10  14  1   
 19  10  23  1   
 20  10  24  1   
 21  11  15  1   
 22  11  25  1   
 23  11  26  1   
 24  12  16  1   
 25  12  27  1   
 26  12  28  1   
 27  13  17  1   
 28  13  29  1   
 29  13  30  1   
 30  14  15  1   
 31  14  31  1   
 32  14  32  1   
 33  15  33  1   
 34  15  34  1   
 35  16  18  1   
 36  16  35  1   
 37  16  36  1   
 38  17  18  1   
 39  17  37  1   
 40  17  38  1   
@<TRIPOS>SUBSTRUCTURE
  1 ****   2 GROUP 4 **** **** 0

# MOE 2024.06 (io_trps.svl 2023.06)
