@<TRIPOS>MOLECULE
NONAME
33 33 1 0 0 
SMALL
USER_CHARGES


@<TRIPOS>ATOM
  1 CL       0.4760     0.0490    -0.4740 Cl    1 <1>  -0.1770 
  2 C        0.2880    -1.6910    -0.4350 C.ar  1 <1>   0.1770 
  3 C        1.3240    -2.5190    -0.0190 C.ar  1 <1>  -0.1440 
  4 C       -0.9380    -2.1940    -0.8310 C.ar  1 <1>  -0.1500 
  5 C        1.1040    -3.9000     0.0120 C.ar  1 <1>   0.1170 
  6 C        2.6790    -1.9410     0.3960 C.3   1 <1>  -0.0960 
  7 C       -1.1490    -3.5600    -0.8100 C.ar  1 <1>  -0.1500 
  8 N        2.1090    -4.7650     0.4700 N.am  1 <1>  -0.5470 
  9 C       -0.1340    -4.3980    -0.3890 C.ar  1 <1>  -0.1500 
 10 C        2.4090    -6.0450     0.1110 C.2   1 <1>   0.6900 
 11 O        1.8530    -6.5910    -0.8210 O.2   1 <1>  -0.5700 
 12 N        3.3680    -6.6760     0.8370 N.am  1 <1>  -0.7300 
 13 C        3.9130    -8.0350     0.6350 C.3   1 <1>   0.2200 
 14 C        4.5340    -8.1630    -0.7650 C.3   1 <1>  -0.1600 
 15 C        2.8210    -9.0670     0.9180 C.3   1 <1>  -0.2400 
 16 C        5.3830    -9.4310    -0.9340 C.3   1 <1>  -0.2400 
 17 H       -1.7140    -1.5230    -1.1510 H     1 <1>   0.1500 
 18 H        2.8220    -0.9460     0.0200 H     1 <1>   0.0800 
 19 H        3.4810    -2.5400     0.0040 H     1 <1>   0.0800 
 20 H        2.7500    -1.9110     1.4690 H     1 <1>   0.0800 
 21 H       -2.0950    -3.9690    -1.1180 H     1 <1>   0.1500 
 22 H        2.8140    -4.3290     1.0510 H     1 <1>   0.3700 
 23 H       -0.3090    -5.4600    -0.3690 H     1 <1>   0.1500 
 24 H        3.6190    -6.2660     1.7320 H     1 <1>   0.3700 
 25 H        4.7000    -8.1750     1.3580 H     1 <1>   0.0800 
 26 H        5.1630    -7.3090    -0.9440 H     1 <1>   0.0800 
 27 H        3.7570    -8.1650    -1.5100 H     1 <1>   0.0800 
 28 H        2.0510    -9.0170     0.1680 H     1 <1>   0.0800 
 29 H        2.3840    -8.8930     1.8840 H     1 <1>   0.0800 
 30 H        3.2340   -10.0590     0.9110 H     1 <1>   0.0800 
 31 H        6.1610    -9.4690    -0.1920 H     1 <1>   0.0800 
 32 H        5.8410    -9.4330    -1.9080 H     1 <1>   0.0800 
 33 H        4.7740   -10.3140    -0.8500 H     1 <1>   0.0800 
@<TRIPOS>BOND
  1   1   2  1   
  2   2   3  ar  
  3   2   4  ar  
  4   3   5  ar  
  5   3   6  1   
  6   4   7  ar  
  7   4  17  1   
  8   5   8  1   
  9   5   9  ar  
 10   6  18  1   
 11   6  19  1   
 12   6  20  1   
 13   7   9  ar  
 14   7  21  1   
 15   8  10  am  
 16   8  22  1   
 17   9  23  1   
 18  10  11  2   
 19  10  12  am  
 20  12  13  1   
 21  12  24  1   
 22  13  14  1   
 23  13  15  1   
 24  13  25  1   
 25  14  16  1   
 26  14  26  1   
 27  14  27  1   
 28  15  28  1   
 29  15  29  1   
 30  15  30  1   
 31  16  31  1   
 32  16  32  1   
 33  16  33  1   
@<TRIPOS>SUBSTRUCTURE
  1 ****   8 GROUP 4 **** **** 0

# MOE 2024.06 (io_trps.svl 2023.06)
