@<TRIPOS>MOLECULE
NONAME
49 51 1 0 0 
SMALL
USER_CHARGES


@<TRIPOS>ATOM
  1 O        0.1780    -0.7270     1.8530 O.2   1 <1>  -0.5700 
  2 C        0.2000    -1.6430     1.0190 C.2   1 <1>   0.5330 
  3 C       -1.0770    -2.1050     0.5120 C.ar  1 <1>   0.0860 
  4 C        1.4690    -2.1990     0.6440 C.cat 1 <1>   0.7510 
  5 C       -2.0910    -1.1940     0.2170 C.ar  1 <1>  -0.1500 
  6 C       -1.3780    -3.4550     0.3340 C.ar  1 <1>  -0.1500 
  7 N        2.6380    -1.8840     1.2910 N.pl3 1 <1>  -0.7000 
  8 N        1.8110    -3.0720    -0.3400 N.pl3 1 <1>  -0.8080 
  9 C       -3.3380    -1.5840    -0.2380 C.ar  1 <1>   0.0830 
 10 C       -2.6100    -3.8710    -0.1320 C.ar  1 <1>  -0.1500 
 11 C        3.6710    -2.5600     0.7190 C.2   1 <1>   0.1820 
 12 O        1.0490    -3.5390    -1.2540 O.3   1 <1>  -0.4420 
 13 C        3.1660    -3.3030    -0.2870 C.2   1 <1>   0.1820 
 14 O       -4.2090    -0.5590    -0.4590 O.3   1 <1>  -0.3630 
 15 C       -3.6070    -2.9490    -0.4360 C.ar  1 <1>   0.0830 
 16 C        5.1000    -2.3850     1.2000 C.3   1 <1>   0.0080 
 17 C        3.8540    -4.2270    -1.2770 C.3   1 <1>   0.0080 
 18 C       -5.6020    -0.7340    -0.3400 C.3   1 <1>   0.1200 
 19 O       -4.8100    -3.3490    -0.9300 O.3   1 <1>  -0.3630 
 20 C        5.8970    -3.6940     1.2710 C.3   1 <1>  -0.1600 
 21 C        4.9410    -5.1150    -0.6540 C.3   1 <1>  -0.1600 
 22 C       -6.2370     0.6420    -0.1610 C.3   1 <1>  -0.2400 
 23 C       -5.0040    -4.6340    -1.4750 C.3   1 <1>   0.1200 
 24 C        6.1540    -4.3560    -0.0920 C.3   1 <1>  -0.1600 
 25 C       -6.3860    -4.6660    -2.1190 C.3   1 <1>  -0.2400 
 26 H       -1.9060    -0.1430     0.3540 H     1 <1>   0.1500 
 27 H       -0.6260    -4.1970     0.5480 H     1 <1>   0.1500 
 28 H        2.6350    -1.2040     2.0510 H     1 <1>   0.4500 
 29 H       -2.7670    -4.9260    -0.2560 H     1 <1>   0.1500 
 30 H        5.0790    -1.9540     2.1850 H     1 <1>   0.0800 
 31 H        5.5990    -1.6870     0.5510 H     1 <1>   0.0800 
 32 H        4.2610    -3.6340    -2.0750 H     1 <1>   0.0800 
 33 H        3.1110    -4.8740    -1.7090 H     1 <1>   0.0800 
 34 H       -5.7980    -1.3610     0.5130 H     1 <1>   0.0800 
 35 H       -5.9620    -1.2040    -1.2380 H     1 <1>   0.0800 
 36 H        5.3970    -4.3880     1.9260 H     1 <1>   0.0800 
 37 H        6.8520    -3.4710     1.7160 H     1 <1>   0.0800 
 38 H        5.2920    -5.7800    -1.4250 H     1 <1>   0.0800 
 39 H        4.5020    -5.7280     0.1140 H     1 <1>   0.0800 
 40 H       -5.8550     1.1100     0.7280 H     1 <1>   0.0800 
 41 H       -7.3030     0.5400    -0.0680 H     1 <1>   0.0800 
 42 H       -6.0230     1.2600    -1.0140 H     1 <1>   0.0800 
 43 H       -4.9380    -5.3560    -0.6800 H     1 <1>   0.0800 
 44 H       -4.2370    -4.8120    -2.2090 H     1 <1>   0.0800 
 45 H        6.9460    -5.0730     0.0420 H     1 <1>   0.0800 
 46 H        6.5050    -3.6300    -0.8060 H     1 <1>   0.0800 
 47 H       -7.1430    -4.4700    -1.3810 H     1 <1>   0.0800 
 48 H       -6.5660    -5.6350    -2.5470 H     1 <1>   0.0800 
 49 H       -6.4450    -3.9290    -2.9000 H     1 <1>   0.0800 
@<TRIPOS>BOND
  1   1   2  2   
  2   2   3  1   
  3   2   4  1   
  4   3   5  ar  
  5   3   6  ar  
  6   4   7  ar  
  7   4   8  ar  
  8   5   9  ar  
  9   5  26  1   
 10   6  10  ar  
 11   6  27  1   
 12   7  11  1   
 13   7  28  1   
 14   8  12  1   
 15   8  13  1   
 16   9  14  1   
 17   9  15  ar  
 18  10  15  ar  
 19  10  29  1   
 20  11  13  2   
 21  11  16  1   
 22  13  17  1   
 23  14  18  1   
 24  15  19  1   
 25  16  20  1   
 26  16  30  1   
 27  16  31  1   
 28  17  21  1   
 29  17  32  1   
 30  17  33  1   
 31  18  22  1   
 32  18  34  1   
 33  18  35  1   
 34  19  23  1   
 35  20  24  1   
 36  20  36  1   
 37  20  37  1   
 38  21  24  1   
 39  21  38  1   
 40  21  39  1   
 41  22  40  1   
 42  22  41  1   
 43  22  42  1   
 44  23  25  1   
 45  23  43  1   
 46  23  44  1   
 47  24  45  1   
 48  24  46  1   
 49  25  47  1   
 50  25  48  1   
 51  25  49  1   
@<TRIPOS>SUBSTRUCTURE
  1 ****   3 GROUP 4 **** **** 0

# MOE 2024.06 (io_trps.svl 2023.06)
