@<TRIPOS>MOLECULE
NONAME
46 49 1 0 0 
SMALL
USER_CHARGES


@<TRIPOS>ATOM
  1 O        2.2130     2.0420     1.4900 O.2   1 <1>  -0.5700 
  2 C        2.0770     2.9530     0.6970 C.2   1 <1>   0.8060 
  3 O        3.1530     3.3800     0.0240 O.3   1 <1>  -0.4300 
  4 C        0.8150     3.6240     0.4360 C.2   1 <1>   0.1410 
  5 C        4.4510     2.8650     0.2280 C.3   1 <1>   0.1200 
  6 N       -0.3510     3.1800     0.9560 N.2   1 <1>  -0.2270 
  7 C        0.5300     4.7430    -0.2830 C.2   1 <1>  -0.3320 
  8 C        4.6440     1.6420    -0.6670 C.3   1 <1>  -0.2400 
  9 N       -1.2960     3.9650     0.5950 N.2   1 <1>  -0.4180 
 10 N       -0.7850     4.9460    -0.1740 N.pl3 1 <1>   0.6470 
 11 C        1.4200     5.6890    -1.0550 C.3   1 <1>   0.3890 
 12 C       -1.6030     5.9470    -0.7630 C.2   1 <1>   0.2120 
 13 N        1.4270     6.9980    -0.3510 N.pl3 1 <1>  -0.8380 
 14 N       -1.6350     6.3020    -1.9970 N.2   1 <1>  -0.4100 
 15 C       -2.5340     6.7020    -0.0600 C.2   1 <1>   0.3720 
 16 C        2.5040     7.1720     0.5350 C.ar  1 <1>   0.1000 
 17 C        1.0070     8.1520    -1.2190 C.3   1 <1>   0.2090 
 18 O       -2.5440     7.2260    -2.0180 O.3   1 <1>   0.2420 
 19 N       -3.1090     7.4950    -0.8740 N.2   1 <1>  -0.4100 
 20 N       -2.8590     6.6630     1.2900 N.pl3 1 <1>  -0.8830 
 21 C        3.4910     8.1290     0.2990 C.ar  1 <1>  -0.1440 
 22 C        2.6170     6.3780     1.6720 C.ar  1 <1>  -0.1500 
 23 C        1.8450     9.4140    -0.9930 C.3   1 <1>  -0.1600 
 24 C        4.5840     8.2360     1.1420 C.ar  1 <1>  -0.1500 
 25 C        3.3300     9.0700    -0.8770 C.3   1 <1>  -0.0170 
 26 C        3.7050     6.4850     2.5160 C.ar  1 <1>  -0.1500 
 27 C        4.6980     7.4100     2.2470 C.ar  1 <1>  -0.1500 
 28 H        4.5820     2.6200     1.2700 H     1 <1>   0.0800 
 29 H        5.1520     3.6380    -0.0360 H     1 <1>   0.0800 
 30 H        3.9540     0.8650    -0.3930 H     1 <1>   0.0800 
 31 H        5.6430     1.2630    -0.5480 H     1 <1>   0.0800 
 32 H        4.5010     1.9080    -1.6990 H     1 <1>   0.0800 
 33 H        1.0530     5.7910    -2.0620 H     1 <1>   0.0800 
 34 H        2.4290     5.3220    -1.1220 H     1 <1>   0.0800 
 35 H       -0.0260     8.3810    -1.0200 H     1 <1>   0.0800 
 36 H        1.0900     7.8790    -2.2560 H     1 <1>   0.0800 
 37 H       -3.7670     7.1010     1.4640 H     1 <1>   0.4000 
 38 H       -2.8280     5.7170     1.6890 H     1 <1>   0.4000 
 39 H        1.8380     5.6810     1.9040 H     1 <1>   0.1500 
 40 H        1.5180     9.8870    -0.0840 H     1 <1>   0.0800 
 41 H        1.6830    10.1040    -1.8010 H     1 <1>   0.0800 
 42 H        5.3480     8.9680     0.9490 H     1 <1>   0.1500 
 43 H        3.6760     8.5890    -1.7750 H     1 <1>   0.0800 
 44 H        3.9010     9.9680    -0.7220 H     1 <1>   0.0800 
 45 H        3.7770     5.8540     3.3850 H     1 <1>   0.1500 
 46 H        5.5480     7.4960     2.9000 H     1 <1>   0.1500 
@<TRIPOS>BOND
  1   1   2  2   
  2   2   3  1   
  3   2   4  1   
  4   3   5  1   
  5   4   6  1   
  6   4   7  2   
  7   5   8  1   
  8   5  28  1   
  9   5  29  1   
 10   6   9  2   
 11   7  10  1   
 12   7  11  1   
 13   8  30  1   
 14   8  31  1   
 15   8  32  1   
 16   9  10  1   
 17  10  12  1   
 18  11  13  1   
 19  11  33  1   
 20  11  34  1   
 21  12  14  2   
 22  12  15  1   
 23  13  16  1   
 24  13  17  1   
 25  14  18  1   
 26  15  19  2   
 27  15  20  1   
 28  16  21  ar  
 29  16  22  ar  
 30  17  23  1   
 31  17  35  1   
 32  17  36  1   
 33  18  19  1   
 34  20  37  1   
 35  20  38  1   
 36  21  24  ar  
 37  21  25  1   
 38  22  26  ar  
 39  22  39  1   
 40  23  25  1   
 41  23  40  1   
 42  23  41  1   
 43  24  27  ar  
 44  24  42  1   
 45  25  43  1   
 46  25  44  1   
 47  26  27  ar  
 48  26  45  1   
 49  27  46  1   
@<TRIPOS>SUBSTRUCTURE
  1 ****  11 GROUP 4 **** **** 0

# MOE 2024.06 (io_trps.svl 2023.06)
