@<TRIPOS>MOLECULE
NONAME
36 36 1 0 0 
SMALL
USER_CHARGES


@<TRIPOS>ATOM
  1 S       -0.1140    -0.2250    -0.5840 S.3   1 <1>  -0.4600 
  2 C       -1.4950    -0.9130     0.3820 C.3   1 <1>   0.2300 
  3 C        1.3820    -1.1380    -0.1060 C.3   1 <1>   0.0700 
  4 C       -2.7030    -0.0260     0.0160 C.3   1 <1>  -0.1600 
  5 C       -1.6860    -2.3680    -0.0600 C.3   1 <1>  -0.2400 
  6 C       -1.1270    -0.8140     1.8660 C.3   1 <1>  -0.2400 
  7 C        2.5330    -0.6400    -0.9770 C.3   1 <1>  -0.0160 
  8 C       -4.0380    -0.3950     0.6910 C.3   1 <1>  -0.1600 
  9 C        3.8150    -1.3730    -0.6200 C.ar  1 <1>  -0.1440 
 10 C       -5.1530     0.5550     0.2450 C.3   1 <1>  -0.2400 
 11 C        4.1850    -2.5430    -1.2510 C.ar  1 <1>  -0.1500 
 12 C        4.6720    -0.9090     0.3580 C.ar  1 <1>  -0.1500 
 13 C        5.3610    -3.1760    -0.8830 C.ar  1 <1>   0.1600 
 14 C        5.8240    -1.6200     0.6500 C.ar  1 <1>   0.1600 
 15 N        6.1890    -2.7440     0.0540 N.ar  1 <1>  -0.6200 
 16 H        1.2040    -2.1850    -0.2660 H     1 <1>   0.0800 
 17 H        1.5740    -0.9420     0.9330 H     1 <1>   0.0800 
 18 H       -2.8390    -0.0640    -1.0510 H     1 <1>   0.0800 
 19 H       -2.4620     0.9930     0.2680 H     1 <1>   0.0800 
 20 H       -1.8810    -2.4110    -1.1170 H     1 <1>   0.0800 
 21 H       -2.5120    -2.8130     0.4600 H     1 <1>   0.0800 
 22 H       -0.8140    -2.9540     0.1560 H     1 <1>   0.0800 
 23 H       -0.9110     0.2070     2.1280 H     1 <1>   0.0800 
 24 H       -0.2730    -1.4220     2.0950 H     1 <1>   0.0800 
 25 H       -1.9390    -1.1590     2.4780 H     1 <1>   0.0800 
 26 H        2.6640     0.4180    -0.8280 H     1 <1>   0.0800 
 27 H        2.2960    -0.8030    -2.0130 H     1 <1>   0.0800 
 28 H       -3.9430    -0.3350     1.7610 H     1 <1>   0.0800 
 29 H       -4.3200    -1.4000     0.4330 H     1 <1>   0.0800 
 30 H       -4.9120     1.5700     0.5110 H     1 <1>   0.0800 
 31 H       -6.0790     0.2870     0.7230 H     1 <1>   0.0800 
 32 H       -5.2910     0.5000    -0.8210 H     1 <1>   0.0800 
 33 H        3.5720    -2.9680    -2.0240 H     1 <1>   0.1500 
 34 H        4.4540    -0.0040     0.8940 H     1 <1>   0.1500 
 35 H        5.6340    -4.0880    -1.3860 H     1 <1>   0.1500 
 36 H        6.4810    -1.2430     1.4160 H     1 <1>   0.1500 
@<TRIPOS>BOND
  1   1   2  1   
  2   1   3  1   
  3   2   4  1   
  4   2   5  1   
  5   2   6  1   
  6   3   7  1   
  7   3  16  1   
  8   3  17  1   
  9   4   8  1   
 10   4  18  1   
 11   4  19  1   
 12   5  20  1   
 13   5  21  1   
 14   5  22  1   
 15   6  23  1   
 16   6  24  1   
 17   6  25  1   
 18   7   9  1   
 19   7  26  1   
 20   7  27  1   
 21   8  10  1   
 22   8  28  1   
 23   8  29  1   
 24   9  11  ar  
 25   9  12  ar  
 26  10  30  1   
 27  10  31  1   
 28  10  32  1   
 29  11  13  ar  
 30  11  33  1   
 31  12  14  ar  
 32  12  34  1   
 33  13  15  ar  
 34  13  35  1   
 35  14  15  ar  
 36  14  36  1   
@<TRIPOS>SUBSTRUCTURE
  1 ****   3 GROUP 4 **** **** 0

# MOE 2024.06 (io_trps.svl 2023.06)
