@<TRIPOS>MOLECULE
NONAME
41 42 1 0 0 
SMALL
USER_CHARGES


@<TRIPOS>ATOM
  1 S       -1.2150     1.4530    -0.4690 S.3   1 <1>  -0.2860 
  2 C        0.5440     1.8050    -0.3730 C.2   1 <1>   0.2420 
  3 C       -1.2440    -0.3920    -0.7260 C.3   1 <1>   0.1310 
  4 N        1.4510     0.8960    -0.4300 N.2   1 <1>  -0.3380 
  5 N        1.0310     3.0370    -0.2320 N.pl3 1 <1>   0.0480 
  6 C       -2.6630    -0.9340    -0.6940 C.2   1 <1>   0.5690 
  7 N        2.6160     1.5410    -0.3200 N.2   1 <1>  -0.3380 
  8 C        2.3510     2.8000    -0.2040 C.2   1 <1>   0.0060 
  9 C        0.2970     4.3180    -0.1380 C.3   1 <1>   0.0960 
 10 O       -2.8930    -1.9540    -1.2970 O.2   1 <1>  -0.5700 
 11 N       -3.6060    -0.2400     0.0160 N.am  1 <1>  -0.5470 
 12 C        3.4130     3.8720    -0.0530 C.3   1 <1>  -0.0600 
 13 C       -0.0700     4.6260     1.3170 C.3   1 <1>  -0.2400 
 14 C       -4.9720    -0.4700     0.2530 C.ar  1 <1>   0.1170 
 15 C       -5.8120     0.6040     0.5730 C.ar  1 <1>  -0.1430 
 16 C       -5.5030    -1.7540     0.2020 C.ar  1 <1>  -0.1500 
 17 C       -7.1600     0.3720     0.8470 C.ar  1 <1>  -0.1430 
 18 C       -5.2250     2.0190     0.6130 C.3   1 <1>  -0.0970 
 19 C       -6.8380    -1.9790     0.4630 C.ar  1 <1>  -0.1500 
 20 C       -7.6610    -0.9190     0.7860 C.ar  1 <1>  -0.1500 
 21 C       -8.1300     1.4870     1.2180 C.3   1 <1>  -0.0970 
 22 H       -0.6580    -0.8350     0.0570 H     1 <1>   0.0800 
 23 H       -0.7860    -0.5880    -1.6780 H     1 <1>   0.0800 
 24 H       -0.5940     4.2540    -0.7370 H     1 <1>   0.0800 
 25 H        0.9130     5.1040    -0.5370 H     1 <1>   0.0800 
 26 H       -3.2730     0.6510     0.3780 H     1 <1>   0.3700 
 27 H        3.3750     4.5510    -0.8860 H     1 <1>   0.0800 
 28 H        4.3870     3.4180    -0.0260 H     1 <1>   0.0800 
 29 H        3.2640     4.4170     0.8610 H     1 <1>   0.0800 
 30 H       -0.7050     3.8540     1.7150 H     1 <1>   0.0800 
 31 H       -0.6000     5.5610     1.3690 H     1 <1>   0.0800 
 32 H        0.8160     4.7040     1.9220 H     1 <1>   0.0800 
 33 H       -4.8720    -2.5890    -0.0380 H     1 <1>   0.1500 
 34 H       -4.6360     2.2000    -0.2690 H     1 <1>   0.0800 
 35 H       -4.6020     2.1290     1.4820 H     1 <1>   0.0800 
 36 H       -5.9800     2.7800     0.6430 H     1 <1>   0.0800 
 37 H       -7.2350    -2.9780     0.4170 H     1 <1>   0.1500 
 38 H       -8.7000    -1.1120     0.9890 H     1 <1>   0.1500 
 39 H       -7.7550     2.0400     2.0600 H     1 <1>   0.0800 
 40 H       -9.0930     1.0920     1.4840 H     1 <1>   0.0800 
 41 H       -8.2600     2.1530     0.3840 H     1 <1>   0.0800 
@<TRIPOS>BOND
  1   1   2  1   
  2   1   3  1   
  3   2   4  2   
  4   2   5  1   
  5   3   6  1   
  6   3  22  1   
  7   3  23  1   
  8   4   7  1   
  9   5   8  1   
 10   5   9  1   
 11   6  10  2   
 12   6  11  am  
 13   7   8  2   
 14   8  12  1   
 15   9  13  1   
 16   9  24  1   
 17   9  25  1   
 18  11  14  1   
 19  11  26  1   
 20  12  27  1   
 21  12  28  1   
 22  12  29  1   
 23  13  30  1   
 24  13  31  1   
 25  13  32  1   
 26  14  15  ar  
 27  14  16  ar  
 28  15  17  ar  
 29  15  18  1   
 30  16  19  ar  
 31  16  33  1   
 32  17  20  ar  
 33  17  21  1   
 34  18  34  1   
 35  18  35  1   
 36  18  36  1   
 37  19  20  ar  
 38  19  37  1   
 39  20  38  1   
 40  21  39  1   
 41  21  40  1   
 42  21  41  1   
@<TRIPOS>SUBSTRUCTURE
  1 ****   1 GROUP 4 **** **** 0

# MOE 2024.06 (io_trps.svl 2023.06)
