@<TRIPOS>MOLECULE
NONAME
30 31 1 0 0 
SMALL
USER_CHARGES


@<TRIPOS>ATOM
  1 CL      -0.0950     2.1440     3.0330 Cl    1 <1>  -0.1770 
  2 C       -0.4780     2.7460     1.4370 C.ar  1 <1>   0.1770 
  3 C        0.5310     3.0280     0.5290 C.ar  1 <1>   0.1770 
  4 C       -1.8020     2.9400     1.0960 C.ar  1 <1>  -0.1500 
  5 CL       2.2130     2.7880     0.9480 Cl    1 <1>  -0.1770 
  6 C        0.2180     3.5100    -0.7290 C.ar  1 <1>  -0.1500 
  7 C       -2.1330     3.4210    -0.1670 C.ar  1 <1>   0.1990 
  8 C       -1.1110     3.7050    -1.0700 C.ar  1 <1>  -0.1500 
  9 N       -3.4490     3.6390    -0.5380 N.am  1 <1>  -0.7570 
 10 S       -4.6700     2.4460    -0.5210 S.o2  1 <1>   1.5760 
 11 O       -4.4970     1.5880     0.6240 O.2   1 <1>  -0.6500 
 12 O       -4.7350     1.9530    -1.8720 O.2   1 <1>  -0.6500 
 13 N       -5.9790     3.4680    -0.2520 N.am  1 <1>  -0.8490 
 14 C       -7.2450     2.8130    -0.6070 C.3   1 <1>   0.1960 
 15 C       -6.0480     3.9360     1.1430 C.3   1 <1>   0.1960 
 16 C       -8.4440     3.7430    -0.3440 C.3   1 <1>   0.1200 
 17 C       -7.2720     4.8450     1.3580 C.3   1 <1>   0.1200 
 18 O       -8.4460     4.1800     0.9860 O.3   1 <1>  -0.5600 
 19 H       -2.5700     2.7190     1.8150 H     1 <1>   0.1500 
 20 H        1.0070     3.7270    -1.4280 H     1 <1>   0.1500 
 21 H       -1.3570     4.0780    -2.0480 H     1 <1>   0.1500 
 22 H       -3.5910     4.1600    -1.3950 H     1 <1>   0.4200 
 23 H       -7.3690     1.9080    -0.0350 H     1 <1>   0.0800 
 24 H       -7.2340     2.5470    -1.6510 H     1 <1>   0.0800 
 25 H       -5.1550     4.4860     1.3850 H     1 <1>   0.0800 
 26 H       -6.1180     3.0990     1.8170 H     1 <1>   0.0800 
 27 H       -9.3670     3.2200    -0.5190 H     1 <1>   0.0800 
 28 H       -8.4030     4.6030    -0.9900 H     1 <1>   0.0800 
 29 H       -7.1830     5.7440     0.7740 H     1 <1>   0.0800 
 30 H       -7.3600     5.1110     2.3970 H     1 <1>   0.0800 
@<TRIPOS>BOND
  1   1   2  1   
  2   2   3  ar  
  3   2   4  ar  
  4   3   5  1   
  5   3   6  ar  
  6   4   7  ar  
  7   4  19  1   
  8   6   8  ar  
  9   6  20  1   
 10   7   8  ar  
 11   7   9  1   
 12   8  21  1   
 13   9  10  am  
 14   9  22  1   
 15  10  11  2   
 16  10  12  2   
 17  10  13  am  
 18  13  14  1   
 19  13  15  1   
 20  14  16  1   
 21  14  23  1   
 22  14  24  1   
 23  15  17  1   
 24  15  25  1   
 25  15  26  1   
 26  16  18  1   
 27  16  27  1   
 28  16  28  1   
 29  17  18  1   
 30  17  29  1   
 31  17  30  1   
@<TRIPOS>SUBSTRUCTURE
  1 ****   9 GROUP 4 **** **** 0

# MOE 2024.06 (io_trps.svl 2023.06)
