@<TRIPOS>MOLECULE
NONAME
44 45 1 0 0 
SMALL
USER_CHARGES


@<TRIPOS>ATOM
  1 P        0.1210     0.1740     0.4050 P.3   1 <1>   1.2420 
  2 O       -0.5750    -0.4670     1.5230 O.2   1 <1>  -0.7000 
  3 O       -0.5700    -0.1110    -1.0220 O.3   1 <1>  -0.5510 
  4 O        0.0380     1.7780     0.4910 O.3   1 <1>  -0.5510 
  5 C        1.8980    -0.1860     0.2250 C.3   1 <1>   0.4330 
  6 C       -0.9960    -1.3800    -1.3850 C.3   1 <1>   0.1200 
  7 C       -1.2000     2.3880     0.5630 C.3   1 <1>   0.1200 
  8 N        2.6870     0.6990    -0.7230 N.pl3 1 <1>  -0.8690 
  9 C        2.1630    -1.6570    -0.1220 C.ar  1 <1>  -0.1440 
 10 C       -2.4610    -1.5380    -0.9880 C.3   1 <1>  -0.2400 
 11 C       -0.9700     3.8930     0.6430 C.3   1 <1>  -0.2400 
 12 C        3.8970     1.1930    -0.2620 C.ar  1 <1>   0.1000 
 13 C        2.0630    -2.6120     0.8820 C.ar  1 <1>  -0.1500 
 14 C        2.4750    -2.0740    -1.4110 C.ar  1 <1>  -0.1500 
 15 C        4.0810     2.5620    -0.1230 C.ar  1 <1>  -0.1500 
 16 C        4.9400     0.3370     0.0710 C.ar  1 <1>  -0.1500 
 17 C        2.2720    -3.9520     0.6060 C.ar  1 <1>  -0.1500 
 18 C        2.6860    -3.4130    -1.6890 C.ar  1 <1>  -0.1500 
 19 C        5.2790     3.0670     0.3500 C.ar  1 <1>  -0.1500 
 20 C        6.1390     0.8390     0.5460 C.ar  1 <1>  -0.1500 
 21 C        2.5840    -4.3540    -0.6800 C.ar  1 <1>  -0.1500 
 22 C        6.3090     2.2050     0.6880 C.ar  1 <1>  -0.1500 
 23 H        2.3360    -0.0320     1.1940 H     1 <1>   0.0800 
 24 H       -0.3780    -2.1250    -0.9120 H     1 <1>   0.0800 
 25 H       -0.8920    -1.4640    -2.4530 H     1 <1>   0.0800 
 26 H       -1.7110     2.0280     1.4410 H     1 <1>   0.0800 
 27 H       -1.7650     2.1320    -0.3180 H     1 <1>   0.0800 
 28 H        2.0700     1.4390    -1.0790 H     1 <1>   0.4000 
 29 H       -2.5730    -1.4790     0.0800 H     1 <1>   0.0800 
 30 H       -2.8200    -2.4980    -1.3110 H     1 <1>   0.0800 
 31 H       -3.0570    -0.7750    -1.4550 H     1 <1>   0.0800 
 32 H       -0.3950     4.1330     1.5190 H     1 <1>   0.0800 
 33 H       -1.9150     4.4010     0.7050 H     1 <1>   0.0800 
 34 H       -0.4520     4.2360    -0.2340 H     1 <1>   0.0800 
 35 H        1.8150    -2.3220     1.8900 H     1 <1>   0.1500 
 36 H        2.5600    -1.3560    -2.2100 H     1 <1>   0.1500 
 37 H        3.2840     3.2330    -0.3830 H     1 <1>   0.1500 
 38 H        4.8110    -0.7230    -0.0490 H     1 <1>   0.1500 
 39 H        2.1920    -4.6820     1.3920 H     1 <1>   0.1500 
 40 H        2.9300    -3.7210    -2.6900 H     1 <1>   0.1500 
 41 H        5.4110     4.1300     0.4560 H     1 <1>   0.1500 
 42 H        6.9390     0.1660     0.8020 H     1 <1>   0.1500 
 43 H        2.7480    -5.3950    -0.8950 H     1 <1>   0.1500 
 44 H        7.2410     2.5970     1.0570 H     1 <1>   0.1500 
@<TRIPOS>BOND
  1   1   2  2   
  2   1   3  1   
  3   1   4  1   
  4   1   5  1   
  5   3   6  1   
  6   4   7  1   
  7   5   8  1   
  8   5   9  1   
  9   5  23  1   
 10   6  10  1   
 11   6  24  1   
 12   6  25  1   
 13   7  11  1   
 14   7  26  1   
 15   7  27  1   
 16   8  12  1   
 17   8  28  1   
 18   9  13  ar  
 19   9  14  ar  
 20  10  29  1   
 21  10  30  1   
 22  10  31  1   
 23  11  32  1   
 24  11  33  1   
 25  11  34  1   
 26  12  15  ar  
 27  12  16  ar  
 28  13  17  ar  
 29  13  35  1   
 30  14  18  ar  
 31  14  36  1   
 32  15  19  ar  
 33  15  37  1   
 34  16  20  ar  
 35  16  38  1   
 36  17  21  ar  
 37  17  39  1   
 38  18  21  ar  
 39  18  40  1   
 40  19  22  ar  
 41  19  41  1   
 42  20  22  ar  
 43  20  42  1   
 44  21  43  1   
 45  22  44  1   
@<TRIPOS>SUBSTRUCTURE
  1 ****   5 GROUP 4 **** **** 0

# MOE 2024.06 (io_trps.svl 2023.06)
