@<TRIPOS>MOLECULE
NONAME
53 56 1 0 0 
SMALL
USER_CHARGES


@<TRIPOS>ATOM
  1 S        0.0880     0.1880     2.0470 S.o2  1 <1>   1.3450 
  2 O       -1.3480     0.3090     1.6980 O.co2 1 <1>  -0.8170 
  3 O        0.8850    -0.5710     1.0560 O.co2 1 <1>  -0.8170 
  4 O        0.2980    -0.2430     3.4510 O.co2 1 <1>  -0.8170 
  5 C        0.6930     1.8940     2.0460 C.3   1 <1>  -0.0550 
  6 C        0.8910     2.5740     0.6700 C.3   1 <1>   0.0610 
  7 C        2.3290     2.5040     0.1330 C.2   1 <1>   0.3280 
  8 C        0.6570     4.1030     0.6510 C.3   1 <1>   0.0000 
  9 C       -0.0100     2.0860    -0.4940 C.3   1 <1>  -0.1600 
 10 N        3.2320     1.7070     0.5340 N.2   1 <1>  -0.4920 
 11 C        2.4180     3.6040    -0.9230 C.3   1 <1>  -0.0990 
 12 C        1.0150     4.2350    -0.8430 C.3   1 <1>  -0.0800 
 13 C        1.5860     4.9090     1.5980 C.3   1 <1>  -0.2400 
 14 C       -0.7840     4.5680     0.9850 C.3   1 <1>  -0.2400 
 15 C        0.0680     3.2290    -1.5240 C.3   1 <1>  -0.1600 
 16 N        4.5250     1.6580     0.0310 N.pl3 1 <1>  -0.1580 
 17 C        5.2610     2.8470    -0.1390 C.ar  1 <1>   0.1000 
 18 C        5.1530     0.3870    -0.0780 C.ar  1 <1>   0.1000 
 19 C        5.7520     3.2060    -1.3900 C.ar  1 <1>  -0.1500 
 20 C        5.5040     3.6880     0.9410 C.ar  1 <1>  -0.1500 
 21 C        6.5420     0.2570    -0.1500 C.ar  1 <1>  -0.1500 
 22 C        4.3970    -0.7860    -0.1160 C.ar  1 <1>  -0.1500 
 23 C        6.4640     4.3800    -1.5590 C.ar  1 <1>  -0.1500 
 24 C        6.2150     4.8630     0.7770 C.ar  1 <1>  -0.1500 
 25 C        7.1460    -0.9820    -0.2720 C.ar  1 <1>  -0.1500 
 26 C        4.9960    -2.0270    -0.2350 C.ar  1 <1>  -0.1500 
 27 C        6.6950     5.2100    -0.4750 C.ar  1 <1>  -0.1500 
 28 C        6.3730    -2.1280    -0.3160 C.ar  1 <1>  -0.1500 
 29 H       -0.0020     2.4680     2.6210 H     1 <1>   0.0800 
 30 H        1.6240     1.9220     2.5750 H     1 <1>   0.0800 
 31 H        0.3570     1.1580    -0.9000 H     1 <1>   0.0800 
 32 H       -1.0260     1.9370    -0.1780 H     1 <1>   0.0800 
 33 H        3.1630     4.3310    -0.6640 H     1 <1>   0.0800 
 34 H        2.6420     3.1950    -1.8910 H     1 <1>   0.0800 
 35 H        0.9600     5.2310    -1.2470 H     1 <1>   0.0800 
 36 H        1.5020     5.9590     1.3840 H     1 <1>   0.0800 
 37 H        2.6230     4.6410     1.5240 H     1 <1>   0.0800 
 38 H        1.2950     4.7510     2.6210 H     1 <1>   0.0800 
 39 H       -0.9880     4.4370     2.0320 H     1 <1>   0.0800 
 40 H       -1.5470     4.0340     0.4510 H     1 <1>   0.0800 
 41 H       -0.8940     5.6120     0.7530 H     1 <1>   0.0800 
 42 H       -0.9050     3.6600    -1.6860 H     1 <1>   0.0800 
 43 H        0.4460     2.8830    -2.4700 H     1 <1>   0.0800 
 44 H        5.5670     2.5540    -2.2250 H     1 <1>   0.1500 
 45 H        5.1250     3.4050     1.9070 H     1 <1>   0.1500 
 46 H        7.1640     1.1310    -0.1070 H     1 <1>   0.1500 
 47 H        3.3220    -0.7320    -0.0450 H     1 <1>   0.1500 
 48 H        6.8380     4.6470    -2.5320 H     1 <1>   0.1500 
 49 H        6.3960     5.5050     1.6210 H     1 <1>   0.1500 
 50 H        8.2170    -1.0540    -0.3280 H     1 <1>   0.1500 
 51 H        4.3790    -2.9080    -0.2570 H     1 <1>   0.1500 
 52 H        7.2490     6.1240    -0.6050 H     1 <1>   0.1500 
 53 H        6.8370    -3.0940    -0.4080 H     1 <1>   0.1500 
@<TRIPOS>BOND
  1   1   2  ar  
  2   1   3  ar  
  3   1   4  ar  
  4   1   5  1   
  5   5   6  1   
  6   5  29  1   
  7   5  30  1   
  8   6   7  1   
  9   6   8  1   
 10   6   9  1   
 11   7  10  2   
 12   7  11  1   
 13   8  12  1   
 14   8  13  1   
 15   8  14  1   
 16   9  15  1   
 17   9  31  1   
 18   9  32  1   
 19  10  16  1   
 20  11  12  1   
 21  11  33  1   
 22  11  34  1   
 23  12  15  1   
 24  12  35  1   
 25  13  36  1   
 26  13  37  1   
 27  13  38  1   
 28  14  39  1   
 29  14  40  1   
 30  14  41  1   
 31  15  42  1   
 32  15  43  1   
 33  16  17  1   
 34  16  18  1   
 35  17  19  ar  
 36  17  20  ar  
 37  18  21  ar  
 38  18  22  ar  
 39  19  23  ar  
 40  19  44  1   
 41  20  24  ar  
 42  20  45  1   
 43  21  25  ar  
 44  21  46  1   
 45  22  26  ar  
 46  22  47  1   
 47  23  27  ar  
 48  23  48  1   
 49  24  27  ar  
 50  24  49  1   
 51  25  28  ar  
 52  25  50  1   
 53  26  28  ar  
 54  26  51  1   
 55  27  52  1   
 56  28  53  1   
@<TRIPOS>SUBSTRUCTURE
  1 ****  10 GROUP 4 **** **** 0

# MOE 2024.06 (io_trps.svl 2023.06)
