@<TRIPOS>MOLECULE
NONAME
25 25 1 0 0 
SMALL
USER_CHARGES


@<TRIPOS>ATOM
  1 CL      -0.4990     1.5870     2.5030 Cl    1 <1>  -0.1770 
  2 C        0.5650     2.2990     1.3080 C.ar  1 <1>   0.1770 
  3 C        0.0150     2.9880     0.2300 C.ar  1 <1>   0.1170 
  4 C        1.9290     2.1520     1.4750 C.ar  1 <1>  -0.1500 
  5 N       -1.3860     3.0980     0.1250 N.am  1 <1>  -0.5470 
  6 C        0.9040     3.5300    -0.6930 C.ar  1 <1>  -0.1500 
  7 C        2.8100     2.6990     0.5460 C.ar  1 <1>  -0.1440 
  8 C       -2.1940     3.8360    -0.6930 C.2   1 <1>   0.5690 
  9 C        2.2730     3.3900    -0.5370 C.ar  1 <1>  -0.1500 
 10 C        4.3300     2.5500     0.7220 C.3   1 <1>   1.1640 
 11 O       -1.7900     4.5810    -1.5490 O.2   1 <1>  -0.5700 
 12 C       -3.6940     3.7010    -0.4960 C.3   1 <1>  -0.0990 
 13 F        4.8370     3.5140     1.4770 F     1 <1>  -0.3400 
 14 F        4.6650     1.4050     1.3040 F     1 <1>  -0.3400 
 15 F        4.9900     2.5870    -0.4290 F     1 <1>  -0.3400 
 16 C       -4.1690     4.2100     0.8760 C.3   1 <1>  -0.2400 
 17 H        2.2910     1.6100     2.3320 H     1 <1>   0.1500 
 18 H       -1.8890     2.5620     0.8330 H     1 <1>   0.3700 
 19 H        0.5360     4.0680    -1.5480 H     1 <1>   0.1500 
 20 H        2.9220     3.8320    -1.2770 H     1 <1>   0.1500 
 21 H       -3.9680     2.6690    -0.6180 H     1 <1>   0.0800 
 22 H       -4.1900     4.2620    -1.2690 H     1 <1>   0.0800 
 23 H       -3.7280     3.6400     1.6730 H     1 <1>   0.0800 
 24 H       -5.2400     4.1270     0.9480 H     1 <1>   0.0800 
 25 H       -3.8980     5.2440     0.9990 H     1 <1>   0.0800 
@<TRIPOS>BOND
  1   1   2  1   
  2   2   3  ar  
  3   2   4  ar  
  4   3   5  1   
  5   3   6  ar  
  6   4   7  ar  
  7   4  17  1   
  8   5   8  am  
  9   5  18  1   
 10   6   9  ar  
 11   6  19  1   
 12   7   9  ar  
 13   7  10  1   
 14   8  11  2   
 15   8  12  1   
 16   9  20  1   
 17  10  13  1   
 18  10  14  1   
 19  10  15  1   
 20  12  16  1   
 21  12  21  1   
 22  12  22  1   
 23  16  23  1   
 24  16  24  1   
 25  16  25  1   
@<TRIPOS>SUBSTRUCTURE
  1 ****   3 GROUP 4 **** **** 0

# MOE 2024.06 (io_trps.svl 2023.06)
