@<TRIPOS>MOLECULE
NONAME
54 56 1 0 0 
SMALL
USER_CHARGES


@<TRIPOS>ATOM
  1 S        2.4870     0.0650     1.0290 S.o2  1 <1>   1.4470 
  2 O        2.0110     0.4950     2.3280 O.2   1 <1>  -0.6500 
  3 O        3.0530    -1.2590     0.8890 O.2   1 <1>  -0.6500 
  4 N        1.1700     0.1460    -0.0330 N.am  1 <1>  -0.8490 
  5 C        3.6440     1.2860     0.3510 C.ar  1 <1>  -0.0090 
  6 C        0.2380    -0.9510     0.1410 C.3   1 <1>   0.1960 
  7 C        0.3720     1.3560     0.0780 C.3   1 <1>   0.1960 
  8 C        3.9350     1.3150    -1.0080 C.ar  1 <1>  -0.1500 
  9 C        4.2770     2.2120     1.1700 C.ar  1 <1>  -0.1500 
 10 C       -1.0250    -0.5020    -0.5870 C.3   1 <1>  -0.1600 
 11 C       -0.9140     1.0220    -0.6650 C.3   1 <1>  -0.1600 
 12 C        4.8260     2.2300    -1.5450 C.ar  1 <1>  -0.1430 
 13 C        5.1710     3.1330     0.6550 C.ar  1 <1>  -0.1500 
 14 C        5.4580     3.1420    -0.7070 C.ar  1 <1>   0.0830 
 15 C        5.1090     2.2200    -3.0400 C.3   1 <1>  -0.0970 
 16 O        6.3620     3.9920    -1.2620 O.3   1 <1>  -0.3630 
 17 C        7.3620     4.6470    -0.4850 C.3   1 <1>   0.1810 
 18 C        8.2920     3.6670     0.2300 C.2   1 <1>   0.5690 
 19 O        8.9320     4.0650     1.1740 O.2   1 <1>  -0.5700 
 20 N        8.3560     2.3780    -0.1960 N.am  1 <1>  -0.7300 
 21 C        9.0200     1.2700     0.5000 C.3   1 <1>   0.2200 
 22 C        9.9560     0.5570    -0.4810 C.3   1 <1>  -0.1600 
 23 C        7.9390     0.3200     1.0300 C.3   1 <1>  -0.1600 
 24 C       10.5830    -0.6910     0.1580 C.3   1 <1>  -0.1600 
 25 C        8.5610    -0.9300     1.6700 C.3   1 <1>  -0.1600 
 26 C        9.5030    -1.6430     0.6910 C.3   1 <1>  -0.1600 
 27 H        0.0270    -1.0900     1.1900 H     1 <1>   0.0800 
 28 H        0.6380    -1.8650    -0.2680 H     1 <1>   0.0800 
 29 H        0.8810     2.2010    -0.3560 H     1 <1>   0.0800 
 30 H        0.1440     1.5620     1.1120 H     1 <1>   0.0800 
 31 H        3.4470     0.6000    -1.6500 H     1 <1>   0.1500 
 32 H        4.0680     2.2110     2.2270 H     1 <1>   0.1500 
 33 H       -1.9020    -0.8170    -0.0500 H     1 <1>   0.0800 
 34 H       -1.0460    -0.9270    -1.5750 H     1 <1>   0.0800 
 35 H       -0.8290     1.3360    -1.6900 H     1 <1>   0.0800 
 36 H       -1.7580     1.5150    -0.2150 H     1 <1>   0.0800 
 37 H        5.6340     3.8290     1.3300 H     1 <1>   0.1500 
 38 H        4.5040     1.4900    -3.5470 H     1 <1>   0.0800 
 39 H        6.1440     1.9910    -3.2160 H     1 <1>   0.0800 
 40 H        4.8950     3.1880    -3.4580 H     1 <1>   0.0800 
 41 H        6.8800     5.2910     0.2260 H     1 <1>   0.0800 
 42 H        7.9450     5.2510    -1.1540 H     1 <1>   0.0800 
 43 H        7.7080     2.0980    -0.9350 H     1 <1>   0.3700 
 44 H        9.5960     1.6510     1.3270 H     1 <1>   0.0800 
 45 H       10.7370     1.2340    -0.7810 H     1 <1>   0.0800 
 46 H        9.4030     0.2610    -1.3550 H     1 <1>   0.0800 
 47 H        7.2960     0.0160     0.2220 H     1 <1>   0.0800 
 48 H        7.3430     0.8350     1.7630 H     1 <1>   0.0800 
 49 H       11.2250    -0.3910     0.9700 H     1 <1>   0.0800 
 50 H       11.1900    -1.2030    -0.5690 H     1 <1>   0.0800 
 51 H        7.7790    -1.6040     1.9750 H     1 <1>   0.0800 
 52 H        9.1110    -0.6420     2.5490 H     1 <1>   0.0800 
 53 H        9.9700    -2.4780     1.1850 H     1 <1>   0.0800 
 54 H        8.9300    -2.0300    -0.1350 H     1 <1>   0.0800 
@<TRIPOS>BOND
  1   1   2  2   
  2   1   3  2   
  3   1   4  am  
  4   1   5  1   
  5   4   6  1   
  6   4   7  1   
  7   5   8  ar  
  8   5   9  ar  
  9   6  10  1   
 10   6  27  1   
 11   6  28  1   
 12   7  11  1   
 13   7  29  1   
 14   7  30  1   
 15   8  12  ar  
 16   8  31  1   
 17   9  13  ar  
 18   9  32  1   
 19  10  11  1   
 20  10  33  1   
 21  10  34  1   
 22  11  35  1   
 23  11  36  1   
 24  12  14  ar  
 25  12  15  1   
 26  13  14  ar  
 27  13  37  1   
 28  14  16  1   
 29  15  38  1   
 30  15  39  1   
 31  15  40  1   
 32  16  17  1   
 33  17  18  1   
 34  17  41  1   
 35  17  42  1   
 36  18  19  2   
 37  18  20  am  
 38  20  21  1   
 39  20  43  1   
 40  21  22  1   
 41  21  23  1   
 42  21  44  1   
 43  22  24  1   
 44  22  45  1   
 45  22  46  1   
 46  23  25  1   
 47  23  47  1   
 48  23  48  1   
 49  24  26  1   
 50  24  49  1   
 51  24  50  1   
 52  25  26  1   
 53  25  51  1   
 54  25  52  1   
 55  26  53  1   
 56  26  54  1   
@<TRIPOS>SUBSTRUCTURE
  1 ****   5 GROUP 4 **** **** 0

# MOE 2024.06 (io_trps.svl 2023.06)
