@<TRIPOS>MOLECULE
NONAME
43 44 1 0 0 
SMALL
USER_CHARGES


@<TRIPOS>ATOM
  1 F       -0.4120     0.7340    -0.4850 F     1 <1>  -0.3400 
  2 C        0.0360    -0.4730    -0.1700 C.3   1 <1>   1.1640 
  3 F        0.8430    -0.8430    -1.1570 F     1 <1>  -0.3400 
  4 F        0.8040    -0.3210     0.9020 F     1 <1>  -0.3400 
  5 C       -1.1190    -1.4650     0.0600 C.ar  1 <1>  -0.1440 
  6 C       -1.6860    -1.6170     1.3210 C.ar  1 <1>  -0.1500 
  7 C       -1.6260    -2.2260    -0.9880 C.ar  1 <1>  -0.1500 
  8 C       -2.7290    -2.5020     1.5290 C.ar  1 <1>  -0.1500 
  9 C       -2.6680    -3.1130    -0.7830 C.ar  1 <1>  -0.1500 
 10 C       -3.2310    -3.2530     0.4770 C.ar  1 <1>  -0.1430 
 11 C       -4.3840    -4.2130     0.7020 C.3   1 <1>   0.4870 
 12 N       -5.6140    -3.6380     0.0900 N.4   1 <1>  -0.9590 
 13 C       -6.0100    -2.3560     0.7430 C.3   1 <1>   0.3430 
 14 C       -6.7240    -4.6310     0.0700 C.3   1 <1>   0.3430 
 15 C       -7.1840    -1.7360    -0.0140 C.3   1 <1>  -0.1600 
 16 C       -7.9070    -4.0550    -0.7050 C.3   1 <1>  -0.1600 
 17 C       -8.3750    -2.7040    -0.1270 C.3   1 <1>  -0.0190 
 18 C       -9.4960    -2.0840    -0.9570 C.2   1 <1>   0.6590 
 19 O       -9.5070    -2.1610    -2.1580 O.2   1 <1>  -0.5700 
 20 O      -10.4340    -1.4480    -0.2720 O.3   1 <1>  -0.4300 
 21 C      -11.5190    -0.8220    -0.9190 C.3   1 <1>   0.1200 
 22 C      -12.4020    -0.1850     0.1480 C.3   1 <1>  -0.2400 
 23 H       -1.3130    -1.0420     2.1550 H     1 <1>   0.1500 
 24 H       -1.2050    -2.1320    -1.9770 H     1 <1>   0.1500 
 25 H       -3.1360    -2.5970     2.5220 H     1 <1>   0.1500 
 26 H       -3.0250    -3.6910    -1.6190 H     1 <1>   0.1500 
 27 H       -4.5300    -4.3720     1.7580 H     1 <1>   0.0800 
 28 H       -4.1480    -5.1590     0.2430 H     1 <1>   0.0800 
 29 H       -5.3730    -3.4080    -0.8830 H     1 <1>   0.4500 
 30 H       -5.1810    -1.6640     0.7380 H     1 <1>   0.0800 
 31 H       -6.2940    -2.5370     1.7670 H     1 <1>   0.0800 
 32 H       -7.0300    -4.8610     1.0780 H     1 <1>   0.0800 
 33 H       -6.3980    -5.5440    -0.4040 H     1 <1>   0.0800 
 34 H       -6.8570    -1.4400    -0.9970 H     1 <1>   0.0800 
 35 H       -7.4980    -0.8430     0.4990 H     1 <1>   0.0800 
 36 H       -8.7230    -4.7570    -0.6730 H     1 <1>   0.0800 
 37 H       -7.6280    -3.9400    -1.7390 H     1 <1>   0.0800 
 38 H       -8.7690    -2.8790     0.8600 H     1 <1>   0.0800 
 39 H      -12.0620    -1.5680    -1.4760 H     1 <1>   0.0800 
 40 H      -11.1320    -0.0780    -1.5960 H     1 <1>   0.0800 
 41 H      -12.7740    -0.9360     0.8210 H     1 <1>   0.0800 
 42 H      -13.2400     0.3000    -0.3190 H     1 <1>   0.0800 
 43 H      -11.8460     0.5520     0.7010 H     1 <1>   0.0800 
@<TRIPOS>BOND
  1   1   2  1   
  2   2   3  1   
  3   2   4  1   
  4   2   5  1   
  5   5   6  ar  
  6   5   7  ar  
  7   6   8  ar  
  8   6  23  1   
  9   7   9  ar  
 10   7  24  1   
 11   8  10  ar  
 12   8  25  1   
 13   9  10  ar  
 14   9  26  1   
 15  10  11  1   
 16  11  12  1   
 17  11  27  1   
 18  11  28  1   
 19  12  13  1   
 20  12  14  1   
 21  12  29  1   
 22  13  15  1   
 23  13  30  1   
 24  13  31  1   
 25  14  16  1   
 26  14  32  1   
 27  14  33  1   
 28  15  17  1   
 29  15  34  1   
 30  15  35  1   
 31  16  17  1   
 32  16  36  1   
 33  16  37  1   
 34  17  18  1   
 35  17  38  1   
 36  18  19  2   
 37  18  20  1   
 38  20  21  1   
 39  21  22  1   
 40  21  39  1   
 41  21  40  1   
 42  22  41  1   
 43  22  42  1   
 44  22  43  1   
@<TRIPOS>SUBSTRUCTURE
  1 ****  13 GROUP 4 **** **** 0

# MOE 2024.06 (io_trps.svl 2023.06)
