@<TRIPOS>MOLECULE
NONAME
40 43 1 0 0 
SMALL
USER_CHARGES


@<TRIPOS>ATOM
  1 O       -1.1630     1.6780    -1.8470 O.2   1 <1>  -0.5700 
  2 C       -0.2720     2.1620    -1.1920 C.2   1 <1>   0.5690 
  3 N        1.0490     2.0020    -1.5730 N.am  1 <1>  -0.2370 
  4 C       -0.6030     2.9370     0.0920 C.3   1 <1>  -0.0190 
  5 C        2.0950     2.0390    -0.6240 C.ar  1 <1>   0.1170 
  6 C        1.3320     1.7240    -2.8960 C.2   1 <1>   0.5700 
  7 C       -2.0500     2.7760     0.6110 C.3   1 <1>   0.1530 
  8 C       -0.3990     4.4950     0.0720 C.3   1 <1>  -0.0800 
  9 C        3.0240     3.0730    -0.6170 C.ar  1 <1>  -0.1500 
 10 C        2.2050     1.0350     0.3330 C.ar  1 <1>  -0.1500 
 11 O        2.4470     1.6140    -3.3450 O.2   1 <1>  -0.5700 
 12 C       -3.0080     3.4300    -0.3700 C.2   1 <1>  -0.2880 
 13 C       -2.0340     3.8930     1.6450 C.3   1 <1>  -0.1900 
 14 C       -1.7200     5.0280     0.6820 C.3   1 <1>   0.1530 
 15 C       -0.0810     5.1230    -1.3010 C.3   1 <1>  -0.2400 
 16 C        4.0220     3.1200     0.3410 C.ar  1 <1>  -0.1500 
 17 C        3.2010     1.0790     1.2920 C.ar  1 <1>  -0.1500 
 18 C       -2.8220     4.7470    -0.3220 C.2   1 <1>  -0.2880 
 19 C       -3.0050     4.0010     2.7710 C.3   1 <1>  -0.2000 
 20 C       -1.5310     3.7770     3.0450 C.3   1 <1>  -0.2000 
 21 C        4.1080     2.1250     1.2980 C.ar  1 <1>  -0.1500 
 22 H        0.0200     2.5430     0.8720 H     1 <1>   0.0800 
 23 H        0.5030     1.6120    -3.5740 H     1 <1>   0.0600 
 24 H       -2.3360     1.8080     0.9830 H     1 <1>   0.0800 
 25 H        0.4030     4.7410     0.7480 H     1 <1>   0.0800 
 26 H        2.9760     3.8400    -1.3680 H     1 <1>   0.1500 
 27 H        1.5090     0.2150     0.3290 H     1 <1>   0.1500 
 28 H       -3.6680     2.8260    -0.9690 H     1 <1>   0.1500 
 29 H       -1.7090     6.0140     1.1120 H     1 <1>   0.0800 
 30 H       -0.8040     4.8290    -2.0430 H     1 <1>   0.0800 
 31 H        0.8930     4.8290    -1.6410 H     1 <1>   0.0800 
 32 H       -0.0940     6.1950    -1.2240 H     1 <1>   0.0800 
 33 H        4.7350     3.9260     0.3380 H     1 <1>   0.1500 
 34 H        3.2760     0.3000     2.0300 H     1 <1>   0.1500 
 35 H       -3.2890     5.5490    -0.8660 H     1 <1>   0.1500 
 36 H       -3.6960     3.1930     2.9350 H     1 <1>   0.1000 
 37 H       -3.4370     4.9630     2.9900 H     1 <1>   0.1000 
 38 H       -0.9620     4.5870     3.4670 H     1 <1>   0.1000 
 39 H       -1.2250     2.8160     3.4200 H     1 <1>   0.1000 
 40 H        4.8850     2.1600     2.0430 H     1 <1>   0.1500 
@<TRIPOS>BOND
  1   1   2  2   
  2   2   3  am  
  3   2   4  1   
  4   3   5  1   
  5   3   6  am  
  6   4   7  1   
  7   4   8  1   
  8   4  22  1   
  9   5   9  ar  
 10   5  10  ar  
 11   6  11  2   
 12   6  23  1   
 13   7  12  1   
 14   7  13  1   
 15   7  24  1   
 16   8  14  1   
 17   8  15  1   
 18   8  25  1   
 19   9  16  ar  
 20   9  26  1   
 21  10  17  ar  
 22  10  27  1   
 23  12  18  2   
 24  12  28  1   
 25  13  14  1   
 26  13  19  1   
 27  13  20  1   
 28  14  18  1   
 29  14  29  1   
 30  15  30  1   
 31  15  31  1   
 32  15  32  1   
 33  16  21  ar  
 34  16  33  1   
 35  17  21  ar  
 36  17  34  1   
 37  18  35  1   
 38  19  20  1   
 39  19  36  1   
 40  19  37  1   
 41  20  38  1   
 42  20  39  1   
 43  21  40  1   
@<TRIPOS>SUBSTRUCTURE
  1 ****   4 GROUP 4 **** **** 0

# MOE 2024.06 (io_trps.svl 2023.06)
