@<TRIPOS>MOLECULE
NONAME
47 49 1 0 0 
SMALL
USER_CHARGES


@<TRIPOS>ATOM
  1 F        0.3170    -1.1620    -1.7080 F     1 <1>  -0.1900 
  2 C        1.1370    -2.1340    -1.4150 C.ar  1 <1>   0.1900 
  3 C        0.8950    -2.8940    -0.2880 C.ar  1 <1>  -0.1500 
  4 C        2.2160    -2.3680    -2.2440 C.ar  1 <1>  -0.1500 
  5 C        1.7690    -3.9230     0.0210 C.ar  1 <1>  -0.1500 
  6 C        3.0860    -3.3990    -1.9280 C.ar  1 <1>  -0.1500 
  7 C        2.8700    -4.1750    -0.7930 C.ar  1 <1>  -0.1430 
  8 C        3.8360    -5.2930    -0.4460 C.3   1 <1>   0.4870 
  9 N        4.6880    -4.8550     0.6920 N.4   1 <1>  -0.9590 
 10 C        5.5430    -3.6750     0.2950 C.3   1 <1>   0.3430 
 11 C        5.5270    -6.0020     1.1950 C.3   1 <1>   0.3430 
 12 C        6.5280    -3.2570     1.4080 C.3   1 <1>   0.1400 
 13 C        6.5160    -5.5680     2.3000 C.3   1 <1>   0.1400 
 14 N        7.3500    -4.4220     1.8370 N.am  1 <1>  -0.6600 
 15 C        8.4010    -4.7350     1.0320 C.2   1 <1>   0.6900 
 16 O        8.1710    -5.2360    -0.0520 O.2   1 <1>  -0.5700 
 17 N        9.6540    -4.4770     1.4830 N.am  1 <1>  -0.5470 
 18 C       10.8810    -4.7990     0.8900 C.ar  1 <1>   0.1170 
 19 C       11.3020    -4.2590    -0.3290 C.ar  1 <1>  -0.1430 
 20 C       11.7210    -5.6790     1.5630 C.ar  1 <1>  -0.1500 
 21 C       12.5330    -4.6250    -0.8510 C.ar  1 <1>  -0.1500 
 22 C       10.4520    -3.2670    -1.1110 C.3   1 <1>  -0.0970 
 23 C       12.9490    -6.0340     1.0380 C.ar  1 <1>  -0.1500 
 24 C       13.3560    -5.5080    -0.1730 C.ar  1 <1>  -0.1500 
 25 H        0.0370    -2.6810     0.3260 H     1 <1>   0.1500 
 26 H        2.3630    -1.7560    -3.1170 H     1 <1>   0.1500 
 27 H        1.5730    -4.5210     0.8950 H     1 <1>   0.1500 
 28 H        3.9240    -3.5870    -2.5790 H     1 <1>   0.1500 
 29 H        4.4490    -5.5310    -1.3000 H     1 <1>   0.0800 
 30 H        3.2760    -6.1730    -0.1740 H     1 <1>   0.0800 
 31 H        4.0600    -4.5420     1.4400 H     1 <1>   0.4500 
 32 H        4.9170    -2.8340     0.0440 H     1 <1>   0.0800 
 33 H        6.1200    -3.9290    -0.5810 H     1 <1>   0.0800 
 34 H        6.1030    -6.4100     0.3790 H     1 <1>   0.0800 
 35 H        4.8930    -6.7850     1.5760 H     1 <1>   0.0800 
 36 H        5.9900    -2.8600     2.2520 H     1 <1>   0.0800 
 37 H        7.1750    -2.4810     1.0350 H     1 <1>   0.0800 
 38 H        7.1570    -6.3990     2.5440 H     1 <1>   0.0800 
 39 H        5.9820    -5.2910     3.1920 H     1 <1>   0.0800 
 40 H        9.6930    -4.1790     2.4540 H     1 <1>   0.3700 
 41 H       11.4090    -6.0960     2.5020 H     1 <1>   0.1500 
 42 H       12.8630    -4.2220    -1.7920 H     1 <1>   0.1500 
 43 H        9.9730    -2.5740    -0.4450 H     1 <1>   0.0800 
 44 H        9.7020    -3.7950    -1.6710 H     1 <1>   0.0800 
 45 H       11.0580    -2.7040    -1.7980 H     1 <1>   0.0800 
 46 H       13.5870    -6.7200     1.5680 H     1 <1>   0.1500 
 47 H       14.3090    -5.7830    -0.5890 H     1 <1>   0.1500 
@<TRIPOS>BOND
  1   1   2  1   
  2   2   3  ar  
  3   2   4  ar  
  4   3   5  ar  
  5   3  25  1   
  6   4   6  ar  
  7   4  26  1   
  8   5   7  ar  
  9   5  27  1   
 10   6   7  ar  
 11   6  28  1   
 12   7   8  1   
 13   8   9  1   
 14   8  29  1   
 15   8  30  1   
 16   9  10  1   
 17   9  11  1   
 18   9  31  1   
 19  10  12  1   
 20  10  32  1   
 21  10  33  1   
 22  11  13  1   
 23  11  34  1   
 24  11  35  1   
 25  12  14  1   
 26  12  36  1   
 27  12  37  1   
 28  13  14  1   
 29  13  38  1   
 30  13  39  1   
 31  14  15  am  
 32  15  16  2   
 33  15  17  am  
 34  17  18  1   
 35  17  40  1   
 36  18  19  ar  
 37  18  20  ar  
 38  19  21  ar  
 39  19  22  1   
 40  20  23  ar  
 41  20  41  1   
 42  21  24  ar  
 43  21  42  1   
 44  22  43  1   
 45  22  44  1   
 46  22  45  1   
 47  23  24  ar  
 48  23  46  1   
 49  24  47  1   
@<TRIPOS>SUBSTRUCTURE
  1 ****  10 GROUP 4 **** **** 0

# MOE 2024.06 (io_trps.svl 2023.06)
