@<TRIPOS>MOLECULE
NONAME
55 57 1 0 0 
SMALL
USER_CHARGES


@<TRIPOS>ATOM
  1 O        0.2970     0.0270    -0.1100 O.2   1 <1>  -0.5700 
  2 C        0.9950     1.0250    -0.1220 C.2   1 <1>   0.5440 
  3 N        0.3800     2.2610    -0.0990 N.am  1 <1>  -0.6600 
  4 C        2.4380     0.8820    -0.1460 C.ar  1 <1>   0.0860 
  5 C       -1.0860     2.4230    -0.3410 C.3   1 <1>   0.1400 
  6 C        1.0320     3.5050     0.4110 C.3   1 <1>   0.1400 
  7 C        3.2400     1.6360    -1.0030 C.ar  1 <1>  -0.1500 
  8 C        3.0840    -0.0320     0.6870 C.ar  1 <1>  -0.1500 
  9 C       -1.7660     3.0770     0.8720 C.3   1 <1>   0.1200 
 10 C        0.2200     4.1080     1.5720 C.3   1 <1>   0.1200 
 11 C        4.6150     1.5040    -1.0090 C.ar  1 <1>  -0.1500 
 12 C        4.4590    -0.1660     0.6830 C.ar  1 <1>  -0.1500 
 13 O       -1.1220     4.2740     1.2110 O.3   1 <1>  -0.5600 
 14 C        5.2520     0.6050    -0.1590 C.ar  1 <1>   0.1170 
 15 N        6.6380     0.4300    -0.1310 N.am  1 <1>  -0.5470 
 16 C        7.6860     1.2590    -0.4580 C.2   1 <1>   0.5440 
 17 O        7.4430     2.4060    -0.7850 O.2   1 <1>  -0.5700 
 18 C        9.0640     0.7870    -0.4210 C.ar  1 <1>   0.0860 
 19 C        9.4940    -0.3770     0.2500 C.ar  1 <1>   0.0830 
 20 C       10.0460     1.5260    -1.0920 C.ar  1 <1>  -0.1500 
 21 O        8.5800    -1.1220     0.9270 O.3   1 <1>  -0.3620 
 22 C       10.8340    -0.7540     0.2220 C.ar  1 <1>  -0.1500 
 23 C       11.3740     1.1500    -1.1150 C.ar  1 <1>  -0.1500 
 24 C        8.9170    -2.2600     1.6870 C.3   1 <1>   0.1200 
 25 C       11.7770    -0.0030    -0.4530 C.ar  1 <1>   0.0830 
 26 C        7.6350    -2.7950     2.3160 C.3   1 <1>  -0.2400 
 27 O       13.0530    -0.4480    -0.4230 O.3   1 <1>  -0.3620 
 28 C       14.0970     0.2410    -1.0690 C.3   1 <1>   0.1200 
 29 C       15.3910    -0.5310    -0.8300 C.3   1 <1>  -0.2400 
 30 H       -1.5490     1.4730    -0.5390 H     1 <1>   0.0800 
 31 H       -1.2320     3.0450    -1.2060 H     1 <1>   0.0800 
 32 H        1.0940     4.2240    -0.3870 H     1 <1>   0.0800 
 33 H        2.0290     3.3000     0.7570 H     1 <1>   0.0800 
 34 H        2.7730     2.3330    -1.6770 H     1 <1>   0.1500 
 35 H        2.4860    -0.6410     1.3430 H     1 <1>   0.1500 
 36 H       -1.7400     2.4150     1.7200 H     1 <1>   0.0800 
 37 H       -2.7910     3.3080     0.6430 H     1 <1>   0.0800 
 38 H        0.6110     5.0750     1.8350 H     1 <1>   0.0800 
 39 H        0.2680     3.4690     2.4360 H     1 <1>   0.0800 
 40 H        5.2010     2.1010    -1.6840 H     1 <1>   0.1500 
 41 H        4.9250    -0.8760     1.3410 H     1 <1>   0.1500 
 42 H        6.9610    -0.4460     0.2900 H     1 <1>   0.3700 
 43 H        9.7570     2.4240    -1.6120 H     1 <1>   0.1500 
 44 H       11.1880    -1.6350     0.7200 H     1 <1>   0.1500 
 45 H       12.0760     1.7630    -1.6490 H     1 <1>   0.1500 
 46 H        9.6220    -1.9690     2.4480 H     1 <1>   0.0800 
 47 H        9.3550    -2.9940     1.0320 H     1 <1>   0.0800 
 48 H        7.1950    -2.0500     2.9550 H     1 <1>   0.0800 
 49 H        7.8580    -3.6640     2.9090 H     1 <1>   0.0800 
 50 H        6.9330    -3.0760     1.5510 H     1 <1>   0.0800 
 51 H       14.1620     1.2310    -0.6510 H     1 <1>   0.0800 
 52 H       13.8730     0.2920    -2.1210 H     1 <1>   0.0800 
 53 H       15.5970    -0.5900     0.2240 H     1 <1>   0.0800 
 54 H       16.2100    -0.0280    -1.3120 H     1 <1>   0.0800 
 55 H       15.3100    -1.5230    -1.2360 H     1 <1>   0.0800 
@<TRIPOS>BOND
  1   1   2  2   
  2   2   3  am  
  3   2   4  1   
  4   3   5  1   
  5   3   6  1   
  6   4   7  ar  
  7   4   8  ar  
  8   5   9  1   
  9   5  30  1   
 10   5  31  1   
 11   6  10  1   
 12   6  32  1   
 13   6  33  1   
 14   7  11  ar  
 15   7  34  1   
 16   8  12  ar  
 17   8  35  1   
 18   9  13  1   
 19   9  36  1   
 20   9  37  1   
 21  10  13  1   
 22  10  38  1   
 23  10  39  1   
 24  11  14  ar  
 25  11  40  1   
 26  12  14  ar  
 27  12  41  1   
 28  14  15  1   
 29  15  16  am  
 30  15  42  1   
 31  16  17  2   
 32  16  18  1   
 33  18  19  ar  
 34  18  20  ar  
 35  19  21  1   
 36  19  22  ar  
 37  20  23  ar  
 38  20  43  1   
 39  21  24  1   
 40  22  25  ar  
 41  22  44  1   
 42  23  25  ar  
 43  23  45  1   
 44  24  26  1   
 45  24  46  1   
 46  24  47  1   
 47  25  27  1   
 48  26  48  1   
 49  26  49  1   
 50  26  50  1   
 51  27  28  1   
 52  28  29  1   
 53  28  51  1   
 54  28  52  1   
 55  29  53  1   
 56  29  54  1   
 57  29  55  1   
@<TRIPOS>SUBSTRUCTURE
  1 ****  15 GROUP 4 **** **** 0

# MOE 2024.06 (io_trps.svl 2023.06)
