@<TRIPOS>MOLECULE
NONAME
51 53 1 0 0 
SMALL
USER_CHARGES


@<TRIPOS>ATOM
  1 CL      -0.7990    -0.8830     0.5200 Cl    1 <1>  -0.1770 
  2 C       -1.9680     0.3440     0.1010 C.ar  1 <1>   0.1770 
  3 C       -3.2970    -0.0080    -0.0320 C.ar  1 <1>  -0.1500 
  4 C       -1.5400     1.6440    -0.0930 C.ar  1 <1>  -0.1500 
  5 C       -4.2390     0.9570    -0.3620 C.ar  1 <1>   0.1170 
  6 C       -2.4690     2.6150    -0.4290 C.ar  1 <1>  -0.1500 
  7 N       -5.5820     0.5760    -0.5000 N.am  1 <1>  -0.5470 
  8 C       -3.8100     2.2770    -0.5600 C.ar  1 <1>   0.0830 
  9 C       -6.6480     1.0640     0.1850 C.2   1 <1>   0.6900 
 10 O       -4.7060     3.2340    -0.9120 O.3   1 <1>  -0.3630 
 11 O       -6.5170     1.7080     1.2090 O.2   1 <1>  -0.5700 
 12 N       -7.8870     0.8130    -0.3020 N.am  1 <1>  -0.7300 
 13 C       -4.8810     4.2920     0.0050 C.3   1 <1>   0.0400 
 14 C       -9.1070     1.3150     0.3400 C.3   1 <1>   0.2200 
 15 C      -10.2850     0.4070     0.0000 C.3   1 <1>  -0.1600 
 16 C       -9.3710     2.7450    -0.1280 C.3   1 <1>  -0.1600 
 17 C      -11.5700     0.9610     0.6110 C.3   1 <1>   0.3430 
 18 C      -10.6590     3.2740     0.4930 C.3   1 <1>   0.3430 
 19 N      -11.7920     2.3660     0.1500 N.4   1 <1>  -0.9590 
 20 C      -13.0850     2.9050     0.6550 C.3   1 <1>   0.4860 
 21 C      -14.2110     2.0860     0.0560 C.ar  1 <1>  -0.1430 
 22 C      -14.9010     1.1700     0.8370 C.ar  1 <1>  -0.1500 
 23 C      -14.5550     2.2410    -1.2800 C.ar  1 <1>  -0.1500 
 24 C      -15.9140     0.4070     0.2850 C.ar  1 <1>  -0.1500 
 25 C      -15.5680     1.4760    -1.8310 C.ar  1 <1>  -0.1500 
 26 C      -16.2470     0.5580    -1.0490 C.ar  1 <1>  -0.1500 
 27 H       -3.5940    -1.0260     0.1310 H     1 <1>   0.1500 
 28 H       -0.4980     1.8880     0.0140 H     1 <1>   0.1500 
 29 H       -2.1500     3.6270    -0.5980 H     1 <1>   0.1500 
 30 H       -5.7720    -0.1930    -1.1340 H     1 <1>   0.3700 
 31 H       -7.9630     0.5050    -1.2700 H     1 <1>   0.3700 
 32 H       -5.7230     4.8770    -0.3150 H     1 <1>   0.0800 
 33 H       -3.9950     4.9000     0.0180 H     1 <1>   0.0800 
 34 H       -5.0690     3.8790     0.9810 H     1 <1>   0.0800 
 35 H       -8.9600     1.3140     1.4100 H     1 <1>   0.0800 
 36 H      -10.1040    -0.5750     0.4020 H     1 <1>   0.0800 
 37 H      -10.4040     0.3200    -1.0650 H     1 <1>   0.0800 
 38 H       -9.4380     2.7880    -1.2000 H     1 <1>   0.0800 
 39 H       -8.5540     3.3740     0.1830 H     1 <1>   0.0800 
 40 H      -11.4950     0.9360     1.6870 H     1 <1>   0.0800 
 41 H      -12.4010     0.3380     0.3170 H     1 <1>   0.0800 
 42 H      -10.8520     4.2680     0.1220 H     1 <1>   0.0800 
 43 H      -10.5420     3.3270     1.5640 H     1 <1>   0.0800 
 44 H      -11.8840     2.3290    -0.8730 H     1 <1>   0.4500 
 45 H      -13.2020     3.9350     0.3580 H     1 <1>   0.0800 
 46 H      -13.1210     2.8520     1.7310 H     1 <1>   0.0800 
 47 H      -14.6660     1.0380     1.8800 H     1 <1>   0.1500 
 48 H      -14.0500     2.9540    -1.9090 H     1 <1>   0.1500 
 49 H      -16.4510    -0.3040     0.8900 H     1 <1>   0.1500 
 50 H      -15.8370     1.5950    -2.8670 H     1 <1>   0.1500 
 51 H      -17.0370    -0.0350    -1.4790 H     1 <1>   0.1500 
@<TRIPOS>BOND
  1   1   2  1   
  2   2   3  ar  
  3   2   4  ar  
  4   3   5  ar  
  5   3  27  1   
  6   4   6  ar  
  7   4  28  1   
  8   5   7  1   
  9   5   8  ar  
 10   6   8  ar  
 11   6  29  1   
 12   7   9  am  
 13   7  30  1   
 14   8  10  1   
 15   9  11  2   
 16   9  12  am  
 17  10  13  1   
 18  12  14  1   
 19  12  31  1   
 20  13  32  1   
 21  13  33  1   
 22  13  34  1   
 23  14  15  1   
 24  14  16  1   
 25  14  35  1   
 26  15  17  1   
 27  15  36  1   
 28  15  37  1   
 29  16  18  1   
 30  16  38  1   
 31  16  39  1   
 32  17  19  1   
 33  17  40  1   
 34  17  41  1   
 35  18  19  1   
 36  18  42  1   
 37  18  43  1   
 38  19  20  1   
 39  19  44  1   
 40  20  21  1   
 41  20  45  1   
 42  20  46  1   
 43  21  22  ar  
 44  21  23  ar  
 45  22  24  ar  
 46  22  47  1   
 47  23  25  ar  
 48  23  48  1   
 49  24  26  ar  
 50  24  49  1   
 51  25  26  ar  
 52  25  50  1   
 53  26  51  1   
@<TRIPOS>SUBSTRUCTURE
  1 ****  14 GROUP 4 **** **** 0

# MOE 2024.06 (io_trps.svl 2023.06)
