@<TRIPOS>MOLECULE
NONAME
44 45 1 0 0 
SMALL
USER_CHARGES


@<TRIPOS>ATOM
  1 CL       0.2360     1.3770    -2.0920 Cl    1 <1>  -0.1770 
  2 C        0.9600     2.5100    -0.9710 C.ar  1 <1>   0.1770 
  3 C        0.2270     3.5920    -0.5000 C.ar  1 <1>   0.0830 
  4 C        2.2620     2.2900    -0.5700 C.ar  1 <1>  -0.1500 
  5 O       -1.0550     3.7500    -0.9000 O.3   1 <1>  -0.3630 
  6 C        0.8460     4.4790     0.3890 C.ar  1 <1>   0.0830 
  7 C        2.8880     3.1560     0.3240 C.ar  1 <1>   0.0860 
  8 C       -2.0330     3.1830    -0.0590 C.3   1 <1>   0.1200 
  9 O        0.2530     5.5870     0.9060 O.3   1 <1>  -0.3620 
 10 C        2.1470     4.2400     0.7970 C.ar  1 <1>  -0.1500 
 11 C        4.2550     2.9200     0.7490 C.2   1 <1>   0.5440 
 12 C       -3.4080     3.4680    -0.6640 C.3   1 <1>  -0.1600 
 13 C       -0.5270     6.4160     0.0720 C.3   1 <1>   0.1200 
 14 O        4.5840     1.7960     1.0760 O.2   1 <1>  -0.5700 
 15 N        5.1980     3.9260     0.7840 N.am  1 <1>  -0.6600 
 16 C       -4.5290     2.8880     0.2050 C.3   1 <1>  -0.2400 
 17 C       -0.5560     7.8110     0.6880 C.3   1 <1>  -0.2400 
 18 C        5.1190     5.1800    -0.0260 C.3   1 <1>   0.1400 
 19 C        6.5220     3.7480     1.4550 C.3   1 <1>   0.1400 
 20 C        6.3540     5.3190    -0.9330 C.3   1 <1>   0.1200 
 21 C        7.6690     3.9630     0.4560 C.3   1 <1>   0.1200 
 22 O        7.5340     5.1980    -0.1910 O.3   1 <1>  -0.5600 
 23 H        2.7990     1.4370    -0.9460 H     1 <1>   0.1500 
 24 H       -1.9410     3.6270     0.9170 H     1 <1>   0.0800 
 25 H       -1.8550     2.1230     0.0040 H     1 <1>   0.0800 
 26 H        2.5970     4.9140     1.5030 H     1 <1>   0.1500 
 27 H       -3.4580     3.0310    -1.6460 H     1 <1>   0.0800 
 28 H       -3.5440     4.5320    -0.7530 H     1 <1>   0.0800 
 29 H       -1.5210     6.0100     0.0170 H     1 <1>   0.0800 
 30 H       -0.0850     6.4390    -0.9100 H     1 <1>   0.0800 
 31 H       -4.4230     1.8200     0.2930 H     1 <1>   0.0800 
 32 H       -5.4850     3.0990    -0.2410 H     1 <1>   0.0800 
 33 H       -4.5080     3.3220     1.1890 H     1 <1>   0.0800 
 34 H       -0.9910     7.7730     1.6700 H     1 <1>   0.0800 
 35 H       -1.1490     8.4660     0.0760 H     1 <1>   0.0800 
 36 H        0.4410     8.2090     0.7510 H     1 <1>   0.0800 
 37 H        5.0690     6.0260     0.6360 H     1 <1>   0.0800 
 38 H        4.2370     5.1830    -0.6410 H     1 <1>   0.0800 
 39 H        6.6050     2.7650     1.8860 H     1 <1>   0.0800 
 40 H        6.6110     4.4630     2.2540 H     1 <1>   0.0800 
 41 H        6.3620     6.2860    -1.4040 H     1 <1>   0.0800 
 42 H        6.3490     4.5620    -1.6970 H     1 <1>   0.0800 
 43 H        7.6760     3.1810    -0.2830 H     1 <1>   0.0800 
 44 H        8.6140     3.9620     0.9700 H     1 <1>   0.0800 
@<TRIPOS>BOND
  1   1   2  1   
  2   2   3  ar  
  3   2   4  ar  
  4   3   5  1   
  5   3   6  ar  
  6   4   7  ar  
  7   4  23  1   
  8   5   8  1   
  9   6   9  1   
 10   6  10  ar  
 11   7  10  ar  
 12   7  11  1   
 13   8  12  1   
 14   8  24  1   
 15   8  25  1   
 16   9  13  1   
 17  10  26  1   
 18  11  14  2   
 19  11  15  am  
 20  12  16  1   
 21  12  27  1   
 22  12  28  1   
 23  13  17  1   
 24  13  29  1   
 25  13  30  1   
 26  15  18  1   
 27  15  19  1   
 28  16  31  1   
 29  16  32  1   
 30  16  33  1   
 31  17  34  1   
 32  17  35  1   
 33  17  36  1   
 34  18  20  1   
 35  18  37  1   
 36  18  38  1   
 37  19  21  1   
 38  19  39  1   
 39  19  40  1   
 40  20  22  1   
 41  20  41  1   
 42  20  42  1   
 43  21  22  1   
 44  21  43  1   
 45  21  44  1   
@<TRIPOS>SUBSTRUCTURE
  1 ****  10 GROUP 4 **** **** 0

# MOE 2024.06 (io_trps.svl 2023.06)
