@<TRIPOS>MOLECULE
NONAME
50 51 1 0 0 
SMALL
USER_CHARGES


@<TRIPOS>ATOM
  1 S       -0.1900     0.0840     0.1820 S.o2  1 <1>   1.4470 
  2 O       -0.4890    -0.5190    -1.1010 O.2   1 <1>  -0.6500 
  3 O        0.2420    -0.7910     1.2510 O.2   1 <1>  -0.6500 
  4 N       -1.6780     0.7390     0.6680 N.am  1 <1>  -0.8490 
  5 C        0.9420     1.5340     0.0610 C.ar  1 <1>  -0.0090 
  6 C       -2.6280    -0.3180     1.0540 C.3   1 <1>   0.1960 
  7 C       -2.2700     1.6000    -0.3720 C.3   1 <1>   0.1960 
  8 C        1.7930     1.7060    -1.0450 C.ar  1 <1>  -0.1440 
  9 C        0.9700     2.5130     1.0720 C.ar  1 <1>  -0.1440 
 10 C       -3.9490     0.2700     1.5820 C.3   1 <1>   0.1400 
 11 C       -3.5700     2.2620     0.1140 C.3   1 <1>   0.1400 
 12 C        2.5350     2.8750    -1.1970 C.ar  1 <1>  -0.1440 
 13 C        1.9370     0.6070    -2.1040 C.3   1 <1>  -0.0960 
 14 C        1.7140     3.6780     0.9120 C.ar  1 <1>  -0.1440 
 15 C        0.1980     2.3360     2.3860 C.3   1 <1>  -0.0960 
 16 N       -4.5340     1.2320     0.6030 N.am  1 <1>  -0.6600 
 17 C        2.4780     3.8480    -0.2220 C.ar  1 <1>  -0.1500 
 18 C        3.4250     3.1520    -2.4050 C.3   1 <1>  -0.0970 
 19 C        1.7320     4.8050     1.9410 C.3   1 <1>  -0.0970 
 20 C       -5.8080     1.0950     0.1240 C.2   1 <1>   0.7800 
 21 O       -6.5570     0.2130     0.4990 O.2   1 <1>  -0.5700 
 22 O       -6.2230     1.9680    -0.7950 O.3   1 <1>  -0.4300 
 23 C       -7.5180     1.8820    -1.3410 C.3   1 <1>   0.1200 
 24 C       -7.6710     2.9960    -2.3710 C.3   1 <1>  -0.2400 
 25 H       -2.1950    -0.9290     1.8280 H     1 <1>   0.0800 
 26 H       -2.8350    -0.9540     0.2090 H     1 <1>   0.0800 
 27 H       -2.4840     1.0220    -1.2570 H     1 <1>   0.0800 
 28 H       -1.5720     2.3740    -0.6430 H     1 <1>   0.0800 
 29 H       -3.7610     0.7820     2.5090 H     1 <1>   0.0800 
 30 H       -4.6370    -0.5330     1.7810 H     1 <1>   0.0800 
 31 H       -3.9950     2.8350    -0.6910 H     1 <1>   0.0800 
 32 H       -3.3420     2.9390     0.9180 H     1 <1>   0.0800 
 33 H        1.9620    -0.3640    -1.6420 H     1 <1>   0.0800 
 34 H        2.8490     0.6840    -2.6620 H     1 <1>   0.0800 
 35 H        1.1140     0.6490    -2.7960 H     1 <1>   0.0800 
 36 H        0.0950     1.3030     2.6580 H     1 <1>   0.0800 
 37 H       -0.7810     2.7720     2.3010 H     1 <1>   0.0800 
 38 H        0.7070     2.7980     3.2100 H     1 <1>   0.0800 
 39 H        3.0500     4.7510    -0.3430 H     1 <1>   0.1500 
 40 H        4.2950     2.5200    -2.3740 H     1 <1>   0.0800 
 41 H        3.7560     4.1750    -2.4190 H     1 <1>   0.0800 
 42 H        2.8850     2.9700    -3.3160 H     1 <1>   0.0800 
 43 H        0.7310     5.0530     2.2440 H     1 <1>   0.0800 
 44 H        2.1800     5.6940     1.5360 H     1 <1>   0.0800 
 45 H        2.3010     4.5060     2.8030 H     1 <1>   0.0800 
 46 H       -8.2330     1.9900    -0.5430 H     1 <1>   0.0800 
 47 H       -7.6320     0.9130    -1.8000 H     1 <1>   0.0800 
 48 H       -7.5480     3.9550    -1.9000 H     1 <1>   0.0800 
 49 H       -8.6520     2.9530    -2.8080 H     1 <1>   0.0800 
 50 H       -6.9420     2.8810    -3.1530 H     1 <1>   0.0800 
@<TRIPOS>BOND
  1   1   2  2   
  2   1   3  2   
  3   1   4  am  
  4   1   5  1   
  5   4   6  1   
  6   4   7  1   
  7   5   8  ar  
  8   5   9  ar  
  9   6  10  1   
 10   6  25  1   
 11   6  26  1   
 12   7  11  1   
 13   7  27  1   
 14   7  28  1   
 15   8  12  ar  
 16   8  13  1   
 17   9  14  ar  
 18   9  15  1   
 19  10  16  1   
 20  10  29  1   
 21  10  30  1   
 22  11  16  1   
 23  11  31  1   
 24  11  32  1   
 25  12  17  ar  
 26  12  18  1   
 27  13  33  1   
 28  13  34  1   
 29  13  35  1   
 30  14  17  ar  
 31  14  19  1   
 32  15  36  1   
 33  15  37  1   
 34  15  38  1   
 35  16  20  am  
 36  17  39  1   
 37  18  40  1   
 38  18  41  1   
 39  18  42  1   
 40  19  43  1   
 41  19  44  1   
 42  19  45  1   
 43  20  21  2   
 44  20  22  1   
 45  22  23  1   
 46  23  24  1   
 47  23  46  1   
 48  23  47  1   
 49  24  48  1   
 50  24  49  1   
 51  24  50  1   
@<TRIPOS>SUBSTRUCTURE
  1 ****   7 GROUP 4 **** **** 0

# MOE 2024.06 (io_trps.svl 2023.06)
