@<TRIPOS>MOLECULE
NONAME
52 53 1 0 0 
SMALL
USER_CHARGES


@<TRIPOS>ATOM
  1 P        0.5980    -0.8900    -0.5250 P.3   1 <1>   1.3890 
  2 O        1.1340    -2.1330    -1.0910 O.2   1 <1>  -0.7000 
  3 O        1.0620    -0.6490     0.9970 O.3   1 <1>  -0.5510 
  4 O        1.1350     0.4120    -1.2940 O.3   1 <1>  -0.5510 
  5 C       -1.2100    -0.8740    -0.5140 C.2   1 <1>  -0.0380 
  6 C        0.5010    -1.3230     2.0730 C.3   1 <1>   0.1200 
  7 C        2.4900     0.6630    -1.3470 C.3   1 <1>   0.1200 
  8 N       -1.8250    -2.1660    -0.5250 N.am  1 <1>  -0.5390 
  9 C       -2.0310     0.1970    -0.4850 C.2   1 <1>  -0.0500 
 10 C        0.9620    -2.7800     2.0840 C.3   1 <1>  -0.2400 
 11 C        2.6900     1.9560    -2.1280 C.3   1 <1>  -0.2400 
 12 C       -2.6580    -2.7140     0.4160 C.2   1 <1>   0.5440 
 13 N       -1.6900     1.5610    -0.4640 N.pl3 1 <1>  -0.8380 
 14 O       -3.0630    -2.0200     1.3290 O.2   1 <1>  -0.5700 
 15 C       -3.0280    -4.1140     0.3300 C.ar  1 <1>   0.0860 
 16 C       -2.7180     2.4990    -0.9930 C.3   1 <1>   0.2090 
 17 C       -1.0080     2.0810     0.7550 C.3   1 <1>   0.2090 
 18 C       -4.2710    -4.5520     0.7900 C.ar  1 <1>  -0.1500 
 19 C       -2.1690    -5.0770    -0.2070 C.ar  1 <1>  -0.1500 
 20 C       -3.7620     2.8280     0.0820 C.3   1 <1>  -0.1600 
 21 C       -2.0330     2.3840     1.8520 C.3   1 <1>  -0.1600 
 22 C       -4.6480    -5.8800     0.7080 C.ar  1 <1>  -0.1500 
 23 C       -2.5410    -6.4070    -0.2930 C.ar  1 <1>  -0.1500 
 24 C       -3.1100     3.3630     1.3640 C.3   1 <1>  -0.1600 
 25 C       -3.7820    -6.8110     0.1630 C.ar  1 <1>  -0.1500 
 26 H        0.8400    -0.8300     2.9680 H     1 <1>   0.0800 
 27 H       -0.5730    -1.2450     2.0270 H     1 <1>   0.0800 
 28 H        2.8640     0.7610    -0.3420 H     1 <1>   0.0800 
 29 H        2.9740    -0.1650    -1.8390 H     1 <1>   0.0800 
 30 H       -1.4020    -2.8290    -1.1800 H     1 <1>   0.3700 
 31 H       -3.0950     0.0170    -0.4950 H     1 <1>   0.1500 
 32 H        2.0360    -2.8300     2.0660 H     1 <1>   0.0800 
 33 H        0.5610    -3.3190     1.2460 H     1 <1>   0.0800 
 34 H        0.6120    -3.2570     2.9820 H     1 <1>   0.0800 
 35 H        2.1840     2.7670    -1.6350 H     1 <1>   0.0800 
 36 H        2.3040     1.8470    -3.1260 H     1 <1>   0.0800 
 37 H        3.7380     2.1880    -2.1880 H     1 <1>   0.0800 
 38 H       -2.2300     3.4010    -1.3180 H     1 <1>   0.0800 
 39 H       -3.2000     2.0560    -1.8480 H     1 <1>   0.0800 
 40 H       -0.3000     1.3640     1.1210 H     1 <1>   0.0800 
 41 H       -0.4670     2.9750     0.4970 H     1 <1>   0.0800 
 42 H       -4.9480    -3.8330     1.2200 H     1 <1>   0.1500 
 43 H       -1.1920    -4.7930    -0.5560 H     1 <1>   0.1500 
 44 H       -4.4500     3.5580    -0.3050 H     1 <1>   0.0800 
 45 H       -4.3220     1.9380     0.3070 H     1 <1>   0.0800 
 46 H       -2.4920     1.4600     2.1580 H     1 <1>   0.0800 
 47 H       -1.5270     2.7980     2.7060 H     1 <1>   0.0800 
 48 H       -5.6130    -6.1900     1.0700 H     1 <1>   0.1500 
 49 H       -1.8630    -7.1310    -0.7130 H     1 <1>   0.1500 
 50 H       -3.8570     3.4950     2.1270 H     1 <1>   0.0800 
 51 H       -2.6590     4.3200     1.1650 H     1 <1>   0.0800 
 52 H       -4.0740    -7.8460     0.0970 H     1 <1>   0.1500 
@<TRIPOS>BOND
  1   1   2  2   
  2   1   3  1   
  3   1   4  1   
  4   1   5  1   
  5   3   6  1   
  6   4   7  1   
  7   5   8  1   
  8   5   9  2   
  9   6  10  1   
 10   6  26  1   
 11   6  27  1   
 12   7  11  1   
 13   7  28  1   
 14   7  29  1   
 15   8  12  am  
 16   8  30  1   
 17   9  13  1   
 18   9  31  1   
 19  10  32  1   
 20  10  33  1   
 21  10  34  1   
 22  11  35  1   
 23  11  36  1   
 24  11  37  1   
 25  12  14  2   
 26  12  15  1   
 27  13  16  1   
 28  13  17  1   
 29  15  18  ar  
 30  15  19  ar  
 31  16  20  1   
 32  16  38  1   
 33  16  39  1   
 34  17  21  1   
 35  17  40  1   
 36  17  41  1   
 37  18  22  ar  
 38  18  42  1   
 39  19  23  ar  
 40  19  43  1   
 41  20  24  1   
 42  20  44  1   
 43  20  45  1   
 44  21  24  1   
 45  21  46  1   
 46  21  47  1   
 47  22  25  ar  
 48  22  48  1   
 49  23  25  ar  
 50  23  49  1   
 51  24  50  1   
 52  24  51  1   
 53  25  52  1   
@<TRIPOS>SUBSTRUCTURE
  1 ****   5 GROUP 4 **** **** 0

# MOE 2024.06 (io_trps.svl 2023.06)
