@<TRIPOS>MOLECULE
NONAME
36 37 1 0 0 
SMALL
USER_CHARGES


@<TRIPOS>ATOM
  1 CL      -1.5710     1.0690     2.3580 Cl    1 <1>  -0.1770 
  2 C       -2.1210     1.3060     0.7130 C.ar  1 <1>   0.1770 
  3 C       -1.4410     2.2000    -0.1170 C.ar  1 <1>   0.1170 
  4 C       -3.2250     0.5970     0.2820 C.ar  1 <1>  -0.1500 
  5 N       -0.3320     2.9160     0.3690 N.am  1 <1>  -0.5470 
  6 C       -1.8950     2.3460    -1.4270 C.ar  1 <1>  -0.1500 
  7 C       -3.6570     0.7800    -1.0160 C.ar  1 <1>   0.1770 
  8 C        0.2170     4.1090     0.0110 C.2   1 <1>   0.6900 
  9 C       -3.0020     1.6440    -1.8750 C.ar  1 <1>  -0.1500 
 10 CL      -5.0540    -0.0980    -1.5850 Cl    1 <1>  -0.1770 
 11 O        1.3850     4.2950     0.2610 O.2   1 <1>  -0.5700 
 12 N       -0.4580     5.0930    -0.6360 N.am  1 <1>  -0.4940 
 13 C       -1.7740     5.4850    -0.5940 C.2   1 <1>   0.4420 
 14 S       -2.8020     5.0400     0.7340 S.3   1 <1>  -0.0800 
 15 N       -2.3800     6.2160    -1.4540 N.2   1 <1>  -0.3380 
 16 C       -4.0670     5.9200    -0.0500 C.2   1 <1>   0.1980 
 17 N       -3.6900     6.4520    -1.1430 N.2   1 <1>  -0.3380 
 18 C       -5.4210     5.9500     0.6290 C.3   1 <1>   0.0200 
 19 C       -6.4340     6.7560    -0.1810 C.3   1 <1>   0.1200 
 20 O       -7.6450     6.7340     0.5010 O.3   1 <1>  -0.5600 
 21 C       -8.6600     7.4350    -0.1350 C.3   1 <1>   0.1200 
 22 C       -9.9090     7.3170     0.7280 C.3   1 <1>  -0.2400 
 23 H       -3.7370    -0.0810     0.9400 H     1 <1>   0.1500 
 24 H        0.2360     2.4340     1.0680 H     1 <1>   0.3700 
 25 H       -1.3850     3.0070    -2.1060 H     1 <1>   0.1500 
 26 H       -3.3580     1.7630    -2.8840 H     1 <1>   0.1500 
 27 H        0.1590     5.7240    -1.1410 H     1 <1>   0.3700 
 28 H       -5.3150     6.3940     1.6020 H     1 <1>   0.0800 
 29 H       -5.7790     4.9430     0.7390 H     1 <1>   0.0800 
 30 H       -6.5740     6.3170    -1.1550 H     1 <1>   0.0800 
 31 H       -6.1080     7.7780    -0.2830 H     1 <1>   0.0800 
 32 H       -8.8270     7.0020    -1.1080 H     1 <1>   0.0800 
 33 H       -8.3630     8.4660    -0.2350 H     1 <1>   0.0800 
 34 H      -10.1890     6.2840     0.8320 H     1 <1>   0.0800 
 35 H      -10.7220     7.8490     0.2680 H     1 <1>   0.0800 
 36 H       -9.7270     7.7390     1.6990 H     1 <1>   0.0800 
@<TRIPOS>BOND
  1   1   2  1   
  2   2   3  ar  
  3   2   4  ar  
  4   3   5  1   
  5   3   6  ar  
  6   4   7  ar  
  7   4  23  1   
  8   5   8  am  
  9   5  24  1   
 10   6   9  ar  
 11   6  25  1   
 12   7   9  ar  
 13   7  10  1   
 14   8  11  2   
 15   8  12  am  
 16   9  26  1   
 17  12  13  1   
 18  12  27  1   
 19  13  14  1   
 20  13  15  2   
 21  14  16  1   
 22  15  17  1   
 23  16  17  2   
 24  16  18  1   
 25  18  19  1   
 26  18  28  1   
 27  18  29  1   
 28  19  20  1   
 29  19  30  1   
 30  19  31  1   
 31  20  21  1   
 32  21  22  1   
 33  21  32  1   
 34  21  33  1   
 35  22  34  1   
 36  22  35  1   
 37  22  36  1   
@<TRIPOS>SUBSTRUCTURE
  1 ****  14 GROUP 4 **** **** 0

# MOE 2024.06 (io_trps.svl 2023.06)
