@<TRIPOS>MOLECULE
NONAME
49 51 1 0 0 
SMALL
USER_CHARGES


@<TRIPOS>ATOM
  1 S        0.5100    -0.0170     0.4410 S.o2  1 <1>   1.4470 
  2 O       -0.3400     0.2140     1.5910 O.2   1 <1>  -0.6500 
  3 O        0.6380    -1.3600    -0.0810 O.2   1 <1>  -0.6500 
  4 N       -0.1030     0.9330    -0.8200 N.am  1 <1>  -0.8490 
  5 C        2.1550     0.6930     0.7260 C.ar  1 <1>  -0.0090 
  6 C       -1.3130     0.3840    -1.4020 C.3   1 <1>   0.1960 
  7 C       -0.4350     2.2980    -0.4480 C.3   1 <1>   0.1960 
  8 C        3.0790     0.7870    -0.3100 C.ar  1 <1>  -0.1500 
  9 C        2.5290     1.1660     1.9780 C.ar  1 <1>  -0.1500 
 10 C       -1.9110     1.5350    -2.2040 C.3   1 <1>  -0.1600 
 11 C       -1.2980     2.7980    -1.5980 C.3   1 <1>  -0.1600 
 12 C        4.3380     1.3350    -0.1220 C.ar  1 <1>  -0.1430 
 13 C        3.7810     1.7150     2.1890 C.ar  1 <1>  -0.1500 
 14 C        4.6860     1.7950     1.1430 C.ar  1 <1>   0.0830 
 15 C        5.3030     1.4110    -1.2950 C.3   1 <1>  -0.0970 
 16 O        5.8970     2.3400     1.3770 O.3   1 <1>  -0.3630 
 17 C        6.8880     1.4790     1.9230 C.3   1 <1>   0.1810 
 18 C        7.8820     1.0190     0.8590 C.2   1 <1>   0.5690 
 19 O        7.9330    -0.1680     0.6260 O.2   1 <1>  -0.5700 
 20 N        8.7030     1.9080     0.2060 N.am  1 <1>  -0.6600 
 21 C        8.7340     3.3880     0.4200 C.3   1 <1>   0.1400 
 22 C        9.6450     1.4620    -0.8650 C.3   1 <1>   0.1400 
 23 C        8.6040     4.1310    -0.9200 C.3   1 <1>   0.1200 
 24 C        9.4610     2.3120    -2.1330 C.3   1 <1>   0.1200 
 25 O        9.5620     3.6770    -1.8340 O.3   1 <1>  -0.5600 
 26 H       -1.9950     0.0890    -0.6200 H     1 <1>   0.0800 
 27 H       -1.0890    -0.4690    -2.0220 H     1 <1>   0.0800 
 28 H        0.4530     2.8950    -0.3210 H     1 <1>   0.0800 
 29 H       -1.0120     2.3090     0.4630 H     1 <1>   0.0800 
 30 H        2.7950     0.4190    -1.2820 H     1 <1>   0.1500 
 31 H        1.8320     1.1050     2.7980 H     1 <1>   0.1500 
 32 H       -2.9840     1.5300    -2.1300 H     1 <1>   0.0800 
 33 H       -1.6300     1.4410    -3.2380 H     1 <1>   0.0800 
 34 H       -0.6770     3.2940    -2.3240 H     1 <1>   0.0800 
 35 H       -2.0470     3.4860    -1.2470 H     1 <1>   0.0800 
 36 H        4.0570     2.0840     3.1600 H     1 <1>   0.1500 
 37 H        4.7690     1.4100    -2.2280 H     1 <1>   0.0800 
 38 H        5.9650     0.5640    -1.2760 H     1 <1>   0.0800 
 39 H        5.8880     2.3100    -1.2440 H     1 <1>   0.0800 
 40 H        6.4080     0.6240     2.3650 H     1 <1>   0.0800 
 41 H        7.4080     2.0200     2.6890 H     1 <1>   0.0800 
 42 H        9.6700     3.6570     0.8770 H     1 <1>   0.0800 
 43 H        7.9450     3.7070     1.0740 H     1 <1>   0.0800 
 44 H        9.4840     0.4270    -1.1090 H     1 <1>   0.0800 
 45 H       10.6560     1.5650    -0.5130 H     1 <1>   0.0800 
 46 H        8.7620     5.1850    -0.7760 H     1 <1>   0.0800 
 47 H        7.6250     3.9840    -1.3430 H     1 <1>   0.0800 
 48 H        8.4990     2.1250    -2.5770 H     1 <1>   0.0800 
 49 H       10.2260     2.0760    -2.8510 H     1 <1>   0.0800 
@<TRIPOS>BOND
  1   1   2  2   
  2   1   3  2   
  3   1   4  am  
  4   1   5  1   
  5   4   6  1   
  6   4   7  1   
  7   5   8  ar  
  8   5   9  ar  
  9   6  10  1   
 10   6  26  1   
 11   6  27  1   
 12   7  11  1   
 13   7  28  1   
 14   7  29  1   
 15   8  12  ar  
 16   8  30  1   
 17   9  13  ar  
 18   9  31  1   
 19  10  11  1   
 20  10  32  1   
 21  10  33  1   
 22  11  34  1   
 23  11  35  1   
 24  12  14  ar  
 25  12  15  1   
 26  13  14  ar  
 27  13  36  1   
 28  14  16  1   
 29  15  37  1   
 30  15  38  1   
 31  15  39  1   
 32  16  17  1   
 33  17  18  1   
 34  17  40  1   
 35  17  41  1   
 36  18  19  2   
 37  18  20  am  
 38  20  21  1   
 39  20  22  1   
 40  21  23  1   
 41  21  42  1   
 42  21  43  1   
 43  22  24  1   
 44  22  44  1   
 45  22  45  1   
 46  23  25  1   
 47  23  46  1   
 48  23  47  1   
 49  24  25  1   
 50  24  48  1   
 51  24  49  1   
@<TRIPOS>SUBSTRUCTURE
  1 ****  12 GROUP 4 **** **** 0

# MOE 2024.06 (io_trps.svl 2023.06)
