@<TRIPOS>MOLECULE
NONAME
44 45 1 0 0 
SMALL
USER_CHARGES


@<TRIPOS>ATOM
  1 O       -0.8200     0.2800     1.1900 O.3   1 <1>  -0.3630 
  2 C       -0.6340     1.3840     0.4300 C.ar  1 <1>   0.0830 
  3 C       -0.1920    -0.8970     0.7320 C.3   1 <1>   0.0400 
  4 C       -1.6030     1.7230    -0.5110 C.ar  1 <1>  -0.1440 
  5 C        0.5090     2.1650     0.5980 C.ar  1 <1>  -0.1440 
  6 C       -1.3950     2.8290    -1.3190 C.ar  1 <1>  -0.1500 
  7 C       -2.8770     0.9040    -0.6740 C.3   1 <1>   0.3530 
  8 C        0.7040     3.2690    -0.2280 C.ar  1 <1>   0.0830 
  9 C        1.5450     1.8360     1.6730 C.3   1 <1>  -0.0970 
 10 C       -0.2530     3.5940    -1.1860 C.ar  1 <1>  -0.1500 
 11 N       -4.0450     1.8070    -0.6040 N.pl3 1 <1>  -0.8690 
 12 O        1.8440     3.9950    -0.0610 O.3   1 <1>  -0.3630 
 13 C       -5.2600     1.2390    -0.2480 C.ar  1 <1>   0.1000 
 14 C        2.1180     5.1420    -0.8350 C.3   1 <1>   0.0400 
 15 C       -5.8310     0.2310    -1.0160 C.ar  1 <1>  -0.1500 
 16 C       -5.9260     1.6740     0.8890 C.ar  1 <1>  -0.1500 
 17 C       -7.0370    -0.3430    -0.6510 C.ar  1 <1>  -0.1430 
 18 C       -7.1320     1.1090     1.2660 C.ar  1 <1>  -0.1430 
 19 C       -7.6820     0.0990     0.4920 C.ar  1 <1>  -0.1500 
 20 C       -7.6600    -1.4440    -1.4900 C.3   1 <1>  -0.0970 
 21 C       -7.8580     1.5830     2.5120 C.3   1 <1>  -0.0970 
 22 H       -0.4190    -1.6900     1.4220 H     1 <1>   0.0800 
 23 H        0.8700    -0.7360     0.6920 H     1 <1>   0.0800 
 24 H       -0.5700    -1.1360    -0.2460 H     1 <1>   0.0800 
 25 H       -2.1330     3.0970    -2.0580 H     1 <1>   0.1500 
 26 H       -2.9630     0.1560     0.0950 H     1 <1>   0.0800 
 27 H       -2.8660     0.4100    -1.6300 H     1 <1>   0.0800 
 28 H        1.1380     1.1950     2.4330 H     1 <1>   0.0800 
 29 H        1.8790     2.7370     2.1560 H     1 <1>   0.0800 
 30 H        2.3930     1.3530     1.2240 H     1 <1>   0.0800 
 31 H       -0.1300     4.4390    -1.8350 H     1 <1>   0.1500 
 32 H       -3.7900     2.6070    -0.0170 H     1 <1>   0.4000 
 33 H        3.0620     5.5430    -0.5130 H     1 <1>   0.0800 
 34 H        1.3390     5.8650    -0.6730 H     1 <1>   0.0800 
 35 H        2.1760     4.8580    -1.8700 H     1 <1>   0.0800 
 36 H       -5.3230    -0.0900    -1.9040 H     1 <1>   0.1500 
 37 H       -5.4880     2.4570     1.4780 H     1 <1>   0.1500 
 38 H       -8.6200    -0.3430     0.7800 H     1 <1>   0.1500 
 39 H       -7.0360    -1.6870    -2.3300 H     1 <1>   0.0800 
 40 H       -8.6190    -1.1250    -1.8550 H     1 <1>   0.0800 
 41 H       -7.7910    -2.3290    -0.8920 H     1 <1>   0.0800 
 42 H       -7.2550     2.2800     3.0650 H     1 <1>   0.0800 
 43 H       -8.0810     0.7440     3.1470 H     1 <1>   0.0800 
 44 H       -8.7770     2.0660     2.2360 H     1 <1>   0.0800 
@<TRIPOS>BOND
  1   1   2  1   
  2   1   3  1   
  3   2   4  ar  
  4   2   5  ar  
  5   3  22  1   
  6   3  23  1   
  7   3  24  1   
  8   4   6  ar  
  9   4   7  1   
 10   5   8  ar  
 11   5   9  1   
 12   6  10  ar  
 13   6  25  1   
 14   7  11  1   
 15   7  26  1   
 16   7  27  1   
 17   8  10  ar  
 18   8  12  1   
 19   9  28  1   
 20   9  29  1   
 21   9  30  1   
 22  10  31  1   
 23  11  13  1   
 24  11  32  1   
 25  12  14  1   
 26  13  15  ar  
 27  13  16  ar  
 28  14  33  1   
 29  14  34  1   
 30  14  35  1   
 31  15  17  ar  
 32  15  36  1   
 33  16  18  ar  
 34  16  37  1   
 35  17  19  ar  
 36  17  20  1   
 37  18  19  ar  
 38  18  21  1   
 39  19  38  1   
 40  20  39  1   
 41  20  40  1   
 42  20  41  1   
 43  21  42  1   
 44  21  43  1   
 45  21  44  1   
@<TRIPOS>SUBSTRUCTURE
  1 ****   7 GROUP 4 **** **** 0

# MOE 2024.06 (io_trps.svl 2023.06)
