@<TRIPOS>MOLECULE
NONAME
53 55 1 0 0 
SMALL
USER_CHARGES


@<TRIPOS>ATOM
  1 CL      -3.8050    -1.0670    -2.8390 Cl    1 <1>  -0.1770 
  2 C       -3.4990     0.2070    -1.6810 C.ar  1 <1>   0.1770 
  3 C       -3.0330    -0.1110    -0.4130 C.ar  1 <1>  -0.1440 
  4 C       -3.7450     1.5140    -2.0550 C.ar  1 <1>  -0.1500 
  5 C       -2.8100     0.9180     0.4910 C.ar  1 <1>  -0.1500 
  6 C       -2.7720    -1.5530    -0.0240 C.3   1 <1>   0.4870 
  7 C       -3.5230     2.5310    -1.1440 C.ar  1 <1>  -0.1500 
  8 C       -3.0570     2.2310     0.1250 C.ar  1 <1>  -0.1500 
  9 N       -4.0650    -2.3040    -0.0240 N.4   1 <1>  -0.9590 
 10 C       -5.0240    -1.7510     0.9700 C.3   1 <1>   0.3430 
 11 C       -3.8420    -3.7620     0.1390 C.3   1 <1>   0.3430 
 12 C       -6.3730    -2.4570     0.8270 C.3   1 <1>  -0.1600 
 13 C       -5.1700    -4.5030    -0.0170 C.3   1 <1>  -0.1600 
 14 C       -6.2480    -3.9840     0.9490 C.3   1 <1>   0.4230 
 15 N       -7.5620    -4.6330     0.6490 N.4   1 <1>  -0.9590 
 16 C       -8.7400    -4.1590     1.4670 C.3   1 <1>   0.3430 
 17 C       -7.5730    -6.1430     0.6560 C.3   1 <1>   0.3430 
 18 C      -10.0690    -4.7000     0.8830 C.3   1 <1>   0.1100 
 19 C       -8.9180    -6.6900     0.1150 C.3   1 <1>   0.1100 
 20 N       -9.8420    -5.5990    -0.2780 N.3   1 <1>  -0.8100 
 21 C      -11.1090    -6.1590    -0.8010 C.3   1 <1>   0.1100 
 22 C      -11.9360    -5.1070    -1.5520 C.3   1 <1>   0.1200 
 23 O      -13.0880    -5.7020    -2.0390 O.3   1 <1>  -0.6800 
 24 H       -4.1040     1.7360    -3.0460 H     1 <1>   0.1500 
 25 H       -2.4370     0.7210     1.4840 H     1 <1>   0.1500 
 26 H       -2.3120    -1.5930     0.9500 H     1 <1>   0.0800 
 27 H       -2.0910    -1.9880    -0.7390 H     1 <1>   0.0800 
 28 H       -3.7100     3.5560    -1.4220 H     1 <1>   0.1500 
 29 H       -2.8810     3.0300     0.8280 H     1 <1>   0.1500 
 30 H       -4.4470    -2.1320    -0.9700 H     1 <1>   0.4500 
 31 H       -5.1570    -0.6920     0.8060 H     1 <1>   0.0800 
 32 H       -4.6390    -1.8890     1.9680 H     1 <1>   0.0800 
 33 H       -3.4200    -3.9620     1.1120 H     1 <1>   0.0800 
 34 H       -3.1450    -4.1140    -0.6080 H     1 <1>   0.0800 
 35 H       -6.8020    -2.1900    -0.1230 H     1 <1>   0.0800 
 36 H       -7.0090    -2.0740     1.6040 H     1 <1>   0.0800 
 37 H       -4.9730    -5.5420     0.1730 H     1 <1>   0.0800 
 38 H       -5.5020    -4.4040    -1.0360 H     1 <1>   0.0800 
 39 H       -5.9560    -4.2290     1.9590 H     1 <1>   0.0800 
 40 H       -7.8640    -4.4160    -0.3160 H     1 <1>   0.4500 
 41 H       -8.7930    -3.0840     1.4710 H     1 <1>   0.0800 
 42 H       -8.6400    -4.4880     2.4890 H     1 <1>   0.0800 
 43 H       -7.4160    -6.5140     1.6560 H     1 <1>   0.0800 
 44 H       -6.7850    -6.5290     0.0330 H     1 <1>   0.0800 
 45 H      -10.6730    -3.8620     0.5810 H     1 <1>   0.0800 
 46 H      -10.6090    -5.2220     1.6550 H     1 <1>   0.0800 
 47 H       -9.3790    -7.3100     0.8670 H     1 <1>   0.0800 
 48 H       -8.7190    -7.3160    -0.7390 H     1 <1>   0.0800 
 49 H      -11.6950    -6.5670     0.0060 H     1 <1>   0.0800 
 50 H      -10.8830    -6.9530    -1.4920 H     1 <1>   0.0800 
 51 H      -11.3870    -4.7010    -2.3830 H     1 <1>   0.0800 
 52 H      -12.2440    -4.3150    -0.8930 H     1 <1>   0.0800 
 53 H      -12.8900    -6.2910    -2.7950 H     1 <1>   0.4000 
@<TRIPOS>BOND
  1   1   2  1   
  2   2   3  ar  
  3   2   4  ar  
  4   3   5  ar  
  5   3   6  1   
  6   4   7  ar  
  7   4  24  1   
  8   5   8  ar  
  9   5  25  1   
 10   6   9  1   
 11   6  26  1   
 12   6  27  1   
 13   7   8  ar  
 14   7  28  1   
 15   8  29  1   
 16   9  10  1   
 17   9  11  1   
 18   9  30  1   
 19  10  12  1   
 20  10  31  1   
 21  10  32  1   
 22  11  13  1   
 23  11  33  1   
 24  11  34  1   
 25  12  14  1   
 26  12  35  1   
 27  12  36  1   
 28  13  14  1   
 29  13  37  1   
 30  13  38  1   
 31  14  15  1   
 32  14  39  1   
 33  15  16  1   
 34  15  17  1   
 35  15  40  1   
 36  16  18  1   
 37  16  41  1   
 38  16  42  1   
 39  17  19  1   
 40  17  43  1   
 41  17  44  1   
 42  18  20  1   
 43  18  45  1   
 44  18  46  1   
 45  19  20  1   
 46  19  47  1   
 47  19  48  1   
 48  20  21  1   
 49  21  22  1   
 50  21  49  1   
 51  21  50  1   
 52  22  23  1   
 53  22  51  1   
 54  22  52  1   
 55  23  53  1   
@<TRIPOS>SUBSTRUCTURE
  1 ****  12 GROUP 4 **** **** 0

# MOE 2024.06 (io_trps.svl 2023.06)
