@<TRIPOS>MOLECULE
NONAME
39 40 1 0 0 
SMALL
USER_CHARGES


@<TRIPOS>ATOM
  1 F        0.0240    -0.7380    -1.3310 F     1 <1>  -0.1900 
  2 C       -0.6510    -1.6830    -0.7190 C.ar  1 <1>   0.1900 
  3 C        0.0350    -2.8070    -0.2630 C.ar  1 <1>   0.1170 
  4 C       -2.0110    -1.5090    -0.5630 C.ar  1 <1>  -0.1500 
  5 N        1.4280    -2.8990    -0.4700 N.am  1 <1>  -0.5470 
  6 C       -0.7250    -3.7830     0.3780 C.ar  1 <1>  -0.1500 
  7 C       -2.7360    -2.4970     0.0800 C.ar  1 <1>  -0.1500 
  8 C        2.3650    -3.8240    -0.0980 C.2   1 <1>   0.5690 
  9 C       -2.0940    -3.6330     0.5510 C.ar  1 <1>  -0.1440 
 10 O        2.1060    -4.8160     0.5390 O.2   1 <1>  -0.5700 
 11 C        3.8110    -3.5550    -0.5180 C.3   1 <1>  -0.0190 
 12 C       -2.8940    -4.7160     1.2540 C.3   1 <1>  -0.0970 
 13 C        4.6340    -4.8480    -0.6950 C.3   1 <1>  -0.1600 
 14 C        4.5110    -2.6230     0.4890 C.3   1 <1>  -0.1600 
 15 C        6.0820    -4.5470    -1.0880 C.3   1 <1>   0.1400 
 16 C        5.9630    -2.3440     0.0890 C.3   1 <1>   0.1400 
 17 N        6.6890    -3.6330    -0.0810 N.am  1 <1>  -0.6600 
 18 C        7.8030    -3.9150     0.6700 C.2   1 <1>   0.5690 
 19 O        8.2710    -3.1230     1.4520 O.2   1 <1>  -0.5700 
 20 C        8.5000    -5.2500     0.5460 C.3   1 <1>  -0.1790 
 21 H       -2.4910    -0.6220    -0.9340 H     1 <1>   0.1500 
 22 H        1.7980    -2.0970    -0.9810 H     1 <1>   0.3700 
 23 H       -0.2520    -4.6730     0.7470 H     1 <1>   0.1500 
 24 H       -3.7990    -2.3800     0.2110 H     1 <1>   0.1500 
 25 H        3.7840    -3.0590    -1.4720 H     1 <1>   0.0800 
 26 H       -2.2600    -5.2930     1.9040 H     1 <1>   0.0800 
 27 H       -3.3340    -5.3740     0.5270 H     1 <1>   0.0800 
 28 H       -3.6760    -4.2790     1.8480 H     1 <1>   0.0800 
 29 H        4.1790    -5.4650    -1.4500 H     1 <1>   0.0800 
 30 H        4.6370    -5.4090     0.2240 H     1 <1>   0.0800 
 31 H        4.5030    -3.0750     1.4660 H     1 <1>   0.0800 
 32 H        3.9810    -1.6900     0.5580 H     1 <1>   0.0800 
 33 H        6.1070    -4.0680    -2.0520 H     1 <1>   0.0800 
 34 H        6.6300    -5.4690    -1.1640 H     1 <1>   0.0800 
 35 H        6.4310    -1.7380     0.8470 H     1 <1>   0.0800 
 36 H        5.9960    -1.7980    -0.8370 H     1 <1>   0.0800 
 37 H        8.8740    -5.3750    -0.4520 H     1 <1>   0.0800 
 38 H        7.8170    -6.0410     0.7860 H     1 <1>   0.0800 
 39 H        9.3270    -5.2900     1.2310 H     1 <1>   0.0800 
@<TRIPOS>BOND
  1   1   2  1   
  2   2   3  ar  
  3   2   4  ar  
  4   3   5  1   
  5   3   6  ar  
  6   4   7  ar  
  7   4  21  1   
  8   5   8  am  
  9   5  22  1   
 10   6   9  ar  
 11   6  23  1   
 12   7   9  ar  
 13   7  24  1   
 14   8  10  2   
 15   8  11  1   
 16   9  12  1   
 17  11  13  1   
 18  11  14  1   
 19  11  25  1   
 20  12  26  1   
 21  12  27  1   
 22  12  28  1   
 23  13  15  1   
 24  13  29  1   
 25  13  30  1   
 26  14  16  1   
 27  14  31  1   
 28  14  32  1   
 29  15  17  1   
 30  15  33  1   
 31  15  34  1   
 32  16  17  1   
 33  16  35  1   
 34  16  36  1   
 35  17  18  am  
 36  18  19  2   
 37  18  20  1   
 38  20  37  1   
 39  20  38  1   
 40  20  39  1   
@<TRIPOS>SUBSTRUCTURE
  1 ****   8 GROUP 4 **** **** 0

# MOE 2024.06 (io_trps.svl 2023.06)
