@<TRIPOS>MOLECULE
NONAME
48 50 1 0 0 
SMALL
USER_CHARGES


@<TRIPOS>ATOM
  1 O        0.0180    -0.5040     1.9920 O.3   1 <1>  -0.3630 
  2 C       -0.2690    -1.0750     0.7940 C.ar  1 <1>   0.0820 
  3 C        0.6840    -1.2850     2.9680 C.3   1 <1>   0.1200 
  4 C        0.2530    -0.5220    -0.3760 C.ar  1 <1>   0.0820 
  5 C       -1.0870    -2.1930     0.7350 C.ar  1 <1>  -0.1500 
  6 C        2.1390    -0.8060     3.0770 C.3   1 <1>   0.3430 
  7 O        1.0580     0.5740    -0.2750 O.3   1 <1>  -0.3630 
  8 C       -0.0380    -1.1170    -1.5990 C.ar  1 <1>  -0.1500 
  9 C       -1.3690    -2.7780    -0.4870 C.ar  1 <1>  -0.1500 
 10 N        2.7590    -0.6290     1.7290 N.4   1 <1>  -0.9590 
 11 C        1.1050     1.4990    -1.3440 C.3   1 <1>   0.0400 
 12 C       -0.8440    -2.2420    -1.6500 C.ar  1 <1>  -0.1500 
 13 C        3.0600    -1.9320     1.0320 C.3   1 <1>   0.3430 
 14 C        3.9650     0.2690     1.7570 C.3   1 <1>   0.3430 
 15 C        3.6310    -1.7280    -0.3870 C.3   1 <1>   0.2090 
 16 C        4.5620     0.5080     0.3530 C.3   1 <1>   0.2090 
 17 N        4.7810    -0.7740    -0.3830 N.pl3 1 <1>  -0.8380 
 18 C        6.0640    -1.2950    -0.5410 C.ar  1 <1>   0.1000 
 19 C        6.4310    -1.8480    -1.7620 C.ar  1 <1>  -0.1500 
 20 C        6.9970    -1.2930     0.4920 C.ar  1 <1>  -0.1500 
 21 C        7.6890    -2.3890    -1.9500 C.ar  1 <1>  -0.1500 
 22 C        8.2580    -1.8320     0.3090 C.ar  1 <1>  -0.1500 
 23 C        8.6060    -2.3820    -0.9130 C.ar  1 <1>  -0.1500 
 24 H        0.6410    -2.3260     2.7000 H     1 <1>   0.0800 
 25 H        0.1740    -1.1470     3.9050 H     1 <1>   0.0800 
 26 H       -1.5150    -2.6020     1.6330 H     1 <1>   0.1500 
 27 H        2.7130    -1.5020     3.6660 H     1 <1>   0.0800 
 28 H        2.1360     0.1390     3.5940 H     1 <1>   0.0800 
 29 H        0.3540    -0.7250    -2.5200 H     1 <1>   0.1500 
 30 H       -2.0060    -3.6470    -0.5360 H     1 <1>   0.1500 
 31 H        2.0360    -0.1530     1.1450 H     1 <1>   0.4500 
 32 H        1.5830     2.3970    -0.9950 H     1 <1>   0.0800 
 33 H        0.1010     1.7240    -1.6590 H     1 <1>   0.0800 
 34 H        1.6730     1.0770    -2.1540 H     1 <1>   0.0800 
 35 H       -1.0700    -2.7000    -2.5990 H     1 <1>   0.1500 
 36 H        2.1630    -2.5220     0.9570 H     1 <1>   0.0800 
 37 H        3.7810    -2.4900     1.6050 H     1 <1>   0.0800 
 38 H        4.7270    -0.1740     2.3750 H     1 <1>   0.0800 
 39 H        3.7000     1.2210     2.1870 H     1 <1>   0.0800 
 40 H        2.8640    -1.3520    -1.0400 H     1 <1>   0.0800 
 41 H        3.9510    -2.6790    -0.7770 H     1 <1>   0.0800 
 42 H        5.4940     1.0390     0.4410 H     1 <1>   0.0800 
 43 H        3.8930     1.1270    -0.2190 H     1 <1>   0.0800 
 44 H        5.7230    -1.8450    -2.5700 H     1 <1>   0.1500 
 45 H        6.7440    -0.8760     1.4460 H     1 <1>   0.1500 
 46 H        7.9580    -2.8120    -2.9020 H     1 <1>   0.1500 
 47 H        8.9730    -1.8250     1.1130 H     1 <1>   0.1500 
 48 H        9.5870    -2.8010    -1.0580 H     1 <1>   0.1500 
@<TRIPOS>BOND
  1   1   2  1   
  2   1   3  1   
  3   2   4  ar  
  4   2   5  ar  
  5   3   6  1   
  6   3  24  1   
  7   3  25  1   
  8   4   7  1   
  9   4   8  ar  
 10   5   9  ar  
 11   5  26  1   
 12   6  10  1   
 13   6  27  1   
 14   6  28  1   
 15   7  11  1   
 16   8  12  ar  
 17   8  29  1   
 18   9  12  ar  
 19   9  30  1   
 20  10  13  1   
 21  10  14  1   
 22  10  31  1   
 23  11  32  1   
 24  11  33  1   
 25  11  34  1   
 26  12  35  1   
 27  13  15  1   
 28  13  36  1   
 29  13  37  1   
 30  14  16  1   
 31  14  38  1   
 32  14  39  1   
 33  15  17  1   
 34  15  40  1   
 35  15  41  1   
 36  16  17  1   
 37  16  42  1   
 38  16  43  1   
 39  17  18  1   
 40  18  19  ar  
 41  18  20  ar  
 42  19  21  ar  
 43  19  44  1   
 44  20  22  ar  
 45  20  45  1   
 46  21  23  ar  
 47  21  46  1   
 48  22  23  ar  
 49  22  47  1   
 50  23  48  1   
@<TRIPOS>SUBSTRUCTURE
  1 ****  15 GROUP 4 **** **** 0

# MOE 2024.06 (io_trps.svl 2023.06)
