@<TRIPOS>MOLECULE
NONAME
31 31 1 0 0 
SMALL
USER_CHARGES


@<TRIPOS>ATOM
  1 I       -0.6690     1.0420    -3.2000 I     1 <1>  -0.0810 
  2 C       -1.9060     1.4470    -1.5040 C.ar  1 <1>   0.0810 
  3 C       -1.5640     2.4550    -0.6080 C.ar  1 <1>   0.0830 
  4 C       -3.0370     0.6670    -1.3540 C.ar  1 <1>  -0.1500 
  5 O       -0.4350     3.1820    -0.8210 O.3   1 <1>  -0.3630 
  6 C       -2.4130     2.6650     0.4740 C.ar  1 <1>  -0.1500 
  7 C       -3.8850     0.8790    -0.2730 C.ar  1 <1>  -0.0090 
  8 C       -0.0310     4.2030     0.0630 C.3   1 <1>   0.0400 
  9 C       -3.5510     1.8870     0.6290 C.ar  1 <1>  -0.1500 
 10 S       -5.3920    -0.1030    -0.0490 S.o2  1 <1>   1.4470 
 11 O       -5.5170    -1.0890    -1.0970 O.2   1 <1>  -0.6500 
 12 O       -5.5370    -0.4750     1.3390 O.2   1 <1>  -0.6500 
 13 N       -6.6060     0.9960    -0.4040 N.am  1 <1>  -0.9140 
 14 C       -7.8970     0.6140     0.1650 C.3   1 <1>   0.1960 
 15 C       -8.9670     1.6340    -0.2250 C.3   1 <1>   0.1200 
 16 O      -10.1960     1.1920     0.2560 O.3   1 <1>  -0.5600 
 17 C      -11.2510     2.0600    -0.0030 C.3   1 <1>   0.0400 
 18 H       -3.2600    -0.1030    -2.0730 H     1 <1>   0.1500 
 19 H       -2.2100     3.4260     1.2030 H     1 <1>   0.1500 
 20 H        0.8860     4.6220    -0.3100 H     1 <1>   0.0800 
 21 H        0.1330     3.7780     1.0380 H     1 <1>   0.0800 
 22 H       -0.7920     4.9620     0.0940 H     1 <1>   0.0800 
 23 H       -4.1990     2.0630     1.4720 H     1 <1>   0.1500 
 24 H       -6.6960     0.9140    -1.4150 H     1 <1>   0.4200 
 25 H       -7.8260     0.5810     1.2400 H     1 <1>   0.0800 
 26 H       -8.1800    -0.3610    -0.1960 H     1 <1>   0.0800 
 27 H       -9.0330     1.7220    -1.2950 H     1 <1>   0.0800 
 28 H       -8.7450     2.5890     0.2190 H     1 <1>   0.0800 
 29 H      -12.1480     1.6280     0.4050 H     1 <1>   0.0800 
 30 H      -11.3590     2.1840    -1.0660 H     1 <1>   0.0800 
 31 H      -11.0580     3.0070     0.4730 H     1 <1>   0.0800 
@<TRIPOS>BOND
  1   1   2  1   
  2   2   3  ar  
  3   2   4  ar  
  4   3   5  1   
  5   3   6  ar  
  6   4   7  ar  
  7   4  18  1   
  8   5   8  1   
  9   6   9  ar  
 10   6  19  1   
 11   7   9  ar  
 12   7  10  1   
 13   8  20  1   
 14   8  21  1   
 15   8  22  1   
 16   9  23  1   
 17  10  11  2   
 18  10  12  2   
 19  10  13  am  
 20  13  14  1   
 21  13  24  1   
 22  14  15  1   
 23  14  25  1   
 24  14  26  1   
 25  15  16  1   
 26  15  27  1   
 27  15  28  1   
 28  16  17  1   
 29  17  29  1   
 30  17  30  1   
 31  17  31  1   
@<TRIPOS>SUBSTRUCTURE
  1 ****   7 GROUP 4 **** **** 0

# MOE 2024.06 (io_trps.svl 2023.06)
