@<TRIPOS>MOLECULE
NONAME
30 30 1 0 0 
SMALL
USER_CHARGES


@<TRIPOS>ATOM
  1 O       -0.9810     0.4410     1.7470 O.co2 1 <1>  -0.9000 
  2 C       -0.8710     0.8670     0.5950 C.2   1 <1>   0.9060 
  3 O       -0.1970     0.2870    -0.2790 O.co2 1 <1>  -0.9000 
  4 C       -1.5160     2.2180     0.1330 C.3   1 <1>   0.5400 
  5 N       -1.0180     2.4770    -1.2370 N.4   1 <1>  -0.8530 
  6 C       -3.0510     2.2070     0.0050 C.ar  1 <1>  -0.1430 
  7 C       -1.0500     3.3820     1.0170 C.3   1 <1>  -0.2400 
  8 C       -3.7210     3.3050    -0.5320 C.ar  1 <1>  -0.1500 
  9 C       -3.8090     1.1100     0.4060 C.ar  1 <1>  -0.1500 
 10 C       -5.0960     3.2980    -0.6740 C.ar  1 <1>  -0.1500 
 11 C       -5.1850     1.1020     0.2650 C.ar  1 <1>  -0.1500 
 12 C       -5.8390     2.2000    -0.2820 C.ar  1 <1>   0.0830 
 13 O       -7.1810     2.2740    -0.4590 O.3   1 <1>  -0.3630 
 14 C       -8.0320     1.2300    -0.0500 C.3   1 <1>   0.1200 
 15 C       -9.4670     1.6370    -0.3700 C.3   1 <1>  -0.2400 
 16 H       -0.4570     1.6070    -1.3970 H     1 <1>   0.4500 
 17 H       -0.4080     3.2860    -1.2810 H     1 <1>   0.4500 
 18 H       -1.8050     2.4770    -1.8840 H     1 <1>   0.4500 
 19 H        0.0220     3.3870     1.0960 H     1 <1>   0.0800 
 20 H       -1.4450     3.2360     2.0080 H     1 <1>   0.0800 
 21 H       -1.3950     4.3330     0.6560 H     1 <1>   0.0800 
 22 H       -3.1890     4.1870    -0.8430 H     1 <1>   0.1500 
 23 H       -3.3470     0.2370     0.8410 H     1 <1>   0.1500 
 24 H       -5.6100     4.1480    -1.0890 H     1 <1>   0.1500 
 25 H       -5.7270     0.2330     0.5880 H     1 <1>   0.1500 
 26 H       -7.9060     1.0820     1.0090 H     1 <1>   0.0800 
 27 H       -7.7610     0.3370    -0.5880 H     1 <1>   0.0800 
 28 H       -9.7220     2.5380     0.1590 H     1 <1>   0.0800 
 29 H      -10.1440     0.8590    -0.0680 H     1 <1>   0.0800 
 30 H       -9.5790     1.7980    -1.4270 H     1 <1>   0.0800 
@<TRIPOS>BOND
  1   1   2  ar  
  2   2   3  ar  
  3   2   4  1   
  4   4   5  1   
  5   4   6  1   
  6   4   7  1   
  7   5  16  1   
  8   5  17  1   
  9   5  18  1   
 10   6   8  ar  
 11   6   9  ar  
 12   7  19  1   
 13   7  20  1   
 14   7  21  1   
 15   8  10  ar  
 16   8  22  1   
 17   9  11  ar  
 18   9  23  1   
 19  10  12  ar  
 20  10  24  1   
 21  11  12  ar  
 22  11  25  1   
 23  12  13  1   
 24  13  14  1   
 25  14  15  1   
 26  14  26  1   
 27  14  27  1   
 28  15  28  1   
 29  15  29  1   
 30  15  30  1   
@<TRIPOS>SUBSTRUCTURE
  1 ****   6 GROUP 4 **** **** 0

# MOE 2024.06 (io_trps.svl 2023.06)
