@<TRIPOS>MOLECULE
NONAME
39 41 1 0 0 
SMALL
USER_CHARGES


@<TRIPOS>ATOM
  1 S       -0.8640    -0.2210    -0.1630 S.3   1 <1>  -0.0800 
  2 C        0.4250    -1.0140    -1.0050 C.2   1 <1>   0.4420 
  3 C       -1.7910    -0.3430    -1.6190 C.2   1 <1>   0.1980 
  4 N        0.1150    -1.2930    -2.2180 N.2   1 <1>  -0.3380 
  5 N        1.5830    -1.2320    -0.2920 N.am  1 <1>  -0.4940 
  6 N       -1.1520    -0.9070    -2.5630 N.2   1 <1>  -0.3380 
  7 C       -3.2010     0.2120    -1.6280 C.3   1 <1>   0.1640 
  8 C        2.7580    -1.8200    -0.6590 C.2   1 <1>   0.5690 
  9 C       -4.0950    -0.5300    -0.6370 C.ar  1 <1>  -0.1440 
 10 O        2.9660    -2.2950    -1.7490 O.2   1 <1>  -0.5700 
 11 C        3.8670    -1.8640     0.4000 C.3   1 <1>   0.2610 
 12 C       -4.4570     0.0300     0.5860 C.ar  1 <1>   0.0820 
 13 C       -4.5470    -1.7980    -0.9710 C.ar  1 <1>  -0.1500 
 14 O        3.4320    -1.3490     1.6330 O.3   1 <1>  -0.5600 
 15 C        5.0860    -1.0140     0.0600 C.3   1 <1>  -0.1600 
 16 O       -3.9840     1.2690     0.8840 O.3   1 <1>  -0.3630 
 17 C       -5.2780    -0.6890     1.4540 C.ar  1 <1>  -0.1500 
 18 C       -5.3600    -2.5060    -0.1040 C.ar  1 <1>  -0.1500 
 19 C        4.5340    -0.9920     2.4060 C.3   1 <1>   0.1200 
 20 C        5.6430    -0.6270     1.4220 C.3   1 <1>  -0.1600 
 21 C       -4.2690     1.8980     2.1140 C.3   1 <1>   0.0400 
 22 C       -5.7260    -1.9500     1.1070 C.ar  1 <1>  -0.1500 
 23 H        1.5890    -0.9150     0.6780 H     1 <1>   0.3700 
 24 H       -3.6080     0.1010    -2.6160 H     1 <1>   0.0800 
 25 H       -3.1640     1.2640    -1.4180 H     1 <1>   0.0800 
 26 H        4.1610    -2.8860     0.5610 H     1 <1>   0.0800 
 27 H       -4.2630    -2.2440    -1.9090 H     1 <1>   0.1500 
 28 H        4.7750    -0.1360    -0.4800 H     1 <1>   0.0800 
 29 H        5.7900    -1.5620    -0.5410 H     1 <1>   0.0800 
 30 H       -5.5790    -0.2860     2.4010 H     1 <1>   0.1500 
 31 H       -5.7060    -3.4890    -0.3740 H     1 <1>   0.1500 
 32 H        4.8100    -1.8420     3.0070 H     1 <1>   0.0800 
 33 H        4.2600    -0.1660     3.0400 H     1 <1>   0.0800 
 34 H        5.8670     0.4250     1.4680 H     1 <1>   0.0800 
 35 H        6.5350    -1.1830     1.6540 H     1 <1>   0.0800 
 36 H       -3.7770     2.8530     2.1230 H     1 <1>   0.0800 
 37 H       -3.8940     1.2860     2.9150 H     1 <1>   0.0800 
 38 H       -5.3330     2.0350     2.1980 H     1 <1>   0.0800 
 39 H       -6.3600    -2.5020     1.7810 H     1 <1>   0.1500 
@<TRIPOS>BOND
  1   1   2  1   
  2   1   3  1   
  3   2   4  2   
  4   2   5  1   
  5   3   6  2   
  6   3   7  1   
  7   4   6  1   
  8   5   8  am  
  9   5  23  1   
 10   7   9  1   
 11   7  24  1   
 12   7  25  1   
 13   8  10  2   
 14   8  11  1   
 15   9  12  ar  
 16   9  13  ar  
 17  11  14  1   
 18  11  15  1   
 19  11  26  1   
 20  12  16  1   
 21  12  17  ar  
 22  13  18  ar  
 23  13  27  1   
 24  14  19  1   
 25  15  20  1   
 26  15  28  1   
 27  15  29  1   
 28  16  21  1   
 29  17  22  ar  
 30  17  30  1   
 31  18  22  ar  
 32  18  31  1   
 33  19  20  1   
 34  19  32  1   
 35  19  33  1   
 36  20  34  1   
 37  20  35  1   
 38  21  36  1   
 39  21  37  1   
 40  21  38  1   
 41  22  39  1   
@<TRIPOS>SUBSTRUCTURE
  1 ****   1 GROUP 4 **** **** 0

# MOE 2024.06 (io_trps.svl 2023.06)
