@<TRIPOS>MOLECULE
NONAME
44 47 1 0 0 
SMALL
USER_CHARGES


@<TRIPOS>ATOM
  1 S       -0.1950     0.7630     2.3660 S.3   1 <1>  -0.2860 
  2 C        0.8910    -0.5920     1.9010 C.2   1 <1>   0.2420 
  3 C       -1.8990     0.0170     2.4210 C.3   1 <1>   0.1310 
  4 N        0.5180    -1.8150     1.7850 N.2   1 <1>  -0.3380 
  5 N        2.1800    -0.4010     1.6330 N.pl3 1 <1>   0.0480 
  6 C       -2.7790     0.6430     1.3460 C.2   1 <1>   0.5690 
  7 N        1.6040    -2.4910     1.4080 N.2   1 <1>  -0.3380 
  8 C        2.5910    -1.6420     1.3090 C.2   1 <1>   0.1870 
  9 C        2.9550     0.8550     1.7340 C.3   1 <1>   0.0160 
 10 O       -3.6090     1.4390     1.7190 O.2   1 <1>  -0.5700 
 11 N       -2.6430     0.3260     0.0150 N.am  1 <1>  -0.6600 
 12 C        3.9380    -1.9700     0.9200 C.2   1 <1>  -0.0010 
 13 C       -1.7050    -0.7010    -0.5390 C.3   1 <1>   0.1400 
 14 C       -3.3810     1.0890    -1.0390 C.3   1 <1>   0.1400 
 15 C        4.6670    -1.3670    -0.1400 C.ar  1 <1>   0.0000 
 16 C        4.7700    -2.8940     1.4780 C.2   1 <1>  -0.3020 
 17 C       -2.3570    -1.5120    -1.6710 C.3   1 <1>   0.1200 
 18 C       -3.9420     0.1500    -2.1170 C.3   1 <1>   0.1200 
 19 C        5.9320    -1.9450    -0.1450 C.ar  1 <1>  -0.1520 
 20 C        4.3550    -0.3970    -1.1000 C.ar  1 <1>  -0.1500 
 21 N        5.9770    -2.8880     0.8480 N.pl3 1 <1>   0.0330 
 22 O       -2.9310    -0.6690    -2.6280 O.3   1 <1>  -0.5600 
 23 C        6.9030    -1.5500    -1.0670 C.ar  1 <1>  -0.1500 
 24 C        5.3100    -0.0080    -2.0100 C.ar  1 <1>  -0.1500 
 25 C        6.5860    -0.5810    -1.9920 C.ar  1 <1>  -0.1500 
 26 H       -2.2970     0.2390     3.3930 H     1 <1>   0.0800 
 27 H       -1.8270    -1.0460     2.3050 H     1 <1>   0.0800 
 28 H        2.6910     1.3660     2.6420 H     1 <1>   0.0800 
 29 H        2.7280     1.4820     0.8910 H     1 <1>   0.0800 
 30 H        4.0070     0.6360     1.7470 H     1 <1>   0.0800 
 31 H       -1.4060    -1.3920     0.2240 H     1 <1>   0.0800 
 32 H       -0.8240    -0.2130    -0.9140 H     1 <1>   0.0800 
 33 H       -2.7080     1.7910    -1.4990 H     1 <1>   0.0800 
 34 H       -4.1920     1.6470    -0.6040 H     1 <1>   0.0800 
 35 H        4.5520    -3.5560     2.2970 H     1 <1>   0.1500 
 36 H       -3.1230    -2.1590    -1.2790 H     1 <1>   0.0800 
 37 H       -1.6170    -2.1170    -2.1650 H     1 <1>   0.0800 
 38 H       -4.3450     0.7230    -2.9330 H     1 <1>   0.0800 
 39 H       -4.7220    -0.4700    -1.7110 H     1 <1>   0.0800 
 40 H        3.3680     0.0280    -1.1210 H     1 <1>   0.1500 
 41 H        6.7810    -3.4870     1.0580 H     1 <1>   0.2700 
 42 H        7.8790    -2.0020    -1.0510 H     1 <1>   0.1500 
 43 H        5.0840     0.7390    -2.7520 H     1 <1>   0.1500 
 44 H        7.3170    -0.2600    -2.7130 H     1 <1>   0.1500 
@<TRIPOS>BOND
  1   1   2  1   
  2   1   3  1   
  3   2   4  2   
  4   2   5  1   
  5   3   6  1   
  6   3  26  1   
  7   3  27  1   
  8   4   7  1   
  9   5   8  1   
 10   5   9  1   
 11   6  10  2   
 12   6  11  am  
 13   7   8  2   
 14   8  12  1   
 15   9  28  1   
 16   9  29  1   
 17   9  30  1   
 18  11  13  1   
 19  11  14  1   
 20  12  15  1   
 21  12  16  2   
 22  13  17  1   
 23  13  31  1   
 24  13  32  1   
 25  14  18  1   
 26  14  33  1   
 27  14  34  1   
 28  15  19  ar  
 29  15  20  ar  
 30  16  21  1   
 31  16  35  1   
 32  17  22  1   
 33  17  36  1   
 34  17  37  1   
 35  18  22  1   
 36  18  38  1   
 37  18  39  1   
 38  19  21  1   
 39  19  23  ar  
 40  20  24  ar  
 41  20  40  1   
 42  21  41  1   
 43  23  25  ar  
 44  23  42  1   
 45  24  25  ar  
 46  24  43  1   
 47  25  44  1   
@<TRIPOS>SUBSTRUCTURE
  1 ****   5 GROUP 4 **** **** 0

# MOE 2024.06 (io_trps.svl 2023.06)
