@<TRIPOS>MOLECULE
NONAME
38 38 1 0 0 
SMALL
USER_CHARGES


@<TRIPOS>ATOM
  1 O        3.7120    -2.6090     0.6260 O.2   1 <1>  -0.5700 
  2 C        2.5380    -2.3270     0.6350 C.2   1 <1>   0.6590 
  3 O        1.5800    -3.1740     0.2860 O.3   1 <1>  -0.4300 
  4 C        2.0650    -0.9580     1.0470 C.3   1 <1>  -0.1790 
  5 C        1.7890    -4.5220    -0.0850 C.3   1 <1>   0.2000 
  6 C        1.9010    -4.6430    -1.6170 C.3   1 <1>   0.0400 
  7 C        0.5980    -5.3130     0.4560 C.3   1 <1>  -0.2400 
  8 C        3.1670    -4.0320    -2.1160 C.1   1 <1>  -0.2000 
  9 C        4.2060    -3.5050    -2.3490 C.1   1 <1>  -0.2000 
 10 C        5.5100    -2.7990    -2.3870 C.3   1 <1>   0.5430 
 11 N        6.0280    -2.8220    -1.0010 N.4   1 <1>  -0.9590 
 12 C        6.9740    -1.7120    -0.7210 C.3   1 <1>   0.3430 
 13 C        6.5670    -4.1580    -0.6270 C.3   1 <1>   0.3430 
 14 C        7.3100    -1.6930     0.7710 C.3   1 <1>  -0.1600 
 15 C        6.9030    -4.1760     0.8650 C.3   1 <1>  -0.1600 
 16 C        7.8630    -3.0420     1.2480 C.3   1 <1>  -0.1600 
 17 H        2.9010    -0.3480     1.3340 H     1 <1>   0.0800 
 18 H        1.5500    -0.4940     0.2280 H     1 <1>   0.0800 
 19 H        1.3930    -1.0490     1.8800 H     1 <1>   0.0800 
 20 H        2.6910    -4.8770     0.3860 H     1 <1>   0.0800 
 21 H        1.0530    -4.1740    -2.0840 H     1 <1>   0.0800 
 22 H        1.8990    -5.6820    -1.8920 H     1 <1>   0.0800 
 23 H       -0.3190    -4.9610     0.0170 H     1 <1>   0.0800 
 24 H        0.5410    -5.2080     1.5250 H     1 <1>   0.0800 
 25 H        0.7090    -6.3570     0.2260 H     1 <1>   0.0800 
 26 H        5.3510    -1.7840    -2.7120 H     1 <1>   0.0800 
 27 H        6.1930    -3.2870    -3.0630 H     1 <1>   0.0800 
 28 H        5.1910    -2.6830    -0.3970 H     1 <1>   0.4500 
 29 H        6.5310    -0.7690    -0.9980 H     1 <1>   0.0800 
 30 H        7.8790    -1.8480    -1.2920 H     1 <1>   0.0800 
 31 H        7.4560    -4.3690    -1.2000 H     1 <1>   0.0800 
 32 H        5.8350    -4.9220    -0.8360 H     1 <1>   0.0800 
 33 H        6.4230    -1.4450     1.3290 H     1 <1>   0.0800 
 34 H        8.0360    -0.9210     0.9610 H     1 <1>   0.0800 
 35 H        7.3490    -5.1230     1.1150 H     1 <1>   0.0800 
 36 H        5.9920    -4.0900     1.4320 H     1 <1>   0.0800 
 37 H        7.9980    -3.0240     2.3170 H     1 <1>   0.0800 
 38 H        8.8260    -3.2170     0.7990 H     1 <1>   0.0800 
@<TRIPOS>BOND
  1   1   2  2   
  2   2   3  1   
  3   2   4  1   
  4   3   5  1   
  5   4  17  1   
  6   4  18  1   
  7   4  19  1   
  8   5   6  1   
  9   5   7  1   
 10   5  20  1   
 11   6   8  1   
 12   6  21  1   
 13   6  22  1   
 14   7  23  1   
 15   7  24  1   
 16   7  25  1   
 17   8   9  3   
 18   9  10  1   
 19  10  11  1   
 20  10  26  1   
 21  10  27  1   
 22  11  12  1   
 23  11  13  1   
 24  11  28  1   
 25  12  14  1   
 26  12  29  1   
 27  12  30  1   
 28  13  15  1   
 29  13  31  1   
 30  13  32  1   
 31  14  16  1   
 32  14  33  1   
 33  14  34  1   
 34  15  16  1   
 35  15  35  1   
 36  15  36  1   
 37  16  37  1   
 38  16  38  1   
@<TRIPOS>SUBSTRUCTURE
  1 ****   1 GROUP 4 **** **** 0

# MOE 2024.06 (io_trps.svl 2023.06)
