@<TRIPOS>MOLECULE
NONAME
47 49 1 0 0 
SMALL
USER_CHARGES


@<TRIPOS>ATOM
  1 S        0.6000     0.3900     1.3410 S.o2  1 <1>   1.2040 
  2 O        0.2320    -0.3900     2.5050 O.2   1 <1>  -0.6500 
  3 O        1.4730     1.5180     1.5760 O.2   1 <1>  -0.6500 
  4 C       -0.9670     0.9580     0.6170 C.ar  1 <1>  -0.0090 
  5 C        1.3960    -0.7540     0.1870 C.3   1 <1>   0.2100 
  6 C       -2.0970     0.1470     0.6290 C.ar  1 <1>  -0.1500 
  7 C       -1.0960     2.2200     0.0470 C.ar  1 <1>  -0.1500 
  8 S        2.0680     0.2240    -1.1900 S.o2  1 <1>   1.2040 
  9 C        2.4680    -1.6310     0.8840 C.3   1 <1>  -0.1600 
 10 C        0.4240    -1.8510    -0.3170 C.3   1 <1>  -0.1600 
 11 C       -3.2940     0.5630     0.0710 C.ar  1 <1>  -0.1500 
 12 C       -2.2880     2.6430    -0.5130 C.ar  1 <1>  -0.1500 
 13 O        1.1350     1.2700    -1.5370 O.2   1 <1>  -0.6500 
 14 O        2.4130    -0.6910    -2.2580 O.2   1 <1>  -0.6500 
 15 C        3.6340     0.9780    -0.6610 C.ar  1 <1>  -0.0090 
 16 C        2.6180    -2.8920     0.0320 C.3   1 <1>  -0.1600 
 17 C        1.2690    -3.0820    -0.6670 C.3   1 <1>  -0.1600 
 18 C       -3.3940     1.8140    -0.5090 C.ar  1 <1>  -0.1430 
 19 C        4.8270     0.2660    -0.7380 C.ar  1 <1>  -0.1500 
 20 C        3.7000     2.2800    -0.1780 C.ar  1 <1>  -0.1500 
 21 C       -4.7020     2.2770    -1.1250 C.3   1 <1>  -0.0970 
 22 C        6.0280     0.8160    -0.3250 C.ar  1 <1>  -0.1500 
 23 C        4.8960     2.8380     0.2370 C.ar  1 <1>  -0.1500 
 24 C        6.0680     2.1070     0.1710 C.ar  1 <1>  -0.1430 
 25 C        7.3810     2.7160     0.6280 C.3   1 <1>  -0.0970 
 26 H       -2.0550    -0.8230     1.0940 H     1 <1>   0.1500 
 27 H       -0.2480     2.8840     0.0320 H     1 <1>   0.1500 
 28 H        2.1050    -1.9370     1.8500 H     1 <1>   0.0800 
 29 H        3.4030    -1.1250     1.0430 H     1 <1>   0.0800 
 30 H       -0.1630    -1.5180    -1.1580 H     1 <1>   0.0800 
 31 H       -0.2420    -2.1330     0.4790 H     1 <1>   0.0800 
 32 H       -4.1490    -0.0910     0.0950 H     1 <1>   0.1500 
 33 H       -2.3470     3.6240    -0.9540 H     1 <1>   0.1500 
 34 H        2.8730    -3.7450     0.6380 H     1 <1>   0.0800 
 35 H        3.3890    -2.7540    -0.7080 H     1 <1>   0.0800 
 36 H        1.4170    -3.1480    -1.7330 H     1 <1>   0.0800 
 37 H        0.7830    -3.9840    -0.3330 H     1 <1>   0.0800 
 38 H        4.8240    -0.7350    -1.1350 H     1 <1>   0.1500 
 39 H        2.8030     2.8740    -0.1230 H     1 <1>   0.1500 
 40 H       -5.2800     1.4360    -1.4640 H     1 <1>   0.0800 
 41 H       -4.5120     2.9180    -1.9680 H     1 <1>   0.0800 
 42 H       -5.2750     2.8210    -0.3960 H     1 <1>   0.0800 
 43 H        6.9320     0.2370    -0.3970 H     1 <1>   0.1500 
 44 H        4.9070     3.8470     0.6130 H     1 <1>   0.1500 
 45 H        8.0430     1.9530     0.9950 H     1 <1>   0.0800 
 46 H        7.2110     3.4260     1.4170 H     1 <1>   0.0800 
 47 H        7.8540     3.2200    -0.1960 H     1 <1>   0.0800 
@<TRIPOS>BOND
  1   1   2  2   
  2   1   3  2   
  3   1   4  1   
  4   1   5  1   
  5   4   6  ar  
  6   4   7  ar  
  7   5   8  1   
  8   5   9  1   
  9   5  10  1   
 10   6  11  ar  
 11   6  26  1   
 12   7  12  ar  
 13   7  27  1   
 14   8  13  2   
 15   8  14  2   
 16   8  15  1   
 17   9  16  1   
 18   9  28  1   
 19   9  29  1   
 20  10  17  1   
 21  10  30  1   
 22  10  31  1   
 23  11  18  ar  
 24  11  32  1   
 25  12  18  ar  
 26  12  33  1   
 27  15  19  ar  
 28  15  20  ar  
 29  16  17  1   
 30  16  34  1   
 31  16  35  1   
 32  17  36  1   
 33  17  37  1   
 34  18  21  1   
 35  19  22  ar  
 36  19  38  1   
 37  20  23  ar  
 38  20  39  1   
 39  21  40  1   
 40  21  41  1   
 41  21  42  1   
 42  22  24  ar  
 43  22  43  1   
 44  23  24  ar  
 45  23  44  1   
 46  24  25  1   
 47  25  45  1   
 48  25  46  1   
 49  25  47  1   
@<TRIPOS>SUBSTRUCTURE
  1 ****   5 GROUP 4 **** **** 0

# MOE 2024.06 (io_trps.svl 2023.06)
