@<TRIPOS>MOLECULE
NONAME
53 54 1 0 0 
SMALL
USER_CHARGES


@<TRIPOS>ATOM
  1 O       -0.8010    -0.8450     1.1530 O.2   1 <1>  -0.5700 
  2 C       -0.4850    -1.6630     0.3450 C.2   1 <1>   0.4480 
  3 C        0.9690    -1.9950     0.0930 C.3   1 <1>   0.0420 
  4 C       -1.5320    -2.4510    -0.4180 C.3   1 <1>  -0.0990 
  5 C        1.3970    -1.3340    -1.1990 C.2   1 <1>   0.6590 
  6 C        1.2040    -3.5190     0.1360 C.3   1 <1>   0.0580 
  7 C       -1.3010    -3.9550    -0.2300 C.3   1 <1>   0.2800 
  8 O        0.8940    -1.6100    -2.2570 O.2   1 <1>  -0.5700 
  9 O        2.3730    -0.4420    -1.0980 O.3   1 <1>  -0.4300 
 10 C        2.6090    -3.8690    -0.3390 C.2   1 <1>  -0.2880 
 11 C        0.1430    -4.3290    -0.6500 C.3   1 <1>  -0.0190 
 12 O       -2.1680    -4.5970    -1.0800 O.3   1 <1>  -0.6800 
 13 C       -1.7100    -4.3910     1.1850 C.3   1 <1>  -0.2400 
 14 C        2.8840     0.2280    -2.2270 C.3   1 <1>   0.1200 
 15 C        3.5870    -4.3390     0.4530 C.2   1 <1>  -0.1780 
 16 C        0.4310    -5.8220    -0.5630 C.2   1 <1>   0.6590 
 17 C        3.9960     1.1600    -1.7600 C.3   1 <1>  -0.2400 
 18 C        4.9300    -4.7050     0.0670 C.ar  1 <1>   0.0280 
 19 O        0.5470    -6.5030    -1.5500 O.2   1 <1>  -0.5700 
 20 O        0.6130    -6.3240     0.6550 O.3   1 <1>  -0.4300 
 21 C        5.9430    -4.7530     1.0210 C.ar  1 <1>  -0.1500 
 22 C        5.2620    -5.0280    -1.2470 C.ar  1 <1>  -0.1500 
 23 C        0.9730    -7.6710     0.8430 C.3   1 <1>   0.1200 
 24 C        7.2380    -5.1000     0.6790 C.ar  1 <1>  -0.1500 
 25 C        6.5550    -5.3750    -1.5960 C.ar  1 <1>  -0.1500 
 26 C        1.1260    -7.9120     2.3410 C.3   1 <1>  -0.2400 
 27 C        7.5470    -5.4110    -0.6330 C.ar  1 <1>  -0.1500 
 28 H        1.5480    -1.5520     0.8820 H     1 <1>   0.0800 
 29 H       -2.5060    -2.1700    -0.0630 H     1 <1>   0.0800 
 30 H       -1.4700    -2.1950    -1.4600 H     1 <1>   0.0800 
 31 H        1.1330    -3.8090     1.1710 H     1 <1>   0.0800 
 32 H        2.7540    -3.7090    -1.3950 H     1 <1>   0.1500 
 33 H        0.2450    -4.0700    -1.6890 H     1 <1>   0.0800 
 34 H       -3.0910    -4.4560    -0.7970 H     1 <1>   0.4000 
 35 H       -1.6990    -5.4630     1.2770 H     1 <1>   0.0800 
 36 H       -2.7010    -4.0450     1.4180 H     1 <1>   0.0800 
 37 H       -1.0450    -3.9850     1.9240 H     1 <1>   0.0800 
 38 H        3.2610    -0.5070    -2.9190 H     1 <1>   0.0800 
 39 H        2.0820     0.7810    -2.6880 H     1 <1>   0.0800 
 40 H        3.3980    -4.4750     1.5040 H     1 <1>   0.1500 
 41 H        4.7820     0.5930    -1.2930 H     1 <1>   0.0800 
 42 H        3.6080     1.8800    -1.0610 H     1 <1>   0.0800 
 43 H        4.4070     1.6870    -2.6020 H     1 <1>   0.0800 
 44 H        5.7170    -4.5120     2.0440 H     1 <1>   0.1500 
 45 H        4.5020    -5.0150    -2.0060 H     1 <1>   0.1500 
 46 H        0.1990    -8.2930     0.4250 H     1 <1>   0.0800 
 47 H        1.9010    -7.8510     0.3250 H     1 <1>   0.0800 
 48 H        8.0060    -5.1290     1.4320 H     1 <1>   0.1500 
 49 H        6.7890    -5.6200    -2.6180 H     1 <1>   0.1500 
 50 H        0.1970    -7.7130     2.8460 H     1 <1>   0.0800 
 51 H        1.8980    -7.2800     2.7410 H     1 <1>   0.0800 
 52 H        1.3980    -8.9380     2.5160 H     1 <1>   0.0800 
 53 H        8.5530    -5.6820    -0.9020 H     1 <1>   0.1500 
@<TRIPOS>BOND
  1   1   2  2   
  2   2   3  1   
  3   2   4  1   
  4   3   5  1   
  5   3   6  1   
  6   3  28  1   
  7   4   7  1   
  8   4  29  1   
  9   4  30  1   
 10   5   8  2   
 11   5   9  1   
 12   6  10  1   
 13   6  11  1   
 14   6  31  1   
 15   7  11  1   
 16   7  12  1   
 17   7  13  1   
 18   9  14  1   
 19  10  15  2   
 20  10  32  1   
 21  11  16  1   
 22  11  33  1   
 23  12  34  1   
 24  13  35  1   
 25  13  36  1   
 26  13  37  1   
 27  14  17  1   
 28  14  38  1   
 29  14  39  1   
 30  15  18  1   
 31  15  40  1   
 32  16  19  2   
 33  16  20  1   
 34  17  41  1   
 35  17  42  1   
 36  17  43  1   
 37  18  21  ar  
 38  18  22  ar  
 39  20  23  1   
 40  21  24  ar  
 41  21  44  1   
 42  22  25  ar  
 43  22  45  1   
 44  23  26  1   
 45  23  46  1   
 46  23  47  1   
 47  24  27  ar  
 48  24  48  1   
 49  25  27  ar  
 50  25  49  1   
 51  26  50  1   
 52  26  51  1   
 53  26  52  1   
 54  27  53  1   
@<TRIPOS>SUBSTRUCTURE
  1 ****  10 GROUP 4 **** **** 0

# MOE 2024.06 (io_trps.svl 2023.06)
