@<TRIPOS>MOLECULE
NONAME
42 44 1 0 0 
SMALL
USER_CHARGES


@<TRIPOS>ATOM
  1 BR      -0.9600    -0.2000    -0.3820 Br    1 <1>  -0.1110 
  2 C        0.3500    -1.6180    -0.3960 C.ar  1 <1>   0.1110 
  3 C        1.5480    -1.4590    -1.1100 C.ar  1 <1>   0.0830 
  4 C        0.0560    -2.7710     0.2960 C.ar  1 <1>  -0.1500 
  5 O        1.8200    -0.3240    -1.7950 O.3   1 <1>  -0.3630 
  6 C        2.4640    -2.4930    -1.1450 C.ar  1 <1>  -0.1500 
  7 C        1.0020    -3.7860     0.2540 C.ar  1 <1>   0.1400 
  8 C        2.3140     0.7600    -1.0410 C.3   1 <1>   0.0400 
  9 C        2.1940    -3.6720    -0.4420 C.ar  1 <1>   0.0000 
 10 O        0.9270    -4.9810     0.8300 O.3   1 <1>  -0.2800 
 11 C        2.8670    -4.9090    -0.2430 C.2   1 <1>  -0.0860 
 12 C        2.0220    -5.6480     0.5250 C.2   1 <1>  -0.0400 
 13 C        4.1650    -5.2450    -0.7730 C.2   1 <1>   0.7160 
 14 C        2.1330    -7.0610     1.0640 C.3   1 <1>  -0.0600 
 15 O        4.4430    -6.3890    -1.0790 O.2   1 <1>  -0.5700 
 16 N        5.1660    -4.3050    -0.8830 N.am  1 <1>  -0.6600 
 17 C        5.4860    -3.4100     0.2670 C.3   1 <1>   0.1400 
 18 C        6.3260    -4.5610    -1.7870 C.3   1 <1>   0.1400 
 19 C        6.6840    -3.9740     1.0630 C.3   1 <1>   0.3430 
 20 C        7.4960    -5.1550    -0.9830 C.3   1 <1>   0.3430 
 21 N        7.8760    -4.2770     0.1860 N.4   1 <1>  -0.9590 
 22 C        8.9740    -4.9070     0.9810 C.3   1 <1>   0.2630 
 23 H       -0.8600    -2.8960     0.8410 H     1 <1>   0.1500 
 24 H        3.3660    -2.3900    -1.7180 H     1 <1>   0.1500 
 25 H        2.4710     1.5880    -1.7090 H     1 <1>   0.0800 
 26 H        3.2430     0.4730    -0.5840 H     1 <1>   0.0800 
 27 H        1.5940     1.0300    -0.2890 H     1 <1>   0.0800 
 28 H        1.3290    -7.6590     0.6740 H     1 <1>   0.0800 
 29 H        2.0630    -7.0480     2.1370 H     1 <1>   0.0800 
 30 H        3.0650    -7.5150     0.7830 H     1 <1>   0.0800 
 31 H        4.6380    -3.3240     0.9240 H     1 <1>   0.0800 
 32 H        5.7160    -2.4240    -0.0990 H     1 <1>   0.0800 
 33 H        6.6270    -3.6420    -2.2590 H     1 <1>   0.0800 
 34 H        6.0420    -5.2480    -2.5680 H     1 <1>   0.0800 
 35 H        6.3640    -4.8780     1.5540 H     1 <1>   0.0800 
 36 H        6.9630    -3.2670     1.8280 H     1 <1>   0.0800 
 37 H        8.3440    -5.2880    -1.6360 H     1 <1>   0.0800 
 38 H        7.1970    -6.1290    -0.6280 H     1 <1>   0.0800 
 39 H        8.2200    -3.3850    -0.1970 H     1 <1>   0.4500 
 40 H        8.6470    -5.8490     1.3910 H     1 <1>   0.0800 
 41 H        9.2700    -4.2620     1.7920 H     1 <1>   0.0800 
 42 H        9.8350    -5.0860     0.3560 H     1 <1>   0.0800 
@<TRIPOS>BOND
  1   1   2  1   
  2   2   3  ar  
  3   2   4  ar  
  4   3   5  1   
  5   3   6  ar  
  6   4   7  ar  
  7   4  23  1   
  8   5   8  1   
  9   6   9  ar  
 10   6  24  1   
 11   7   9  ar  
 12   7  10  1   
 13   8  25  1   
 14   8  26  1   
 15   8  27  1   
 16   9  11  1   
 17  10  12  1   
 18  11  12  2   
 19  11  13  1   
 20  12  14  1   
 21  13  15  2   
 22  13  16  am  
 23  14  28  1   
 24  14  29  1   
 25  14  30  1   
 26  16  17  1   
 27  16  18  1   
 28  17  19  1   
 29  17  31  1   
 30  17  32  1   
 31  18  20  1   
 32  18  33  1   
 33  18  34  1   
 34  19  21  1   
 35  19  35  1   
 36  19  36  1   
 37  20  21  1   
 38  20  37  1   
 39  20  38  1   
 40  21  22  1   
 41  21  39  1   
 42  22  40  1   
 43  22  41  1   
 44  22  42  1   
@<TRIPOS>SUBSTRUCTURE
  1 ****   9 GROUP 4 **** **** 0

# MOE 2024.06 (io_trps.svl 2023.06)
