@<TRIPOS>MOLECULE
NONAME
50 52 1 0 0 
SMALL
USER_CHARGES


@<TRIPOS>ATOM
  1 S       -0.2720     1.3080    -1.4930 S.o2  1 <1>   1.4470 
  2 O        1.0490     1.3070    -2.0810 O.2   1 <1>  -0.6500 
  3 O       -1.4180     1.5520    -2.3390 O.2   1 <1>  -0.6500 
  4 N       -0.2580     2.5650    -0.2970 N.am  1 <1>  -0.6930 
  5 C       -0.5370    -0.1970    -0.5170 C.ar  1 <1>  -0.0090 
  6 C       -1.4340     3.0540     0.2610 C.ar  1 <1>   0.1990 
  7 C        1.0610     2.8970     0.3300 C.3   1 <1>   0.2570 
  8 C        0.4840    -1.1200    -0.3180 C.ar  1 <1>  -0.1500 
  9 C       -1.7710    -0.4580     0.0690 C.ar  1 <1>  -0.1500 
 10 C       -1.7650     2.7890     1.5890 C.ar  1 <1>  -0.1500 
 11 C       -2.3040     3.8220    -0.5110 C.ar  1 <1>  -0.1500 
 12 C        1.7500     1.7260     1.0520 C.2   1 <1>   0.5690 
 13 C        0.2840    -2.2620     0.4380 C.ar  1 <1>  -0.1500 
 14 C       -1.9810    -1.5980     0.8260 C.ar  1 <1>  -0.1500 
 15 C       -2.9350     3.2830     2.1420 C.ar  1 <1>  -0.1500 
 16 C       -3.4790     4.3220     0.0250 C.ar  1 <1>  -0.1500 
 17 O        1.1760     1.2620     2.0110 O.2   1 <1>  -0.5700 
 18 N        2.9710     1.2310     0.6550 N.am  1 <1>  -0.6600 
 19 C       -0.9510    -2.5020     1.0120 C.ar  1 <1>  -0.1500 
 20 C       -3.7710     4.0430     1.3460 C.ar  1 <1>   0.1900 
 21 C        3.6000     0.0900     1.3740 C.3   1 <1>   0.1400 
 22 C        3.8160     1.7770    -0.4420 C.3   1 <1>   0.1400 
 23 F       -4.8790     4.5130     1.8610 F     1 <1>  -0.1900 
 24 C        4.6100     0.5810     2.4170 C.3   1 <1>  -0.1600 
 25 C        4.6520     2.9720     0.0340 C.3   1 <1>  -0.1600 
 26 C        5.7240     1.5000     1.8790 C.3   1 <1>  -0.1600 
 27 C        5.2050     2.8890     1.4690 C.3   1 <1>  -0.1600 
 28 H        0.9110     3.6750     1.0570 H     1 <1>   0.0800 
 29 H        1.7020     3.3000    -0.4290 H     1 <1>   0.0800 
 30 H        1.4510    -0.9400    -0.7560 H     1 <1>   0.1500 
 31 H       -2.5780     0.2410    -0.0710 H     1 <1>   0.1500 
 32 H       -1.1100     2.1880     2.1930 H     1 <1>   0.1500 
 33 H       -2.0550     4.0210    -1.5380 H     1 <1>   0.1500 
 34 H        1.0880    -2.9620     0.5820 H     1 <1>   0.1500 
 35 H       -2.9440    -1.7790     1.2710 H     1 <1>   0.1500 
 36 H       -3.1960     3.0830     3.1650 H     1 <1>   0.1500 
 37 H       -4.1550     4.9130    -0.5660 H     1 <1>   0.1500 
 38 H       -1.1100    -3.3870     1.6020 H     1 <1>   0.1500 
 39 H        4.0910    -0.5560     0.6670 H     1 <1>   0.0800 
 40 H        2.8410    -0.4950     1.8660 H     1 <1>   0.0800 
 41 H        3.2130     2.0660    -1.2830 H     1 <1>   0.0800 
 42 H        4.4790     1.0050    -0.7920 H     1 <1>   0.0800 
 43 H        5.0690    -0.2860     2.8590 H     1 <1>   0.0800 
 44 H        4.0730     1.0830     3.2040 H     1 <1>   0.0800 
 45 H        4.0640     3.8680    -0.0540 H     1 <1>   0.0800 
 46 H        5.4770     3.0790    -0.6490 H     1 <1>   0.0800 
 47 H        6.2420     1.0310     1.0600 H     1 <1>   0.0800 
 48 H        6.4400     1.6370     2.6720 H     1 <1>   0.0800 
 49 H        4.4420     3.1980     2.1640 H     1 <1>   0.0800 
 50 H        6.0100     3.5990     1.5560 H     1 <1>   0.0800 
@<TRIPOS>BOND
  1   1   2  2   
  2   1   3  2   
  3   1   4  am  
  4   1   5  1   
  5   4   6  1   
  6   4   7  1   
  7   5   8  ar  
  8   5   9  ar  
  9   6  10  ar  
 10   6  11  ar  
 11   7  12  1   
 12   7  28  1   
 13   7  29  1   
 14   8  13  ar  
 15   8  30  1   
 16   9  14  ar  
 17   9  31  1   
 18  10  15  ar  
 19  10  32  1   
 20  11  16  ar  
 21  11  33  1   
 22  12  17  2   
 23  12  18  am  
 24  13  19  ar  
 25  13  34  1   
 26  14  19  ar  
 27  14  35  1   
 28  15  20  ar  
 29  15  36  1   
 30  16  20  ar  
 31  16  37  1   
 32  18  21  1   
 33  18  22  1   
 34  19  38  1   
 35  20  23  1   
 36  21  24  1   
 37  21  39  1   
 38  21  40  1   
 39  22  25  1   
 40  22  41  1   
 41  22  42  1   
 42  24  26  1   
 43  24  43  1   
 44  24  44  1   
 45  25  27  1   
 46  25  45  1   
 47  25  46  1   
 48  26  27  1   
 49  26  47  1   
 50  26  48  1   
 51  27  49  1   
 52  27  50  1   
@<TRIPOS>SUBSTRUCTURE
  1 ****   4 GROUP 4 **** **** 0

# MOE 2024.06 (io_trps.svl 2023.06)
