@<TRIPOS>MOLECULE
NONAME
51 53 1 0 0 
SMALL
USER_CHARGES


@<TRIPOS>ATOM
  1 O       -0.0930     0.1010     0.2590 O.2   1 <1>  -0.5700 
  2 C        0.0410     1.3010     0.1220 C.2   1 <1>   0.5440 
  3 N        1.2910     1.7780    -0.1390 N.am  1 <1>  -0.7300 
  4 C       -1.1020     2.1970     0.2200 C.ar  1 <1>   0.0860 
  5 C        2.5120     0.9580    -0.1770 C.3   1 <1>   0.2840 
  6 C       -2.4000     1.7110     0.0680 C.ar  1 <1>  -0.1500 
  7 C       -0.9580     3.5630     0.4700 C.ar  1 <1>  -0.1500 
  8 C        3.6940     1.8810     0.0550 C.ar  1 <1>  -0.1440 
  9 C       -3.5200     2.5260     0.1440 C.ar  1 <1>   0.1170 
 10 C       -2.0580     4.3970     0.5450 C.ar  1 <1>  -0.1500 
 11 C        4.4140     2.3800    -1.0270 C.ar  1 <1>  -0.1500 
 12 C        4.0530     2.2370     1.3550 C.ar  1 <1>  -0.1500 
 13 N       -4.7830     1.9380    -0.0310 N.am  1 <1>  -0.5470 
 14 C       -3.3300     3.8830     0.3800 C.ar  1 <1>  -0.1500 
 15 C        5.4760     3.2230    -0.7700 C.ar  1 <1>   0.0830 
 16 C        5.1260     3.0860     1.5940 C.ar  1 <1>  -0.1500 
 17 C       -6.0490     2.3940     0.2260 C.2   1 <1>   0.5690 
 18 O        6.2960     3.8130    -1.6460 O.3   1 <1>  -0.3630 
 19 C        5.8230     3.5660     0.5040 C.ar  1 <1>   0.0830 
 20 O       -6.2850     3.4760     0.7050 O.2   1 <1>  -0.5700 
 21 C       -7.2170     1.4590    -0.1060 C.3   1 <1>  -0.0190 
 22 C        7.2290     4.5750    -0.8810 C.3   1 <1>   0.4000 
 23 O        6.8780     4.3880     0.4880 O.3   1 <1>  -0.3630 
 24 C       -8.1350     2.1360    -1.1510 C.3   1 <1>  -0.1600 
 25 C       -7.9560     1.0490     1.1910 C.3   1 <1>  -0.1600 
 26 C       -9.2700     1.2520    -1.6820 C.3   1 <1>  -0.2400 
 27 C       -8.4500    -0.4060     1.1870 C.3   1 <1>  -0.2400 
 28 H        1.4480     2.7700    -0.3170 H     1 <1>   0.3700 
 29 H        2.5890     0.4740    -1.1360 H     1 <1>   0.0800 
 30 H        2.4690     0.2000     0.5870 H     1 <1>   0.0800 
 31 H       -2.5290     0.6590    -0.1140 H     1 <1>   0.1500 
 32 H        0.0200     3.9840     0.6140 H     1 <1>   0.1500 
 33 H       -1.9290     5.4490     0.7350 H     1 <1>   0.1500 
 34 H        4.1640     2.1280    -2.0420 H     1 <1>   0.1500 
 35 H        3.4900     1.8510     2.1890 H     1 <1>   0.1500 
 36 H       -4.7480     0.9810    -0.3750 H     1 <1>   0.3700 
 37 H       -4.1710     4.5490     0.4370 H     1 <1>   0.1500 
 38 H        5.4140     3.3690     2.5900 H     1 <1>   0.1500 
 39 H       -6.8040     0.5740    -0.5550 H     1 <1>   0.0800 
 40 H        7.1410     5.6160    -1.1380 H     1 <1>   0.0800 
 41 H        8.2240     4.2050    -1.0520 H     1 <1>   0.0800 
 42 H       -7.5280     2.4420    -1.9870 H     1 <1>   0.0800 
 43 H       -8.5590     3.0320    -0.7260 H     1 <1>   0.0800 
 44 H       -8.7800     1.7190     1.3700 H     1 <1>   0.0800 
 45 H       -7.2840     1.1560     2.0270 H     1 <1>   0.0800 
 46 H       -8.8870     0.3110    -2.0360 H     1 <1>   0.0800 
 47 H       -9.7640     1.7480    -2.4990 H     1 <1>   0.0800 
 48 H      -10.0010     1.0730    -0.9140 H     1 <1>   0.0800 
 49 H       -9.1490    -0.5850     0.3930 H     1 <1>   0.0800 
 50 H       -8.9410    -0.6230     2.1200 H     1 <1>   0.0800 
 51 H       -7.6220    -1.0840     1.0770 H     1 <1>   0.0800 
@<TRIPOS>BOND
  1   1   2  2   
  2   2   3  am  
  3   2   4  1   
  4   3   5  1   
  5   3  28  1   
  6   4   6  ar  
  7   4   7  ar  
  8   5   8  1   
  9   5  29  1   
 10   5  30  1   
 11   6   9  ar  
 12   6  31  1   
 13   7  10  ar  
 14   7  32  1   
 15   8  11  ar  
 16   8  12  ar  
 17   9  13  1   
 18   9  14  ar  
 19  10  14  ar  
 20  10  33  1   
 21  11  15  ar  
 22  11  34  1   
 23  12  16  ar  
 24  12  35  1   
 25  13  17  am  
 26  13  36  1   
 27  14  37  1   
 28  15  18  1   
 29  15  19  ar  
 30  16  19  ar  
 31  16  38  1   
 32  17  20  2   
 33  17  21  1   
 34  18  22  1   
 35  19  23  1   
 36  21  24  1   
 37  21  25  1   
 38  21  39  1   
 39  22  23  1   
 40  22  40  1   
 41  22  41  1   
 42  24  26  1   
 43  24  42  1   
 44  24  43  1   
 45  25  27  1   
 46  25  44  1   
 47  25  45  1   
 48  26  46  1   
 49  26  47  1   
 50  26  48  1   
 51  27  49  1   
 52  27  50  1   
 53  27  51  1   
@<TRIPOS>SUBSTRUCTURE
  1 ****   4 GROUP 4 **** **** 0

# MOE 2024.06 (io_trps.svl 2023.06)
