@<TRIPOS>MOLECULE
NONAME
44 45 1 0 0 
SMALL
USER_CHARGES


@<TRIPOS>ATOM
  1 CL      -0.9810    -0.4470    -1.9740 Cl    1 <1>  -0.1770 
  2 C       -0.6830    -1.9370    -1.0880 C.ar  1 <1>   0.1770 
  3 C       -1.6670    -2.4460    -0.2170 C.ar  1 <1>  -0.1710 
  4 C        0.5230    -2.5570    -1.2860 C.ar  1 <1>  -0.1500 
  5 O       -2.7530    -1.8210    -0.0800 O.3   1 <1>  -0.8290 
  6 C       -1.3390    -3.6640     0.4520 C.ar  1 <1>   0.0820 
  7 C        0.8590    -3.7440    -0.6260 C.ar  1 <1>   0.0280 
  8 O       -2.1520    -4.3370     1.3320 O.3   1 <1>  -0.3630 
  9 C       -0.1230    -4.2680     0.2340 C.ar  1 <1>  -0.1500 
 10 C        2.1290    -4.3390    -0.8790 C.2   1 <1>  -0.1780 
 11 C       -3.3970    -3.7920     1.7010 C.3   1 <1>   0.0400 
 12 C        2.9130    -5.1960    -0.1480 C.2   1 <1>   0.0790 
 13 C        2.5680    -5.6510     1.1580 C.1   1 <1>   0.4920 
 14 C        4.1770    -5.6960    -0.6210 C.2   1 <1>   0.6160 
 15 N        2.3860    -6.0790     2.2000 N.1   1 <1>  -0.5570 
 16 O        4.6140    -5.3400    -1.7030 O.2   1 <1>  -0.5700 
 17 N        4.9400    -6.5790     0.1050 N.am  1 <1>  -0.7300 
 18 C        6.2780    -7.0820    -0.2680 C.3   1 <1>   0.2200 
 19 C        7.3020    -6.7250     0.8300 C.3   1 <1>  -0.0800 
 20 C        6.1790    -8.5970    -0.4730 C.3   1 <1>  -0.1600 
 21 C        8.6740    -7.3440     0.5060 C.3   1 <1>  -0.1600 
 22 C        7.4520    -5.2040     1.0090 C.3   1 <1>  -0.2400 
 23 C        7.5510    -9.2080    -0.7910 C.3   1 <1>  -0.1600 
 24 C        8.5740    -8.8610     0.2980 C.3   1 <1>  -0.1600 
 25 H        1.2210    -2.1080    -1.9650 H     1 <1>   0.1500 
 26 H        0.0520    -5.1900     0.7480 H     1 <1>   0.1500 
 27 H        2.5340    -4.0310    -1.8280 H     1 <1>   0.1500 
 28 H       -3.8560    -4.4410     2.4210 H     1 <1>   0.0800 
 29 H       -4.0110    -3.7140     0.8200 H     1 <1>   0.0800 
 30 H       -3.2330    -2.8170     2.1230 H     1 <1>   0.0800 
 31 H        4.6180    -6.8930     1.0240 H     1 <1>   0.3700 
 32 H        6.5940    -6.6300    -1.1940 H     1 <1>   0.0800 
 33 H        6.9640    -7.1470     1.7620 H     1 <1>   0.0800 
 34 H        5.7890    -9.0570     0.4180 H     1 <1>   0.0800 
 35 H        5.5050    -8.8010    -1.2870 H     1 <1>   0.0800 
 36 H        9.0690    -6.8910    -0.3880 H     1 <1>   0.0800 
 37 H        9.3620    -7.1420     1.3080 H     1 <1>   0.0800 
 38 H        7.7520    -4.7450     0.0830 H     1 <1>   0.0800 
 39 H        8.1920    -4.9860     1.7580 H     1 <1>   0.0800 
 40 H        6.5220    -4.7640     1.3210 H     1 <1>   0.0800 
 41 H        7.4600   -10.2770    -0.8740 H     1 <1>   0.0800 
 42 H        7.8970    -8.8320    -1.7380 H     1 <1>   0.0800 
 43 H        9.5390    -9.2500     0.0210 H     1 <1>   0.0800 
 44 H        8.2840    -9.3300     1.2230 H     1 <1>   0.0800 
@<TRIPOS>BOND
  1   1   2  1   
  2   2   3  ar  
  3   2   4  ar  
  4   3   5  1   
  5   3   6  ar  
  6   4   7  ar  
  7   4  25  1   
  8   6   8  1   
  9   6   9  ar  
 10   7   9  ar  
 11   7  10  1   
 12   8  11  1   
 13   9  26  1   
 14  10  12  2   
 15  10  27  1   
 16  11  28  1   
 17  11  29  1   
 18  11  30  1   
 19  12  13  1   
 20  12  14  1   
 21  13  15  3   
 22  14  16  2   
 23  14  17  am  
 24  17  18  1   
 25  17  31  1   
 26  18  19  1   
 27  18  20  1   
 28  18  32  1   
 29  19  21  1   
 30  19  22  1   
 31  19  33  1   
 32  20  23  1   
 33  20  34  1   
 34  20  35  1   
 35  21  24  1   
 36  21  36  1   
 37  21  37  1   
 38  22  38  1   
 39  22  39  1   
 40  22  40  1   
 41  23  24  1   
 42  23  41  1   
 43  23  42  1   
 44  24  43  1   
 45  24  44  1   
@<TRIPOS>SUBSTRUCTURE
  1 ****  12 GROUP 4 **** **** 0

# MOE 2024.06 (io_trps.svl 2023.06)
