@<TRIPOS>MOLECULE
NONAME
43 44 1 0 0 
SMALL
USER_CHARGES


@<TRIPOS>ATOM
  1 O       -0.0030    -0.2950    -0.6360 O.3   1 <1>  -0.3630 
  2 C       -1.2740    -0.4220    -0.1740 C.ar  1 <1>   0.0830 
  3 C        0.9450    -1.3190    -0.4460 C.3   1 <1>   0.1200 
  4 C       -2.1270     0.6460    -0.4020 C.ar  1 <1>  -0.1500 
  5 C       -1.7470    -1.5440     0.5020 C.ar  1 <1>  -0.1500 
  6 C        2.2640    -0.8690    -1.0710 C.3   1 <1>  -0.1600 
  7 C       -3.4400     0.6060     0.0340 C.ar  1 <1>  -0.1500 
  8 C       -3.0600    -1.5830     0.9380 C.ar  1 <1>  -0.1500 
  9 C        3.3450    -1.9350    -0.8720 C.3   1 <1>   0.1200 
 10 C       -3.9130    -0.5160     0.7100 C.ar  1 <1>   0.0830 
 11 O        4.5420    -1.5160    -1.4900 O.3   1 <1>  -0.3630 
 12 O       -5.1840    -0.6420     1.1730 O.3   1 <1>  -0.3630 
 13 C        5.3930    -0.6210    -0.9250 C.ar  1 <1>   0.0830 
 14 C       -6.1290     0.3890     0.9910 C.3   1 <1>   0.0400 
 15 C        5.2270    -0.0720     0.3430 C.ar  1 <1>  -0.1500 
 16 C        6.4910    -0.2480    -1.6830 C.ar  1 <1>  -0.1500 
 17 C        6.1500     0.8360     0.8340 C.ar  1 <1>  -0.1500 
 18 C        7.4120     0.6590    -1.1900 C.ar  1 <1>  -0.1500 
 19 C        7.2460     1.2080     0.0710 C.ar  1 <1>  -0.1430 
 20 C        8.2570     2.2060     0.6140 C.3   1 <1>  -0.0170 
 21 C        9.3660     1.4830     1.3820 C.3   1 <1>  -0.2400 
 22 H        0.5800    -2.2110    -0.9240 H     1 <1>   0.0800 
 23 H        1.0590    -1.4790     0.6130 H     1 <1>   0.0800 
 24 H       -1.7540     1.5080    -0.9240 H     1 <1>   0.1500 
 25 H       -1.1170    -2.3900     0.6970 H     1 <1>   0.1500 
 26 H        2.5700     0.0540    -0.6130 H     1 <1>   0.0800 
 27 H        2.1170    -0.7100    -2.1240 H     1 <1>   0.0800 
 28 H       -4.0730     1.4510    -0.1600 H     1 <1>   0.1500 
 29 H       -3.4340    -2.4450     1.4600 H     1 <1>   0.1500 
 30 H        3.0500    -2.8510    -1.3540 H     1 <1>   0.0800 
 31 H        3.5360    -2.1430     0.1660 H     1 <1>   0.0800 
 32 H       -7.0560     0.0740     1.4330 H     1 <1>   0.0800 
 33 H       -6.2650     0.5560    -0.0630 H     1 <1>   0.0800 
 34 H       -5.7740     1.2790     1.4800 H     1 <1>   0.0800 
 35 H        4.3920    -0.3340     0.9620 H     1 <1>   0.1500 
 36 H        6.6190    -0.6740    -2.6610 H     1 <1>   0.1500 
 37 H        6.0130     1.2530     1.8160 H     1 <1>   0.1500 
 38 H        8.2590     0.9350    -1.7930 H     1 <1>   0.1500 
 39 H        7.7620     2.9050     1.2650 H     1 <1>   0.0800 
 40 H        8.6860     2.7660    -0.1990 H     1 <1>   0.0800 
 41 H        8.9480     0.9340     2.2070 H     1 <1>   0.0800 
 42 H       10.0780     2.1940     1.7620 H     1 <1>   0.0800 
 43 H        9.8760     0.7930     0.7330 H     1 <1>   0.0800 
@<TRIPOS>BOND
  1   1   2  1   
  2   1   3  1   
  3   2   4  ar  
  4   2   5  ar  
  5   3   6  1   
  6   3  22  1   
  7   3  23  1   
  8   4   7  ar  
  9   4  24  1   
 10   5   8  ar  
 11   5  25  1   
 12   6   9  1   
 13   6  26  1   
 14   6  27  1   
 15   7  10  ar  
 16   7  28  1   
 17   8  10  ar  
 18   8  29  1   
 19   9  11  1   
 20   9  30  1   
 21   9  31  1   
 22  10  12  1   
 23  11  13  1   
 24  12  14  1   
 25  13  15  ar  
 26  13  16  ar  
 27  14  32  1   
 28  14  33  1   
 29  14  34  1   
 30  15  17  ar  
 31  15  35  1   
 32  16  18  ar  
 33  16  36  1   
 34  17  19  ar  
 35  17  37  1   
 36  18  19  ar  
 37  18  38  1   
 38  19  20  1   
 39  20  21  1   
 40  20  39  1   
 41  20  40  1   
 42  21  41  1   
 43  21  42  1   
 44  21  43  1   
@<TRIPOS>SUBSTRUCTURE
  1 ****   6 GROUP 4 **** **** 0

# MOE 2024.06 (io_trps.svl 2023.06)
