@<TRIPOS>MOLECULE
NONAME
49 50 1 0 0 
SMALL
USER_CHARGES


@<TRIPOS>ATOM
  1 P        0.1320     0.1960    -0.0490 P.3   1 <1>   1.2420 
  2 O       -0.8590     0.3770    -1.1130 O.2   1 <1>  -0.7000 
  3 O       -0.3970     0.5240     1.4370 O.3   1 <1>  -0.5510 
  4 O        0.5870    -1.3390     0.0940 O.3   1 <1>  -0.5510 
  5 C        1.6680     1.1610    -0.2360 C.3   1 <1>   0.4330 
  6 C       -1.6260     1.0660     1.7790 C.3   1 <1>   0.2000 
  7 C        0.5650    -2.1920    -0.9900 C.3   1 <1>   0.2000 
  8 N        2.7430     0.9320     0.8080 N.pl3 1 <1>  -0.8690 
  9 C        1.4100     2.6690    -0.3540 C.ar  1 <1>  -0.1440 
 10 C       -2.7530     0.0960     1.4210 C.3   1 <1>  -0.2400 
 11 C       -1.8020     2.4560     1.1660 C.3   1 <1>  -0.2400 
 12 C       -0.7740    -2.9270    -0.9850 C.3   1 <1>  -0.2400 
 13 C        1.7320    -3.1600    -0.8290 C.3   1 <1>  -0.2400 
 14 C        3.7670     0.0540     0.4920 C.ar  1 <1>   0.1000 
 15 C        0.6980     3.1360    -1.4540 C.ar  1 <1>   0.1600 
 16 C        1.8410     3.5980     0.5810 C.ar  1 <1>  -0.1500 
 17 C        3.9190    -1.1250     1.2100 C.ar  1 <1>  -0.1500 
 18 C        4.6570     0.3340    -0.5370 C.ar  1 <1>  -0.1500 
 19 N        0.3930     4.4020    -1.6870 N.ar  1 <1>  -0.6200 
 20 C        1.5310     4.9210     0.3530 C.ar  1 <1>  -0.1500 
 21 C        4.9320    -2.0140     0.8990 C.ar  1 <1>  -0.1500 
 22 C        5.6700    -0.5540    -0.8530 C.ar  1 <1>  -0.1500 
 23 C        0.8160     5.2650    -0.7790 C.ar  1 <1>   0.1600 
 24 C        5.8080    -1.7300    -0.1350 C.ar  1 <1>  -0.1500 
 25 H        2.0990     0.8730    -1.1760 H     1 <1>   0.0800 
 26 H       -1.6090     1.1730     2.8510 H     1 <1>   0.0800 
 27 H        0.6860    -1.6240    -1.8990 H     1 <1>   0.0800 
 28 H        2.2930     0.7140     1.7060 H     1 <1>   0.4000 
 29 H       -2.8890     0.0260     0.3570 H     1 <1>   0.0800 
 30 H       -3.6750     0.4450     1.8470 H     1 <1>   0.0800 
 31 H       -2.5420    -0.8790     1.8220 H     1 <1>   0.0800 
 32 H       -1.8980     2.4090     0.0960 H     1 <1>   0.0800 
 33 H       -0.9730     3.0880     1.4270 H     1 <1>   0.0800 
 34 H       -2.6980     2.9060     1.5520 H     1 <1>   0.0800 
 35 H       -0.9040    -3.4620    -0.0610 H     1 <1>   0.0800 
 36 H       -0.8090    -3.6300    -1.7970 H     1 <1>   0.0800 
 37 H       -1.5830    -2.2310    -1.1110 H     1 <1>   0.0800 
 38 H        1.6620    -3.6810     0.1090 H     1 <1>   0.0800 
 39 H        2.6620    -2.6240    -0.8720 H     1 <1>   0.0800 
 40 H        1.7240    -3.8810    -1.6250 H     1 <1>   0.0800 
 41 H        0.3500     2.4320    -2.1930 H     1 <1>   0.1500 
 42 H        2.4000     3.3190     1.4570 H     1 <1>   0.1500 
 43 H        3.2380    -1.3510     2.0100 H     1 <1>   0.1500 
 44 H        4.5580     1.2550    -1.0800 H     1 <1>   0.1500 
 45 H        1.8430     5.6810     1.0460 H     1 <1>   0.1500 
 46 H        5.0400    -2.9250     1.4610 H     1 <1>   0.1500 
 47 H        6.3540    -0.3280    -1.6520 H     1 <1>   0.1500 
 48 H        0.5800     6.3020    -0.9480 H     1 <1>   0.1500 
 49 H        6.5970    -2.4210    -0.3790 H     1 <1>   0.1500 
@<TRIPOS>BOND
  1   1   2  2   
  2   1   3  1   
  3   1   4  1   
  4   1   5  1   
  5   3   6  1   
  6   4   7  1   
  7   5   8  1   
  8   5   9  1   
  9   5  25  1   
 10   6  10  1   
 11   6  11  1   
 12   6  26  1   
 13   7  12  1   
 14   7  13  1   
 15   7  27  1   
 16   8  14  1   
 17   8  28  1   
 18   9  15  ar  
 19   9  16  ar  
 20  10  29  1   
 21  10  30  1   
 22  10  31  1   
 23  11  32  1   
 24  11  33  1   
 25  11  34  1   
 26  12  35  1   
 27  12  36  1   
 28  12  37  1   
 29  13  38  1   
 30  13  39  1   
 31  13  40  1   
 32  14  17  ar  
 33  14  18  ar  
 34  15  19  ar  
 35  15  41  1   
 36  16  20  ar  
 37  16  42  1   
 38  17  21  ar  
 39  17  43  1   
 40  18  22  ar  
 41  18  44  1   
 42  19  23  ar  
 43  20  23  ar  
 44  20  45  1   
 45  21  24  ar  
 46  21  46  1   
 47  22  24  ar  
 48  22  47  1   
 49  23  48  1   
 50  24  49  1   
@<TRIPOS>SUBSTRUCTURE
  1 ****   5 GROUP 4 **** **** 0

# MOE 2024.06 (io_trps.svl 2023.06)
