@<TRIPOS>MOLECULE
NONAME
36 37 1 0 0 
SMALL
USER_CHARGES


@<TRIPOS>ATOM
  1 N       -3.1650    -1.8520    -0.3400 N.4   1 <1>  -0.9590 
  2 C       -4.2810    -2.7060     0.1380 C.3   1 <1>   0.4810 
  3 C       -3.1060    -0.5970     0.4560 C.3   1 <1>   0.3430 
  4 C       -1.8650    -2.5860    -0.3370 C.3   1 <1>   0.2630 
  5 C       -5.5770    -1.9070     0.1460 C.2   1 <1>  -0.2760 
  6 C       -4.3390     0.2550     0.1530 C.3   1 <1>  -0.0220 
  7 C       -5.6340    -0.5550     0.1530 C.2   1 <1>  -0.1380 
  8 C       -6.7860    -2.8430     0.1470 C.3   1 <1>  -0.1020 
  9 C       -6.8370     0.2460     0.1750 C.2   1 <1>  -0.1500 
 10 C       -6.9860     1.5550    -0.1380 C.2   1 <1>  -0.1780 
 11 C       -8.1920     2.3480    -0.1060 C.ar  1 <1>   0.0280 
 12 C       -8.1080     3.7380    -0.1600 C.ar  1 <1>  -0.1500 
 13 C       -9.4670     1.7860    -0.0290 C.ar  1 <1>  -0.1500 
 14 C       -9.2390     4.5330    -0.1320 C.ar  1 <1>  -0.1500 
 15 C      -10.6020     2.5760     0.0010 C.ar  1 <1>  -0.1500 
 16 C      -10.4910     3.9530    -0.0500 C.ar  1 <1>  -0.1500 
 17 H       -3.4170    -1.5850    -1.3020 H     1 <1>   0.4500 
 18 H       -4.3880    -3.5520    -0.5220 H     1 <1>   0.0800 
 19 H       -4.0780    -3.0730     1.1310 H     1 <1>   0.0800 
 20 H       -3.0860    -0.8350     1.5070 H     1 <1>   0.0800 
 21 H       -2.2170    -0.0370     0.2140 H     1 <1>   0.0800 
 22 H       -1.6010    -2.8780     0.6670 H     1 <1>   0.0800 
 23 H       -1.0810    -1.9590    -0.7310 H     1 <1>   0.0800 
 24 H       -1.9330    -3.4720    -0.9480 H     1 <1>   0.0800 
 25 H       -4.3970     1.0280     0.9000 H     1 <1>   0.0800 
 26 H       -4.2140     0.7320    -0.8030 H     1 <1>   0.0800 
 27 H       -6.7100    -3.5540    -0.6570 H     1 <1>   0.0800 
 28 H       -7.7160    -2.3250     0.0140 H     1 <1>   0.0800 
 29 H       -6.8390    -3.3830     1.0770 H     1 <1>   0.0800 
 30 H       -7.7110    -0.2850     0.4960 H     1 <1>   0.1500 
 31 H       -6.1320     2.1220    -0.4560 H     1 <1>   0.1500 
 32 H       -7.1440     4.2090    -0.2220 H     1 <1>   0.1500 
 33 H       -9.5850     0.7200     0.0020 H     1 <1>   0.1500 
 34 H       -9.1460     5.6050    -0.1730 H     1 <1>   0.1500 
 35 H      -11.5750     2.1190     0.0610 H     1 <1>   0.1500 
 36 H      -11.3730     4.5690    -0.0270 H     1 <1>   0.1500 
@<TRIPOS>BOND
  1   1   2  1   
  2   1   3  1   
  3   1   4  1   
  4   1  17  1   
  5   2   5  1   
  6   2  18  1   
  7   2  19  1   
  8   3   6  1   
  9   3  20  1   
 10   3  21  1   
 11   4  22  1   
 12   4  23  1   
 13   4  24  1   
 14   5   7  2   
 15   5   8  1   
 16   6   7  1   
 17   6  25  1   
 18   6  26  1   
 19   7   9  1   
 20   8  27  1   
 21   8  28  1   
 22   8  29  1   
 23   9  10  2   
 24   9  30  1   
 25  10  11  1   
 26  10  31  1   
 27  11  12  ar  
 28  11  13  ar  
 29  12  14  ar  
 30  12  32  1   
 31  13  15  ar  
 32  13  33  1   
 33  14  16  ar  
 34  14  34  1   
 35  15  16  ar  
 36  15  35  1   
 37  16  36  1   
@<TRIPOS>SUBSTRUCTURE
  1 ****   9 GROUP 4 **** **** 0

# MOE 2024.06 (io_trps.svl 2023.06)
