@<TRIPOS>MOLECULE
NONAME
29 29 1 0 0 
SMALL
USER_CHARGES


@<TRIPOS>ATOM
  1 S        1.0670    -1.3180    -0.4080 S.3   1 <1>  -0.4600 
  2 C        1.0550    -0.1690     1.0240 C.3   1 <1>   0.1310 
  3 C       -0.6440    -1.9050    -0.5070 C.3   1 <1>   0.0700 
  4 C        2.4400     0.3880     1.3320 C.2   1 <1>   0.5690 
  5 C       -1.4960    -0.7990    -1.1280 C.3   1 <1>  -0.2400 
  6 O        2.5500     1.1040     2.2970 O.2   1 <1>  -0.5700 
  7 N        3.4760     0.0480     0.5050 N.am  1 <1>  -0.5470 
  8 C        4.8410     0.3730     0.4910 C.ar  1 <1>   0.1170 
  9 C        5.6570    -0.2620    -0.4390 C.ar  1 <1>  -0.1500 
 10 C        5.4220     1.3000     1.3510 C.ar  1 <1>  -0.1500 
 11 C        7.0130     0.0100    -0.5160 C.ar  1 <1>  -0.1440 
 12 C        6.7750     1.5780     1.2830 C.ar  1 <1>  -0.1500 
 13 C        7.5700     0.9340     0.3520 C.ar  1 <1>  -0.1500 
 14 C        7.8910    -0.6940    -1.5350 C.3   1 <1>  -0.0970 
 15 H        0.6850    -0.7160     1.8710 H     1 <1>   0.0800 
 16 H        0.3860     0.6360     0.7880 H     1 <1>   0.0800 
 17 H       -0.9670    -2.1570     0.4880 H     1 <1>   0.0800 
 18 H       -0.6390    -2.7860    -1.1260 H     1 <1>   0.0800 
 19 H       -1.5070     0.0730    -0.5010 H     1 <1>   0.0800 
 20 H       -2.5070    -1.1450    -1.2490 H     1 <1>   0.0800 
 21 H       -1.1080    -0.5330    -2.0960 H     1 <1>   0.0800 
 22 H        3.1830    -0.5880    -0.2410 H     1 <1>   0.3700 
 23 H        5.2230    -0.9810    -1.1090 H     1 <1>   0.1500 
 24 H        4.8240     1.8130     2.0800 H     1 <1>   0.1500 
 25 H        7.2080     2.2960     1.9570 H     1 <1>   0.1500 
 26 H        8.6220     1.1550     0.3070 H     1 <1>   0.1500 
 27 H        7.2940    -1.1780    -2.2860 H     1 <1>   0.0800 
 28 H        8.4960    -1.4350    -1.0440 H     1 <1>   0.0800 
 29 H        8.5360     0.0170    -2.0200 H     1 <1>   0.0800 
@<TRIPOS>BOND
  1   1   2  1   
  2   1   3  1   
  3   2   4  1   
  4   2  15  1   
  5   2  16  1   
  6   3   5  1   
  7   3  17  1   
  8   3  18  1   
  9   4   6  2   
 10   4   7  am  
 11   5  19  1   
 12   5  20  1   
 13   5  21  1   
 14   7   8  1   
 15   7  22  1   
 16   8   9  ar  
 17   8  10  ar  
 18   9  11  ar  
 19   9  23  1   
 20  10  12  ar  
 21  10  24  1   
 22  11  13  ar  
 23  11  14  1   
 24  12  13  ar  
 25  12  25  1   
 26  13  26  1   
 27  14  27  1   
 28  14  28  1   
 29  14  29  1   
@<TRIPOS>SUBSTRUCTURE
  1 ****   7 GROUP 4 **** **** 0

# MOE 2024.06 (io_trps.svl 2023.06)
