@<TRIPOS>MOLECULE
NONAME
47 49 1 0 0 
SMALL
USER_CHARGES


@<TRIPOS>ATOM
  1 CL      -0.3200    -0.5280    -1.5940 Cl    1 <1>  -0.1770 
  2 C       -1.8850    -1.0650    -1.0350 C.ar  1 <1>   0.1770 
  3 C       -1.9600    -2.0710    -0.0900 C.ar  1 <1>  -0.1500 
  4 C       -3.0270    -0.4770    -1.5430 C.ar  1 <1>  -0.1500 
  5 C       -3.2030    -2.4930     0.3500 C.ar  1 <1>  -0.1500 
  6 C       -4.2650    -0.9060    -1.0960 C.ar  1 <1>  -0.1500 
  7 C       -4.3710    -1.9210    -0.1460 C.ar  1 <1>   0.1170 
  8 N       -5.6030    -2.3810     0.3450 N.am  1 <1>  -0.5470 
  9 C       -6.8610    -2.3270    -0.1930 C.2   1 <1>   0.5690 
 10 O       -7.0960    -1.8610    -1.2810 O.2   1 <1>  -0.5700 
 11 C       -8.0050    -2.9100     0.6390 C.3   1 <1>  -0.0190 
 12 C       -8.1600    -4.4200     0.3820 C.3   1 <1>  -0.1600 
 13 C       -9.3500    -2.1980     0.3850 C.3   1 <1>  -0.1600 
 14 C       -9.2990    -5.0200     1.2110 C.3   1 <1>   0.1400 
 15 C      -10.4870    -2.8120     1.2060 C.3   1 <1>   0.1400 
 16 N      -10.5610    -4.2760     0.9420 N.am  1 <1>  -0.6600 
 17 C      -11.6450    -4.8890     0.3400 C.2   1 <1>   0.5440 
 18 O      -11.5110    -6.0090    -0.1170 O.2   1 <1>  -0.5700 
 19 C      -12.9350    -4.2370     0.2280 C.ar  1 <1>   0.0860 
 20 C      -13.6150    -3.7630     1.3510 C.ar  1 <1>  -0.1500 
 21 C      -13.5450    -4.0670    -1.0140 C.ar  1 <1>  -0.1500 
 22 C      -14.8380    -3.1300     1.2340 C.ar  1 <1>  -0.1500 
 23 C      -14.7690    -3.4360    -1.1400 C.ar  1 <1>  -0.1500 
 24 C      -15.4250    -2.9570    -0.0090 C.ar  1 <1>   0.0830 
 25 O      -16.6190    -2.3250    -0.0410 O.3   1 <1>  -0.3630 
 26 C      -17.3210    -2.1260    -1.2480 C.3   1 <1>   0.0400 
 27 H       -1.0560    -2.5120     0.2890 H     1 <1>   0.1500 
 28 H       -2.9470     0.3040    -2.2780 H     1 <1>   0.1500 
 29 H       -3.2610    -3.2780     1.0820 H     1 <1>   0.1500 
 30 H       -5.1510    -0.4410    -1.4910 H     1 <1>   0.1500 
 31 H       -5.5400    -2.8790     1.2300 H     1 <1>   0.3700 
 32 H       -7.7580    -2.7690     1.6760 H     1 <1>   0.0800 
 33 H       -7.2450    -4.9320     0.6190 H     1 <1>   0.0800 
 34 H       -8.3670    -4.5910    -0.6620 H     1 <1>   0.0800 
 35 H       -9.6080    -2.2670    -0.6590 H     1 <1>   0.0800 
 36 H       -9.2590    -1.1540     0.6260 H     1 <1>   0.0800 
 37 H       -9.0710    -4.9490     2.2600 H     1 <1>   0.0800 
 38 H       -9.4100    -6.0630     0.9700 H     1 <1>   0.0800 
 39 H      -11.4080    -2.3220     0.9430 H     1 <1>   0.0800 
 40 H      -10.3120    -2.6530     2.2560 H     1 <1>   0.0800 
 41 H      -13.1740    -3.8990     2.3220 H     1 <1>   0.1500 
 42 H      -13.0410    -4.4430    -1.8880 H     1 <1>   0.1500 
 43 H      -15.3520    -2.7670     2.1060 H     1 <1>   0.1500 
 44 H      -15.1960    -3.3270    -2.1190 H     1 <1>   0.1500 
 45 H      -18.2400    -1.6170    -1.0190 H     1 <1>   0.0800 
 46 H      -17.5330    -3.0830    -1.6910 H     1 <1>   0.0800 
 47 H      -16.7220    -1.5200    -1.9040 H     1 <1>   0.0800 
@<TRIPOS>BOND
  1   1   2  1   
  2   2   3  ar  
  3   2   4  ar  
  4   3   5  ar  
  5   3  27  1   
  6   4   6  ar  
  7   4  28  1   
  8   5   7  ar  
  9   5  29  1   
 10   6   7  ar  
 11   6  30  1   
 12   7   8  1   
 13   8   9  am  
 14   8  31  1   
 15   9  10  2   
 16   9  11  1   
 17  11  12  1   
 18  11  13  1   
 19  11  32  1   
 20  12  14  1   
 21  12  33  1   
 22  12  34  1   
 23  13  15  1   
 24  13  35  1   
 25  13  36  1   
 26  14  16  1   
 27  14  37  1   
 28  14  38  1   
 29  15  16  1   
 30  15  39  1   
 31  15  40  1   
 32  16  17  am  
 33  17  18  2   
 34  17  19  1   
 35  19  20  ar  
 36  19  21  ar  
 37  20  22  ar  
 38  20  41  1   
 39  21  23  ar  
 40  21  42  1   
 41  22  24  ar  
 42  22  43  1   
 43  23  24  ar  
 44  23  44  1   
 45  24  25  1   
 46  25  26  1   
 47  26  45  1   
 48  26  46  1   
 49  26  47  1   
@<TRIPOS>SUBSTRUCTURE
  1 ****  13 GROUP 4 **** **** 0

# MOE 2024.06 (io_trps.svl 2023.06)
