@<TRIPOS>MOLECULE
NONAME
45 47 1 0 0 
SMALL
USER_CHARGES


@<TRIPOS>ATOM
  1 S        0.1690     0.5300     1.6730 S.3   1 <1>  -0.0800 
  2 C       -1.4210     0.8840     0.9860 C.2   1 <1>  -0.0450 
  3 C        0.9700     0.7570     0.1350 C.2   1 <1>  -0.1100 
  4 C       -2.5720     0.8430     1.8570 C.2   1 <1>   0.7150 
  5 C       -1.2660     1.1400    -0.3400 C.2   1 <1>  -0.1500 
  6 C        0.0750     1.0730    -0.8180 C.2   1 <1>  -0.1500 
  7 O       -2.5950     0.1270     2.8380 O.2   1 <1>  -0.5700 
  8 N       -3.7070     1.5560     1.6130 N.am  1 <1>  -0.5470 
  9 C       -4.0280     2.5920     0.7240 C.ar  1 <1>   0.1170 
 10 C       -5.3230     2.6250     0.1870 C.ar  1 <1>   0.1000 
 11 C       -3.1200     3.5880     0.3910 C.ar  1 <1>  -0.1500 
 12 N       -6.2650     1.6490     0.5550 N.pl3 1 <1>  -0.8380 
 13 C       -5.6540     3.6330    -0.7080 C.ar  1 <1>  -0.1500 
 14 C       -3.4690     4.5920    -0.4960 C.ar  1 <1>  -0.1500 
 15 C       -7.5030     2.0760     1.2800 C.3   1 <1>   0.2090 
 16 C       -6.4440     0.4790    -0.3620 C.3   1 <1>   0.2090 
 17 C       -4.7360     4.6110    -1.0510 C.ar  1 <1>  -0.1500 
 18 C       -8.7380     2.1790     0.3630 C.3   1 <1>   0.1400 
 19 C       -7.6650     0.6440    -1.2820 C.3   1 <1>   0.1400 
 20 N       -8.8980     0.9620    -0.4950 N.am  1 <1>  -0.6600 
 21 C      -10.0020     0.1480    -0.5430 C.2   1 <1>   0.5690 
 22 O      -10.0090    -0.8590    -1.2120 O.2   1 <1>  -0.5700 
 23 C      -11.2510     0.5030     0.2610 C.3   1 <1>  -0.0990 
 24 C      -12.4560    -0.4280     0.0340 C.3   1 <1>  -0.2400 
 25 H        2.0370     0.6270     0.1050 H     1 <1>   0.1500 
 26 H       -2.0730     1.3750    -1.0130 H     1 <1>   0.1500 
 27 H        0.3080     1.2620    -1.8520 H     1 <1>   0.1500 
 28 H       -4.5340     1.1550     2.0570 H     1 <1>   0.3700 
 29 H       -2.1380     3.5880     0.8280 H     1 <1>   0.1500 
 30 H       -6.6340     3.6550    -1.1420 H     1 <1>   0.1500 
 31 H       -2.7550     5.3570    -0.7520 H     1 <1>   0.1500 
 32 H       -7.3300     3.0270     1.7520 H     1 <1>   0.0800 
 33 H       -7.7070     1.3600     2.0570 H     1 <1>   0.0800 
 34 H       -6.5670    -0.4130     0.2260 H     1 <1>   0.0800 
 35 H       -5.5600     0.3560    -0.9640 H     1 <1>   0.0800 
 36 H       -5.0080     5.3870    -1.7450 H     1 <1>   0.1500 
 37 H       -8.6320     3.0390    -0.2730 H     1 <1>   0.0800 
 38 H       -9.6050     2.3390     0.9750 H     1 <1>   0.0800 
 39 H       -7.7970    -0.2600    -1.8500 H     1 <1>   0.0800 
 40 H       -7.4760     1.4400    -1.9790 H     1 <1>   0.0800 
 41 H      -11.5450     1.5030     0.0020 H     1 <1>   0.0800 
 42 H      -10.9960     0.4820     1.3040 H     1 <1>   0.0800 
 43 H      -12.7420    -0.4190    -1.0040 H     1 <1>   0.0800 
 44 H      -13.2950    -0.1090     0.6270 H     1 <1>   0.0800 
 45 H      -12.2020    -1.4370     0.3080 H     1 <1>   0.0800 
@<TRIPOS>BOND
  1   1   2  1   
  2   1   3  1   
  3   2   4  1   
  4   2   5  2   
  5   3   6  2   
  6   3  25  1   
  7   4   7  2   
  8   4   8  am  
  9   5   6  1   
 10   5  26  1   
 11   6  27  1   
 12   8   9  1   
 13   8  28  1   
 14   9  10  ar  
 15   9  11  ar  
 16  10  12  1   
 17  10  13  ar  
 18  11  14  ar  
 19  11  29  1   
 20  12  15  1   
 21  12  16  1   
 22  13  17  ar  
 23  13  30  1   
 24  14  17  ar  
 25  14  31  1   
 26  15  18  1   
 27  15  32  1   
 28  15  33  1   
 29  16  19  1   
 30  16  34  1   
 31  16  35  1   
 32  17  36  1   
 33  18  20  1   
 34  18  37  1   
 35  18  38  1   
 36  19  20  1   
 37  19  39  1   
 38  19  40  1   
 39  20  21  am  
 40  21  22  2   
 41  21  23  1   
 42  23  24  1   
 43  23  41  1   
 44  23  42  1   
 45  24  43  1   
 46  24  44  1   
 47  24  45  1   
@<TRIPOS>SUBSTRUCTURE
  1 ****  12 GROUP 4 **** **** 0

# MOE 2024.06 (io_trps.svl 2023.06)
