@<TRIPOS>MOLECULE
NONAME
45 46 1 0 0 
SMALL
USER_CHARGES


@<TRIPOS>ATOM
  1 BR       0.8580    -1.6230    -1.3800 Br    1 <1>  -0.1110 
  2 C        2.4500    -0.6240    -0.9620 C.ar  1 <1>   0.1110 
  3 C        3.6400    -1.3040    -0.7940 C.ar  1 <1>  -0.1500 
  4 C        2.3630     0.7490    -0.8380 C.ar  1 <1>  -0.1500 
  5 C        4.7800    -0.5780    -0.4940 C.ar  1 <1>  -0.1500 
  6 C        3.5110     1.4610    -0.5370 C.ar  1 <1>  -0.1500 
  7 C        4.7330     0.8100    -0.3620 C.ar  1 <1>   0.1170 
  8 N        5.9060     1.5420    -0.0560 N.am  1 <1>  -0.2370 
  9 C        6.8230     1.1960     0.9020 C.2   1 <1>   0.5690 
 10 C        6.2970     2.7060    -0.6610 C.2   1 <1>   0.5690 
 11 O        6.6950     0.3060     1.7080 O.2   1 <1>  -0.5700 
 12 C        8.0350     2.1370     0.8650 C.3   1 <1>   0.2510 
 13 O        5.7290     3.2750    -1.5560 O.2   1 <1>  -0.5700 
 14 C        7.5720     3.2560    -0.0720 C.3   1 <1>  -0.0990 
 15 N        9.2680     1.5100     0.3380 N.3   1 <1>  -0.9000 
 16 C       10.4810     2.2830     0.5850 C.3   1 <1>   0.1100 
 17 C       11.6700     1.5100     0.0230 C.3   1 <1>  -0.1600 
 18 C       12.9850     2.2640     0.2610 C.3   1 <1>  -0.1600 
 19 C       14.1790     1.4850    -0.3050 C.3   1 <1>  -0.1600 
 20 C       15.4940     2.2380    -0.0680 C.3   1 <1>  -0.1600 
 21 C       16.6870     1.4580    -0.6330 C.3   1 <1>  -0.1600 
 22 C       17.9990     2.2100    -0.3970 C.3   1 <1>  -0.2400 
 23 H        3.6720    -2.3740    -0.8950 H     1 <1>   0.1500 
 24 H        1.4200     1.2470    -0.9770 H     1 <1>   0.1500 
 25 H        5.7130    -1.0960    -0.3560 H     1 <1>   0.1500 
 26 H        3.4570     2.5310    -0.4430 H     1 <1>   0.1500 
 27 H        8.2100     2.5090     1.8610 H     1 <1>   0.0800 
 28 H        7.3410     4.1450     0.4830 H     1 <1>   0.0800 
 29 H        8.2770     3.4800    -0.8510 H     1 <1>   0.0800 
 30 H        9.1790     1.3070    -0.6660 H     1 <1>   0.3600 
 31 H       10.6100     2.4230     1.6470 H     1 <1>   0.0800 
 32 H       10.4160     3.2490     0.1120 H     1 <1>   0.0800 
 33 H       11.5320     1.3610    -1.0340 H     1 <1>   0.0800 
 34 H       11.7190     0.5470     0.5030 H     1 <1>   0.0800 
 35 H       13.1260     2.4120     1.3180 H     1 <1>   0.0800 
 36 H       12.9360     3.2310    -0.2100 H     1 <1>   0.0800 
 37 H       14.0400     1.3330    -1.3620 H     1 <1>   0.0800 
 38 H       14.2310     0.5180     0.1680 H     1 <1>   0.0800 
 39 H       15.6350     2.3890     0.9890 H     1 <1>   0.0800 
 40 H       15.4440     3.2040    -0.5410 H     1 <1>   0.0800 
 41 H       16.5510     1.3060    -1.6910 H     1 <1>   0.0800 
 42 H       16.7430     0.4910    -0.1620 H     1 <1>   0.0800 
 43 H       17.9730     3.1720    -0.8790 H     1 <1>   0.0800 
 44 H       18.8230     1.6480    -0.7990 H     1 <1>   0.0800 
 45 H       18.1650     2.3540     0.6560 H     1 <1>   0.0800 
@<TRIPOS>BOND
  1   1   2  1   
  2   2   3  ar  
  3   2   4  ar  
  4   3   5  ar  
  5   3  23  1   
  6   4   6  ar  
  7   4  24  1   
  8   5   7  ar  
  9   5  25  1   
 10   6   7  ar  
 11   6  26  1   
 12   7   8  1   
 13   8   9  am  
 14   8  10  am  
 15   9  11  2   
 16   9  12  1   
 17  10  13  2   
 18  10  14  1   
 19  12  14  1   
 20  12  15  1   
 21  12  27  1   
 22  14  28  1   
 23  14  29  1   
 24  15  16  1   
 25  15  30  1   
 26  16  17  1   
 27  16  31  1   
 28  16  32  1   
 29  17  18  1   
 30  17  33  1   
 31  17  34  1   
 32  18  19  1   
 33  18  35  1   
 34  18  36  1   
 35  19  20  1   
 36  19  37  1   
 37  19  38  1   
 38  20  21  1   
 39  20  39  1   
 40  20  40  1   
 41  21  22  1   
 42  21  41  1   
 43  21  42  1   
 44  22  43  1   
 45  22  44  1   
 46  22  45  1   
@<TRIPOS>SUBSTRUCTURE
  1 ****  15 GROUP 4 **** **** 0

# MOE 2024.06 (io_trps.svl 2023.06)
