@<TRIPOS>MOLECULE
NONAME
43 44 1 0 0 
SMALL
USER_CHARGES


@<TRIPOS>ATOM
  1 BR       2.8860    -1.5000    -0.6730 Br    1 <1>  -0.1110 
  2 C        1.8930    -3.0870    -0.2330 C.ar  1 <1>   0.1110 
  3 C        1.1000    -3.6700    -1.2000 C.ar  1 <1>  -0.1500 
  4 C        2.0010    -3.6080     1.0410 C.ar  1 <1>  -0.1500 
  5 C        0.3970    -4.8180    -0.8730 C.ar  1 <1>  -0.1500 
  6 C        1.2920    -4.7580     1.3450 C.ar  1 <1>  -0.1500 
  7 C        0.4880    -5.3870     0.3950 C.ar  1 <1>  -0.0090 
  8 S       -0.4280    -6.8990     0.8160 S.o2  1 <1>   1.4470 
  9 O       -1.8240    -6.5570     0.9740 O.2   1 <1>  -0.6500 
 10 O        0.2310    -7.5990     1.8990 O.2   1 <1>  -0.6500 
 11 N       -0.3230    -7.9190    -0.5400 N.am  1 <1>  -0.8490 
 12 C        1.0210    -8.5340    -0.7240 C.3   1 <1>   0.2570 
 13 C       -1.3580    -8.9560    -0.5270 C.3   1 <1>   0.1160 
 14 C        2.1500    -7.5590    -1.1070 C.2   1 <1>   0.5690 
 15 O        2.1130    -7.0930    -2.2240 O.2   1 <1>  -0.5700 
 16 N        3.1620    -7.2270    -0.2350 N.am  1 <1>  -0.6600 
 17 C        4.1420    -6.1630    -0.5880 C.3   1 <1>   0.1400 
 18 C        3.4520    -7.8940     1.0610 C.3   1 <1>   0.1400 
 19 C        5.4200    -6.7590    -1.1890 C.3   1 <1>  -0.1600 
 20 C        4.2620    -9.1800     0.8600 C.3   1 <1>  -0.1600 
 21 C        6.1270    -7.8220    -0.3240 C.3   1 <1>  -0.1600 
 22 C        5.3400    -9.1410    -0.2400 C.3   1 <1>  -0.1600 
 23 H        1.0360    -3.2420    -2.1850 H     1 <1>   0.1500 
 24 H        2.6230    -3.1260     1.7730 H     1 <1>   0.1500 
 25 H       -0.2210    -5.2900    -1.6200 H     1 <1>   0.1500 
 26 H        1.3650    -5.1790     2.3340 H     1 <1>   0.1500 
 27 H        0.9620    -9.2370    -1.5360 H     1 <1>   0.0800 
 28 H        1.2880    -9.0950     0.1510 H     1 <1>   0.0800 
 29 H       -2.3350    -8.5020    -0.5090 H     1 <1>   0.0800 
 30 H       -1.2520    -9.5830     0.3440 H     1 <1>   0.0800 
 31 H       -1.2900    -9.5630    -1.4140 H     1 <1>   0.0800 
 32 H        4.3830    -5.5890     0.2900 H     1 <1>   0.0800 
 33 H        3.7010    -5.4840    -1.2990 H     1 <1>   0.0800 
 34 H        2.5470    -8.1170     1.5920 H     1 <1>   0.0800 
 35 H        4.0160    -7.2210     1.6840 H     1 <1>   0.0800 
 36 H        6.1060    -5.9500    -1.3620 H     1 <1>   0.0800 
 37 H        5.1820    -7.1750    -2.1530 H     1 <1>   0.0800 
 38 H        3.5860    -9.9890     0.6470 H     1 <1>   0.0800 
 39 H        4.7350    -9.4140     1.7980 H     1 <1>   0.0800 
 40 H        6.3310    -7.4370     0.6600 H     1 <1>   0.0800 
 41 H        7.0760    -8.0330    -0.7870 H     1 <1>   0.0800 
 42 H        4.8810    -9.3360    -1.1950 H     1 <1>   0.0800 
 43 H        6.0310    -9.9460    -0.0570 H     1 <1>   0.0800 
@<TRIPOS>BOND
  1   1   2  1   
  2   2   3  ar  
  3   2   4  ar  
  4   3   5  ar  
  5   3  23  1   
  6   4   6  ar  
  7   4  24  1   
  8   5   7  ar  
  9   5  25  1   
 10   6   7  ar  
 11   6  26  1   
 12   7   8  1   
 13   8   9  2   
 14   8  10  2   
 15   8  11  am  
 16  11  12  1   
 17  11  13  1   
 18  12  14  1   
 19  12  27  1   
 20  12  28  1   
 21  13  29  1   
 22  13  30  1   
 23  13  31  1   
 24  14  15  2   
 25  14  16  am  
 26  16  17  1   
 27  16  18  1   
 28  17  19  1   
 29  17  32  1   
 30  17  33  1   
 31  18  20  1   
 32  18  34  1   
 33  18  35  1   
 34  19  21  1   
 35  19  36  1   
 36  19  37  1   
 37  20  22  1   
 38  20  38  1   
 39  20  39  1   
 40  21  22  1   
 41  21  40  1   
 42  21  41  1   
 43  22  42  1   
 44  22  43  1   
@<TRIPOS>SUBSTRUCTURE
  1 ****  16 GROUP 4 **** **** 0

# MOE 2024.06 (io_trps.svl 2023.06)
