@<TRIPOS>MOLECULE
NONAME
47 49 1 0 0 
SMALL
USER_CHARGES


@<TRIPOS>ATOM
  1 O       -2.1230     0.7750    -0.0790 O.3   1 <1>  -0.3630 
  2 C       -1.1520     1.6780     0.2580 C.ar  1 <1>   0.0830 
  3 C       -1.7800    -0.4940    -0.6040 C.3   1 <1>   0.0400 
  4 C        0.0460     1.8590    -0.4540 C.ar  1 <1>   0.0830 
  5 C       -1.4140     2.4630     1.3780 C.ar  1 <1>  -0.1440 
  6 O        0.2720     1.1380    -1.5890 O.3   1 <1>  -0.3620 
  7 C        0.9700     2.7950     0.0050 C.ar  1 <1>  -0.1500 
  8 C       -0.4820     3.3920     1.8140 C.ar  1 <1>  -0.1500 
  9 C       -2.7240     2.3100     2.1260 C.3   1 <1>   0.4860 
 10 C        1.4560     1.2700    -2.3470 C.3   1 <1>   0.0400 
 11 C        0.7080     3.5530     1.1310 C.ar  1 <1>  -0.1500 
 12 N       -3.8380     2.6140     1.1950 N.4   1 <1>  -0.9590 
 13 C       -3.7890     4.0290     0.6770 C.3   1 <1>   0.3430 
 14 C       -5.1850     2.2670     1.7670 C.3   1 <1>   0.3430 
 15 C       -4.9480     4.3420    -0.2910 C.3   1 <1>   0.2090 
 16 C       -6.3370     2.5870     0.7930 C.3   1 <1>   0.2090 
 17 N       -6.2680     4.0000     0.3150 N.pl3 1 <1>  -0.8380 
 18 C       -7.3510     4.4040    -0.4350 C.ar  1 <1>   0.4100 
 19 N       -7.5870     3.7150    -1.5430 N.ar  1 <1>  -0.6200 
 20 C       -8.1220     5.4830    -0.0150 C.ar  1 <1>  -0.1500 
 21 C       -8.6280     4.1180    -2.2550 C.ar  1 <1>   0.1600 
 22 C       -9.2000     5.8900    -0.7650 C.ar  1 <1>  -0.1500 
 23 C       -9.4520     5.1780    -1.9200 C.ar  1 <1>  -0.1500 
 24 H       -1.6330    -0.4050    -1.6660 H     1 <1>   0.0800 
 25 H       -2.5890    -1.1740    -0.4090 H     1 <1>   0.0800 
 26 H       -0.8810    -0.8460    -0.1280 H     1 <1>   0.0800 
 27 H        1.9030     2.9570    -0.5010 H     1 <1>   0.1500 
 28 H       -0.6650     3.9980     2.6870 H     1 <1>   0.1500 
 29 H       -2.7520     2.9750     2.9730 H     1 <1>   0.0800 
 30 H       -2.8060     1.2940     2.4790 H     1 <1>   0.0800 
 31 H        1.5330     2.2820    -2.7040 H     1 <1>   0.0800 
 32 H        1.3960     0.5950    -3.1820 H     1 <1>   0.0800 
 33 H        2.2990     1.0110    -1.7310 H     1 <1>   0.0800 
 34 H        1.4350     4.2700     1.4740 H     1 <1>   0.1500 
 35 H       -3.6550     1.9960     0.3840 H     1 <1>   0.4500 
 36 H       -2.8540     4.2000     0.1680 H     1 <1>   0.0800 
 37 H       -3.8480     4.7170     1.5030 H     1 <1>   0.0800 
 38 H       -5.3480     2.8300     2.6700 H     1 <1>   0.0800 
 39 H       -5.2190     1.2200     2.0160 H     1 <1>   0.0800 
 40 H       -4.8170     3.7880    -1.2060 H     1 <1>   0.0800 
 41 H       -4.9320     5.3900    -0.5390 H     1 <1>   0.0800 
 42 H       -7.2800     2.4270     1.2880 H     1 <1>   0.0800 
 43 H       -6.2940     1.9180    -0.0510 H     1 <1>   0.0800 
 44 H       -7.8620     5.9850     0.8970 H     1 <1>   0.1500 
 45 H       -8.8370     3.5730    -3.1590 H     1 <1>   0.1500 
 46 H       -9.8180     6.7210    -0.4680 H     1 <1>   0.1500 
 47 H      -10.2800     5.4430    -2.5540 H     1 <1>   0.1500 
@<TRIPOS>BOND
  1   1   2  1   
  2   1   3  1   
  3   2   4  ar  
  4   2   5  ar  
  5   3  24  1   
  6   3  25  1   
  7   3  26  1   
  8   4   6  1   
  9   4   7  ar  
 10   5   8  ar  
 11   5   9  1   
 12   6  10  1   
 13   7  11  ar  
 14   7  27  1   
 15   8  11  ar  
 16   8  28  1   
 17   9  12  1   
 18   9  29  1   
 19   9  30  1   
 20  10  31  1   
 21  10  32  1   
 22  10  33  1   
 23  11  34  1   
 24  12  13  1   
 25  12  14  1   
 26  12  35  1   
 27  13  15  1   
 28  13  36  1   
 29  13  37  1   
 30  14  16  1   
 31  14  38  1   
 32  14  39  1   
 33  15  17  1   
 34  15  40  1   
 35  15  41  1   
 36  16  17  1   
 37  16  42  1   
 38  16  43  1   
 39  17  18  1   
 40  18  19  ar  
 41  18  20  ar  
 42  19  21  ar  
 43  20  22  ar  
 44  20  44  1   
 45  21  23  ar  
 46  21  45  1   
 47  22  23  ar  
 48  22  46  1   
 49  23  47  1   
@<TRIPOS>SUBSTRUCTURE
  1 ****  13 GROUP 4 **** **** 0

# MOE 2024.06 (io_trps.svl 2023.06)
