@<TRIPOS>MOLECULE
NONAME
49 52 1 0 0 
SMALL
USER_CHARGES


@<TRIPOS>ATOM
  1 O        0.7070     3.2080     1.9090 O.2   1 <1>  -0.5700 
  2 C        0.2460     2.8790     0.8450 C.2   1 <1>   0.5690 
  3 N        0.9020     2.0980    -0.0510 N.am  1 <1>  -0.7300 
  4 C       -1.1440     3.3590     0.4780 C.3   1 <1>  -0.0990 
  5 C        2.2320     1.4780     0.0760 C.3   1 <1>   0.3000 
  6 C       -2.1630     2.2080     0.4330 C.3   1 <1>  -0.1600 
  7 C        2.4990     0.6830    -1.2160 C.3   1 <1>  -0.1600 
  8 C        2.2720     0.5090     1.2730 C.3   1 <1>  -0.1600 
  9 C        3.3260     2.5510     0.2350 C.3   1 <1>  -0.1600 
 10 C       -3.5760     2.7120     0.1170 C.3   1 <1>  -0.0170 
 11 C        3.8800     0.0030    -1.1510 C.3   1 <1>  -0.0800 
 12 C        3.6540    -0.1670     1.3580 C.3   1 <1>  -0.0800 
 13 C        4.7120     1.8820     0.3160 C.3   1 <1>  -0.0800 
 14 C       -4.5450     1.5450     0.0300 C.ar  1 <1>  -0.1440 
 15 C        3.9150    -0.9510     0.0580 C.3   1 <1>  -0.1600 
 16 C        4.9650     1.0820    -0.9760 C.3   1 <1>  -0.1600 
 17 C        4.7370     0.9190     1.5190 C.3   1 <1>  -0.1600 
 18 C       -5.1330     1.0390     1.1790 C.ar  1 <1>  -0.1500 
 19 C       -4.8480     0.9730    -1.1960 C.ar  1 <1>  -0.1500 
 20 C       -6.0140    -0.0260     1.1040 C.ar  1 <1>  -0.1500 
 21 C       -5.7290    -0.0920    -1.2730 C.ar  1 <1>  -0.1500 
 22 C       -6.3130    -0.5920    -0.1230 C.ar  1 <1>  -0.1500 
 23 H        0.4260     1.8510    -0.9150 H     1 <1>   0.3700 
 24 H       -1.0970     3.8520    -0.4760 H     1 <1>   0.0800 
 25 H       -1.4540     4.0850     1.2090 H     1 <1>   0.0800 
 26 H       -2.1720     1.7060     1.3850 H     1 <1>   0.0800 
 27 H       -1.8710     1.4900    -0.3140 H     1 <1>   0.0800 
 28 H        2.4710     1.3450    -2.0640 H     1 <1>   0.0800 
 29 H        1.7410    -0.0690    -1.3450 H     1 <1>   0.0800 
 30 H        1.5070    -0.2380     1.1650 H     1 <1>   0.0800 
 31 H        2.0890     1.0460     2.1870 H     1 <1>   0.0800 
 32 H        3.1580     3.1170     1.1340 H     1 <1>   0.0800 
 33 H        3.2980     3.2300    -0.5980 H     1 <1>   0.0800 
 34 H       -3.5740     3.2490    -0.8160 H     1 <1>   0.0800 
 35 H       -3.9020     3.3920     0.8850 H     1 <1>   0.0800 
 36 H        4.0590    -0.5500    -2.0570 H     1 <1>   0.0800 
 37 H        3.6810    -0.8360     2.2010 H     1 <1>   0.0800 
 38 H        5.4720     2.6340     0.4360 H     1 <1>   0.0800 
 39 H        4.8750    -1.4350     0.1120 H     1 <1>   0.0800 
 40 H        3.1700    -1.7190    -0.0600 H     1 <1>   0.0800 
 41 H        4.9610     1.7470    -1.8230 H     1 <1>   0.0800 
 42 H        5.9360     0.6190    -0.9320 H     1 <1>   0.0800 
 43 H        5.7060     0.4570     1.5960 H     1 <1>   0.0800 
 44 H        4.5660     1.4690     2.4280 H     1 <1>   0.0800 
 45 H       -4.9050     1.4720     2.1370 H     1 <1>   0.1500 
 46 H       -4.4000     1.3530    -2.0970 H     1 <1>   0.1500 
 47 H       -6.4660    -0.4130     2.0000 H     1 <1>   0.1500 
 48 H       -5.9610    -0.5310    -2.2280 H     1 <1>   0.1500 
 49 H       -6.9980    -1.4200    -0.1820 H     1 <1>   0.1500 
@<TRIPOS>BOND
  1   1   2  2   
  2   2   3  am  
  3   2   4  1   
  4   3   5  1   
  5   3  23  1   
  6   4   6  1   
  7   4  24  1   
  8   4  25  1   
  9   5   7  1   
 10   5   8  1   
 11   5   9  1   
 12   6  10  1   
 13   6  26  1   
 14   6  27  1   
 15   7  11  1   
 16   7  28  1   
 17   7  29  1   
 18   8  12  1   
 19   8  30  1   
 20   8  31  1   
 21   9  13  1   
 22   9  32  1   
 23   9  33  1   
 24  10  14  1   
 25  10  34  1   
 26  10  35  1   
 27  11  15  1   
 28  11  16  1   
 29  11  36  1   
 30  12  15  1   
 31  12  17  1   
 32  12  37  1   
 33  13  16  1   
 34  13  17  1   
 35  13  38  1   
 36  14  18  ar  
 37  14  19  ar  
 38  15  39  1   
 39  15  40  1   
 40  16  41  1   
 41  16  42  1   
 42  17  43  1   
 43  17  44  1   
 44  18  20  ar  
 45  18  45  1   
 46  19  21  ar  
 47  19  46  1   
 48  20  22  ar  
 49  20  47  1   
 50  21  22  ar  
 51  21  48  1   
 52  22  49  1   
@<TRIPOS>SUBSTRUCTURE
  1 ****   3 GROUP 4 **** **** 0

# MOE 2024.06 (io_trps.svl 2023.06)
