@<TRIPOS>MOLECULE
NONAME
38 39 1 0 0 
SMALL
USER_CHARGES


@<TRIPOS>ATOM
  1 O       -0.5770    -1.5930    -2.0760 O.3   1 <1>  -0.5600 
  2 C       -1.6250    -1.6980    -1.1470 C.3   1 <1>   0.3380 
  3 C        0.7060    -1.3670    -1.5650 C.3   1 <1>   0.1200 
  4 C       -1.9710    -0.3120    -0.6090 C.2   1 <1>  -0.2880 
  5 C       -1.2910    -2.7370    -0.0520 C.3   1 <1>   0.0580 
  6 C        1.1450    -2.4340    -0.5190 C.3   1 <1>   0.0000 
  7 C       -3.1480     0.3020    -0.7680 C.2   1 <1>  -0.3000 
  8 C       -1.2330    -4.1210    -0.6980 C.2   1 <1>  -0.2760 
  9 C        0.0680    -2.4200     0.6050 C.3   1 <1>  -0.0800 
 10 C        1.2320    -3.8380    -1.2300 C.3   1 <1>   0.0580 
 11 C        2.5350    -2.0020     0.0220 C.3   1 <1>   0.1200 
 12 C       -0.0990    -4.5910    -1.2260 C.2   1 <1>  -0.2880 
 13 C       -2.5450    -4.8860    -0.7170 C.3   1 <1>  -0.1020 
 14 C        0.3350    -3.3450     1.8120 C.3   1 <1>  -0.2400 
 15 C        2.3060    -4.7990    -0.6840 C.3   1 <1>  -0.2400 
 16 O        2.5110    -0.7360     0.6000 O.3   1 <1>  -0.6800 
 17 H       -2.4740    -2.0580    -1.7000 H     1 <1>   0.0800 
 18 H        0.7100    -0.3810    -1.1380 H     1 <1>   0.0800 
 19 H        1.3820    -1.3660    -2.4010 H     1 <1>   0.0800 
 20 H       -1.1630     0.1500    -0.0730 H     1 <1>   0.1500 
 21 H       -2.0600    -2.7160     0.6990 H     1 <1>   0.0800 
 22 H       -3.3710     1.2820    -0.3800 H     1 <1>   0.1500 
 23 H       -3.9850    -0.1180    -1.2990 H     1 <1>   0.1500 
 24 H        0.0160    -1.4250     1.0100 H     1 <1>   0.0800 
 25 H        1.4840    -3.6700    -2.2630 H     1 <1>   0.0800 
 26 H        3.2620    -1.9860    -0.7720 H     1 <1>   0.0800 
 27 H        2.8780    -2.6820     0.7810 H     1 <1>   0.0800 
 28 H       -0.0410    -5.5520    -1.7060 H     1 <1>   0.1500 
 29 H       -3.2940    -4.3320    -1.2530 H     1 <1>   0.0800 
 30 H       -2.8880    -5.0570     0.2880 H     1 <1>   0.0800 
 31 H       -2.4180    -5.8390    -1.1980 H     1 <1>   0.0800 
 32 H        0.3370    -4.3800     1.5260 H     1 <1>   0.0800 
 33 H       -0.4380    -3.2110     2.5480 H     1 <1>   0.0800 
 34 H        1.2730    -3.1080     2.2780 H     1 <1>   0.0800 
 35 H        2.1670    -4.9860     0.3630 H     1 <1>   0.0800 
 36 H        3.2950    -4.4080    -0.8430 H     1 <1>   0.0800 
 37 H        2.2510    -5.7410    -1.2000 H     1 <1>   0.0800 
 38 H        2.3870    -0.0410    -0.0740 H     1 <1>   0.4000 
@<TRIPOS>BOND
  1   1   2  1   
  2   1   3  1   
  3   2   4  1   
  4   2   5  1   
  5   2  17  1   
  6   3   6  1   
  7   3  18  1   
  8   3  19  1   
  9   4   7  2   
 10   4  20  1   
 11   5   8  1   
 12   5   9  1   
 13   5  21  1   
 14   6   9  1   
 15   6  10  1   
 16   6  11  1   
 17   7  22  1   
 18   7  23  1   
 19   8  12  2   
 20   8  13  1   
 21   9  14  1   
 22   9  24  1   
 23  10  12  1   
 24  10  15  1   
 25  10  25  1   
 26  11  16  1   
 27  11  26  1   
 28  11  27  1   
 29  12  28  1   
 30  13  29  1   
 31  13  30  1   
 32  13  31  1   
 33  14  32  1   
 34  14  33  1   
 35  14  34  1   
 36  15  35  1   
 37  15  36  1   
 38  15  37  1   
 39  16  38  1   
@<TRIPOS>SUBSTRUCTURE
  1 ****   9 GROUP 4 **** **** 0

# MOE 2024.06 (io_trps.svl 2023.06)
