@<TRIPOS>MOLECULE
NONAME
47 48 1 0 0 
SMALL
USER_CHARGES


@<TRIPOS>ATOM
  1 O        1.2310    -7.2420     0.8470 O.3   1 <1>  -0.3630 
  2 C       -0.0140    -6.7370     0.6610 C.ar  1 <1>   0.0830 
  3 C        2.3360    -6.7390     0.1400 C.3   1 <1>   0.1200 
  4 C       -0.3170    -5.7350    -0.2560 C.ar  1 <1>  -0.1500 
  5 C       -1.0250    -7.2680     1.4430 C.ar  1 <1>  -0.1500 
  6 C        3.5670    -7.5160     0.6160 C.3   1 <1>   0.3430 
  7 C       -1.6190    -5.2790    -0.3760 C.ar  1 <1>  -0.1500 
  8 C       -2.3240    -6.8090     1.3190 C.ar  1 <1>  -0.1500 
  9 N        4.8290    -7.1000    -0.0810 N.4   1 <1>  -0.9590 
 10 C       -2.6340    -5.8090     0.4090 C.ar  1 <1>  -0.1430 
 11 C        5.9200    -8.0750     0.2190 C.3   1 <1>   0.3430 
 12 C        5.2400    -5.7060     0.2710 C.3   1 <1>   0.3430 
 13 C       -4.0740    -5.3120     0.2840 C.3   1 <1>   0.0630 
 14 C        7.1630    -7.7290    -0.6040 C.3   1 <1>  -0.1600 
 15 C        6.4670    -5.3070    -0.5500 C.3   1 <1>  -0.1600 
 16 C       -4.6240    -5.6240    -1.1200 C.3   1 <1>  -0.1600 
 17 C       -4.1500    -3.8180     0.6290 C.3   1 <1>  -0.2400 
 18 C        7.6280    -6.2900    -0.3520 C.3   1 <1>  -0.1600 
 19 C       -6.1250    -5.3380    -1.2680 C.3   1 <1>  -0.2400 
 20 H        2.4200    -5.6910     0.3640 H     1 <1>   0.0800 
 21 H        2.1600    -6.9000    -0.9100 H     1 <1>   0.0800 
 22 H        0.4310    -5.2960    -0.8850 H     1 <1>   0.1500 
 23 H       -0.7950    -8.0440     2.1510 H     1 <1>   0.1500 
 24 H        3.3880    -8.5630     0.4330 H     1 <1>   0.0800 
 25 H        3.6780    -7.3730     1.6790 H     1 <1>   0.0800 
 26 H       -1.8420    -4.5040    -1.0880 H     1 <1>   0.1500 
 27 H       -3.0930    -7.2360     1.9380 H     1 <1>   0.1500 
 28 H        4.6760    -7.1340    -1.0980 H     1 <1>   0.4500 
 29 H        5.6000    -9.0760    -0.0200 H     1 <1>   0.0800 
 30 H        6.1630    -8.0390     1.2690 H     1 <1>   0.0800 
 31 H        5.4770    -5.6490     1.3220 H     1 <1>   0.0800 
 32 H        4.4380    -5.0150     0.0670 H     1 <1>   0.0800 
 33 H       -4.6780    -5.8420     1.0010 H     1 <1>   0.0800 
 34 H        6.9510    -7.8700    -1.6490 H     1 <1>   0.0800 
 35 H        7.9560    -8.4090    -0.3440 H     1 <1>   0.0800 
 36 H        6.7830    -4.3210    -0.2540 H     1 <1>   0.0800 
 37 H        6.2010    -5.2570    -1.5920 H     1 <1>   0.0800 
 38 H       -4.4550    -6.6680    -1.3250 H     1 <1>   0.0800 
 39 H       -4.0830    -5.0590    -1.8590 H     1 <1>   0.0800 
 40 H       -3.6560    -3.2260    -0.1200 H     1 <1>   0.0800 
 41 H       -3.6730    -3.6390     1.5760 H     1 <1>   0.0800 
 42 H       -5.1730    -3.4970     0.7030 H     1 <1>   0.0800 
 43 H        8.4360    -6.0430    -1.0220 H     1 <1>   0.0800 
 44 H        8.0030    -6.2040     0.6550 H     1 <1>   0.0800 
 45 H       -6.6870    -5.8720    -0.5220 H     1 <1>   0.0800 
 46 H       -6.4620    -5.6570    -2.2390 H     1 <1>   0.0800 
 47 H       -6.3280    -4.2870    -1.1730 H     1 <1>   0.0800 
@<TRIPOS>BOND
  1   1   2  1   
  2   1   3  1   
  3   2   4  ar  
  4   2   5  ar  
  5   3   6  1   
  6   3  20  1   
  7   3  21  1   
  8   4   7  ar  
  9   4  22  1   
 10   5   8  ar  
 11   5  23  1   
 12   6   9  1   
 13   6  24  1   
 14   6  25  1   
 15   7  10  ar  
 16   7  26  1   
 17   8  10  ar  
 18   8  27  1   
 19   9  11  1   
 20   9  12  1   
 21   9  28  1   
 22  10  13  1   
 23  11  14  1   
 24  11  29  1   
 25  11  30  1   
 26  12  15  1   
 27  12  31  1   
 28  12  32  1   
 29  13  16  1   
 30  13  17  1   
 31  13  33  1   
 32  14  18  1   
 33  14  34  1   
 34  14  35  1   
 35  15  18  1   
 36  15  36  1   
 37  15  37  1   
 38  16  19  1   
 39  16  38  1   
 40  16  39  1   
 41  17  40  1   
 42  17  41  1   
 43  17  42  1   
 44  18  43  1   
 45  18  44  1   
 46  19  45  1   
 47  19  46  1   
 48  19  47  1   
@<TRIPOS>SUBSTRUCTURE
  1 ****   2 GROUP 4 **** **** 0

# MOE 2024.06 (io_trps.svl 2023.06)
