@<TRIPOS>MOLECULE
NONAME
33 35 1 0 0 
SMALL
USER_CHARGES


@<TRIPOS>ATOM
  1 O       -0.4900     0.1300     0.0640 O.3   1 <1>  -0.5600 
  2 C       -1.7210    -0.5130    -0.0680 C.3   1 <1>   0.1200 
  3 C       -0.5070     1.4720    -0.3240 C.3   1 <1>   0.1200 
  4 C       -2.7800     0.1750     0.8140 C.3   1 <1>   0.2090 
  5 C       -1.5090     2.2750     0.5280 C.3   1 <1>   0.2090 
  6 N       -2.8860     1.6510     0.5090 N.pl3 1 <1>  -0.8380 
  7 C       -4.0380     2.3370     0.2950 C.ar  1 <1>   0.4610 
  8 N       -5.1990     1.6820     0.2110 N.ar  1 <1>  -0.1790 
  9 C       -4.1190     3.7530     0.1530 C.ar  1 <1>  -0.1500 
 10 C       -6.4250     2.2640    -0.0160 C.ar  1 <1>   0.3610 
 11 C       -5.3010     4.3920    -0.0740 C.ar  1 <1>  -0.1500 
 12 C       -7.5670     1.4470    -0.0920 C.ar  1 <1>   0.1000 
 13 C       -6.5090     3.6510    -0.1710 C.ar  1 <1>   0.0000 
 14 N       -7.4570     0.0630     0.0660 N.pl3 1 <1>  -0.9000 
 15 C       -8.7910     2.0390    -0.3250 C.ar  1 <1>  -0.1500 
 16 C       -7.7690     4.2160    -0.4060 C.ar  1 <1>  -0.1500 
 17 C       -8.8890     3.4200    -0.4810 C.ar  1 <1>  -0.1500 
 18 H       -1.5880    -1.5350     0.2380 H     1 <1>   0.0800 
 19 H       -2.0110    -0.4960    -1.1050 H     1 <1>   0.0800 
 20 H       -0.7640     1.5270    -1.3680 H     1 <1>   0.0800 
 21 H        0.4870     1.8610    -0.1930 H     1 <1>   0.0800 
 22 H       -2.4930     0.0490     1.8450 H     1 <1>   0.0800 
 23 H       -3.7170    -0.3310     0.6750 H     1 <1>   0.0800 
 24 H       -1.5160     3.2780     0.1500 H     1 <1>   0.0800 
 25 H       -1.1480     2.3090     1.5420 H     1 <1>   0.0800 
 26 H       -5.2420     0.6710     0.3020 H     1 <1>   0.4570 
 27 H       -3.2270     4.3410     0.2350 H     1 <1>   0.1500 
 28 H       -5.3500     5.4640    -0.1810 H     1 <1>   0.1500 
 29 H       -7.8120    -0.4610    -0.7500 H     1 <1>   0.4000 
 30 H       -8.0140    -0.2930     0.8590 H     1 <1>   0.4000 
 31 H       -9.6850     1.4410    -0.3880 H     1 <1>   0.1500 
 32 H       -7.8560     5.2830    -0.5280 H     1 <1>   0.1500 
 33 H       -9.8560     3.8620    -0.6620 H     1 <1>   0.1500 
@<TRIPOS>BOND
  1   1   2  1   
  2   1   3  1   
  3   2   4  1   
  4   2  18  1   
  5   2  19  1   
  6   3   5  1   
  7   3  20  1   
  8   3  21  1   
  9   4   6  1   
 10   4  22  1   
 11   4  23  1   
 12   5   6  1   
 13   5  24  1   
 14   5  25  1   
 15   6   7  1   
 16   7   8  ar  
 17   7   9  ar  
 18   8  10  ar  
 19   8  26  1   
 20   9  11  ar  
 21   9  27  1   
 22  10  12  ar  
 23  10  13  ar  
 24  11  13  ar  
 25  11  28  1   
 26  12  14  1   
 27  12  15  ar  
 28  13  16  ar  
 29  14  29  1   
 30  14  30  1   
 31  15  17  ar  
 32  15  31  1   
 33  16  17  ar  
 34  16  32  1   
 35  17  33  1   
@<TRIPOS>SUBSTRUCTURE
  1 ****   8 GROUP 4 **** **** 0

# MOE 2024.06 (io_trps.svl 2023.06)
