@<TRIPOS>MOLECULE
NONAME
43 45 1 0 0 
SMALL
USER_CHARGES


@<TRIPOS>ATOM
  1 S        0.0360    -0.2560     0.5750 S.3   1 <1>  -0.2860 
  2 C       -1.7450    -0.1590     0.6420 C.2   1 <1>   0.2420 
  3 C        0.4700     1.1470    -0.5690 C.3   1 <1>   0.1310 
  4 N       -2.4270     0.7290     0.0130 N.2   1 <1>  -0.5650 
  5 N       -2.4530    -1.0420     1.3770 N.pl3 1 <1>   0.0330 
  6 C        1.9730     1.2830    -0.7650 C.2   1 <1>   0.5690 
  7 C       -3.7120     0.4210     0.3530 C.ar  1 <1>   0.2270 
  8 C       -3.7500    -0.6760     1.2000 C.ar  1 <1>  -0.1520 
  9 O        2.3720     2.0320    -1.6240 O.2   1 <1>  -0.5700 
 10 N        2.8270     0.5760     0.0210 N.am  1 <1>  -0.7300 
 11 C       -4.8970     1.0420    -0.0300 C.ar  1 <1>  -0.1500 
 12 C       -4.9590    -1.1780     1.6820 C.ar  1 <1>  -0.1500 
 13 C        4.2950     0.6060    -0.0560 C.3   1 <1>   0.2200 
 14 C       -6.1000     0.5590     0.4380 C.ar  1 <1>   0.0830 
 15 C       -6.1280    -0.5570     1.2980 C.ar  1 <1>  -0.1500 
 16 C        4.8000    -0.7940    -0.4170 C.3   1 <1>  -0.1600 
 17 C        4.8520     1.0690     1.2940 C.3   1 <1>  -0.1600 
 18 O       -7.2230     1.2100     0.0260 O.3   1 <1>  -0.3630 
 19 C        6.3350    -0.8510    -0.4050 C.3   1 <1>  -0.1600 
 20 C        6.3870     1.0160     1.3090 C.3   1 <1>  -0.1600 
 21 C       -8.5030     0.7950     0.4470 C.3   1 <1>   0.0400 
 22 C        6.8970    -0.3850     0.9450 C.3   1 <1>  -0.1600 
 23 H        0.0690     2.0450    -0.1380 H     1 <1>   0.0800 
 24 H       -0.0120     0.9510    -1.5090 H     1 <1>   0.0800 
 25 H       -2.0810    -1.8110     1.9360 H     1 <1>   0.2700 
 26 H        2.4350    -0.0610     0.7170 H     1 <1>   0.3700 
 27 H       -4.8570     1.8900    -0.6860 H     1 <1>   0.1500 
 28 H       -4.9720    -2.0300     2.3390 H     1 <1>   0.1500 
 29 H        4.6040     1.3000    -0.8220 H     1 <1>   0.0800 
 30 H       -7.0600    -0.9400     1.6670 H     1 <1>   0.1500 
 31 H        4.4420    -1.0580    -1.3970 H     1 <1>   0.0800 
 32 H        4.4190    -1.5090     0.2910 H     1 <1>   0.0800 
 33 H        4.4730     0.4360     2.0770 H     1 <1>   0.0800 
 34 H        4.5290     2.0780     1.4820 H     1 <1>   0.0800 
 35 H        6.7200    -0.2190    -1.1880 H     1 <1>   0.0800 
 36 H        6.6610    -1.8570    -0.6050 H     1 <1>   0.0800 
 37 H        6.7480     1.2910     2.2850 H     1 <1>   0.0800 
 38 H        6.7740     1.7300     0.6010 H     1 <1>   0.0800 
 39 H       -9.2290     1.4510     0.0010 H     1 <1>   0.0800 
 40 H       -8.5580     0.8660     1.5190 H     1 <1>   0.0800 
 41 H       -8.6700    -0.2140     0.1150 H     1 <1>   0.0800 
 42 H        7.9730    -0.3760     0.9030 H     1 <1>   0.0800 
 43 H        6.6050    -1.0810     1.7120 H     1 <1>   0.0800 
@<TRIPOS>BOND
  1   1   2  1   
  2   1   3  1   
  3   2   4  2   
  4   2   5  1   
  5   3   6  1   
  6   3  23  1   
  7   3  24  1   
  8   4   7  1   
  9   5   8  1   
 10   5  25  1   
 11   6   9  2   
 12   6  10  am  
 13   7   8  ar  
 14   7  11  ar  
 15   8  12  ar  
 16  10  13  1   
 17  10  26  1   
 18  11  14  ar  
 19  11  27  1   
 20  12  15  ar  
 21  12  28  1   
 22  13  16  1   
 23  13  17  1   
 24  13  29  1   
 25  14  15  ar  
 26  14  18  1   
 27  15  30  1   
 28  16  19  1   
 29  16  31  1   
 30  16  32  1   
 31  17  20  1   
 32  17  33  1   
 33  17  34  1   
 34  18  21  1   
 35  19  22  1   
 36  19  35  1   
 37  19  36  1   
 38  20  22  1   
 39  20  37  1   
 40  20  38  1   
 41  21  39  1   
 42  21  40  1   
 43  21  41  1   
 44  22  42  1   
 45  22  43  1   
@<TRIPOS>SUBSTRUCTURE
  1 ****   1 GROUP 4 **** **** 0

# MOE 2024.06 (io_trps.svl 2023.06)
