@<TRIPOS>MOLECULE
NONAME
35 35 1 0 0 
SMALL
USER_CHARGES


@<TRIPOS>ATOM
  1 O        0.7300    -0.4740     1.4250 O.3   1 <1>  -0.3620 
  2 C        1.8220    -1.1330     1.0010 C.ar  1 <1>   0.7020 
  3 C       -0.4470    -1.1480     1.8280 C.3   1 <1>   0.0400 
  4 N        1.7840    -2.4410     0.9610 N.ar  1 <1>  -0.6200 
  5 N        2.8250    -0.3700     0.6700 N.ar  1 <1>  -0.6200 
  6 C        2.8970    -2.9720     0.5390 C.ar  1 <1>   0.7200 
  7 C        3.8670    -1.0380     0.2650 C.ar  1 <1>   0.7200 
  8 N        3.9750    -2.3350     0.1750 N.ar  1 <1>  -0.6200 
  9 N        2.8860    -4.3220     0.4870 N.pl3 1 <1>  -0.8690 
 10 N        4.9210    -0.2670    -0.0850 N.pl3 1 <1>  -0.8690 
 11 C        3.9020    -5.1900    -0.1090 C.3   1 <1>   0.2890 
 12 C        6.2860    -0.7120    -0.3650 C.3   1 <1>   0.2890 
 13 C        3.3710    -5.6870    -1.4480 C.3   1 <1>  -0.2400 
 14 C        4.1520    -6.3440     0.8530 C.3   1 <1>  -0.2400 
 15 C        7.1480    -0.3790     0.8460 C.3   1 <1>  -0.2400 
 16 C        6.7680     0.0200    -1.6100 C.3   1 <1>  -0.2400 
 17 H       -1.1720    -0.4110     2.1230 H     1 <1>   0.0800 
 18 H       -0.2130    -1.7900     2.6590 H     1 <1>   0.0800 
 19 H       -0.8200    -1.7230     0.9990 H     1 <1>   0.0800 
 20 H        1.9900    -4.7490     0.7020 H     1 <1>   0.4000 
 21 H        4.7890     0.7250     0.0920 H     1 <1>   0.4000 
 22 H        4.8210    -4.6470    -0.2620 H     1 <1>   0.0800 
 23 H        6.3070    -1.7760    -0.5440 H     1 <1>   0.0800 
 24 H        2.4560    -6.2350    -1.3160 H     1 <1>   0.0800 
 25 H        4.0950    -6.3310    -1.9120 H     1 <1>   0.0800 
 26 H        3.1940    -4.8510    -2.1000 H     1 <1>   0.0800 
 27 H        3.2510    -6.9060     1.0170 H     1 <1>   0.0800 
 28 H        4.5100    -5.9610     1.7920 H     1 <1>   0.0800 
 29 H        4.9000    -7.0010     0.4490 H     1 <1>   0.0800 
 30 H        7.1420     0.6790     1.0380 H     1 <1>   0.0800 
 31 H        8.1610    -0.6930     0.6710 H     1 <1>   0.0800 
 32 H        6.7760    -0.9000     1.7100 H     1 <1>   0.0800 
 33 H        6.7600     1.0830    -1.4540 H     1 <1>   0.0800 
 34 H        6.1300    -0.2230    -2.4420 H     1 <1>   0.0800 
 35 H        7.7690    -0.2870    -1.8500 H     1 <1>   0.0800 
@<TRIPOS>BOND
  1   1   2  1   
  2   1   3  1   
  3   2   4  ar  
  4   2   5  ar  
  5   3  17  1   
  6   3  18  1   
  7   3  19  1   
  8   4   6  ar  
  9   5   7  ar  
 10   6   8  ar  
 11   6   9  1   
 12   7   8  ar  
 13   7  10  1   
 14   9  11  1   
 15   9  20  1   
 16  10  12  1   
 17  10  21  1   
 18  11  13  1   
 19  11  14  1   
 20  11  22  1   
 21  12  15  1   
 22  12  16  1   
 23  12  23  1   
 24  13  24  1   
 25  13  25  1   
 26  13  26  1   
 27  14  27  1   
 28  14  28  1   
 29  14  29  1   
 30  15  30  1   
 31  15  31  1   
 32  15  32  1   
 33  16  33  1   
 34  16  34  1   
 35  16  35  1   
@<TRIPOS>SUBSTRUCTURE
  1 ****   8 GROUP 4 **** **** 0

# MOE 2024.06 (io_trps.svl 2023.06)
