@<TRIPOS>MOLECULE
NONAME
53 54 1 0 0 
SMALL
USER_CHARGES


@<TRIPOS>ATOM
  1 O        3.0330    -2.7940    -3.1170 O.2   1 <1>  -0.5700 
  2 C        2.8470    -2.1080    -2.1440 C.2   1 <1>   0.5690 
  3 N        3.1920    -0.8000    -2.1840 N.am  1 <1>  -0.7300 
  4 C        2.2320    -2.7620    -0.9060 C.3   1 <1>  -0.0190 
  5 C        3.0460     0.2690    -1.1590 C.3   1 <1>   0.1400 
  6 C        3.1730    -3.8460    -0.3510 C.3   1 <1>  -0.1600 
  7 C        0.8540    -3.3740    -1.2190 C.3   1 <1>  -0.1600 
  8 C        4.2260     0.3010    -0.1780 C.3   1 <1>   0.1200 
  9 C        2.5620    -4.5530     0.8530 C.3   1 <1>   0.3430 
 10 C        0.2760    -4.1060    -0.0110 C.3   1 <1>   0.3430 
 11 O        4.2170    -0.8370     0.6350 O.3   1 <1>  -0.5600 
 12 N        1.2500    -5.1290     0.4620 N.4   1 <1>  -0.9590 
 13 C        5.3030    -0.8990     1.5050 C.3   1 <1>   0.0400 
 14 C        0.6820    -6.0050     1.5150 C.3   1 <1>   0.4860 
 15 C       -0.4730    -6.7830     0.9170 C.ar  1 <1>  -0.1440 
 16 C       -0.2590    -7.6510    -0.1490 C.ar  1 <1>   0.0820 
 17 C       -1.7500    -6.6220     1.4300 C.ar  1 <1>  -0.1500 
 18 O        1.0130    -7.7570    -0.6250 O.3   1 <1>  -0.3630 
 19 C       -1.3340    -8.3550    -0.6870 C.ar  1 <1>  -0.1500 
 20 C       -2.8190    -7.3160     0.8920 C.ar  1 <1>   0.0820 
 21 C        1.3390    -8.6890    -1.6380 C.3   1 <1>   0.0400 
 22 C       -2.6070    -8.1880    -0.1700 C.ar  1 <1>  -0.1500 
 23 O       -4.0310    -7.0860     1.4560 O.3   1 <1>  -0.3620 
 24 C       -5.1790    -7.7910     1.0340 C.3   1 <1>   0.0400 
 25 H        3.6410    -0.5140    -3.0580 H     1 <1>   0.3700 
 26 H        2.0940    -2.0200    -0.1450 H     1 <1>   0.0800 
 27 H        2.1260     0.1480    -0.6150 H     1 <1>   0.0800 
 28 H        2.9950     1.2170    -1.6680 H     1 <1>   0.0800 
 29 H        4.1040    -3.3920    -0.0580 H     1 <1>   0.0800 
 30 H        3.3980    -4.5690    -1.1160 H     1 <1>   0.0800 
 31 H        0.9340    -4.0610    -2.0450 H     1 <1>   0.0800 
 32 H        0.1770    -2.5930    -1.5180 H     1 <1>   0.0800 
 33 H        4.1470     1.1660     0.4570 H     1 <1>   0.0800 
 34 H        5.1560     0.3410    -0.7200 H     1 <1>   0.0800 
 35 H        2.4300    -3.8470     1.6570 H     1 <1>   0.0800 
 36 H        3.2270    -5.3340     1.1850 H     1 <1>   0.0800 
 37 H       -0.6530    -4.5790    -0.2930 H     1 <1>   0.0800 
 38 H        0.0730    -3.4010     0.7780 H     1 <1>   0.0800 
 39 H        1.4080    -5.7780    -0.3290 H     1 <1>   0.4500 
 40 H        5.2110    -1.7910     2.0990 H     1 <1>   0.0800 
 41 H        5.2960    -0.0350     2.1480 H     1 <1>   0.0800 
 42 H        6.2150    -0.9370     0.9340 H     1 <1>   0.0800 
 43 H        0.3450    -5.4180     2.3530 H     1 <1>   0.0800 
 44 H        1.4290    -6.7030     1.8560 H     1 <1>   0.0800 
 45 H       -1.9430    -5.9590     2.2550 H     1 <1>   0.1500 
 46 H       -1.2060    -9.0350    -1.5090 H     1 <1>   0.1500 
 47 H        0.7990    -8.4390    -2.5340 H     1 <1>   0.0800 
 48 H        1.0830    -9.6790    -1.3000 H     1 <1>   0.0800 
 49 H        2.3960    -8.6320    -1.8230 H     1 <1>   0.0800 
 50 H       -3.4180    -8.7420    -0.6060 H     1 <1>   0.1500 
 51 H       -6.0090    -7.4670     1.6350 H     1 <1>   0.0800 
 52 H       -5.0150    -8.8440     1.1770 H     1 <1>   0.0800 
 53 H       -5.3680    -7.5660     0.0000 H     1 <1>   0.0800 
@<TRIPOS>BOND
  1   1   2  2   
  2   2   3  am  
  3   2   4  1   
  4   3   5  1   
  5   3  25  1   
  6   4   6  1   
  7   4   7  1   
  8   4  26  1   
  9   5   8  1   
 10   5  27  1   
 11   5  28  1   
 12   6   9  1   
 13   6  29  1   
 14   6  30  1   
 15   7  10  1   
 16   7  31  1   
 17   7  32  1   
 18   8  11  1   
 19   8  33  1   
 20   8  34  1   
 21   9  12  1   
 22   9  35  1   
 23   9  36  1   
 24  10  12  1   
 25  10  37  1   
 26  10  38  1   
 27  11  13  1   
 28  12  14  1   
 29  12  39  1   
 30  13  40  1   
 31  13  41  1   
 32  13  42  1   
 33  14  15  1   
 34  14  43  1   
 35  14  44  1   
 36  15  16  ar  
 37  15  17  ar  
 38  16  18  1   
 39  16  19  ar  
 40  17  20  ar  
 41  17  45  1   
 42  18  21  1   
 43  19  22  ar  
 44  19  46  1   
 45  20  22  ar  
 46  20  23  1   
 47  21  47  1   
 48  21  48  1   
 49  21  49  1   
 50  22  50  1   
 51  23  24  1   
 52  24  51  1   
 53  24  52  1   
 54  24  53  1   
@<TRIPOS>SUBSTRUCTURE
  1 ****  12 GROUP 4 **** **** 0

# MOE 2024.06 (io_trps.svl 2023.06)
