@<TRIPOS>MOLECULE
NONAME
40 41 1 0 0 
SMALL
USER_CHARGES


@<TRIPOS>ATOM
  1 O        0.7000    -0.7100    -0.3940 O.2   1 <1>  -0.5700 
  2 C        0.4500    -1.8610    -0.0870 C.2   1 <1>   0.5440 
  3 N        1.4560    -2.6540     0.4280 N.am  1 <1>  -0.6600 
  4 C       -0.8930    -2.3660    -0.2920 C.ar  1 <1>   0.0860 
  5 C        2.8170    -2.0900     0.6660 C.3   1 <1>   0.2840 
  6 C        1.3430    -4.1350     0.5350 C.3   1 <1>   0.1400 
  7 C       -1.4180    -2.4950    -1.5760 C.ar  1 <1>  -0.1500 
  8 C       -1.7030    -2.7430     0.7770 C.ar  1 <1>  -0.1500 
  9 C        3.7580    -2.4980    -0.4580 C.ar  1 <1>  -0.1440 
 10 C        1.2820    -4.5550     2.0020 C.3   1 <1>  -0.2400 
 11 C       -2.6890    -2.9980    -1.7850 C.ar  1 <1>  -0.1500 
 12 C       -2.9740    -3.2470     0.5730 C.ar  1 <1>  -0.1500 
 13 C        3.6070    -1.9990    -1.7350 C.ar  1 <1>  -0.1500 
 14 C        4.8020    -3.3820    -0.2680 C.ar  1 <1>  -0.1500 
 15 C       -3.4750    -3.3820    -0.7110 C.ar  1 <1>  -0.1440 
 16 C        4.4790    -2.3960    -2.7340 C.ar  1 <1>   0.1600 
 17 C        5.6190    -3.7140    -1.3360 C.ar  1 <1>   0.1600 
 18 C       -4.8730    -3.9340    -0.9390 C.3   1 <1>  -0.0170 
 19 N        5.4820    -3.2430    -2.5650 N.ar  1 <1>  -0.6200 
 20 C       -5.9030    -2.8020    -0.9400 C.3   1 <1>  -0.2400 
 21 H        3.1910    -2.4410     1.6100 H     1 <1>   0.0800 
 22 H        2.7760    -1.0150     0.7210 H     1 <1>   0.0800 
 23 H        2.1880    -4.5990     0.0550 H     1 <1>   0.0800 
 24 H        0.4600    -4.4830     0.0260 H     1 <1>   0.0800 
 25 H       -0.8150    -2.1940    -2.4140 H     1 <1>   0.1500 
 26 H       -1.3260    -2.6340     1.7780 H     1 <1>   0.1500 
 27 H        2.1950    -4.3080     2.5090 H     1 <1>   0.0800 
 28 H        1.1410    -5.6190     2.0630 H     1 <1>   0.0800 
 29 H        0.4570    -4.0750     2.4960 H     1 <1>   0.0800 
 30 H       -3.0670    -3.0870    -2.7890 H     1 <1>   0.1500 
 31 H       -3.5770    -3.5300     1.4190 H     1 <1>   0.1500 
 32 H        2.8140    -1.3050    -1.9560 H     1 <1>   0.1500 
 33 H        4.9890    -3.8150     0.6980 H     1 <1>   0.1500 
 34 H        4.3420    -1.9950    -3.7240 H     1 <1>   0.1500 
 35 H        6.4290    -4.4040    -1.1710 H     1 <1>   0.1500 
 36 H       -5.1150    -4.6410    -0.1650 H     1 <1>   0.0800 
 37 H       -4.9090    -4.4550    -1.8790 H     1 <1>   0.0800 
 38 H       -5.8880    -2.2850     0.0030 H     1 <1>   0.0800 
 39 H       -6.8890    -3.1980    -1.1020 H     1 <1>   0.0800 
 40 H       -5.6790    -2.0980    -1.7220 H     1 <1>   0.0800 
@<TRIPOS>BOND
  1   1   2  2   
  2   2   3  am  
  3   2   4  1   
  4   3   5  1   
  5   3   6  1   
  6   4   7  ar  
  7   4   8  ar  
  8   5   9  1   
  9   5  21  1   
 10   5  22  1   
 11   6  10  1   
 12   6  23  1   
 13   6  24  1   
 14   7  11  ar  
 15   7  25  1   
 16   8  12  ar  
 17   8  26  1   
 18   9  13  ar  
 19   9  14  ar  
 20  10  27  1   
 21  10  28  1   
 22  10  29  1   
 23  11  15  ar  
 24  11  30  1   
 25  12  15  ar  
 26  12  31  1   
 27  13  16  ar  
 28  13  32  1   
 29  14  17  ar  
 30  14  33  1   
 31  15  18  1   
 32  16  19  ar  
 33  16  34  1   
 34  17  19  ar  
 35  17  35  1   
 36  18  20  1   
 37  18  36  1   
 38  18  37  1   
 39  20  38  1   
 40  20  39  1   
 41  20  40  1   
@<TRIPOS>SUBSTRUCTURE
  1 ****   2 GROUP 4 **** **** 0

# MOE 2024.06 (io_trps.svl 2023.06)
