@<TRIPOS>MOLECULE
NONAME
52 54 1 0 0 
SMALL
USER_CHARGES


@<TRIPOS>ATOM
  1 CL       2.9800     2.4270     2.3670 Cl    1 <1>  -0.1770 
  2 C        1.5390     2.6330     1.4020 C.ar  1 <1>   0.1770 
  3 C        1.5480     2.3040     0.0480 C.ar  1 <1>   0.0860 
  4 C        0.4100     3.1280     2.0270 C.ar  1 <1>  -0.1500 
  5 C        2.7350     1.8060    -0.6070 C.2   1 <1>   0.5440 
  6 C        0.3590     2.4750    -0.6590 C.ar  1 <1>  -0.1500 
  7 C       -0.7560     3.2980     1.3010 C.ar  1 <1>  -0.1500 
  8 O        2.7870     0.6270    -0.9020 O.2   1 <1>  -0.5700 
  9 N        3.7870     2.6350    -0.9420 N.am  1 <1>  -0.6600 
 10 C       -0.7790     2.9680    -0.0440 C.ar  1 <1>  -0.1500 
 11 C        3.7240     4.1220    -0.8670 C.3   1 <1>   0.1400 
 12 C        5.0770     2.0870    -1.4430 C.3   1 <1>   0.1400 
 13 C        4.8770     4.6520    -0.0110 C.3   1 <1>  -0.1600 
 14 C        6.2300     2.6070    -0.5800 C.3   1 <1>  -0.1600 
 15 C        6.2430     4.1450    -0.5150 C.3   1 <1>  -0.0190 
 16 C        7.4160     4.6500     0.3250 C.2   1 <1>   0.5690 
 17 O        7.2370     5.0370     1.4550 O.2   1 <1>  -0.5700 
 18 N        8.6500     4.6450    -0.2420 N.am  1 <1>  -0.7300 
 19 C        9.8930     5.0730     0.4210 C.3   1 <1>   0.2200 
 20 C       10.5270     6.1790    -0.4330 C.3   1 <1>  -0.1600 
 21 C       10.7640     3.8260     0.6170 C.3   1 <1>  -0.1600 
 22 C       11.6460     6.9240     0.3120 C.3   1 <1>  -0.1600 
 23 C       12.1530     4.0900     1.2210 C.3   1 <1>  -0.1600 
 24 C       13.0410     6.2910     0.1860 C.3   1 <1>  -0.1600 
 25 C       13.1110     4.7570     0.2230 C.3   1 <1>  -0.1600 
 26 H        0.4450     3.3730     3.0740 H     1 <1>   0.1500 
 27 H        0.3350     2.2120    -1.7030 H     1 <1>   0.1500 
 28 H       -1.6410     3.6820     1.7790 H     1 <1>   0.1500 
 29 H       -1.6870     3.0930    -0.6110 H     1 <1>   0.1500 
 30 H        2.7890     4.4520    -0.4510 H     1 <1>   0.0800 
 31 H        3.8010     4.5220    -1.8640 H     1 <1>   0.0800 
 32 H        5.2120     2.3910    -2.4670 H     1 <1>   0.0800 
 33 H        5.0720     1.0110    -1.4140 H     1 <1>   0.0800 
 34 H        4.7260     4.3390     1.0080 H     1 <1>   0.0800 
 35 H        4.8650     5.7280    -0.0220 H     1 <1>   0.0800 
 36 H        7.1590     2.2470    -0.9830 H     1 <1>   0.0800 
 37 H        6.1270     2.2050     0.4140 H     1 <1>   0.0800 
 38 H        6.3820     4.5240    -1.5120 H     1 <1>   0.0800 
 39 H        8.7710     4.2990    -1.1920 H     1 <1>   0.3700 
 40 H        9.6510     5.4800     1.3900 H     1 <1>   0.0800 
 41 H        9.7580     6.8990    -0.6530 H     1 <1>   0.0800 
 42 H       10.8920     5.7850    -1.3650 H     1 <1>   0.0800 
 43 H       10.8810     3.3160    -0.3220 H     1 <1>   0.0800 
 44 H       10.2350     3.1660     1.2820 H     1 <1>   0.0800 
 45 H       11.3850     7.0100     1.3530 H     1 <1>   0.0800 
 46 H       11.7070     7.9280    -0.0730 H     1 <1>   0.0800 
 47 H       12.5730     3.1370     1.4940 H     1 <1>   0.0800 
 48 H       12.0740     4.6720     2.1240 H     1 <1>   0.0800 
 49 H       13.6520     6.6830     0.9800 H     1 <1>   0.0800 
 50 H       13.4860     6.6180    -0.7390 H     1 <1>   0.0800 
 51 H       12.9300     4.3660    -0.7630 H     1 <1>   0.0800 
 52 H       14.1200     4.4830     0.4810 H     1 <1>   0.0800 
@<TRIPOS>BOND
  1   1   2  1   
  2   2   3  ar  
  3   2   4  ar  
  4   3   5  1   
  5   3   6  ar  
  6   4   7  ar  
  7   4  26  1   
  8   5   8  2   
  9   5   9  am  
 10   6  10  ar  
 11   6  27  1   
 12   7  10  ar  
 13   7  28  1   
 14   9  11  1   
 15   9  12  1   
 16  10  29  1   
 17  11  13  1   
 18  11  30  1   
 19  11  31  1   
 20  12  14  1   
 21  12  32  1   
 22  12  33  1   
 23  13  15  1   
 24  13  34  1   
 25  13  35  1   
 26  14  15  1   
 27  14  36  1   
 28  14  37  1   
 29  15  16  1   
 30  15  38  1   
 31  16  17  2   
 32  16  18  am  
 33  18  19  1   
 34  18  39  1   
 35  19  20  1   
 36  19  21  1   
 37  19  40  1   
 38  20  22  1   
 39  20  41  1   
 40  20  42  1   
 41  21  23  1   
 42  21  43  1   
 43  21  44  1   
 44  22  24  1   
 45  22  45  1   
 46  22  46  1   
 47  23  25  1   
 48  23  47  1   
 49  23  48  1   
 50  24  25  1   
 51  24  49  1   
 52  24  50  1   
 53  25  51  1   
 54  25  52  1   
@<TRIPOS>SUBSTRUCTURE
  1 ****  15 GROUP 4 **** **** 0

# MOE 2024.06 (io_trps.svl 2023.06)
