@<TRIPOS>MOLECULE
NONAME
47 49 1 0 0 
SMALL
USER_CHARGES


@<TRIPOS>ATOM
  1 O       -0.9680    -0.3220     2.8770 O.2   1 <1>  -0.5700 
  2 C       -1.6570    -0.7970     2.0160 C.2   1 <1>   0.6590 
  3 O       -1.6340    -2.1010     1.7880 O.3   1 <1>  -0.4300 
  4 C       -2.5670     0.0890     1.1830 C.3   1 <1>   0.0450 
  5 C       -2.2520    -2.6970     0.6660 C.3   1 <1>   0.4870 
  6 C       -3.7610    -0.6820     0.6470 C.ar  1 <1>  -0.1440 
  7 C       -3.6140    -2.0390     0.4020 C.ar  1 <1>  -0.1440 
  8 C       -2.3480    -4.2030     0.9220 C.ar  1 <1>  -0.1440 
  9 C       -4.9690    -0.0490     0.4050 C.ar  1 <1>  -0.1500 
 10 C       -4.6950    -2.7550    -0.0950 C.ar  1 <1>  -0.1500 
 11 C       -2.0610    -5.1090    -0.0970 C.ar  1 <1>   0.0830 
 12 C       -2.7380    -4.6800     2.1660 C.ar  1 <1>  -0.1500 
 13 C       -6.0560    -0.7670    -0.0860 C.ar  1 <1>   0.0830 
 14 C       -5.9170    -2.1340    -0.3360 C.ar  1 <1>   0.0830 
 15 O       -1.7050    -4.6040    -1.3080 O.3   1 <1>  -0.3630 
 16 C       -2.1580    -6.4770     0.1480 C.ar  1 <1>  -0.1500 
 17 C       -2.8350    -6.0390     2.4030 C.ar  1 <1>  -0.1500 
 18 O       -7.2660    -0.1890    -0.3380 O.3   1 <1>  -0.3630 
 19 O       -7.0000    -2.8120    -0.8130 O.3   1 <1>  -0.3630 
 20 C       -1.3860    -5.4410    -2.3980 C.3   1 <1>   0.0400 
 21 C       -2.5440    -6.9380     1.3930 C.ar  1 <1>  -0.1500 
 22 C       -7.5040     1.1790    -0.1080 C.3   1 <1>   0.1200 
 23 C       -6.9980    -4.2140    -0.9420 C.3   1 <1>   0.1200 
 24 C       -8.9510     1.4750    -0.4910 C.3   1 <1>  -0.2400 
 25 C       -8.3880    -4.6460    -1.3970 C.3   1 <1>  -0.2400 
 26 H       -2.0000     0.4910     0.3640 H     1 <1>   0.0800 
 27 H       -2.8990     0.9050     1.7980 H     1 <1>   0.0800 
 28 H       -1.6060    -2.5040    -0.1720 H     1 <1>   0.0800 
 29 H       -5.0510     1.0020     0.6040 H     1 <1>   0.1500 
 30 H       -4.5750    -3.8020    -0.2970 H     1 <1>   0.1500 
 31 H       -2.9680    -3.9890     2.9610 H     1 <1>   0.1500 
 32 H       -1.9400    -7.1990    -0.6150 H     1 <1>   0.1500 
 33 H       -3.1360    -6.3950     3.3730 H     1 <1>   0.1500 
 34 H       -1.1320    -4.8170    -3.2360 H     1 <1>   0.0800 
 35 H       -2.2430    -6.0450    -2.6390 H     1 <1>   0.0800 
 36 H       -0.5430    -6.0550    -2.1320 H     1 <1>   0.0800 
 37 H       -2.6170    -7.9950     1.5800 H     1 <1>   0.1500 
 38 H       -6.8250     1.7500    -0.7170 H     1 <1>   0.0800 
 39 H       -7.3380     1.3820     0.9360 H     1 <1>   0.0800 
 40 H       -6.7610    -4.6440     0.0160 H     1 <1>   0.0800 
 41 H       -6.2570    -4.4890    -1.6710 H     1 <1>   0.0800 
 42 H       -9.1100     1.2480    -1.5300 H     1 <1>   0.0800 
 43 H       -9.1680     2.5140    -0.3270 H     1 <1>   0.0800 
 44 H       -9.6180     0.8830     0.1100 H     1 <1>   0.0800 
 45 H       -9.1220    -4.3490    -0.6700 H     1 <1>   0.0800 
 46 H       -8.4220    -5.7150    -1.5050 H     1 <1>   0.0800 
 47 H       -8.6210    -4.1950    -2.3460 H     1 <1>   0.0800 
@<TRIPOS>BOND
  1   1   2  2   
  2   2   3  1   
  3   2   4  1   
  4   3   5  1   
  5   4   6  1   
  6   4  26  1   
  7   4  27  1   
  8   5   7  1   
  9   5   8  1   
 10   5  28  1   
 11   6   7  ar  
 12   6   9  ar  
 13   7  10  ar  
 14   8  11  ar  
 15   8  12  ar  
 16   9  13  ar  
 17   9  29  1   
 18  10  14  ar  
 19  10  30  1   
 20  11  15  1   
 21  11  16  ar  
 22  12  17  ar  
 23  12  31  1   
 24  13  14  ar  
 25  13  18  1   
 26  14  19  1   
 27  15  20  1   
 28  16  21  ar  
 29  16  32  1   
 30  17  21  ar  
 31  17  33  1   
 32  18  22  1   
 33  19  23  1   
 34  20  34  1   
 35  20  35  1   
 36  20  36  1   
 37  21  37  1   
 38  22  24  1   
 39  22  38  1   
 40  22  39  1   
 41  23  25  1   
 42  23  40  1   
 43  23  41  1   
 44  24  42  1   
 45  24  43  1   
 46  24  44  1   
 47  25  45  1   
 48  25  46  1   
 49  25  47  1   
@<TRIPOS>SUBSTRUCTURE
  1 ****  10 GROUP 4 **** **** 0

# MOE 2024.06 (io_trps.svl 2023.06)
