@<TRIPOS>MOLECULE
NONAME
36 37 1 0 0 
SMALL
USER_CHARGES


@<TRIPOS>ATOM
  1 S        0.9320    -0.8010    -1.4640 S.3   1 <1>  -0.0800 
  2 C       -0.2790    -0.9990    -0.1880 C.2   1 <1>   0.4420 
  3 C        1.6250     0.5420    -0.5870 C.ar  1 <1>   0.0400 
  4 N       -0.1680    -0.1620     0.7720 N.2   1 <1>  -0.5650 
  5 N       -1.2320    -1.9840    -0.2560 N.am  1 <1>  -0.4940 
  6 C        0.8910     0.7130     0.5710 C.ar  1 <1>   0.2270 
  7 C        2.7070     1.3300    -0.9330 C.ar  1 <1>  -0.1500 
  8 C       -1.5760    -2.8660    -1.2380 C.2   1 <1>   0.5690 
  9 C        1.2640     1.7350     1.4340 C.ar  1 <1>  -0.1500 
 10 C        3.0640     2.3440    -0.0600 C.ar  1 <1>  -0.1500 
 11 O       -1.0780    -2.8820    -2.3330 O.2   1 <1>  -0.5700 
 12 C       -2.6670    -3.8800    -0.9410 C.3   1 <1>  -0.0990 
 13 C        2.3440     2.5440     1.1170 C.ar  1 <1>  -0.1500 
 14 C       -4.0860    -3.2840    -1.0510 C.3   1 <1>  -0.0990 
 15 C       -4.4030    -2.2440     0.0080 C.2   1 <1>   0.6590 
 16 O       -3.7420    -2.1310     1.0090 O.2   1 <1>  -0.5700 
 17 O       -5.4510    -1.4710    -0.2380 O.3   1 <1>  -0.4300 
 18 C       -5.9110    -0.4800     0.6780 C.3   1 <1>   0.1200 
 19 C       -7.0170    -1.0060     1.6160 C.3   1 <1>   0.6800 
 20 F       -7.2020    -0.1020     2.5770 F     1 <1>  -0.3400 
 21 F       -6.5820    -2.0810     2.2720 F     1 <1>  -0.3400 
 22 C       -8.3780    -1.3210     0.9490 C.3   1 <1>   0.6000 
 23 F       -8.2770    -2.2880     0.0360 F     1 <1>  -0.3400 
 24 F       -8.8370    -0.2710     0.2670 F     1 <1>  -0.3400 
 25 H       -1.8430    -1.9930     0.5680 H     1 <1>   0.3700 
 26 H        3.2440     1.1540    -1.8480 H     1 <1>   0.1500 
 27 H        0.7040     1.8810     2.3390 H     1 <1>   0.1500 
 28 H        3.9000     2.9820    -0.2900 H     1 <1>   0.1500 
 29 H       -2.5110    -4.2940     0.0390 H     1 <1>   0.0800 
 30 H       -2.5740    -4.6850    -1.6480 H     1 <1>   0.0800 
 31 H        2.6330     3.3360     1.7870 H     1 <1>   0.1500 
 32 H       -4.8090    -4.0730    -0.9610 H     1 <1>   0.0800 
 33 H       -4.2070    -2.8350    -2.0200 H     1 <1>   0.0800 
 34 H       -6.3000     0.3320     0.0910 H     1 <1>   0.0800 
 35 H       -5.0790    -0.1170     1.2550 H     1 <1>   0.0800 
 36 H       -9.1280    -1.6120     1.6600 H     1 <1>   0.0800 
@<TRIPOS>BOND
  1   1   2  1   
  2   1   3  1   
  3   2   4  2   
  4   2   5  1   
  5   3   6  ar  
  6   3   7  ar  
  7   4   6  1   
  8   5   8  am  
  9   5  25  1   
 10   6   9  ar  
 11   7  10  ar  
 12   7  26  1   
 13   8  11  2   
 14   8  12  1   
 15   9  13  ar  
 16   9  27  1   
 17  10  13  ar  
 18  10  28  1   
 19  12  14  1   
 20  12  29  1   
 21  12  30  1   
 22  13  31  1   
 23  14  15  1   
 24  14  32  1   
 25  14  33  1   
 26  15  16  2   
 27  15  17  1   
 28  17  18  1   
 29  18  19  1   
 30  18  34  1   
 31  18  35  1   
 32  19  20  1   
 33  19  21  1   
 34  19  22  1   
 35  22  23  1   
 36  22  24  1   
 37  22  36  1   
@<TRIPOS>SUBSTRUCTURE
  1 ****  16 GROUP 4 **** **** 0

# MOE 2024.06 (io_trps.svl 2023.06)
