@<TRIPOS>MOLECULE
NONAME
40 41 1 0 0 
SMALL
USER_CHARGES


@<TRIPOS>ATOM
  1 CL      -2.2590     1.2480     2.2150 Cl    1 <1>  -0.1770 
  2 C       -1.1930     2.2140     1.2230 C.ar  1 <1>   0.1770 
  3 C       -1.5260     2.4620    -0.1030 C.ar  1 <1>  -0.1440 
  4 C       -0.0400     2.7210     1.7900 C.ar  1 <1>  -0.1500 
  5 C       -0.6720     3.2400    -0.8760 C.ar  1 <1>  -0.1500 
  6 C       -2.7970     1.8840    -0.6990 C.3   1 <1>   0.4870 
  7 C        0.7920     3.4940     1.0050 C.ar  1 <1>   0.1770 
  8 C        0.4880     3.7580    -0.3190 C.ar  1 <1>  -0.1500 
  9 N       -3.9860     2.5280    -0.0740 N.4   1 <1>  -0.9590 
 10 CL       2.2510     4.1500     1.6940 Cl    1 <1>  -0.1770 
 11 C       -5.2460     1.8380    -0.4970 C.3   1 <1>   0.3430 
 12 C       -4.0310     3.9990    -0.3310 C.3   1 <1>   0.3430 
 13 C       -6.4730     2.4220     0.2140 C.3   1 <1>  -0.0190 
 14 C       -5.2150     4.6150     0.4150 C.3   1 <1>  -0.1600 
 15 C       -7.7150     1.7340    -0.3230 C.2   1 <1>   0.6590 
 16 C       -6.5450     3.9510     0.0280 C.3   1 <1>  -0.1600 
 17 O       -7.6700     1.0500    -1.3120 O.2   1 <1>  -0.5700 
 18 O       -8.8300     1.9330     0.3610 O.3   1 <1>  -0.4300 
 19 C      -10.0530     1.3550    -0.0350 C.3   1 <1>   0.1200 
 20 C      -11.1240     1.7900     0.9600 C.3   1 <1>  -0.2400 
 21 H        0.2100     2.5220     2.8170 H     1 <1>   0.1500 
 22 H       -0.8890     3.4500    -1.9110 H     1 <1>   0.1500 
 23 H       -2.8180     0.8210    -0.5160 H     1 <1>   0.0800 
 24 H       -2.8080     2.0420    -1.7660 H     1 <1>   0.0800 
 25 H        1.1620     4.3620    -0.9040 H     1 <1>   0.1500 
 26 H       -3.8770     2.3970     0.9430 H     1 <1>   0.4500 
 27 H       -5.1850     0.7830    -0.2790 H     1 <1>   0.0800 
 28 H       -5.3790     1.9470    -1.5620 H     1 <1>   0.0800 
 29 H       -4.1380     4.1830    -1.3890 H     1 <1>   0.0800 
 30 H       -3.1170     4.4650     0.0030 H     1 <1>   0.0800 
 31 H       -6.4070     2.1910     1.2610 H     1 <1>   0.0800 
 32 H       -5.2650     5.6660     0.1860 H     1 <1>   0.0800 
 33 H       -5.0540     4.5280     1.4760 H     1 <1>   0.0800 
 34 H       -7.3430     4.3540     0.6310 H     1 <1>   0.0800 
 35 H       -6.7700     4.1770    -1.0020 H     1 <1>   0.0800 
 36 H       -9.9410     0.2830    -0.0380 H     1 <1>   0.0800 
 37 H      -10.2880     1.6960    -1.0290 H     1 <1>   0.0800 
 38 H      -10.8740     1.4510     1.9490 H     1 <1>   0.0800 
 39 H      -12.0710     1.3620     0.6820 H     1 <1>   0.0800 
 40 H      -11.2210     2.8610     0.9590 H     1 <1>   0.0800 
@<TRIPOS>BOND
  1   1   2  1   
  2   2   3  ar  
  3   2   4  ar  
  4   3   5  ar  
  5   3   6  1   
  6   4   7  ar  
  7   4  21  1   
  8   5   8  ar  
  9   5  22  1   
 10   6   9  1   
 11   6  23  1   
 12   6  24  1   
 13   7   8  ar  
 14   7  10  1   
 15   8  25  1   
 16   9  11  1   
 17   9  12  1   
 18   9  26  1   
 19  11  13  1   
 20  11  27  1   
 21  11  28  1   
 22  12  14  1   
 23  12  29  1   
 24  12  30  1   
 25  13  15  1   
 26  13  16  1   
 27  13  31  1   
 28  14  16  1   
 29  14  32  1   
 30  14  33  1   
 31  15  17  2   
 32  15  18  1   
 33  16  34  1   
 34  16  35  1   
 35  18  19  1   
 36  19  20  1   
 37  19  36  1   
 38  19  37  1   
 39  20  38  1   
 40  20  39  1   
 41  20  40  1   
@<TRIPOS>SUBSTRUCTURE
  1 ****   9 GROUP 4 **** **** 0

# MOE 2024.06 (io_trps.svl 2023.06)
