@<TRIPOS>MOLECULE
NONAME
31 31 1 0 0 
SMALL
USER_CHARGES


@<TRIPOS>ATOM
  1 CL       0.0940     0.6810    -0.5970 Cl    1 <1>  -0.1770 
  2 C        1.7780     0.4190    -0.2270 C.ar  1 <1>   0.1770 
  3 C        2.4010     1.2250     0.7040 C.ar  1 <1>  -0.1500 
  4 C        2.4640    -0.5930    -0.8720 C.ar  1 <1>  -0.1500 
  5 C        3.7390     1.0170     0.9960 C.ar  1 <1>  -0.1500 
  6 C        3.8020    -0.7990    -0.5790 C.ar  1 <1>  -0.1500 
  7 C        4.4450     0.0060     0.3530 C.ar  1 <1>  -0.1430 
  8 C        5.9090    -0.2120     0.6630 C.3   1 <1>   0.4870 
  9 N        6.6670     0.7260    -0.1830 N.4   1 <1>  -0.9060 
 10 C        8.1340     0.6830    -0.0290 C.3   1 <1>   0.4230 
 11 C        8.6920     2.1000    -0.2980 C.3   1 <1>   0.1200 
 12 C        8.7150    -0.3830    -0.9680 C.3   1 <1>  -0.1600 
 13 O        7.7860     3.0590     0.1710 O.3   1 <1>  -0.6800 
 14 C       10.2300    -0.5640    -0.7940 C.3   1 <1>  -0.2400 
 15 H        1.8400     2.0030     1.1930 H     1 <1>   0.1500 
 16 H        1.9500    -1.2070    -1.5900 H     1 <1>   0.1500 
 17 H        4.2140     1.6510     1.7270 H     1 <1>   0.1500 
 18 H        4.3250    -1.5940    -1.0860 H     1 <1>   0.1500 
 19 H        6.1850    -1.2290     0.4390 H     1 <1>   0.0800 
 20 H        6.1000    -0.0170     1.7060 H     1 <1>   0.0800 
 21 H        6.4160     1.6960     0.0810 H     1 <1>   0.4500 
 22 H        6.3860     0.6320    -1.1620 H     1 <1>   0.4500 
 23 H        8.3780     0.4250     0.9890 H     1 <1>   0.0800 
 24 H        8.8350     2.2630    -1.3530 H     1 <1>   0.0800 
 25 H        9.6340     2.2360     0.2070 H     1 <1>   0.0800 
 26 H        8.5150    -0.1200    -1.9930 H     1 <1>   0.0800 
 27 H        8.2460    -1.3310    -0.7670 H     1 <1>   0.0800 
 28 H        8.1590     3.9660     0.0860 H     1 <1>   0.4000 
 29 H       10.7680     0.3290    -1.0630 H     1 <1>   0.0800 
 30 H       10.5780    -1.3600    -1.4320 H     1 <1>   0.0800 
 31 H       10.4730    -0.8240     0.2220 H     1 <1>   0.0800 
@<TRIPOS>BOND
  1   1   2  1   
  2   2   3  ar  
  3   2   4  ar  
  4   3   5  ar  
  5   3  15  1   
  6   4   6  ar  
  7   4  16  1   
  8   5   7  ar  
  9   5  17  1   
 10   6   7  ar  
 11   6  18  1   
 12   7   8  1   
 13   8   9  1   
 14   8  19  1   
 15   8  20  1   
 16   9  10  1   
 17   9  21  1   
 18   9  22  1   
 19  10  11  1   
 20  10  12  1   
 21  10  23  1   
 22  11  13  1   
 23  11  24  1   
 24  11  25  1   
 25  12  14  1   
 26  12  26  1   
 27  12  27  1   
 28  13  28  1   
 29  14  29  1   
 30  14  30  1   
 31  14  31  1   
@<TRIPOS>SUBSTRUCTURE
  1 ****   7 GROUP 4 **** **** 0

# MOE 2024.06 (io_trps.svl 2023.06)
