@<TRIPOS>MOLECULE
NONAME
31 31 1 0 0 
SMALL
USER_CHARGES


@<TRIPOS>ATOM
  1 BR       2.3560     0.5190    -1.3040 Br    1 <1>  -0.1110 
  2 C        1.2340     1.9930    -0.7540 C.ar  1 <1>   0.1110 
  3 C        1.6490     2.8430     0.2690 C.ar  1 <1>   0.0820 
  4 C        0.0260     2.1560    -1.4030 C.ar  1 <1>  -0.1500 
  5 O        2.8390     2.6580     0.8900 O.3   1 <1>  -0.3630 
  6 C        0.8140     3.8840     0.6690 C.ar  1 <1>  -0.1440 
  7 C       -0.7810     3.2030    -0.9990 C.ar  1 <1>   0.1770 
  8 C        3.9990     3.0330     0.1860 C.3   1 <1>   0.1200 
  9 C       -0.4030     4.0590     0.0220 C.ar  1 <1>  -0.1500 
 10 C        1.2100     4.8220     1.8010 C.3   1 <1>  -0.0960 
 11 CL      -2.3150     3.4490    -1.7950 Cl    1 <1>  -0.1770 
 12 C        5.0930     2.0270     0.5540 C.3   1 <1>   0.3430 
 13 N        6.3410     2.2460    -0.2390 N.4   1 <1>  -0.9060 
 14 C        7.3900     1.2600     0.0990 C.3   1 <1>   0.3430 
 15 C        8.6110     1.5570    -0.7580 C.3   1 <1>  -0.2400 
 16 H       -0.2830     1.4950    -2.1910 H     1 <1>   0.1500 
 17 H        4.2570     4.0310     0.4900 H     1 <1>   0.0800 
 18 H        3.7910     3.0090    -0.8700 H     1 <1>   0.0800 
 19 H       -1.0690     4.8550     0.3040 H     1 <1>   0.1500 
 20 H        1.4980     4.2520     2.6670 H     1 <1>   0.0800 
 21 H        0.3900     5.4610     2.0770 H     1 <1>   0.0800 
 22 H        2.0360     5.4380     1.4980 H     1 <1>   0.0800 
 23 H        4.7190     1.0340     0.3650 H     1 <1>   0.0800 
 24 H        5.3070     2.1170     1.6070 H     1 <1>   0.0800 
 25 H        6.7080     3.1920    -0.0740 H     1 <1>   0.4500 
 26 H        6.1340     2.1730    -1.2440 H     1 <1>   0.4500 
 27 H        7.0390     0.2590    -0.0990 H     1 <1>   0.0800 
 28 H        7.6500     1.3330     1.1440 H     1 <1>   0.0800 
 29 H        8.3810     1.4620    -1.8050 H     1 <1>   0.0800 
 30 H        9.3870     0.8480    -0.5260 H     1 <1>   0.0800 
 31 H        8.9940     2.5420    -0.5570 H     1 <1>   0.0800 
@<TRIPOS>BOND
  1   1   2  1   
  2   2   3  ar  
  3   2   4  ar  
  4   3   5  1   
  5   3   6  ar  
  6   4   7  ar  
  7   4  16  1   
  8   5   8  1   
  9   6   9  ar  
 10   6  10  1   
 11   7   9  ar  
 12   7  11  1   
 13   8  12  1   
 14   8  17  1   
 15   8  18  1   
 16   9  19  1   
 17  10  20  1   
 18  10  21  1   
 19  10  22  1   
 20  12  13  1   
 21  12  23  1   
 22  12  24  1   
 23  13  14  1   
 24  13  25  1   
 25  13  26  1   
 26  14  15  1   
 27  14  27  1   
 28  14  28  1   
 29  15  29  1   
 30  15  30  1   
 31  15  31  1   
@<TRIPOS>SUBSTRUCTURE
  1 ****   3 GROUP 4 **** **** 0

# MOE 2024.06 (io_trps.svl 2023.06)
