@<TRIPOS>MOLECULE
NONAME
54 56 1 0 0 
SMALL
USER_CHARGES


@<TRIPOS>ATOM
  1 O       -0.3950    -0.0820     1.3050 O.2   1 <1>  -0.5700 
  2 C       -0.8640    -1.1610     0.9950 C.2   1 <1>   0.6900 
  3 N       -2.2050    -1.4000     1.1530 N.am  1 <1>  -0.6600 
  4 N       -0.0790    -2.1610     0.5050 N.am  1 <1>  -0.5470 
  5 C       -2.9830    -2.3660     0.3140 C.3   1 <1>   0.1400 
  6 C       -3.0800    -0.4340     1.8880 C.3   1 <1>   0.1400 
  7 C        1.2740    -2.2430     0.1270 C.ar  1 <1>   0.1170 
  8 C       -3.9240    -1.6350    -0.6610 C.3   1 <1>   0.2090 
  9 C       -4.0220     0.3170     0.9320 C.3   1 <1>   0.2090 
 10 C        1.8250    -3.5120    -0.0820 C.ar  1 <1>   0.0830 
 11 C        2.0780    -1.1250    -0.0620 C.ar  1 <1>  -0.1500 
 12 N       -4.7650    -0.6100     0.0230 N.pl3 1 <1>  -0.8380 
 13 O        1.0010    -4.5900     0.1000 O.3   1 <1>  -0.3630 
 14 C        3.1580    -3.6390    -0.4590 C.ar  1 <1>  -0.1500 
 15 C        3.4030    -1.2540    -0.4380 C.ar  1 <1>  -0.1500 
 16 C       -6.0900    -0.9300     0.3220 C.ar  1 <1>   0.1000 
 17 C        1.4980    -5.9070    -0.0020 C.3   1 <1>   0.0400 
 18 C        3.9490    -2.5170    -0.6370 C.ar  1 <1>   0.0830 
 19 C       -7.1460    -0.4310    -0.4480 C.ar  1 <1>  -0.1430 
 20 C       -6.3680    -1.7640     1.3980 C.ar  1 <1>  -0.1500 
 21 O        5.2400    -2.7350    -1.0060 O.3   1 <1>  -0.3630 
 22 C       -8.4590    -0.7820    -0.1350 C.ar  1 <1>  -0.1430 
 23 C       -6.8080     0.4890    -1.6220 C.3   1 <1>  -0.0970 
 24 C       -7.6670    -2.1060     1.7110 C.ar  1 <1>  -0.1500 
 25 C        6.1300    -1.6570    -1.1890 C.3   1 <1>   0.0400 
 26 C       -8.7080    -1.6160     0.9460 C.ar  1 <1>  -0.1500 
 27 C       -9.6520    -0.2830    -0.9390 C.3   1 <1>  -0.0970 
 28 H       -0.5180    -3.0760     0.5510 H     1 <1>   0.3700 
 29 H       -3.5690    -2.9970     0.9570 H     1 <1>   0.0800 
 30 H       -2.3270    -2.9990    -0.2560 H     1 <1>   0.0800 
 31 H       -2.4840     0.2810     2.4280 H     1 <1>   0.0800 
 32 H       -3.6660    -0.9710     2.6110 H     1 <1>   0.0800 
 33 H       -4.5630    -2.3510    -1.1490 H     1 <1>   0.0800 
 34 H       -3.3360    -1.1480    -1.4200 H     1 <1>   0.0800 
 35 H       -3.4430     0.9990     0.3350 H     1 <1>   0.0800 
 36 H       -4.7260     0.8960     1.5030 H     1 <1>   0.0800 
 37 H        1.6720    -0.1400     0.0830 H     1 <1>   0.1500 
 38 H        3.6130    -4.5950    -0.6260 H     1 <1>   0.1500 
 39 H        3.9860    -0.3620    -0.5680 H     1 <1>   0.1500 
 40 H        0.6930    -6.5870     0.2140 H     1 <1>   0.0800 
 41 H        2.2890    -6.0390     0.7150 H     1 <1>   0.0800 
 42 H        1.8540    -6.0710    -1.0040 H     1 <1>   0.0800 
 43 H       -5.5600    -2.1460     1.9890 H     1 <1>   0.1500 
 44 H       -6.2930    -0.0750    -2.3770 H     1 <1>   0.0800 
 45 H       -6.1600     1.2770    -1.2850 H     1 <1>   0.0800 
 46 H       -7.6720     0.9440    -2.0640 H     1 <1>   0.0800 
 47 H       -7.8710    -2.7520     2.5470 H     1 <1>   0.1500 
 48 H        7.0890    -2.0580    -1.4660 H     1 <1>   0.0800 
 49 H        6.2150    -1.1120    -0.2650 H     1 <1>   0.0800 
 50 H        5.7570    -1.0260    -1.9770 H     1 <1>   0.0800 
 51 H       -9.7160    -1.8920     1.1990 H     1 <1>   0.1500 
 52 H       -9.7270     0.7860    -0.8570 H     1 <1>   0.0800 
 53 H      -10.5690    -0.7140    -0.5810 H     1 <1>   0.0800 
 54 H       -9.5370    -0.5540    -1.9730 H     1 <1>   0.0800 
@<TRIPOS>BOND
  1   1   2  2   
  2   2   3  am  
  3   2   4  am  
  4   3   5  1   
  5   3   6  1   
  6   4   7  1   
  7   4  28  1   
  8   5   8  1   
  9   5  29  1   
 10   5  30  1   
 11   6   9  1   
 12   6  31  1   
 13   6  32  1   
 14   7  10  ar  
 15   7  11  ar  
 16   8  12  1   
 17   8  33  1   
 18   8  34  1   
 19   9  12  1   
 20   9  35  1   
 21   9  36  1   
 22  10  13  1   
 23  10  14  ar  
 24  11  15  ar  
 25  11  37  1   
 26  12  16  1   
 27  13  17  1   
 28  14  18  ar  
 29  14  38  1   
 30  15  18  ar  
 31  15  39  1   
 32  16  19  ar  
 33  16  20  ar  
 34  17  40  1   
 35  17  41  1   
 36  17  42  1   
 37  18  21  1   
 38  19  22  ar  
 39  19  23  1   
 40  20  24  ar  
 41  20  43  1   
 42  21  25  1   
 43  22  26  ar  
 44  22  27  1   
 45  23  44  1   
 46  23  45  1   
 47  23  46  1   
 48  24  26  ar  
 49  24  47  1   
 50  25  48  1   
 51  25  49  1   
 52  25  50  1   
 53  26  51  1   
 54  27  52  1   
 55  27  53  1   
 56  27  54  1   
@<TRIPOS>SUBSTRUCTURE
  1 ****   3 GROUP 4 **** **** 0

# MOE 2024.06 (io_trps.svl 2023.06)
