@<TRIPOS>MOLECULE
NONAME
46 48 1 0 0 
SMALL
USER_CHARGES


@<TRIPOS>ATOM
  1 CL      -1.3850    -0.0400     2.9330 Cl    1 <1>  -0.1770 
  2 C       -2.8150    -0.0470     1.9290 C.ar  1 <1>   0.1770 
  3 C       -4.0570     0.1160     2.5160 C.ar  1 <1>  -0.1500 
  4 C       -2.6840    -0.2140     0.5620 C.ar  1 <1>  -0.1500 
  5 C       -5.1870     0.1100     1.7180 C.ar  1 <1>  -0.1500 
  6 C       -3.8210    -0.2180    -0.2270 C.ar  1 <1>  -0.1500 
  7 C       -5.0800    -0.0570     0.3390 C.ar  1 <1>   0.1000 
  8 N       -6.2010    -0.0680    -0.4790 N.pl3 1 <1>  -0.8380 
  9 C       -6.9870     1.2050    -0.5370 C.3   1 <1>   0.2090 
 10 C       -7.0750    -1.2740    -0.3680 C.3   1 <1>   0.2090 
 11 C       -8.0230     1.1640    -1.6720 C.3   1 <1>   0.1400 
 12 C       -8.1250    -1.3140    -1.4950 C.3   1 <1>   0.1400 
 13 N       -8.9050    -0.0380    -1.5420 N.am  1 <1>  -0.6600 
 14 C      -10.1460     0.0770    -0.9770 C.2   1 <1>   0.6900 
 15 O      -10.4590     1.0910    -0.3820 O.2   1 <1>  -0.5700 
 16 N      -11.0160    -0.9630    -1.1100 N.am  1 <1>  -0.5470 
 17 C      -12.2780    -1.1400    -0.5300 C.ar  1 <1>   0.1170 
 18 C      -12.4800    -1.1860     0.8530 C.ar  1 <1>  -0.1430 
 19 C      -13.3690    -1.3060    -1.3730 C.ar  1 <1>  -0.1500 
 20 C      -13.7580    -1.3850     1.3510 C.ar  1 <1>  -0.1500 
 21 C      -11.3310    -1.0280     1.8410 C.3   1 <1>  -0.0970 
 22 C      -14.6390    -1.5080    -0.8650 C.ar  1 <1>  -0.1500 
 23 C      -14.8400    -1.5490     0.5030 C.ar  1 <1>  -0.1430 
 24 C      -16.2310    -1.7620     1.0720 C.3   1 <1>  -0.0970 
 25 H       -4.1310     0.2440     3.5810 H     1 <1>   0.1500 
 26 H       -1.7090    -0.3380     0.1280 H     1 <1>   0.1500 
 27 H       -6.1590     0.2340     2.1590 H     1 <1>   0.1500 
 28 H       -3.7480    -0.3450    -1.2920 H     1 <1>   0.1500 
 29 H       -6.3160     2.0310    -0.6950 H     1 <1>   0.0800 
 30 H       -7.4990     1.3620     0.3980 H     1 <1>   0.0800 
 31 H       -7.5780    -1.2660     0.5840 H     1 <1>   0.0800 
 32 H       -6.4640    -2.1590    -0.4160 H     1 <1>   0.0800 
 33 H       -7.5100     1.1270    -2.6160 H     1 <1>   0.0800 
 34 H       -8.6130     2.0640    -1.6520 H     1 <1>   0.0800 
 35 H       -8.7750    -2.1550    -1.3340 H     1 <1>   0.0800 
 36 H       -7.6220    -1.4560    -2.4350 H     1 <1>   0.0800 
 37 H      -10.8190    -1.5350    -1.9230 H     1 <1>   0.3700 
 38 H      -13.2260    -1.2690    -2.4360 H     1 <1>   0.1500 
 39 H      -13.9160    -1.4110     2.4150 H     1 <1>   0.1500 
 40 H      -10.4620    -1.5580     1.4960 H     1 <1>   0.0800 
 41 H      -11.5990    -1.4150     2.8060 H     1 <1>   0.0800 
 42 H      -11.0850     0.0130     1.9450 H     1 <1>   0.0800 
 43 H      -15.4690    -1.6280    -1.5380 H     1 <1>   0.1500 
 44 H      -16.6760    -0.8120     1.3040 H     1 <1>   0.0800 
 45 H      -16.1800    -2.3520     1.9690 H     1 <1>   0.0800 
 46 H      -16.8550    -2.2750     0.3630 H     1 <1>   0.0800 
@<TRIPOS>BOND
  1   1   2  1   
  2   2   3  ar  
  3   2   4  ar  
  4   3   5  ar  
  5   3  25  1   
  6   4   6  ar  
  7   4  26  1   
  8   5   7  ar  
  9   5  27  1   
 10   6   7  ar  
 11   6  28  1   
 12   7   8  1   
 13   8   9  1   
 14   8  10  1   
 15   9  11  1   
 16   9  29  1   
 17   9  30  1   
 18  10  12  1   
 19  10  31  1   
 20  10  32  1   
 21  11  13  1   
 22  11  33  1   
 23  11  34  1   
 24  12  13  1   
 25  12  35  1   
 26  12  36  1   
 27  13  14  am  
 28  14  15  2   
 29  14  16  am  
 30  16  17  1   
 31  16  37  1   
 32  17  18  ar  
 33  17  19  ar  
 34  18  20  ar  
 35  18  21  1   
 36  19  22  ar  
 37  19  38  1   
 38  20  23  ar  
 39  20  39  1   
 40  21  40  1   
 41  21  41  1   
 42  21  42  1   
 43  22  23  ar  
 44  22  43  1   
 45  23  24  1   
 46  24  44  1   
 47  24  45  1   
 48  24  46  1   
@<TRIPOS>SUBSTRUCTURE
  1 ****  13 GROUP 4 **** **** 0

# MOE 2024.06 (io_trps.svl 2023.06)
