@<TRIPOS>MOLECULE
NONAME
36 37 1 0 0 
SMALL
USER_CHARGES


@<TRIPOS>ATOM
  1 BR       0.8930    -0.6940     0.2510 Br    1 <1>  -0.1110 
  2 C       -0.5500    -1.9590     0.1720 C.ar  1 <1>   0.1110 
  3 C       -0.8770    -2.6740     1.3070 C.ar  1 <1>  -0.1500 
  4 C       -1.2270    -2.1280    -1.0200 C.ar  1 <1>  -0.1500 
  5 C       -1.9200    -3.5810     1.2400 C.ar  1 <1>  -0.1500 
  6 C       -2.2670    -3.0400    -1.0680 C.ar  1 <1>  -0.1500 
  7 C       -2.6440    -3.7810     0.0590 C.ar  1 <1>   0.0860 
  8 C       -3.7480    -4.7270     0.0140 C.2   1 <1>   0.5440 
  9 O       -3.8360    -5.6320     0.8220 O.2   1 <1>  -0.5700 
 10 N       -4.7750    -4.6060    -0.8940 N.am  1 <1>  -0.6600 
 11 C       -5.5060    -5.8370    -1.3120 C.3   1 <1>   0.1400 
 12 C       -5.6490    -3.4020    -0.8260 C.3   1 <1>   0.1400 
 13 C       -6.6650    -6.1130    -0.3360 C.3   1 <1>   0.3430 
 14 C       -6.8310    -3.6650     0.1330 C.3   1 <1>   0.3430 
 15 N       -7.5870    -4.9260    -0.2080 N.4   1 <1>  -0.9590 
 16 C       -8.6600    -5.2070     0.7700 C.3   1 <1>   0.4810 
 17 C       -9.7610    -4.2010     0.5230 C.2   1 <1>  -0.2880 
 18 C      -10.9160    -4.4610    -0.0980 C.2   1 <1>  -0.3000 
 19 H       -0.3250    -2.5240     2.2180 H     1 <1>   0.1500 
 20 H       -0.9390    -1.5600    -1.8870 H     1 <1>   0.1500 
 21 H       -2.1800    -4.1500     2.1170 H     1 <1>   0.1500 
 22 H       -2.7900    -3.1860    -1.9970 H     1 <1>   0.1500 
 23 H       -4.8300    -6.6770    -1.3070 H     1 <1>   0.0800 
 24 H       -5.8780    -5.7190    -2.3150 H     1 <1>   0.0800 
 25 H       -6.0150    -3.1640    -1.8100 H     1 <1>   0.0800 
 26 H       -5.0850    -2.5560    -0.4700 H     1 <1>   0.0800 
 27 H       -6.2380    -6.3490     0.6260 H     1 <1>   0.0800 
 28 H       -7.2160    -6.9750    -0.6750 H     1 <1>   0.0800 
 29 H       -7.4980    -2.8190     0.1080 H     1 <1>   0.0800 
 30 H       -6.4370    -3.7450     1.1340 H     1 <1>   0.0800 
 31 H       -8.0610    -4.7800    -1.1080 H     1 <1>   0.4500 
 32 H       -8.2940    -5.1410     1.7830 H     1 <1>   0.0800 
 33 H       -9.0500    -6.1990     0.6080 H     1 <1>   0.0800 
 34 H       -9.5340    -3.2230     0.9110 H     1 <1>   0.1500 
 35 H      -11.6900    -3.7260    -0.2560 H     1 <1>   0.1500 
 36 H      -11.2040    -5.4200    -0.5000 H     1 <1>   0.1500 
@<TRIPOS>BOND
  1   1   2  1   
  2   2   3  ar  
  3   2   4  ar  
  4   3   5  ar  
  5   3  19  1   
  6   4   6  ar  
  7   4  20  1   
  8   5   7  ar  
  9   5  21  1   
 10   6   7  ar  
 11   6  22  1   
 12   7   8  1   
 13   8   9  2   
 14   8  10  am  
 15  10  11  1   
 16  10  12  1   
 17  11  13  1   
 18  11  23  1   
 19  11  24  1   
 20  12  14  1   
 21  12  25  1   
 22  12  26  1   
 23  13  15  1   
 24  13  27  1   
 25  13  28  1   
 26  14  15  1   
 27  14  29  1   
 28  14  30  1   
 29  15  16  1   
 30  15  31  1   
 31  16  17  1   
 32  16  32  1   
 33  16  33  1   
 34  17  18  2   
 35  17  34  1   
 36  18  35  1   
 37  18  36  1   
@<TRIPOS>SUBSTRUCTURE
  1 ****  10 GROUP 4 **** **** 0

# MOE 2024.06 (io_trps.svl 2023.06)
