@<TRIPOS>MOLECULE
NONAME
39 40 1 0 0 
SMALL
USER_CHARGES


@<TRIPOS>ATOM
  1 O        0.0490    -3.1410    -0.6020 O.2   1 <1>  -0.5700 
  2 C       -0.8560    -3.4960     0.1290 C.2   1 <1>   0.5440 
  3 N       -0.5120    -4.1080     1.3050 N.am  1 <1>  -0.7300 
  4 C       -2.2460    -3.2910    -0.2390 C.ar  1 <1>   0.0860 
  5 C        0.8440    -4.1070     1.9360 C.3   1 <1>   0.1400 
  6 C       -2.6130    -2.2410    -1.0820 C.ar  1 <1>  -0.1500 
  7 C       -3.2690    -4.1230     0.2250 C.ar  1 <1>  -0.1500 
  8 C        1.7780    -5.1850     1.3460 C.3   1 <1>   0.3430 
  9 C       -3.9310    -2.0230    -1.4350 C.ar  1 <1>  -0.1500 
 10 C       -4.5910    -3.9110    -0.1220 C.ar  1 <1>  -0.1500 
 11 N        2.0700    -4.9230    -0.0910 N.4   1 <1>  -0.9590 
 12 C       -4.9330    -2.8520    -0.9580 C.ar  1 <1>   0.0830 
 13 C        2.3660    -6.1170    -0.9090 C.3   1 <1>   0.3430 
 14 C        3.1480    -3.9440    -0.3450 C.3   1 <1>   0.3430 
 15 O       -6.1970    -2.5720    -1.3450 O.3   1 <1>  -0.3630 
 16 C        3.0260    -5.5610    -2.1650 C.3   1 <1>  -0.1600 
 17 C        3.4770    -4.1380    -1.8180 C.3   1 <1>  -0.1600 
 18 C       -7.2950    -3.3540    -0.9290 C.3   1 <1>   0.0400 
 19 H       -1.2810    -4.2970     1.9560 H     1 <1>   0.3700 
 20 H        0.7300    -4.2870     2.9910 H     1 <1>   0.0800 
 21 H        1.2930    -3.1350     1.8200 H     1 <1>   0.0800 
 22 H       -1.8510    -1.5840    -1.4670 H     1 <1>   0.1500 
 23 H       -3.0350    -4.9560     0.8630 H     1 <1>   0.1500 
 24 H        1.2940    -6.1420     1.4500 H     1 <1>   0.0800 
 25 H        2.6990    -5.2150     1.9040 H     1 <1>   0.0800 
 26 H       -4.1960    -1.2070    -2.0840 H     1 <1>   0.1500 
 27 H       -5.3440    -4.5750     0.2600 H     1 <1>   0.1500 
 28 H        1.2140    -4.4700    -0.4810 H     1 <1>   0.4500 
 29 H        1.4700    -6.6690    -1.1420 H     1 <1>   0.0800 
 30 H        3.0610    -6.7550    -0.3880 H     1 <1>   0.0800 
 31 H        4.0110    -4.1800     0.2560 H     1 <1>   0.0800 
 32 H        2.8230    -2.9360    -0.1420 H     1 <1>   0.0800 
 33 H        2.3150    -5.5420    -2.9730 H     1 <1>   0.0800 
 34 H        3.8560    -6.1820    -2.4550 H     1 <1>   0.0800 
 35 H        4.5280    -3.9900    -1.9980 H     1 <1>   0.0800 
 36 H        2.9240    -3.4210    -2.4010 H     1 <1>   0.0800 
 37 H       -8.1850    -2.9380    -1.3670 H     1 <1>   0.0800 
 38 H       -7.3640    -3.3170     0.1430 H     1 <1>   0.0800 
 39 H       -7.1560    -4.3630    -1.2740 H     1 <1>   0.0800 
@<TRIPOS>BOND
  1   1   2  2   
  2   2   3  am  
  3   2   4  1   
  4   3   5  1   
  5   3  19  1   
  6   4   6  ar  
  7   4   7  ar  
  8   5   8  1   
  9   5  20  1   
 10   5  21  1   
 11   6   9  ar  
 12   6  22  1   
 13   7  10  ar  
 14   7  23  1   
 15   8  11  1   
 16   8  24  1   
 17   8  25  1   
 18   9  12  ar  
 19   9  26  1   
 20  10  12  ar  
 21  10  27  1   
 22  11  13  1   
 23  11  14  1   
 24  11  28  1   
 25  12  15  1   
 26  13  16  1   
 27  13  29  1   
 28  13  30  1   
 29  14  17  1   
 30  14  31  1   
 31  14  32  1   
 32  15  18  1   
 33  16  17  1   
 34  16  33  1   
 35  16  34  1   
 36  17  35  1   
 37  17  36  1   
 38  18  37  1   
 39  18  38  1   
 40  18  39  1   
@<TRIPOS>SUBSTRUCTURE
  1 ****   2 GROUP 4 **** **** 0

# MOE 2024.06 (io_trps.svl 2023.06)
