@<TRIPOS>MOLECULE
NONAME
32 33 1 0 0 
SMALL
USER_CHARGES


@<TRIPOS>ATOM
  1 BR       0.5170     0.3700     0.0000 Br    1 <1>  -0.0580 
  2 C       -0.6000     1.9300    -0.0930 C.2   1 <1>   0.0980 
  3 S       -1.8430     2.0570     1.1290 S.3   1 <1>  -0.0800 
  4 C       -0.5960     2.9640    -0.9510 C.2   1 <1>  -0.1500 
  5 C       -2.3740     3.5910     0.4350 C.2   1 <1>  -0.1400 
  6 C       -1.6220     3.9160    -0.6420 C.2   1 <1>  -0.1500 
  7 C       -3.5470     4.2770     1.1220 C.3   1 <1>   0.5380 
  8 N       -4.7500     3.4950     0.7880 N.am  1 <1>  -0.7300 
  9 C       -3.6650     5.7450     0.7000 C.2   1 <1>  -0.1240 
 10 C       -5.7090     3.9310    -0.0430 C.2   1 <1>   0.6900 
 11 C       -4.7300     6.1430    -0.0510 C.2   1 <1>  -0.0290 
 12 C       -2.5640     6.5190     1.1800 C.2   1 <1>   0.7060 
 13 O       -6.5700     3.1830    -0.4440 O.2   1 <1>  -0.5700 
 14 N       -5.6910     5.2290    -0.4330 N.am  1 <1>  -0.5390 
 15 C       -5.0150     7.5560    -0.5370 C.3   1 <1>  -0.1020 
 16 O       -1.9380     6.2270     2.1820 O.2   1 <1>  -0.5700 
 17 O       -2.1820     7.5940     0.4860 O.3   1 <1>  -0.4300 
 18 C       -1.0840     8.3820     0.8870 C.3   1 <1>   0.1200 
 19 C       -0.9280     9.5200    -0.1160 C.3   1 <1>  -0.2400 
 20 H        0.0760     3.0950    -1.7790 H     1 <1>   0.1500 
 21 H       -1.7430     4.7980    -1.2480 H     1 <1>   0.1500 
 22 H       -3.4070     4.2280     2.1890 H     1 <1>   0.0800 
 23 H       -4.6830     2.4880     0.9210 H     1 <1>   0.3700 
 24 H       -6.4750     5.4860    -1.0310 H     1 <1>   0.3700 
 25 H       -6.0620     7.7790    -0.4330 H     1 <1>   0.0800 
 26 H       -4.7440     7.6480    -1.5730 H     1 <1>   0.0800 
 27 H       -4.4770     8.2930     0.0280 H     1 <1>   0.0800 
 28 H       -0.2050     7.7600     0.9070 H     1 <1>   0.0800 
 29 H       -1.2790     8.7630     1.8760 H     1 <1>   0.0800 
 30 H       -0.7450     9.1250    -1.0990 H     1 <1>   0.0800 
 31 H       -0.0950    10.1390     0.1640 H     1 <1>   0.0800 
 32 H       -1.8150    10.1270    -0.1300 H     1 <1>   0.0800 
@<TRIPOS>BOND
  1   1   2  1   
  2   2   3  1   
  3   2   4  2   
  4   3   5  1   
  5   4   6  1   
  6   4  20  1   
  7   5   6  2   
  8   5   7  1   
  9   6  21  1   
 10   7   8  1   
 11   7   9  1   
 12   7  22  1   
 13   8  10  am  
 14   8  23  1   
 15   9  11  2   
 16   9  12  1   
 17  10  13  2   
 18  10  14  am  
 19  11  14  1   
 20  11  15  1   
 21  12  16  2   
 22  12  17  1   
 23  14  24  1   
 24  15  25  1   
 25  15  26  1   
 26  15  27  1   
 27  17  18  1   
 28  18  19  1   
 29  18  28  1   
 30  18  29  1   
 31  19  30  1   
 32  19  31  1   
 33  19  32  1   
@<TRIPOS>SUBSTRUCTURE
  1 ****   7 GROUP 4 **** **** 0

# MOE 2024.06 (io_trps.svl 2023.06)
