@<TRIPOS>MOLECULE
NONAME
26 27 1 0 0 
SMALL
USER_CHARGES


@<TRIPOS>ATOM
  1 S       -0.1970     0.2660     0.4720 S.3   1 <1>  -0.4340 
  2 C       -1.8920     0.2350    -0.1450 C.3   1 <1>   0.2170 
  3 C       -0.5720     2.0320     0.4890 C.3   1 <1>   0.2170 
  4 C       -1.6890     1.7310    -0.5800 C.3   1 <1>   0.2580 
  5 O       -2.8670     2.4850    -0.3530 O.3   1 <1>  -0.4080 
  6 C       -2.9150     3.7950    -0.6080 C.2   1 <1>   0.6340 
  7 O       -1.9160     4.3410    -1.0260 O.2   1 <1>  -0.5700 
  8 C       -4.1650     4.4930    -0.3650 C.ar  1 <1>   0.0860 
  9 C       -5.2970     3.8420     0.1320 C.ar  1 <1>  -0.1500 
 10 C       -4.2840     5.8600    -0.6220 C.ar  1 <1>  -0.1500 
 11 C       -6.4810     4.5200     0.3600 C.ar  1 <1>  -0.1500 
 12 C       -5.4660     6.5420    -0.3960 C.ar  1 <1>  -0.1500 
 13 C       -6.5730     5.8760     0.0980 C.ar  1 <1>  -0.1430 
 14 C       -7.8720     6.6210     0.3460 C.3   1 <1>  -0.0960 
 15 H       -2.5590     0.0830     0.6850 H     1 <1>   0.0000 
 16 H       -1.9700    -0.4760    -0.9470 H     1 <1>   0.0000 
 17 H        0.2780     2.5840     0.1310 H     1 <1>   0.0000 
 18 H       -0.9300     2.3010     1.4660 H     1 <1>   0.0000 
 19 H       -1.3580     1.8330    -1.6000 H     1 <1>   0.0000 
 20 H       -5.2560     2.7890     0.3450 H     1 <1>   0.1500 
 21 H       -3.4340     6.3970    -1.0070 H     1 <1>   0.1500 
 22 H       -7.3350     3.9870     0.7420 H     1 <1>   0.1500 
 23 H       -5.5200     7.5960    -0.6080 H     1 <1>   0.1500 
 24 H       -8.4210     6.1670     1.1510 H     1 <1>   0.0800 
 25 H       -8.4780     6.6010    -0.5420 H     1 <1>   0.0800 
 26 H       -7.6740     7.6450     0.6080 H     1 <1>   0.0800 
@<TRIPOS>BOND
  1   1   2  1   
  2   1   3  1   
  3   2   4  1   
  4   2  15  1   
  5   2  16  1   
  6   3   4  1   
  7   3  17  1   
  8   3  18  1   
  9   4   5  1   
 10   4  19  1   
 11   5   6  1   
 12   6   7  2   
 13   6   8  1   
 14   8   9  ar  
 15   8  10  ar  
 16   9  11  ar  
 17   9  20  1   
 18  10  12  ar  
 19  10  21  1   
 20  11  13  ar  
 21  11  22  1   
 22  12  13  ar  
 23  12  23  1   
 24  13  14  1   
 25  14  24  1   
 26  14  25  1   
 27  14  26  1   
@<TRIPOS>SUBSTRUCTURE
  1 ****   8 GROUP 4 **** **** 0

# MOE 2024.06 (io_trps.svl 2023.06)
