@<TRIPOS>MOLECULE
NONAME
40 40 1 0 0 
SMALL
USER_CHARGES


@<TRIPOS>ATOM
  1 CL      -1.5370     0.6220    -0.5040 Cl    1 <1>  -0.2900 
  2 C       -1.4330     1.5860     0.9610 C.3   1 <1>   0.8700 
  3 CL      -2.8730     2.5870     1.0490 Cl    1 <1>  -0.2900 
  4 CL      -1.5730     0.4400     2.2870 Cl    1 <1>  -0.2900 
  5 C       -0.1060     2.3480     1.1080 C.3   1 <1>   0.2760 
  6 P       -0.1160     3.6940    -0.0940 P.3   1 <1>   1.2420 
  7 N        1.0810     1.3940     1.1510 N.am  1 <1>  -0.9140 
  8 O       -0.7400     3.4170    -1.3850 O.2   1 <1>  -0.7000 
  9 O        1.4150     4.1480    -0.2660 O.3   1 <1>  -0.5510 
 10 O       -0.7910     4.9320     0.6780 O.3   1 <1>  -0.5510 
 11 S        2.4560     2.0100     1.8890 S.o2  1 <1>   1.4470 
 12 C        1.7530     5.2300    -1.0570 C.3   1 <1>   0.1200 
 13 C       -1.3700     6.0000     0.0060 C.3   1 <1>   0.1200 
 14 O        2.7830     0.9450     2.8030 O.2   1 <1>  -0.6500 
 15 O        2.0960     3.2950     2.4410 O.2   1 <1>  -0.6500 
 16 C        3.7290     2.1390     0.6000 C.ar  1 <1>  -0.0090 
 17 C        3.2720     5.3080    -1.1260 C.3   1 <1>  -0.2400 
 18 C       -2.8540     5.7190    -0.2080 C.3   1 <1>  -0.2400 
 19 C        4.9070     2.8350     0.8480 C.ar  1 <1>  -0.1500 
 20 C        3.5880     1.5300    -0.6450 C.ar  1 <1>  -0.1500 
 21 C        5.9070     2.9250    -0.1050 C.ar  1 <1>  -0.1500 
 22 C        4.5830     1.6160    -1.6040 C.ar  1 <1>  -0.1500 
 23 C        5.7450     2.3140    -1.3340 C.ar  1 <1>  -0.1500 
 24 H       -0.1790     2.7920     2.0830 H     1 <1>   0.0800 
 25 H        0.8630     0.6020     1.7640 H     1 <1>   0.4200 
 26 H        1.3550     6.1230    -0.6090 H     1 <1>   0.0800 
 27 H        1.3330     5.0870    -2.0400 H     1 <1>   0.0800 
 28 H       -0.8690     6.1550    -0.9350 H     1 <1>   0.0800 
 29 H       -1.2480     6.8750     0.6210 H     1 <1>   0.0800 
 30 H        3.6670     4.4250    -1.5940 H     1 <1>   0.0800 
 31 H        3.6840     5.4100    -0.1380 H     1 <1>   0.0800 
 32 H        3.5660     6.1620    -1.7090 H     1 <1>   0.0800 
 33 H       -2.9910     4.8690    -0.8530 H     1 <1>   0.0800 
 34 H       -3.3170     6.5690    -0.6750 H     1 <1>   0.0800 
 35 H       -3.3410     5.5420     0.7340 H     1 <1>   0.0800 
 36 H        5.0450     3.3140     1.8030 H     1 <1>   0.1500 
 37 H        2.6920     0.9800    -0.8750 H     1 <1>   0.1500 
 38 H        6.8110     3.4700     0.1100 H     1 <1>   0.1500 
 39 H        4.4510     1.1390    -2.5600 H     1 <1>   0.1500 
 40 H        6.5200     2.3820    -2.0780 H     1 <1>   0.1500 
@<TRIPOS>BOND
  1   1   2  1   
  2   2   3  1   
  3   2   4  1   
  4   2   5  1   
  5   5   6  1   
  6   5   7  1   
  7   5  24  1   
  8   6   8  2   
  9   6   9  1   
 10   6  10  1   
 11   7  11  am  
 12   7  25  1   
 13   9  12  1   
 14  10  13  1   
 15  11  14  2   
 16  11  15  2   
 17  11  16  1   
 18  12  17  1   
 19  12  26  1   
 20  12  27  1   
 21  13  18  1   
 22  13  28  1   
 23  13  29  1   
 24  16  19  ar  
 25  16  20  ar  
 26  17  30  1   
 27  17  31  1   
 28  17  32  1   
 29  18  33  1   
 30  18  34  1   
 31  18  35  1   
 32  19  21  ar  
 33  19  36  1   
 34  20  22  ar  
 35  20  37  1   
 36  21  23  ar  
 37  21  38  1   
 38  22  23  ar  
 39  22  39  1   
 40  23  40  1   
@<TRIPOS>SUBSTRUCTURE
  1 ****   9 GROUP 4 **** **** 0

# MOE 2024.06 (io_trps.svl 2023.06)
