@<TRIPOS>MOLECULE
NONAME
54 56 1 0 0 
SMALL
USER_CHARGES


@<TRIPOS>ATOM
  1 O        2.4070     4.7200     1.1010 O.2   1 <1>  -0.5700 
  2 C        1.7940     5.6790     0.6960 C.2   1 <1>   0.5690 
  3 N        2.4540     6.8260     0.3140 N.am  1 <1>  -0.6600 
  4 C        0.2700     5.4900     0.6540 C.3   1 <1>  -0.0190 
  5 C        3.9420     6.8770     0.5120 C.3   1 <1>   0.1400 
  6 C        1.8480     8.0260    -0.3410 C.3   1 <1>   0.1400 
  7 C       -0.2720     5.1990    -0.7570 C.3   1 <1>  -0.1600 
  8 C       -0.5580     6.5780     1.3620 C.3   1 <1>  -0.1600 
  9 C        4.4540     8.3200     0.5780 C.3   1 <1>  -0.1600 
 10 C        2.8180     8.6360    -1.3580 C.3   1 <1>  -0.1600 
 11 C       -1.7670     4.8870    -0.7150 C.3   1 <1>   0.3430 
 12 C       -2.0430     6.2200     1.3540 C.3   1 <1>   0.3430 
 13 C        4.1240     9.1110    -0.6980 C.3   1 <1>  -0.1600 
 14 N       -2.5030     6.0040    -0.0530 N.4   1 <1>  -0.9590 
 15 C       -3.9760     5.7730    -0.1320 C.3   1 <1>   0.3430 
 16 C       -4.7840     7.0340     0.2200 C.3   1 <1>  -0.0800 
 17 C       -6.2850     6.7320     0.0520 C.3   1 <1>  -0.1600 
 18 C       -4.3850     8.2540    -0.6400 C.3   1 <1>  -0.1600 
 19 C       -7.1480     7.9570     0.3810 C.3   1 <1>  -0.1600 
 20 C       -5.2530     9.4770    -0.3160 C.3   1 <1>  -0.1600 
 21 C       -6.7440     9.1620    -0.4750 C.3   1 <1>  -0.1600 
 22 H        0.0960     4.5900     1.2210 H     1 <1>   0.0800 
 23 H        4.4180     6.3600    -0.3040 H     1 <1>   0.0800 
 24 H        4.2050     6.3690     1.4250 H     1 <1>   0.0800 
 25 H        1.6190     8.7580     0.4140 H     1 <1>   0.0800 
 26 H        0.9430     7.7660    -0.8500 H     1 <1>   0.0800 
 27 H        0.2480     4.3470    -1.1590 H     1 <1>   0.0800 
 28 H       -0.0970     6.0200    -1.4250 H     1 <1>   0.0800 
 29 H       -0.4340     7.5390     0.9030 H     1 <1>   0.0800 
 30 H       -0.2250     6.6650     2.3820 H     1 <1>   0.0800 
 31 H        5.5180     8.3170     0.7340 H     1 <1>   0.0800 
 32 H        4.0060     8.7990     1.4310 H     1 <1>   0.0800 
 33 H        2.3500     9.4650    -1.8590 H     1 <1>   0.0800 
 34 H        3.0410     7.8920    -2.1030 H     1 <1>   0.0800 
 35 H       -1.9260     3.9710    -0.1670 H     1 <1>   0.0800 
 36 H       -2.1310     4.7460    -1.7210 H     1 <1>   0.0800 
 37 H       -2.6030     7.0200     1.8110 H     1 <1>   0.0800 
 38 H       -2.2020     5.3230     1.9310 H     1 <1>   0.0800 
 39 H        4.9270     9.0060    -1.4080 H     1 <1>   0.0800 
 40 H        4.0480    10.1550    -0.4460 H     1 <1>   0.0800 
 41 H       -2.3060     6.8620    -0.5830 H     1 <1>   0.4500 
 42 H       -4.2580     4.9690     0.5290 H     1 <1>   0.0800 
 43 H       -4.2360     5.4790    -1.1370 H     1 <1>   0.0800 
 44 H       -4.6260     7.2740     1.2570 H     1 <1>   0.0800 
 45 H       -6.5750     5.9220     0.6990 H     1 <1>   0.0800 
 46 H       -6.4880     6.4320    -0.9630 H     1 <1>   0.0800 
 47 H       -4.5010     8.0160    -1.6850 H     1 <1>   0.0800 
 48 H       -3.3590     8.5240    -0.4700 H     1 <1>   0.0800 
 49 H       -7.0410     8.2070     1.4230 H     1 <1>   0.0800 
 50 H       -8.1850     7.7260     0.2060 H     1 <1>   0.0800 
 51 H       -4.9910    10.2920    -0.9700 H     1 <1>   0.0800 
 52 H       -5.0650     9.7970     0.6950 H     1 <1>   0.0800 
 53 H       -7.3260    10.0200    -0.1840 H     1 <1>   0.0800 
 54 H       -6.9600     8.9570    -1.5090 H     1 <1>   0.0800 
@<TRIPOS>BOND
  1   1   2  2   
  2   2   3  am  
  3   2   4  1   
  4   3   5  1   
  5   3   6  1   
  6   4   7  1   
  7   4   8  1   
  8   4  22  1   
  9   5   9  1   
 10   5  23  1   
 11   5  24  1   
 12   6  10  1   
 13   6  25  1   
 14   6  26  1   
 15   7  11  1   
 16   7  27  1   
 17   7  28  1   
 18   8  12  1   
 19   8  29  1   
 20   8  30  1   
 21   9  13  1   
 22   9  31  1   
 23   9  32  1   
 24  10  13  1   
 25  10  33  1   
 26  10  34  1   
 27  11  14  1   
 28  11  35  1   
 29  11  36  1   
 30  12  14  1   
 31  12  37  1   
 32  12  38  1   
 33  13  39  1   
 34  13  40  1   
 35  14  15  1   
 36  14  41  1   
 37  15  16  1   
 38  15  42  1   
 39  15  43  1   
 40  16  17  1   
 41  16  18  1   
 42  16  44  1   
 43  17  19  1   
 44  17  45  1   
 45  17  46  1   
 46  18  20  1   
 47  18  47  1   
 48  18  48  1   
 49  19  21  1   
 50  19  49  1   
 51  19  50  1   
 52  20  21  1   
 53  20  51  1   
 54  20  52  1   
 55  21  53  1   
 56  21  54  1   
@<TRIPOS>SUBSTRUCTURE
  1 ****   8 GROUP 4 **** **** 0

# MOE 2024.06 (io_trps.svl 2023.06)
