@<TRIPOS>MOLECULE
NONAME
39 41 1 0 0 
SMALL
USER_CHARGES


@<TRIPOS>ATOM
  1 O       -7.7370     4.3710    -0.6780 O.3   1 <1>  -0.2800 
  2 C       -8.9270     4.9270    -0.4890 C.2   1 <1>   0.0870 
  3 C       -6.8140     5.3090    -0.6120 C.2   1 <1>  -0.0400 
  4 C      -10.1230     4.1150    -0.4980 C.ar  1 <1>   0.0530 
  5 C       -8.7540     6.2620    -0.3000 C.2   1 <1>  -0.1500 
  6 C       -7.3820     6.5110    -0.3790 C.2   1 <1>  -0.1500 
  7 C       -5.3710     4.8910    -0.7790 C.3   1 <1>   0.5230 
  8 C      -11.2940     4.5490     0.1200 C.ar  1 <1>  -0.1500 
  9 C      -10.1520     2.8680    -1.1200 C.ar  1 <1>  -0.1500 
 10 N       -5.1470     3.7770     0.1650 N.4   1 <1>  -0.7990 
 11 C      -12.4380     3.7730     0.1210 C.ar  1 <1>  -0.1500 
 12 C      -11.2940     2.0880    -1.1210 C.ar  1 <1>  -0.1500 
 13 C       -3.8480     3.1210     0.0070 C.3   1 <1>   0.2960 
 14 C      -12.4510     2.5320    -0.4990 C.ar  1 <1>  -0.1430 
 15 C       -3.2940     2.3950     1.1830 C.3   1 <1>  -0.2000 
 16 C       -2.6810     3.6900     0.7360 C.3   1 <1>  -0.2000 
 17 C      -13.7030     1.6620    -0.5030 C.3   1 <1>   0.3430 
 18 O      -14.7560     2.4270    -0.9490 O.3   1 <1>  -0.6800 
 19 C      -14.0600     1.1420     0.8840 C.3   1 <1>  -0.2400 
 20 H       -9.5110     7.0070    -0.1250 H     1 <1>   0.1500 
 21 H       -6.9260     7.4810    -0.2690 H     1 <1>   0.1500 
 22 H       -4.7100     5.7150    -0.5650 H     1 <1>   0.0800 
 23 H       -5.2100     4.5590    -1.7910 H     1 <1>   0.0800 
 24 H      -11.3130     5.5050     0.6120 H     1 <1>   0.1500 
 25 H       -9.2710     2.5040    -1.6140 H     1 <1>   0.1500 
 26 H       -5.9190     3.1140     0.0180 H     1 <1>   0.4500 
 27 H       -5.2600     4.1280     1.1200 H     1 <1>   0.4500 
 28 H      -13.3270     4.1350     0.6090 H     1 <1>   0.1500 
 29 H      -11.2780     1.1290    -1.6110 H     1 <1>   0.1500 
 30 H       -3.6890     2.6910    -0.9730 H     1 <1>   0.1000 
 31 H       -2.7270     1.4940     1.0230 H     1 <1>   0.1000 
 32 H       -3.8340     2.3770     2.1140 H     1 <1>   0.1000 
 33 H       -2.7960     4.5510     1.3730 H     1 <1>   0.1000 
 34 H       -1.7040     3.6450     0.2840 H     1 <1>   0.1000 
 35 H      -13.5860     0.8400    -1.1890 H     1 <1>   0.0800 
 36 H      -14.4380     2.9920    -1.6770 H     1 <1>   0.4000 
 37 H      -14.2350     1.9590     1.5590 H     1 <1>   0.0800 
 38 H      -13.2490     0.5490     1.2660 H     1 <1>   0.0800 
 39 H      -14.9400     0.5270     0.8290 H     1 <1>   0.0800 
@<TRIPOS>BOND
  1   1   2  1   
  2   1   3  1   
  3   2   4  1   
  4   2   5  2   
  5   3   6  2   
  6   3   7  1   
  7   4   8  ar  
  8   4   9  ar  
  9   5   6  1   
 10   5  20  1   
 11   6  21  1   
 12   7  10  1   
 13   7  22  1   
 14   7  23  1   
 15   8  11  ar  
 16   8  24  1   
 17   9  12  ar  
 18   9  25  1   
 19  10  13  1   
 20  10  26  1   
 21  10  27  1   
 22  11  14  ar  
 23  11  28  1   
 24  12  14  ar  
 25  12  29  1   
 26  13  15  1   
 27  13  16  1   
 28  13  30  1   
 29  14  17  1   
 30  15  16  1   
 31  15  31  1   
 32  15  32  1   
 33  16  33  1   
 34  16  34  1   
 35  17  18  1   
 36  17  19  1   
 37  17  35  1   
 38  18  36  1   
 39  19  37  1   
 40  19  38  1   
 41  19  39  1   
@<TRIPOS>SUBSTRUCTURE
  1 ****   2 GROUP 4 **** **** 0

# MOE 2024.06 (io_trps.svl 2023.06)
