@<TRIPOS>MOLECULE
NONAME
48 50 1 0 0 
SMALL
USER_CHARGES


@<TRIPOS>ATOM
  1 O        0.1860    -0.0640    -0.7530 O.2   1 <1>  -0.5700 
  2 C        0.1870    -1.2340    -0.5530 C.2   1 <1>   0.4480 
  3 C        1.4790    -1.9760    -0.2470 C.3   1 <1>  -0.0190 
  4 C       -1.1060    -2.0200    -0.6180 C.3   1 <1>  -0.0990 
  5 C        1.2990    -3.4210    -0.7420 C.3   1 <1>   0.5660 
  6 C        1.8830    -1.8090     1.2360 C.3   1 <1>  -0.2400 
  7 C       -1.0030    -3.2540     0.2710 C.3   1 <1>   0.5660 
  8 N        0.1570    -4.0970    -0.0860 N.4   1 <1>  -0.9060 
  9 C        2.5220    -4.3110    -0.5910 C.ar  1 <1>  -0.1440 
 10 C       -2.2260    -4.1480     0.1910 C.ar  1 <1>  -0.1440 
 11 C        3.2510    -4.6240    -1.7310 C.ar  1 <1>  -0.1500 
 12 C        2.9320    -4.8370     0.6320 C.ar  1 <1>  -0.1500 
 13 C       -2.9270    -4.4440     1.3520 C.ar  1 <1>  -0.1500 
 14 C       -2.6540    -4.6920    -1.0160 C.ar  1 <1>  -0.1500 
 15 C        4.3580    -5.4470    -1.6520 C.ar  1 <1>  -0.1500 
 16 C        4.0410    -5.6610     0.7100 C.ar  1 <1>  -0.1500 
 17 C       -4.0330    -5.2760     1.3150 C.ar  1 <1>  -0.1500 
 18 C       -3.7580    -5.5240    -1.0510 C.ar  1 <1>  -0.1500 
 19 C        4.7610    -5.9720    -0.4380 C.ar  1 <1>   0.0820 
 20 C       -4.4530    -5.8240     0.1080 C.ar  1 <1>   0.0820 
 21 O        5.8550    -6.7710    -0.4530 O.3   1 <1>  -0.3630 
 22 O       -5.5190    -6.6490    -0.0200 O.3   1 <1>  -0.3620 
 23 C        6.3770    -7.3390     0.7290 C.3   1 <1>   0.0400 
 24 C       -6.3280    -6.9910     1.0850 C.3   1 <1>   0.0400 
 25 H        2.2530    -1.5230    -0.8430 H     1 <1>   0.0800 
 26 H       -1.3120    -2.2860    -1.6380 H     1 <1>   0.0800 
 27 H       -1.9120    -1.3970    -0.2740 H     1 <1>   0.0800 
 28 H        1.0810    -3.3560    -1.7970 H     1 <1>   0.0800 
 29 H        1.1960    -2.2900     1.9070 H     1 <1>   0.0800 
 30 H        1.9090    -0.7600     1.4830 H     1 <1>   0.0800 
 31 H        2.8720    -2.1980     1.4060 H     1 <1>   0.0800 
 32 H       -0.8900    -2.9150     1.2890 H     1 <1>   0.0800 
 33 H        0.5020    -4.5730     0.7520 H     1 <1>   0.4500 
 34 H       -0.1770    -4.8560    -0.6900 H     1 <1>   0.4500 
 35 H        2.9750    -4.2360    -2.6980 H     1 <1>   0.1500 
 36 H        2.4120    -4.6160     1.5480 H     1 <1>   0.1500 
 37 H       -2.6290    -4.0350     2.3040 H     1 <1>   0.1500 
 38 H       -2.1530    -4.4850    -1.9460 H     1 <1>   0.1500 
 39 H        4.9250    -5.6910    -2.5350 H     1 <1>   0.1500 
 40 H        4.3370    -6.0510     1.6660 H     1 <1>   0.1500 
 41 H       -4.5560    -5.4880     2.2290 H     1 <1>   0.1500 
 42 H       -4.0970    -5.9500    -1.9790 H     1 <1>   0.1500 
 43 H        7.2430    -7.9190     0.4650 H     1 <1>   0.0800 
 44 H        5.6320    -7.9770     1.1700 H     1 <1>   0.0800 
 45 H        6.6590    -6.5490     1.4020 H     1 <1>   0.0800 
 46 H       -7.1120    -7.6380     0.7350 H     1 <1>   0.0800 
 47 H       -6.7530    -6.0950     1.5000 H     1 <1>   0.0800 
 48 H       -5.7270    -7.5080     1.8120 H     1 <1>   0.0800 
@<TRIPOS>BOND
  1   1   2  2   
  2   2   3  1   
  3   2   4  1   
  4   3   5  1   
  5   3   6  1   
  6   3  25  1   
  7   4   7  1   
  8   4  26  1   
  9   4  27  1   
 10   5   8  1   
 11   5   9  1   
 12   5  28  1   
 13   6  29  1   
 14   6  30  1   
 15   6  31  1   
 16   7   8  1   
 17   7  10  1   
 18   7  32  1   
 19   8  33  1   
 20   8  34  1   
 21   9  11  ar  
 22   9  12  ar  
 23  10  13  ar  
 24  10  14  ar  
 25  11  15  ar  
 26  11  35  1   
 27  12  16  ar  
 28  12  36  1   
 29  13  17  ar  
 30  13  37  1   
 31  14  18  ar  
 32  14  38  1   
 33  15  19  ar  
 34  15  39  1   
 35  16  19  ar  
 36  16  40  1   
 37  17  20  ar  
 38  17  41  1   
 39  18  20  ar  
 40  18  42  1   
 41  19  21  1   
 42  20  22  1   
 43  21  23  1   
 44  22  24  1   
 45  23  43  1   
 46  23  44  1   
 47  23  45  1   
 48  24  46  1   
 49  24  47  1   
 50  24  48  1   
@<TRIPOS>SUBSTRUCTURE
  1 ****   8 GROUP 4 **** **** 0

# MOE 2024.06 (io_trps.svl 2023.06)
