@<TRIPOS>MOLECULE
NONAME
45 46 1 0 0 
SMALL
USER_CHARGES


@<TRIPOS>ATOM
  1 F       -1.7240    -1.4390     2.7900 F     1 <1>  -0.3400 
  2 C       -2.5420    -1.8860     1.8450 C.3   1 <1>   1.1640 
  3 F       -3.5790    -2.4270     2.4770 F     1 <1>  -0.3400 
  4 F       -1.9130    -2.8850     1.2410 F     1 <1>  -0.3400 
  5 C       -2.9800    -0.7960     0.8520 C.ar  1 <1>  -0.1440 
  6 C       -4.1590    -0.9340     0.1230 C.ar  1 <1>  -0.1500 
  7 C       -2.2060     0.3420     0.6510 C.ar  1 <1>  -0.1500 
  8 C       -4.5640     0.0390    -0.7790 C.ar  1 <1>  -0.1440 
  9 C       -2.5990     1.3120    -0.2520 C.ar  1 <1>  -0.1500 
 10 C       -3.7720     1.1600    -0.9670 C.ar  1 <1>  -0.1500 
 11 C       -5.8580    -0.1260    -1.5610 C.3   1 <1>  -0.0160 
 12 C       -7.0850     0.2570    -0.7140 C.3   1 <1>   0.4230 
 13 N       -8.3280    -0.1150    -1.4660 N.4   1 <1>  -0.6410 
 14 C       -7.0990     1.7520    -0.3780 C.3   1 <1>  -0.2400 
 15 N       -9.6570    -0.0310    -0.7650 N.3   1 <1>  -0.3020 
 16 C       -9.6900    -0.5160     0.6390 C.3   1 <1>   0.1100 
 17 C      -10.4040     1.2300    -0.9810 C.3   1 <1>   0.1100 
 18 C      -11.0860    -0.3720     1.2960 C.3   1 <1>   0.3430 
 19 C      -11.8850     1.1170    -0.5380 C.3   1 <1>   0.3430 
 20 N      -12.1710    -0.1090     0.2890 N.4   1 <1>  -0.9590 
 21 C      -13.5170    -0.0200     0.9430 C.3   1 <1>   0.2630 
 22 H       -4.7570    -1.8200     0.2630 H     1 <1>   0.1500 
 23 H       -1.2850     0.4820     1.1950 H     1 <1>   0.1500 
 24 H       -1.9860     2.1850    -0.4000 H     1 <1>   0.1500 
 25 H       -4.0510     1.9270    -1.6690 H     1 <1>   0.1500 
 26 H       -5.9280    -1.1560    -1.8650 H     1 <1>   0.0800 
 27 H       -5.8140     0.4800    -2.4500 H     1 <1>   0.0800 
 28 H       -7.0390    -0.3110     0.2010 H     1 <1>   0.0800 
 29 H       -8.1960    -1.0830    -1.7990 H     1 <1>   0.4500 
 30 H       -8.3430     0.4470    -2.3300 H     1 <1>   0.4500 
 31 H       -7.1860     2.3540    -1.2640 H     1 <1>   0.0800 
 32 H       -6.1820     2.0240     0.1160 H     1 <1>   0.0800 
 33 H       -7.8890     1.9900     0.3070 H     1 <1>   0.0800 
 34 H       -8.9790     0.0240     1.2400 H     1 <1>   0.0800 
 35 H       -9.4070    -1.5550     0.6550 H     1 <1>   0.0800 
 36 H      -10.3780     1.4970    -2.0230 H     1 <1>   0.0800 
 37 H       -9.9440     2.0310    -0.4300 H     1 <1>   0.0800 
 38 H      -11.0530     0.4440     2.0010 H     1 <1>   0.0800 
 39 H      -11.3080    -1.2660     1.8560 H     1 <1>   0.0800 
 40 H      -12.5130     1.1090    -1.4150 H     1 <1>   0.0800 
 41 H      -12.1410     2.0030     0.0220 H     1 <1>   0.0800 
 42 H      -12.1920    -0.9160    -0.3550 H     1 <1>   0.4500 
 43 H      -13.5500     0.8100     1.6310 H     1 <1>   0.0800 
 44 H      -13.7330    -0.9250     1.4880 H     1 <1>   0.0800 
 45 H      -14.2880     0.1200     0.2010 H     1 <1>   0.0800 
@<TRIPOS>BOND
  1   1   2  1   
  2   2   3  1   
  3   2   4  1   
  4   2   5  1   
  5   5   6  ar  
  6   5   7  ar  
  7   6   8  ar  
  8   6  22  1   
  9   7   9  ar  
 10   7  23  1   
 11   8  10  ar  
 12   8  11  1   
 13   9  10  ar  
 14   9  24  1   
 15  10  25  1   
 16  11  12  1   
 17  11  26  1   
 18  11  27  1   
 19  12  13  1   
 20  12  14  1   
 21  12  28  1   
 22  13  15  1   
 23  13  29  1   
 24  13  30  1   
 25  14  31  1   
 26  14  32  1   
 27  14  33  1   
 28  15  16  1   
 29  15  17  1   
 30  16  18  1   
 31  16  34  1   
 32  16  35  1   
 33  17  19  1   
 34  17  36  1   
 35  17  37  1   
 36  18  20  1   
 37  18  38  1   
 38  18  39  1   
 39  19  20  1   
 40  19  40  1   
 41  19  41  1   
 42  20  21  1   
 43  20  42  1   
 44  21  43  1   
 45  21  44  1   
 46  21  45  1   
@<TRIPOS>SUBSTRUCTURE
  1 ****  12 GROUP 4 **** **** 0

# MOE 2024.06 (io_trps.svl 2023.06)
