@<TRIPOS>MOLECULE
NONAME
40 42 1 0 0 
SMALL
USER_CHARGES


@<TRIPOS>ATOM
  1 O       -0.8680     0.7630     0.6940 O.3   1 <1>  -0.5600 
  2 C       -0.4600     2.1000     0.5670 C.3   1 <1>   0.5600 
  3 C       -1.3200     0.2220    -0.4900 C.3   1 <1>   0.1200 
  4 O       -1.5990     2.3940    -0.2020 O.3   1 <1>  -0.5600 
  5 C        0.8710     1.7340     1.3320 C.3   1 <1>  -0.1600 
  6 C       -0.0640     3.6240     0.4880 C.3   1 <1>  -0.1600 
  7 C       -1.8690     1.4350    -1.1540 C.3   1 <1>   0.1200 
  8 C        2.0360     1.7610     0.3520 C.3   1 <1>   0.3430 
  9 C        1.0030     3.8110    -0.5800 C.3   1 <1>   0.3430 
 10 N        2.2580     3.1550    -0.1290 N.4   1 <1>  -0.9590 
 11 C        3.3260     3.2180    -1.1660 C.3   1 <1>   0.4860 
 12 C        4.6200     2.7110    -0.5560 C.ar  1 <1>  -0.1440 
 13 C        5.1770     1.4910    -0.9320 C.ar  1 <1>  -0.1440 
 14 C        5.2500     3.4880     0.4070 C.ar  1 <1>  -0.1500 
 15 C        6.3440     1.0620    -0.3180 C.ar  1 <1>  -0.1500 
 16 C        4.5600     0.6050    -2.0080 C.3   1 <1>  -0.0970 
 17 C        6.4140     3.0500     1.0110 C.ar  1 <1>  -0.1500 
 18 C        6.9590     1.8330     0.6500 C.ar  1 <1>  -0.1500 
 19 H       -2.0760    -0.5140    -0.2800 H     1 <1>   0.0800 
 20 H       -0.4990    -0.2100    -1.0340 H     1 <1>   0.0800 
 21 H        0.9030     0.7510     1.7830 H     1 <1>   0.0800 
 22 H        1.0820     2.3600     2.1800 H     1 <1>   0.0800 
 23 H        0.2710     4.0460     1.4180 H     1 <1>   0.0800 
 24 H       -0.8720     4.2970     0.2340 H     1 <1>   0.0800 
 25 H       -2.9330     1.3760    -1.3080 H     1 <1>   0.0800 
 26 H       -1.3570     1.6700    -2.0690 H     1 <1>   0.0800 
 27 H        1.8130     1.1120    -0.4790 H     1 <1>   0.0800 
 28 H        2.9280     1.3940     0.8380 H     1 <1>   0.0800 
 29 H        1.1730     4.8630    -0.7440 H     1 <1>   0.0800 
 30 H        0.6590     3.3710    -1.5040 H     1 <1>   0.0800 
 31 H        2.6240     3.6780     0.6770 H     1 <1>   0.4500 
 32 H        3.4670     4.2350    -1.4940 H     1 <1>   0.0800 
 33 H        3.0530     2.6210    -2.0200 H     1 <1>   0.0800 
 34 H        4.8530     4.4440     0.7000 H     1 <1>   0.1500 
 35 H        6.7930     0.1210    -0.5910 H     1 <1>   0.1500 
 36 H        5.1680    -0.2650    -2.1810 H     1 <1>   0.0800 
 37 H        3.5830     0.2700    -1.7140 H     1 <1>   0.0800 
 38 H        4.4900     1.1410    -2.9380 H     1 <1>   0.0800 
 39 H        6.9010     3.6530     1.7580 H     1 <1>   0.1500 
 40 H        7.8670     1.4890     1.1170 H     1 <1>   0.1500 
@<TRIPOS>BOND
  1   1   2  1   
  2   1   3  1   
  3   2   4  1   
  4   2   5  1   
  5   2   6  1   
  6   3   7  1   
  7   3  19  1   
  8   3  20  1   
  9   4   7  1   
 10   5   8  1   
 11   5  21  1   
 12   5  22  1   
 13   6   9  1   
 14   6  23  1   
 15   6  24  1   
 16   7  25  1   
 17   7  26  1   
 18   8  10  1   
 19   8  27  1   
 20   8  28  1   
 21   9  10  1   
 22   9  29  1   
 23   9  30  1   
 24  10  11  1   
 25  10  31  1   
 26  11  12  1   
 27  11  32  1   
 28  11  33  1   
 29  12  13  ar  
 30  12  14  ar  
 31  13  15  ar  
 32  13  16  1   
 33  14  17  ar  
 34  14  34  1   
 35  15  18  ar  
 36  15  35  1   
 37  16  36  1   
 38  16  37  1   
 39  16  38  1   
 40  17  18  ar  
 41  17  39  1   
 42  18  40  1   
@<TRIPOS>SUBSTRUCTURE
  1 ****   8 GROUP 4 **** **** 0

# MOE 2024.06 (io_trps.svl 2023.06)
