@<TRIPOS>MOLECULE
NONAME
37 37 1 0 0 
SMALL
USER_CHARGES


@<TRIPOS>ATOM
  1 S       -0.3130    -0.2420     0.9690 S.o2  1 <1>   1.2580 
  2 O       -1.4100     0.2960     1.7500 O.2   1 <1>  -0.6500 
  3 O        0.8140    -0.8040     1.6840 O.2   1 <1>  -0.6500 
  4 C       -1.0090    -1.4780    -0.1420 C.2   1 <1>  -0.0630 
  5 C        0.2890     1.0980    -0.1380 C.3   1 <1>   0.1050 
  6 C       -0.3440    -2.4370    -0.8180 C.2   1 <1>   0.0960 
  7 C       -2.4190    -1.5270    -0.4300 C.2   1 <1>  -0.1500 
  8 C        0.8700     2.2630     0.6910 C.3   1 <1>  -0.2400 
  9 C       -0.8450     1.6850    -1.0080 C.3   1 <1>  -0.2400 
 10 C        1.4040     0.6330    -1.0980 C.3   1 <1>  -0.2400 
 11 S       -1.3910    -3.4090    -1.8310 S.3   1 <1>  -0.0800 
 12 S        1.3980    -2.8560    -0.8680 S.3   1 <1>  -0.2860 
 13 C       -2.7850    -2.4860    -1.3030 C.2   1 <1>  -0.1100 
 14 C        1.6060    -4.3850     0.1580 C.3   1 <1>   0.2300 
 15 C        3.0520    -4.3600     0.6530 C.3   1 <1>  -0.2400 
 16 C        0.6310    -4.3520     1.3390 C.3   1 <1>  -0.2400 
 17 C        1.3600    -5.5930    -0.7480 C.3   1 <1>  -0.2400 
 18 H       -3.0940    -0.8320     0.0420 H     1 <1>   0.1500 
 19 H        0.1210     2.6570     1.3560 H     1 <1>   0.0800 
 20 H        1.2190     3.0600     0.0590 H     1 <1>   0.0800 
 21 H        1.6950     1.9150     1.2900 H     1 <1>   0.0800 
 22 H       -1.2530     0.9350    -1.6620 H     1 <1>   0.0800 
 23 H       -0.4840     2.4980    -1.6140 H     1 <1>   0.0800 
 24 H       -1.6400     2.0560    -0.3830 H     1 <1>   0.0800 
 25 H        1.0320    -0.0990    -1.7920 H     1 <1>   0.0800 
 26 H        2.2130     0.1910    -0.5420 H     1 <1>   0.0800 
 27 H        1.7950     1.4580    -1.6660 H     1 <1>   0.0800 
 28 H       -3.7440    -2.7650    -1.7040 H     1 <1>   0.1500 
 29 H        3.2220    -3.4820     1.2510 H     1 <1>   0.0800 
 30 H        3.7320    -4.3460    -0.1790 H     1 <1>   0.0800 
 31 H        3.2590    -5.2280     1.2520 H     1 <1>   0.0800 
 32 H        0.7660    -3.4510     1.9100 H     1 <1>   0.0800 
 33 H        0.8090    -5.1910     1.9860 H     1 <1>   0.0800 
 34 H       -0.3880    -4.4050     1.0020 H     1 <1>   0.0800 
 35 H        2.0170    -5.5590    -1.5990 H     1 <1>   0.0800 
 36 H        0.3450    -5.6050    -1.0960 H     1 <1>   0.0800 
 37 H        1.5430    -6.5040    -0.2080 H     1 <1>   0.0800 
@<TRIPOS>BOND
  1   1   2  2   
  2   1   3  2   
  3   1   4  1   
  4   1   5  1   
  5   4   6  2   
  6   4   7  1   
  7   5   8  1   
  8   5   9  1   
  9   5  10  1   
 10   6  11  1   
 11   6  12  1   
 12   7  13  2   
 13   7  18  1   
 14   8  19  1   
 15   8  20  1   
 16   8  21  1   
 17   9  22  1   
 18   9  23  1   
 19   9  24  1   
 20  10  25  1   
 21  10  26  1   
 22  10  27  1   
 23  11  13  1   
 24  12  14  1   
 25  13  28  1   
 26  14  15  1   
 27  14  16  1   
 28  14  17  1   
 29  15  29  1   
 30  15  30  1   
 31  15  31  1   
 32  16  32  1   
 33  16  33  1   
 34  16  34  1   
 35  17  35  1   
 36  17  36  1   
 37  17  37  1   
@<TRIPOS>SUBSTRUCTURE
  1 ****   4 GROUP 4 **** **** 0

# MOE 2024.06 (io_trps.svl 2023.06)
