@<TRIPOS>MOLECULE
NONAME
48 50 1 0 0 
SMALL
USER_CHARGES


@<TRIPOS>ATOM
  1 S       -0.6810     0.8520    -2.9630 S.o2  1 <1>   1.4470 
  2 O       -0.5450     0.2830    -4.2800 O.2   1 <1>  -0.6500 
  3 O       -1.6710     1.8630    -2.6770 O.2   1 <1>  -0.6500 
  4 N       -1.0460    -0.5080    -1.9810 N.am  1 <1>  -0.7570 
  5 C        0.9400     1.3490    -2.3200 C.ar  1 <1>  -0.0090 
  6 C       -0.8630    -0.5850    -0.6080 C.ar  1 <1>   0.1990 
  7 C        1.9530     0.4200    -2.1350 C.ar  1 <1>  -0.1500 
  8 C        1.2020     2.6670    -1.9670 C.ar  1 <1>  -0.1500 
  9 C       -1.1570     0.4810     0.2350 C.ar  1 <1>  -0.1500 
 10 C       -0.3530    -1.7520    -0.0510 C.ar  1 <1>  -0.1500 
 11 C        3.1830     0.7510    -1.5740 C.ar  1 <1>   0.0860 
 12 C        2.4210     3.0360    -1.4290 C.ar  1 <1>  -0.1500 
 13 C       -0.9270     0.3920     1.5960 C.ar  1 <1>  -0.1500 
 14 C       -0.1260    -1.8470     1.3100 C.ar  1 <1>  -0.1500 
 15 C        3.4150     2.0830    -1.2210 C.ar  1 <1>   0.0830 
 16 C        4.1580    -0.2930    -1.3530 C.2   1 <1>   0.5440 
 17 C       -0.4080    -0.7730     2.1360 C.ar  1 <1>  -0.1500 
 18 O        4.6130     2.3950    -0.6750 O.3   1 <1>  -0.3630 
 19 O        4.7590    -0.7540    -2.3060 O.2   1 <1>  -0.5700 
 20 N        4.3630    -0.8210    -0.0950 N.am  1 <1>  -0.6600 
 21 C        5.0110     3.7210    -0.4070 C.3   1 <1>   0.0400 
 22 C        3.5480    -0.3900     1.0810 C.3   1 <1>   0.1400 
 23 C        5.4160    -1.8390     0.1700 C.3   1 <1>   0.1400 
 24 C        3.6720    -1.3660     2.2610 C.3   1 <1>  -0.1600 
 25 C        4.7910    -3.1040     0.7760 C.3   1 <1>  -0.1600 
 26 C        3.6560    -2.8230     1.7810 C.3   1 <1>  -0.1600 
 27 H       -0.9410    -1.3530    -2.5320 H     1 <1>   0.4200 
 28 H        1.7920    -0.6050    -2.4200 H     1 <1>   0.1500 
 29 H        0.4370     3.4130    -2.1100 H     1 <1>   0.1500 
 30 H       -1.5760     1.3850    -0.1690 H     1 <1>   0.1500 
 31 H       -0.1290    -2.5910    -0.6840 H     1 <1>   0.1500 
 32 H        2.5760     4.0670    -1.1720 H     1 <1>   0.1500 
 33 H       -1.1570     1.2260     2.2370 H     1 <1>   0.1500 
 34 H        0.2690    -2.7560     1.7310 H     1 <1>   0.1500 
 35 H       -0.2320    -0.8440     3.1960 H     1 <1>   0.1500 
 36 H        6.0190     3.6970    -0.0340 H     1 <1>   0.0800 
 37 H        4.3570     4.1400     0.3370 H     1 <1>   0.0800 
 38 H        4.9740     4.2890    -1.3200 H     1 <1>   0.0800 
 39 H        2.5140    -0.3390     0.7840 H     1 <1>   0.0800 
 40 H        3.8590     0.5940     1.3870 H     1 <1>   0.0800 
 41 H        6.1270    -1.4180     0.8600 H     1 <1>   0.0800 
 42 H        5.9480    -2.0910    -0.7320 H     1 <1>   0.0800 
 43 H        2.8600    -1.1950     2.9450 H     1 <1>   0.0800 
 44 H        4.5870    -1.1670     2.7900 H     1 <1>   0.0800 
 45 H        5.5720    -3.6630     1.2600 H     1 <1>   0.0800 
 46 H        4.4110    -3.7160    -0.0230 H     1 <1>   0.0800 
 47 H        2.7150    -3.0120     1.2960 H     1 <1>   0.0800 
 48 H        3.7350    -3.4930     2.6200 H     1 <1>   0.0800 
@<TRIPOS>BOND
  1   1   2  2   
  2   1   3  2   
  3   1   4  am  
  4   1   5  1   
  5   4   6  1   
  6   4  27  1   
  7   5   7  ar  
  8   5   8  ar  
  9   6   9  ar  
 10   6  10  ar  
 11   7  11  ar  
 12   7  28  1   
 13   8  12  ar  
 14   8  29  1   
 15   9  13  ar  
 16   9  30  1   
 17  10  14  ar  
 18  10  31  1   
 19  11  15  ar  
 20  11  16  1   
 21  12  15  ar  
 22  12  32  1   
 23  13  17  ar  
 24  13  33  1   
 25  14  17  ar  
 26  14  34  1   
 27  15  18  1   
 28  16  19  2   
 29  16  20  am  
 30  17  35  1   
 31  18  21  1   
 32  20  22  1   
 33  20  23  1   
 34  21  36  1   
 35  21  37  1   
 36  21  38  1   
 37  22  24  1   
 38  22  39  1   
 39  22  40  1   
 40  23  25  1   
 41  23  41  1   
 42  23  42  1   
 43  24  26  1   
 44  24  43  1   
 45  24  44  1   
 46  25  26  1   
 47  25  45  1   
 48  25  46  1   
 49  26  47  1   
 50  26  48  1   
@<TRIPOS>SUBSTRUCTURE
  1 ****   7 GROUP 4 **** **** 0

# MOE 2024.06 (io_trps.svl 2023.06)
