@<TRIPOS>MOLECULE
NONAME
27 27 1 0 0 
SMALL
USER_CHARGES


@<TRIPOS>ATOM
  1 F        1.5430     0.6100     1.4000 F     1 <1>  -0.3400 
  2 C        2.5300    -0.1290     0.9150 C.3   1 <1>   1.3000 
  3 F        2.0430    -0.9510    -0.0020 F     1 <1>  -0.3400 
  4 F        2.9680    -0.8810     1.9090 F     1 <1>  -0.3400 
  5 O        3.5870     0.6120     0.4320 O.3   1 <1>  -0.5600 
  6 C        3.3020     1.6550    -0.4420 C.3   1 <1>   0.9600 
  7 F        2.7350     2.6280     0.2690 F     1 <1>  -0.3400 
  8 F        2.3650     1.2700    -1.3080 F     1 <1>  -0.3400 
  9 C        4.5460     2.2030    -1.2010 C.3   1 <1>   0.7410 
 10 F        4.2060     3.1490    -2.0930 F     1 <1>  -0.3400 
 11 F        5.0730     1.2440    -1.9800 F     1 <1>  -0.3400 
 12 C        5.5950     2.7310    -0.1920 C.2   1 <1>   0.5690 
 13 O        6.4280     1.9400     0.2020 O.2   1 <1>  -0.5700 
 14 N        5.6290     4.0280     0.3040 N.am  1 <1>  -0.6600 
 15 C        6.7770     4.5040     1.1440 C.3   1 <1>   0.1400 
 16 C        4.6190     5.1200     0.1040 C.3   1 <1>   0.1400 
 17 C        7.3480     5.8180     0.5840 C.3   1 <1>   0.1200 
 18 C        5.3020     6.3940    -0.4180 C.3   1 <1>   0.1200 
 19 O        6.3380     6.7770     0.4410 O.3   1 <1>  -0.5600 
 20 H        7.5640     3.7720     1.1770 H     1 <1>   0.0800 
 21 H        6.4370     4.6660     2.1520 H     1 <1>   0.0800 
 22 H        4.1560     5.3440     1.0500 H     1 <1>   0.0800 
 23 H        3.8370     4.8370    -0.5720 H     1 <1>   0.0800 
 24 H        7.8070     5.6530    -0.3750 H     1 <1>   0.0800 
 25 H        8.0870     6.2180     1.2560 H     1 <1>   0.0800 
 26 H        4.5970     7.2040    -0.4610 H     1 <1>   0.0800 
 27 H        5.7080     6.2350    -1.4030 H     1 <1>   0.0800 
@<TRIPOS>BOND
  1   1   2  1   
  2   2   3  1   
  3   2   4  1   
  4   2   5  1   
  5   5   6  1   
  6   6   7  1   
  7   6   8  1   
  8   6   9  1   
  9   9  10  1   
 10   9  11  1   
 11   9  12  1   
 12  12  13  2   
 13  12  14  am  
 14  14  15  1   
 15  14  16  1   
 16  15  17  1   
 17  15  20  1   
 18  15  21  1   
 19  16  18  1   
 20  16  22  1   
 21  16  23  1   
 22  17  19  1   
 23  17  24  1   
 24  17  25  1   
 25  18  19  1   
 26  18  26  1   
 27  18  27  1   
@<TRIPOS>SUBSTRUCTURE
  1 ****  12 GROUP 4 **** **** 0

# MOE 2024.06 (io_trps.svl 2023.06)
