@<TRIPOS>MOLECULE
NONAME
37 38 1 0 0 
SMALL
USER_CHARGES


@<TRIPOS>ATOM
  1 F       -1.1380    -1.7470     2.5810 F     1 <1>  -0.1900 
  2 C       -2.1220    -1.7970     1.7250 C.ar  1 <1>   0.1900 
  3 C       -1.9430    -1.2480     0.4700 C.ar  1 <1>  -0.1500 
  4 C       -3.3060    -2.3960     2.1040 C.ar  1 <1>  -0.1500 
  5 C       -2.9910    -1.3010    -0.4330 C.ar  1 <1>  -0.1500 
  6 C       -4.3480    -2.4450     1.1940 C.ar  1 <1>  -0.1500 
  7 C       -4.1970    -1.8940    -0.0750 C.ar  1 <1>  -0.1430 
  8 C       -5.3510    -1.9420    -1.0620 C.3   1 <1>  -0.0160 
  9 C       -6.4300    -0.9120    -0.6870 C.3   1 <1>   0.4230 
 10 N       -7.6430    -1.0930    -1.5270 N.4   1 <1>  -0.6410 
 11 C       -5.9510     0.5270    -0.8760 C.3   1 <1>  -0.2400 
 12 N       -8.8080    -1.7220    -0.8440 N.3   1 <1>  -0.3020 
 13 C       -9.3830    -0.8770     0.2280 C.3   1 <1>   0.1100 
 14 C       -8.5660    -3.1110    -0.3940 C.3   1 <1>   0.1100 
 15 C      -10.5960    -1.5650     0.8730 C.3   1 <1>   0.1200 
 16 C       -9.8210    -3.6920     0.2740 C.3   1 <1>   0.1200 
 17 O      -10.2330    -2.8420     1.3010 O.3   1 <1>  -0.5600 
 18 H       -1.0020    -0.7940     0.2120 H     1 <1>   0.1500 
 19 H       -3.4020    -2.8160     3.0900 H     1 <1>   0.1500 
 20 H       -2.8520    -0.8770    -1.4130 H     1 <1>   0.1500 
 21 H       -5.2690    -2.9180     1.4890 H     1 <1>   0.1500 
 22 H       -5.7620    -2.9350    -1.0420 H     1 <1>   0.0800 
 23 H       -4.9840    -1.7530    -2.0560 H     1 <1>   0.0800 
 24 H       -6.6930    -1.0510     0.3480 H     1 <1>   0.0800 
 25 H       -7.4010    -1.6300    -2.3710 H     1 <1>   0.4500 
 26 H       -7.9240    -0.1660    -1.8760 H     1 <1>   0.4500 
 27 H       -5.6430     0.7100    -1.8900 H     1 <1>   0.0800 
 28 H       -5.1070     0.7150    -0.2340 H     1 <1>   0.0800 
 29 H       -6.7220     1.2250    -0.5990 H     1 <1>   0.0800 
 30 H       -9.6920     0.0680    -0.1820 H     1 <1>   0.0800 
 31 H       -8.6510    -0.6940     0.9950 H     1 <1>   0.0800 
 32 H       -7.7640    -3.1380     0.3220 H     1 <1>   0.0800 
 33 H       -8.3000    -3.7240    -1.2360 H     1 <1>   0.0800 
 34 H      -11.4150    -1.6480     0.1780 H     1 <1>   0.0800 
 35 H      -10.9300    -1.0120     1.7340 H     1 <1>   0.0800 
 36 H       -9.6070    -4.6530     0.7090 H     1 <1>   0.0800 
 37 H      -10.6270    -3.8040    -0.4330 H     1 <1>   0.0800 
@<TRIPOS>BOND
  1   1   2  1   
  2   2   3  ar  
  3   2   4  ar  
  4   3   5  ar  
  5   3  18  1   
  6   4   6  ar  
  7   4  19  1   
  8   5   7  ar  
  9   5  20  1   
 10   6   7  ar  
 11   6  21  1   
 12   7   8  1   
 13   8   9  1   
 14   8  22  1   
 15   8  23  1   
 16   9  10  1   
 17   9  11  1   
 18   9  24  1   
 19  10  12  1   
 20  10  25  1   
 21  10  26  1   
 22  11  27  1   
 23  11  28  1   
 24  11  29  1   
 25  12  13  1   
 26  12  14  1   
 27  13  15  1   
 28  13  30  1   
 29  13  31  1   
 30  14  16  1   
 31  14  32  1   
 32  14  33  1   
 33  15  17  1   
 34  15  34  1   
 35  15  35  1   
 36  16  17  1   
 37  16  36  1   
 38  16  37  1   
@<TRIPOS>SUBSTRUCTURE
  1 ****   9 GROUP 4 **** **** 0

# MOE 2024.06 (io_trps.svl 2023.06)
