@<TRIPOS>MOLECULE
NONAME
48 49 1 0 0 
SMALL
USER_CHARGES


@<TRIPOS>ATOM
  1 O        0.6410     0.4320    -0.6280 O.2   1 <1>  -0.5700 
  2 C        0.4410     1.5610    -0.2620 C.2   1 <1>   0.6590 
  3 O       -0.7300     1.9630     0.2050 O.3   1 <1>  -0.4300 
  4 C        1.5300     2.6180    -0.3170 C.3   1 <1>  -0.0190 
  5 C       -1.8260     1.0820     0.3130 C.3   1 <1>   0.1200 
  6 C        2.6990     2.1030    -1.1770 C.3   1 <1>   0.3430 
  7 C        2.0030     3.0420     1.0890 C.3   1 <1>  -0.1600 
  8 C       -3.0040     1.8620     0.8860 C.3   1 <1>  -0.2400 
  9 N        4.0190     2.6850    -0.7680 N.4   1 <1>  -0.9590 
 10 C        3.0970     4.1260     1.0050 C.3   1 <1>  -0.1600 
 11 C        3.9330     4.0880    -0.2820 C.3   1 <1>   0.3430 
 12 C        5.0700     2.4830    -1.7970 C.3   1 <1>   0.4860 
 13 C        6.4180     2.7850    -1.1710 C.ar  1 <1>  -0.1430 
 14 C        6.8640     2.0520    -0.0740 C.ar  1 <1>   0.0830 
 15 C        7.2090     3.7970    -1.6930 C.ar  1 <1>  -0.1500 
 16 O        6.0410     1.0760     0.4010 O.3   1 <1>  -0.3630 
 17 C        8.1010     2.3400     0.4950 C.ar  1 <1>  -0.1500 
 18 C        8.4360     4.0790    -1.1230 C.ar  1 <1>  -0.1500 
 19 C        6.5000     0.1220     1.3380 C.3   1 <1>   0.0400 
 20 C        8.8880     3.3580    -0.0320 C.ar  1 <1>   0.0830 
 21 O       10.1020     3.7080     0.4600 O.3   1 <1>  -0.3620 
 22 C       10.6980     3.0170     1.5360 C.3   1 <1>   0.0400 
 23 H        1.1050     3.4740    -0.8090 H     1 <1>   0.0800 
 24 H       -1.5490     0.2680     0.9620 H     1 <1>   0.0800 
 25 H       -2.0560     0.7000    -0.6680 H     1 <1>   0.0800 
 26 H        2.4930     2.3340    -2.2100 H     1 <1>   0.0800 
 27 H        2.7620     1.0300    -1.0910 H     1 <1>   0.0800 
 28 H        2.3940     2.1780     1.6000 H     1 <1>   0.0800 
 29 H        1.1710     3.4090     1.6690 H     1 <1>   0.0800 
 30 H       -2.7590     2.2450     1.8610 H     1 <1>   0.0800 
 31 H       -3.8560     1.2130     0.9800 H     1 <1>   0.0800 
 32 H       -3.2670     2.6750     0.2340 H     1 <1>   0.0800 
 33 H        4.3750     2.1300     0.0310 H     1 <1>   0.4500 
 34 H        3.7520     4.0330     1.8540 H     1 <1>   0.0800 
 35 H        2.6420     5.1000     1.0720 H     1 <1>   0.0800 
 36 H        3.4670     4.7000    -1.0360 H     1 <1>   0.0800 
 37 H        4.9170     4.4840    -0.0830 H     1 <1>   0.0800 
 38 H        4.8960     3.1250    -2.6440 H     1 <1>   0.0800 
 39 H        5.0650     1.4580    -2.1310 H     1 <1>   0.0800 
 40 H        6.8890     4.3740    -2.5450 H     1 <1>   0.1500 
 41 H        8.4510     1.7850     1.3410 H     1 <1>   0.1500 
 42 H        9.0580     4.8620    -1.5210 H     1 <1>   0.1500 
 43 H        6.7150     0.6160     2.2700 H     1 <1>   0.0800 
 44 H        7.3800    -0.3590     0.9480 H     1 <1>   0.0800 
 45 H        5.7240    -0.6080     1.4860 H     1 <1>   0.0800 
 46 H       11.6580     3.4620     1.7280 H     1 <1>   0.0800 
 47 H       10.8240     1.9840     1.2620 H     1 <1>   0.0800 
 48 H       10.0720     3.1140     2.4050 H     1 <1>   0.0800 
@<TRIPOS>BOND
  1   1   2  2   
  2   2   3  1   
  3   2   4  1   
  4   3   5  1   
  5   4   6  1   
  6   4   7  1   
  7   4  23  1   
  8   5   8  1   
  9   5  24  1   
 10   5  25  1   
 11   6   9  1   
 12   6  26  1   
 13   6  27  1   
 14   7  10  1   
 15   7  28  1   
 16   7  29  1   
 17   8  30  1   
 18   8  31  1   
 19   8  32  1   
 20   9  11  1   
 21   9  12  1   
 22   9  33  1   
 23  10  11  1   
 24  10  34  1   
 25  10  35  1   
 26  11  36  1   
 27  11  37  1   
 28  12  13  1   
 29  12  38  1   
 30  12  39  1   
 31  13  14  ar  
 32  13  15  ar  
 33  14  16  1   
 34  14  17  ar  
 35  15  18  ar  
 36  15  40  1   
 37  16  19  1   
 38  17  20  ar  
 39  17  41  1   
 40  18  20  ar  
 41  18  42  1   
 42  19  43  1   
 43  19  44  1   
 44  19  45  1   
 45  20  21  1   
 46  21  22  1   
 47  22  46  1   
 48  22  47  1   
 49  22  48  1   
@<TRIPOS>SUBSTRUCTURE
  1 ****   9 GROUP 4 **** **** 0

# MOE 2024.06 (io_trps.svl 2023.06)
