@<TRIPOS>MOLECULE
NONAME
41 42 1 0 0 
SMALL
USER_CHARGES


@<TRIPOS>ATOM
  1 S       -0.0030     0.1040     0.3740 S.o2  1 <1>   1.4470 
  2 O        0.3760     0.1390     1.7670 O.2   1 <1>  -0.6500 
  3 O        0.0340     1.3020    -0.4280 O.2   1 <1>  -0.6500 
  4 N        1.1510    -0.8500    -0.3880 N.am  1 <1>  -0.9140 
  5 C       -1.5410    -0.8240     0.1330 C.ar  1 <1>  -0.0090 
  6 C        2.5060    -0.4840     0.0160 C.3   1 <1>   0.1960 
  7 C       -2.4360    -0.4840    -0.8740 C.ar  1 <1>  -0.1500 
  8 C       -1.8490    -1.9200     0.9360 C.ar  1 <1>  -0.1500 
  9 C        3.5470    -1.4110    -0.6370 C.3   1 <1>   0.3430 
 10 C       -3.5860    -1.2270    -1.0540 C.ar  1 <1>   0.1900 
 11 C       -3.0060    -2.6630     0.7520 C.ar  1 <1>  -0.1500 
 12 N        4.9320    -1.1960    -0.1040 N.4   1 <1>  -0.9590 
 13 F       -4.3960    -0.8700    -2.0180 F     1 <1>  -0.1900 
 14 C       -3.9000    -2.3240    -0.2590 C.ar  1 <1>   0.0830 
 15 C        5.5050     0.1740    -0.3580 C.3   1 <1>   0.3430 
 16 C        5.8940    -2.2520    -0.5740 C.3   1 <1>   0.3430 
 17 O       -5.0510    -3.0060    -0.5010 O.3   1 <1>  -0.3630 
 18 C        6.9490     0.2920     0.1830 C.3   1 <1>   0.1200 
 19 C        7.3080    -2.0290     0.0130 C.3   1 <1>   0.1200 
 20 C       -5.4350    -4.1160     0.2800 C.3   1 <1>   0.0400 
 21 O        7.3440    -0.8880     0.8280 O.3   1 <1>  -0.5600 
 22 H        1.0190    -0.5910    -1.3670 H     1 <1>   0.4200 
 23 H        2.5930    -0.5850     1.0860 H     1 <1>   0.0800 
 24 H        2.6930     0.5430    -0.2520 H     1 <1>   0.0800 
 25 H       -2.2480     0.3570    -1.5200 H     1 <1>   0.1500 
 26 H       -1.1680    -2.1980     1.7240 H     1 <1>   0.1500 
 27 H        3.5400    -1.2550    -1.7030 H     1 <1>   0.0800 
 28 H        3.2490    -2.4290    -0.4420 H     1 <1>   0.0800 
 29 H       -3.1910    -3.4980     1.4030 H     1 <1>   0.1500 
 30 H        4.9310    -1.2960     0.9250 H     1 <1>   0.4500 
 31 H        4.8960     0.9250     0.1200 H     1 <1>   0.0800 
 32 H        5.5100     0.3850    -1.4150 H     1 <1>   0.0800 
 33 H        5.9580    -2.2430    -1.6490 H     1 <1>   0.0800 
 34 H        5.5450    -3.2290    -0.2780 H     1 <1>   0.0800 
 35 H        7.0140     1.0950     0.8970 H     1 <1>   0.0800 
 36 H        7.6420     0.4980    -0.6160 H     1 <1>   0.0800 
 37 H        8.0350    -1.9150    -0.7730 H     1 <1>   0.0800 
 38 H        7.5960    -2.8710     0.6170 H     1 <1>   0.0800 
 39 H       -6.3750    -4.4780    -0.0960 H     1 <1>   0.0800 
 40 H       -5.5480    -3.8030     1.3020 H     1 <1>   0.0800 
 41 H       -4.6870    -4.8830     0.1890 H     1 <1>   0.0800 
@<TRIPOS>BOND
  1   1   2  2   
  2   1   3  2   
  3   1   4  am  
  4   1   5  1   
  5   4   6  1   
  6   4  22  1   
  7   5   7  ar  
  8   5   8  ar  
  9   6   9  1   
 10   6  23  1   
 11   6  24  1   
 12   7  10  ar  
 13   7  25  1   
 14   8  11  ar  
 15   8  26  1   
 16   9  12  1   
 17   9  27  1   
 18   9  28  1   
 19  10  13  1   
 20  10  14  ar  
 21  11  14  ar  
 22  11  29  1   
 23  12  15  1   
 24  12  16  1   
 25  12  30  1   
 26  14  17  1   
 27  15  18  1   
 28  15  31  1   
 29  15  32  1   
 30  16  19  1   
 31  16  33  1   
 32  16  34  1   
 33  17  20  1   
 34  18  21  1   
 35  18  35  1   
 36  18  36  1   
 37  19  21  1   
 38  19  37  1   
 39  19  38  1   
 40  20  39  1   
 41  20  40  1   
 42  20  41  1   
@<TRIPOS>SUBSTRUCTURE
  1 ****   4 GROUP 4 **** **** 0

# MOE 2024.06 (io_trps.svl 2023.06)
