@<TRIPOS>MOLECULE
NONAME
42 44 1 0 0 
SMALL
USER_CHARGES


@<TRIPOS>ATOM
  1 CL       0.2740    -0.2640    -0.8940 Cl    1 <1>  -0.1770 
  2 C       -1.3240    -0.9680    -0.9420 C.ar  1 <1>   0.1770 
  3 C       -1.5240    -2.2340    -0.4500 C.ar  1 <1>  -0.1500 
  4 C       -2.3670    -0.2130    -1.4850 C.ar  1 <1>  -0.1500 
  5 C       -2.8120    -2.7710    -0.4990 C.ar  1 <1>   0.0000 
  6 C       -3.6410    -0.7330    -1.5400 C.ar  1 <1>  -0.1500 
  7 C       -3.3680    -4.0050    -0.0870 C.2   1 <1>   0.2270 
  8 C       -3.8700    -2.0210    -1.0430 C.ar  1 <1>  -0.1520 
  9 N       -2.9310    -5.1660     0.5310 N.2   1 <1>  -0.5650 
 10 C       -4.6730    -3.9400    -0.3900 C.2   1 <1>  -0.1120 
 11 N       -5.0340    -2.7720    -0.9760 N.pl3 1 <1>   0.0480 
 12 C       -3.9020    -5.9780     0.6940 C.2   1 <1>   0.1980 
 13 S       -5.4750    -5.3980     0.1120 S.3   1 <1>  -0.0800 
 14 C       -6.4150    -2.3410    -1.2250 C.3   1 <1>   0.0960 
 15 C       -3.8670    -7.3540     1.3160 C.3   1 <1>  -0.0600 
 16 C       -7.0390    -1.9620     0.1220 C.3   1 <1>   0.3430 
 17 N       -8.4980    -1.6100     0.0160 N.4   1 <1>  -0.9590 
 18 C       -8.9590    -0.8980     1.2440 C.3   1 <1>   0.3430 
 19 C       -9.3330    -2.8210    -0.2310 C.3   1 <1>   0.3430 
 20 C       -8.4540     0.5400     1.2200 C.3   1 <1>  -0.2400 
 21 C      -10.6640    -2.4030    -0.8440 C.3   1 <1>  -0.2400 
 22 H       -0.7180    -2.8110    -0.0330 H     1 <1>   0.1500 
 23 H       -2.1490     0.7720    -1.8580 H     1 <1>   0.1500 
 24 H       -4.4410    -0.1540    -1.9660 H     1 <1>   0.1500 
 25 H       -6.9400    -3.1590    -1.6820 H     1 <1>   0.0800 
 26 H       -6.4050    -1.5010    -1.8940 H     1 <1>   0.0800 
 27 H       -2.8640    -7.5840     1.6270 H     1 <1>   0.0800 
 28 H       -4.1860    -8.0870     0.5980 H     1 <1>   0.0800 
 29 H       -4.5150    -7.3860     2.1720 H     1 <1>   0.0800 
 30 H       -6.4910    -1.1220     0.5150 H     1 <1>   0.0800 
 31 H       -6.9200    -2.7840     0.8100 H     1 <1>   0.0800 
 32 H       -8.6370    -0.9640    -0.7730 H     1 <1>   0.4500 
 33 H       -8.6040    -1.4050     2.1280 H     1 <1>   0.0800 
 34 H      -10.0360    -0.8820     1.2780 H     1 <1>   0.0800 
 35 H       -9.4980    -3.3580     0.6900 H     1 <1>   0.0800 
 36 H       -8.8330    -3.4840    -0.9190 H     1 <1>   0.0800 
 37 H       -7.3820     0.5890     1.2770 H     1 <1>   0.0800 
 38 H       -8.8470     1.0610     2.0760 H     1 <1>   0.0800 
 39 H       -8.7970     1.0530     0.3390 H     1 <1>   0.0800 
 40 H      -11.2420    -1.7980    -0.1680 H     1 <1>   0.0800 
 41 H      -11.2410    -3.2840    -1.0630 H     1 <1>   0.0800 
 42 H      -10.5130    -1.8710    -1.7670 H     1 <1>   0.0800 
@<TRIPOS>BOND
  1   1   2  1   
  2   2   3  ar  
  3   2   4  ar  
  4   3   5  ar  
  5   3  22  1   
  6   4   6  ar  
  7   4  23  1   
  8   5   7  1   
  9   5   8  ar  
 10   6   8  ar  
 11   6  24  1   
 12   7   9  1   
 13   7  10  2   
 14   8  11  1   
 15   9  12  2   
 16  10  11  1   
 17  10  13  1   
 18  11  14  1   
 19  12  13  1   
 20  12  15  1   
 21  14  16  1   
 22  14  25  1   
 23  14  26  1   
 24  15  27  1   
 25  15  28  1   
 26  15  29  1   
 27  16  17  1   
 28  16  30  1   
 29  16  31  1   
 30  17  18  1   
 31  17  19  1   
 32  17  32  1   
 33  18  20  1   
 34  18  33  1   
 35  18  34  1   
 36  19  21  1   
 37  19  35  1   
 38  19  36  1   
 39  20  37  1   
 40  20  38  1   
 41  20  39  1   
 42  21  40  1   
 43  21  41  1   
 44  21  42  1   
@<TRIPOS>SUBSTRUCTURE
  1 ****  11 GROUP 4 **** **** 0

# MOE 2024.06 (io_trps.svl 2023.06)
