@<TRIPOS>MOLECULE
NONAME
26 26 1 0 0 
SMALL
USER_CHARGES


@<TRIPOS>ATOM
  1 CL      -0.4110    -0.1110     0.8970 Cl    1 <1>  -0.1770 
  2 C       -0.1510     1.5570     0.4290 C.ar  1 <1>   0.1770 
  3 C       -1.2260     2.3500     0.0430 C.ar  1 <1>   0.0830 
  4 C        1.1390     2.0480     0.4520 C.ar  1 <1>  -0.1500 
  5 O       -2.4730     1.7980     0.0440 O.3   1 <1>  -0.3630 
  6 C       -0.9750     3.6690    -0.3260 C.ar  1 <1>  -0.1500 
  7 C        1.3930     3.3660     0.0870 C.ar  1 <1>   0.1170 
  8 C       -3.6130     2.5530    -0.3050 C.3   1 <1>   0.0400 
  9 C        0.3200     4.1610    -0.3020 C.ar  1 <1>  -0.1500 
 10 N        2.6820     3.9230     0.0770 N.am  1 <1>  -0.5470 
 11 C        3.8200     3.5580     0.7410 C.2   1 <1>   0.5690 
 12 O        3.8820     2.6370     1.5150 O.2   1 <1>  -0.5700 
 13 C        5.0720     4.3810     0.4920 C.3   1 <1>  -0.0990 
 14 C        5.6260     4.2150    -0.9320 C.3   1 <1>  -0.2400 
 15 H        1.9370     1.3950     0.7530 H     1 <1>   0.1500 
 16 H       -1.7690     4.3230    -0.6320 H     1 <1>   0.1500 
 17 H       -4.4730     1.9150    -0.2180 H     1 <1>   0.0800 
 18 H       -3.5110     2.8920    -1.3200 H     1 <1>   0.0800 
 19 H       -3.7040     3.3820     0.3740 H     1 <1>   0.0800 
 20 H        0.4950     5.1830    -0.5880 H     1 <1>   0.1500 
 21 H        2.7840     4.7520    -0.5040 H     1 <1>   0.3700 
 22 H        5.8240     4.0740     1.1980 H     1 <1>   0.0800 
 23 H        4.8530     5.4150     0.6820 H     1 <1>   0.0800 
 24 H        5.8520     3.1790    -1.1200 H     1 <1>   0.0800 
 25 H        6.5310     4.7860    -1.0460 H     1 <1>   0.0800 
 26 H        4.9130     4.5500    -1.6640 H     1 <1>   0.0800 
@<TRIPOS>BOND
  1   1   2  1   
  2   2   3  ar  
  3   2   4  ar  
  4   3   5  1   
  5   3   6  ar  
  6   4   7  ar  
  7   4  15  1   
  8   5   8  1   
  9   6   9  ar  
 10   6  16  1   
 11   7   9  ar  
 12   7  10  1   
 13   8  17  1   
 14   8  18  1   
 15   8  19  1   
 16   9  20  1   
 17  10  11  am  
 18  10  21  1   
 19  11  12  2   
 20  11  13  1   
 21  13  14  1   
 22  13  22  1   
 23  13  23  1   
 24  14  24  1   
 25  14  25  1   
 26  14  26  1   
@<TRIPOS>SUBSTRUCTURE
  1 ****   7 GROUP 4 **** **** 0

# MOE 2024.06 (io_trps.svl 2023.06)
