@<TRIPOS>MOLECULE
NONAME
49 49 1 0 0 
SMALL
USER_CHARGES


@<TRIPOS>ATOM
  1 O       -0.9730     0.4090     1.8680 O.2   1 <1>  -0.5700 
  2 C       -0.7740     1.3330     1.1220 C.2   1 <1>   0.5690 
  3 N       -1.7080     1.8210     0.2530 N.am  1 <1>  -0.5470 
  4 C        0.5730     2.0110     1.1490 C.3   1 <1>  -0.1790 
  5 C       -3.0120     1.3710     0.0080 C.ar  1 <1>   0.1170 
  6 C       -3.3650     0.0310     0.1130 C.ar  1 <1>  -0.1500 
  7 C       -3.9900     2.2830    -0.3650 C.ar  1 <1>  -0.1500 
  8 C       -4.6610    -0.3850    -0.1220 C.ar  1 <1>  -0.1500 
  9 C       -5.2910     1.8760    -0.5990 C.ar  1 <1>  -0.1500 
 10 C       -5.6380     0.5380    -0.4650 C.ar  1 <1>  -0.1430 
 11 C       -7.0700     0.0910    -0.6740 C.3   1 <1>   0.4860 
 12 N       -7.6480    -0.2580     0.6650 N.4   1 <1>  -0.9590 
 13 C       -8.9550    -1.0100     0.6100 C.3   1 <1>   0.3430 
 14 C       -7.6580     0.9280     1.5940 C.3   1 <1>   0.2630 
 15 C      -10.1670    -0.1990     0.0620 C.3   1 <1>   0.3430 
 16 N      -11.4890    -0.9290     0.1230 N.4   1 <1>  -0.9590 
 17 C      -11.5460    -2.1140    -0.7870 C.3   1 <1>   0.3430 
 18 C      -12.6290    -0.0080    -0.1840 C.3   1 <1>   0.3430 
 19 C      -12.5980    -3.0910    -0.2770 C.3   1 <1>  -0.2400 
 20 C      -12.8730     0.9210     1.0000 C.3   1 <1>  -0.2400 
 21 H       -1.4300     2.6580    -0.2560 H     1 <1>   0.3700 
 22 H        1.0140     1.9900     0.1710 H     1 <1>   0.0800 
 23 H        1.2230     1.4950     1.8330 H     1 <1>   0.0800 
 24 H        0.4630     3.0270     1.4770 H     1 <1>   0.0800 
 25 H       -2.6150    -0.6930     0.3810 H     1 <1>   0.1500 
 26 H       -3.7320     3.3230    -0.4650 H     1 <1>   0.1500 
 27 H       -4.8810    -1.4350    -0.0310 H     1 <1>   0.1500 
 28 H       -6.0190     2.6160    -0.8840 H     1 <1>   0.1500 
 29 H       -7.0740    -0.7700    -1.3230 H     1 <1>   0.0800 
 30 H       -7.6340     0.8810    -1.1410 H     1 <1>   0.0800 
 31 H       -6.9370    -0.8940     1.0690 H     1 <1>   0.4500 
 32 H       -9.1960    -1.3410     1.6070 H     1 <1>   0.0800 
 33 H       -8.8220    -1.8880    -0.0010 H     1 <1>   0.0800 
 34 H       -8.2930     1.7110     1.2130 H     1 <1>   0.0800 
 35 H       -6.6590     1.3260     1.7010 H     1 <1>   0.0800 
 36 H       -8.0060     0.6390     2.5730 H     1 <1>   0.0800 
 37 H       -9.9710     0.0810    -0.9600 H     1 <1>   0.0800 
 38 H      -10.2470     0.7040     0.6430 H     1 <1>   0.0800 
 39 H      -11.6680    -1.2750     1.0780 H     1 <1>   0.4500 
 40 H      -10.5950    -2.6200    -0.8070 H     1 <1>   0.0800 
 41 H      -11.7850    -1.8060    -1.7940 H     1 <1>   0.0800 
 42 H      -13.5280    -0.5780    -0.3590 H     1 <1>   0.0800 
 43 H      -12.4240     0.5670    -1.0740 H     1 <1>   0.0800 
 44 H      -12.3740    -3.4170     0.7230 H     1 <1>   0.0800 
 45 H      -12.6060    -3.9610    -0.9100 H     1 <1>   0.0800 
 46 H      -13.5860    -2.6670    -0.3050 H     1 <1>   0.0800 
 47 H      -13.0690     0.3600     1.8960 H     1 <1>   0.0800 
 48 H      -13.7450     1.5180     0.7960 H     1 <1>   0.0800 
 49 H      -12.0540     1.5970     1.1600 H     1 <1>   0.0800 
@<TRIPOS>BOND
  1   1   2  2   
  2   2   3  am  
  3   2   4  1   
  4   3   5  1   
  5   3  21  1   
  6   4  22  1   
  7   4  23  1   
  8   4  24  1   
  9   5   6  ar  
 10   5   7  ar  
 11   6   8  ar  
 12   6  25  1   
 13   7   9  ar  
 14   7  26  1   
 15   8  10  ar  
 16   8  27  1   
 17   9  10  ar  
 18   9  28  1   
 19  10  11  1   
 20  11  12  1   
 21  11  29  1   
 22  11  30  1   
 23  12  13  1   
 24  12  14  1   
 25  12  31  1   
 26  13  15  1   
 27  13  32  1   
 28  13  33  1   
 29  14  34  1   
 30  14  35  1   
 31  14  36  1   
 32  15  16  1   
 33  15  37  1   
 34  15  38  1   
 35  16  17  1   
 36  16  18  1   
 37  16  39  1   
 38  17  19  1   
 39  17  40  1   
 40  17  41  1   
 41  18  20  1   
 42  18  42  1   
 43  18  43  1   
 44  19  44  1   
 45  19  45  1   
 46  19  46  1   
 47  20  47  1   
 48  20  48  1   
 49  20  49  1   
@<TRIPOS>SUBSTRUCTURE
  1 ****  11 GROUP 4 **** **** 0

# MOE 2024.06 (io_trps.svl 2023.06)
