@<TRIPOS>MOLECULE
NONAME
46 47 1 0 0 
SMALL
USER_CHARGES


@<TRIPOS>ATOM
  1 O       -4.4400    -1.4090    -1.4060 O.3   1 <1>  -0.6800 
  2 C       -4.1690    -2.1420    -0.2680 C.3   1 <1>   0.4240 
  3 C       -2.6560    -2.0510     0.0090 C.ar  1 <1>  -0.1440 
  4 C       -5.0200    -1.5810     0.8830 C.3   1 <1>  -0.0800 
  5 C       -4.6460    -3.5590    -0.5800 C.3   1 <1>  -0.1600 
  6 C       -1.9180    -0.9390    -0.3950 C.ar  1 <1>  -0.1500 
  7 C       -1.9810    -3.0640     0.6870 C.ar  1 <1>  -0.1500 
  8 C       -6.4960    -1.6500     0.4900 C.3   1 <1>   0.3430 
  9 C       -4.6630    -0.1350     1.2880 C.3   1 <1>  -0.2400 
 10 C       -6.1340    -3.5940    -0.9520 C.3   1 <1>   0.4230 
 11 C       -0.5580    -0.8530    -0.1530 C.ar  1 <1>  -0.1500 
 12 C       -0.6220    -2.9800     0.9310 C.ar  1 <1>  -0.1500 
 13 N       -6.9730    -3.0500     0.1880 N.4   1 <1>  -0.9590 
 14 C       -6.4620    -5.0390    -1.3400 C.3   1 <1>  -0.2400 
 15 C        0.0930    -1.8760     0.5080 C.ar  1 <1>  -0.1500 
 16 C       -8.4770    -3.0860     0.0090 C.3   1 <1>   0.7030 
 17 C       -8.8430    -2.8120    -1.4140 C.1   1 <1>  -0.2000 
 18 C       -9.2020    -2.0420     0.8770 C.3   1 <1>  -0.2400 
 19 C       -9.0160    -4.4460     0.4700 C.3   1 <1>  -0.2400 
 20 C       -9.1350    -2.5860    -2.5450 C.1   1 <1>  -0.1770 
 21 H       -3.6290    -1.4050    -1.9560 H     1 <1>   0.4000 
 22 H       -4.8660    -2.1960     1.7520 H     1 <1>   0.0800 
 23 H       -4.4910    -4.2040     0.2640 H     1 <1>   0.0800 
 24 H       -4.0520    -3.9420    -1.3910 H     1 <1>   0.0800 
 25 H       -2.3870    -0.1100    -0.8970 H     1 <1>   0.1500 
 26 H       -2.4890    -3.9390     1.0460 H     1 <1>   0.1500 
 27 H       -6.6550    -1.0250    -0.3750 H     1 <1>   0.0800 
 28 H       -7.0560    -1.2320     1.3080 H     1 <1>   0.0800 
 29 H       -4.7560     0.5350     0.4510 H     1 <1>   0.0800 
 30 H       -3.6510    -0.0830     1.6530 H     1 <1>   0.0800 
 31 H       -5.3100     0.2100     2.0760 H     1 <1>   0.0800 
 32 H       -6.2760    -2.9680    -1.8210 H     1 <1>   0.0800 
 33 H       -0.0060     0.0120    -0.4760 H     1 <1>   0.1500 
 34 H       -0.1150    -3.7740     1.4520 H     1 <1>   0.1500 
 35 H       -6.7880    -3.6300     1.0070 H     1 <1>   0.4500 
 36 H       -6.4610    -5.6870    -0.4830 H     1 <1>   0.0800 
 37 H       -5.7230    -5.4070    -2.0300 H     1 <1>   0.0800 
 38 H       -7.3970    -5.0980    -1.8620 H     1 <1>   0.0800 
 39 H        1.1510    -1.8110     0.6970 H     1 <1>   0.1500 
 40 H       -8.9340    -2.1420     1.9130 H     1 <1>   0.0800 
 41 H      -10.2660    -2.1810     0.8010 H     1 <1>   0.0800 
 42 H       -9.0130    -1.0390     0.5390 H     1 <1>   0.0800 
 43 H       -8.7020    -4.6620     1.4750 H     1 <1>   0.0800 
 44 H       -8.7380    -5.2560    -0.1690 H     1 <1>   0.0800 
 45 H      -10.0920    -4.4300     0.4610 H     1 <1>   0.0800 
 46 H       -9.4100    -2.3800    -3.5670 H     1 <1>   0.1770 
@<TRIPOS>BOND
  1   1   2  1   
  2   1  21  1   
  3   2   3  1   
  4   2   4  1   
  5   2   5  1   
  6   3   6  ar  
  7   3   7  ar  
  8   4   8  1   
  9   4   9  1   
 10   4  22  1   
 11   5  10  1   
 12   5  23  1   
 13   5  24  1   
 14   6  11  ar  
 15   6  25  1   
 16   7  12  ar  
 17   7  26  1   
 18   8  13  1   
 19   8  27  1   
 20   8  28  1   
 21   9  29  1   
 22   9  30  1   
 23   9  31  1   
 24  10  13  1   
 25  10  14  1   
 26  10  32  1   
 27  11  15  ar  
 28  11  33  1   
 29  12  15  ar  
 30  12  34  1   
 31  13  16  1   
 32  13  35  1   
 33  14  36  1   
 34  14  37  1   
 35  14  38  1   
 36  15  39  1   
 37  16  17  1   
 38  16  18  1   
 39  16  19  1   
 40  17  20  3   
 41  18  40  1   
 42  18  41  1   
 43  18  42  1   
 44  19  43  1   
 45  19  44  1   
 46  19  45  1   
 47  20  46  1   
@<TRIPOS>SUBSTRUCTURE
  1 ****   2 GROUP 4 **** **** 0

# MOE 2024.06 (io_trps.svl 2023.06)
