@<TRIPOS>MOLECULE
NONAME
38 39 1 0 0 
SMALL
USER_CHARGES


@<TRIPOS>ATOM
  1 O       -0.2920     0.7500    -0.6000 O.2   1 <1>  -0.5700 
  2 C       -1.2870     1.1090    -0.0240 C.2   1 <1>   0.5950 
  3 C       -1.5710     2.4770     0.2800 C.2   1 <1>  -0.0860 
  4 C       -2.2800     0.0960     0.5290 C.3   1 <1>   0.0420 
  5 C       -2.6580     2.8910     0.9510 C.2   1 <1>  -0.0400 
  6 C       -0.9190     3.6790     0.0550 C.2   1 <1>   0.1080 
  7 C       -2.1090    -1.2340    -0.2020 C.2   1 <1>   0.6590 
  8 C       -3.7480     0.6550     0.6210 C.3   1 <1>   0.0000 
  9 O       -2.6810     4.1830     1.1400 O.3   1 <1>  -0.0190 
 10 C       -3.7550     1.9720     1.4460 C.3   1 <1>   0.0200 
 11 N       -1.5880     4.6460     0.5680 N.2   1 <1>  -0.4100 
 12 C        0.3970     3.8520    -0.6830 C.3   1 <1>   0.0210 
 13 O       -2.6570    -1.4640    -1.2450 O.2   1 <1>  -0.5700 
 14 O       -1.3900    -2.1970     0.3730 O.3   1 <1>  -0.4300 
 15 C       -4.6640    -0.3650     1.3230 C.3   1 <1>  -0.2400 
 16 C       -4.3640     0.9670    -0.7640 C.3   1 <1>  -0.2400 
 17 C        1.5900     3.5560     0.2350 C.3   1 <1>  -0.1600 
 18 C       -0.1750    -2.0070     1.0700 C.3   1 <1>   0.0400 
 19 C        2.9230     3.7310    -0.4990 C.3   1 <1>  -0.2400 
 20 H       -1.9770    -0.0730     1.5430 H     1 <1>   0.0800 
 21 H       -4.7060     2.4680     1.3610 H     1 <1>   0.0800 
 22 H       -3.5830     1.7710     2.4890 H     1 <1>   0.0800 
 23 H        0.4610     4.8630    -1.0450 H     1 <1>   0.0800 
 24 H        0.4160     3.1940    -1.5340 H     1 <1>   0.0800 
 25 H       -4.2910    -0.6130     2.3020 H     1 <1>   0.0800 
 26 H       -4.7350    -1.2740     0.7500 H     1 <1>   0.0800 
 27 H       -5.6580     0.0320     1.4330 H     1 <1>   0.0800 
 28 H       -3.7250     1.6020    -1.3510 H     1 <1>   0.0800 
 29 H       -5.3120     1.4640    -0.6550 H     1 <1>   0.0800 
 30 H       -4.5490     0.0700    -1.3280 H     1 <1>   0.0800 
 31 H        1.5180     2.5470     0.6010 H     1 <1>   0.0800 
 32 H        1.5570     4.2220     1.0810 H     1 <1>   0.0800 
 33 H        0.2590    -2.9750     1.2480 H     1 <1>   0.0800 
 34 H       -0.3660    -1.5200     2.0090 H     1 <1>   0.0800 
 35 H        0.4930    -1.4230     0.4610 H     1 <1>   0.0800 
 36 H        2.9830     3.0560    -1.3350 H     1 <1>   0.0800 
 37 H        3.7410     3.5210     0.1680 H     1 <1>   0.0800 
 38 H        3.0270     4.7400    -0.8590 H     1 <1>   0.0800 
@<TRIPOS>BOND
  1   1   2  2   
  2   2   3  1   
  3   2   4  1   
  4   3   5  2   
  5   3   6  1   
  6   4   7  1   
  7   4   8  1   
  8   4  20  1   
  9   5   9  1   
 10   5  10  1   
 11   6  11  2   
 12   6  12  1   
 13   7  13  2   
 14   7  14  1   
 15   8  10  1   
 16   8  15  1   
 17   8  16  1   
 18   9  11  1   
 19  10  21  1   
 20  10  22  1   
 21  12  17  1   
 22  12  23  1   
 23  12  24  1   
 24  14  18  1   
 25  15  25  1   
 26  15  26  1   
 27  15  27  1   
 28  16  28  1   
 29  16  29  1   
 30  16  30  1   
 31  17  19  1   
 32  17  31  1   
 33  17  32  1   
 34  18  33  1   
 35  18  34  1   
 36  18  35  1   
 37  19  36  1   
 38  19  37  1   
 39  19  38  1   
@<TRIPOS>SUBSTRUCTURE
  1 ****   2 GROUP 4 **** **** 0

# MOE 2024.06 (io_trps.svl 2023.06)
