@<TRIPOS>MOLECULE
NONAME
50 53 1 0 0 
SMALL
USER_CHARGES


@<TRIPOS>ATOM
  1 O      -10.0520    -2.9040     0.7270 O.2   1 <1>  -0.5700 
  2 C      -10.3290    -1.8230     0.3000 C.2   1 <1>   0.4480 
  3 C      -11.7870    -1.3650     0.0730 C.3   1 <1>   0.0610 
  4 C       -9.1980    -0.8660    -0.0420 C.3   1 <1>  -0.0990 
  5 C      -12.0380     0.0550     0.6470 C.3   1 <1>  -0.1600 
  6 C      -12.1190    -1.3510    -1.4400 C.3   1 <1>  -0.1600 
  7 C      -12.7760    -2.3380     0.7690 C.3   1 <1>  -0.1600 
  8 C       -7.8690    -1.6260    -0.0100 C.3   1 <1>   0.3430 
  9 C      -13.4950     0.4950     0.4130 C.3   1 <1>  -0.0800 
 10 C      -13.5770    -0.9140    -1.6800 C.3   1 <1>  -0.0800 
 11 C      -14.2370    -1.9100     0.5400 C.3   1 <1>  -0.0800 
 12 N       -6.7150    -0.7570    -0.3920 N.4   1 <1>  -0.9590 
 13 C      -13.7860     0.4970    -1.0990 C.3   1 <1>  -0.1600 
 14 C      -14.4430    -0.4970     1.1110 C.3   1 <1>  -0.1600 
 15 C      -14.5250    -1.8970    -0.9720 C.3   1 <1>  -0.1600 
 16 C       -5.5250    -1.6100    -0.6870 C.3   1 <1>   0.3430 
 17 C       -6.3970     0.2600     0.6580 C.3   1 <1>   0.3430 
 18 C       -4.3820    -0.7380    -1.2110 C.3   1 <1>  -0.1600 
 19 C       -5.2740     1.1750     0.1660 C.3   1 <1>  -0.1600 
 20 C       -4.0220     0.3790    -0.2240 C.3   1 <1>  -0.1600 
 21 H       -9.1920    -0.0770     0.6860 H     1 <1>   0.0800 
 22 H       -9.3590    -0.4580    -1.0210 H     1 <1>   0.0800 
 23 H      -11.3920     0.7740     0.1770 H     1 <1>   0.0800 
 24 H      -11.8300     0.0630     1.7030 H     1 <1>   0.0800 
 25 H      -11.9720    -2.3360    -1.8510 H     1 <1>   0.0800 
 26 H      -11.4680    -0.6770    -1.9650 H     1 <1>   0.0800 
 27 H      -12.5740    -2.3710     1.8250 H     1 <1>   0.0800 
 28 H      -12.6380    -3.3360     0.3860 H     1 <1>   0.0800 
 29 H       -7.9400    -2.4550    -0.6970 H     1 <1>   0.0800 
 30 H       -7.7150    -2.0360     0.9750 H     1 <1>   0.0800 
 31 H      -13.6480     1.4830     0.8130 H     1 <1>   0.0800 
 32 H      -13.7880    -0.9070    -2.7360 H     1 <1>   0.0800 
 33 H      -14.9000    -2.6020     1.0310 H     1 <1>   0.0800 
 34 H       -6.9430    -0.2550    -1.2590 H     1 <1>   0.4500 
 35 H      -13.1410     1.1990    -1.5980 H     1 <1>   0.0800 
 36 H      -14.8010     0.8120    -1.2720 H     1 <1>   0.0800 
 37 H      -15.4640    -0.1910     0.9610 H     1 <1>   0.0800 
 38 H      -14.2560    -0.5000     2.1700 H     1 <1>   0.0800 
 39 H      -14.3970    -2.8870    -1.3760 H     1 <1>   0.0800 
 40 H      -15.5470    -1.6060    -1.1440 H     1 <1>   0.0800 
 41 H       -5.7760    -2.3530    -1.4270 H     1 <1>   0.0800 
 42 H       -5.2080    -2.1180     0.2090 H     1 <1>   0.0800 
 43 H       -6.0870    -0.2360     1.5640 H     1 <1>   0.0800 
 44 H       -7.2680     0.8560     0.8780 H     1 <1>   0.0800 
 45 H       -4.6600    -0.3150    -2.1610 H     1 <1>   0.0800 
 46 H       -3.5170    -1.3570    -1.3770 H     1 <1>   0.0800 
 47 H       -5.0210     1.8720     0.9470 H     1 <1>   0.0800 
 48 H       -5.6210     1.7490    -0.6750 H     1 <1>   0.0800 
 49 H       -3.2910     1.0370    -0.6650 H     1 <1>   0.0800 
 50 H       -3.5810    -0.0520     0.6600 H     1 <1>   0.0800 
@<TRIPOS>BOND
  1   1   2  2   
  2   2   3  1   
  3   2   4  1   
  4   3   5  1   
  5   3   6  1   
  6   3   7  1   
  7   4   8  1   
  8   4  21  1   
  9   4  22  1   
 10   5   9  1   
 11   5  23  1   
 12   5  24  1   
 13   6  10  1   
 14   6  25  1   
 15   6  26  1   
 16   7  11  1   
 17   7  27  1   
 18   7  28  1   
 19   8  12  1   
 20   8  29  1   
 21   8  30  1   
 22   9  13  1   
 23   9  14  1   
 24   9  31  1   
 25  10  13  1   
 26  10  15  1   
 27  10  32  1   
 28  11  14  1   
 29  11  15  1   
 30  11  33  1   
 31  12  16  1   
 32  12  17  1   
 33  12  34  1   
 34  13  35  1   
 35  13  36  1   
 36  14  37  1   
 37  14  38  1   
 38  15  39  1   
 39  15  40  1   
 40  16  18  1   
 41  16  41  1   
 42  16  42  1   
 43  17  19  1   
 44  17  43  1   
 45  17  44  1   
 46  18  20  1   
 47  18  45  1   
 48  18  46  1   
 49  19  20  1   
 50  19  47  1   
 51  19  48  1   
 52  20  49  1   
 53  20  50  1   
@<TRIPOS>SUBSTRUCTURE
  1 ****   4 GROUP 4 **** **** 0

# MOE 2024.06 (io_trps.svl 2023.06)
