@<TRIPOS>MOLECULE
NONAME
40 42 1 0 0 
SMALL
USER_CHARGES


@<TRIPOS>ATOM
  1 S       -0.3130     1.1950     0.2200 S.o2  1 <1>   1.2040 
  2 O       -1.1980     0.2380    -0.4050 O.2   1 <1>  -0.6500 
  3 O       -0.5670     1.6460     1.5690 O.2   1 <1>  -0.6500 
  4 C        1.3960     0.6120     0.0910 C.ar  1 <1>  -0.0090 
  5 C       -0.2910     2.6430    -0.8200 C.3   1 <1>  -0.1350 
  6 C        2.3830     1.0970     0.9420 C.ar  1 <1>  -0.1500 
  7 C        1.7670    -0.3180    -0.8860 C.ar  1 <1>  -0.1500 
  8 C        3.6790     0.6450     0.7810 C.ar  1 <1>   0.0400 
  9 C        3.0760    -0.7570    -1.0260 C.ar  1 <1>  -0.1500 
 10 S        5.1040     1.0820     1.6930 S.3   1 <1>  -0.0800 
 11 C        4.0600    -0.2690    -0.1800 C.ar  1 <1>   0.2270 
 12 C        6.0720    -0.0060     0.6880 C.2   1 <1>   0.4420 
 13 N        5.4020    -0.6180    -0.2130 N.2   1 <1>  -0.5650 
 14 N        7.4210    -0.1490     0.9000 N.am  1 <1>  -0.4940 
 15 C        8.3050     0.4710     1.7320 C.2   1 <1>   0.5690 
 16 O        8.0150     1.3610     2.4920 O.2   1 <1>  -0.5700 
 17 C        9.7540    -0.0150     1.6700 C.3   1 <1>   0.1710 
 18 N       10.1050    -0.6700     0.3780 N.3   1 <1>  -0.8100 
 19 C       11.3320    -1.4780     0.4740 C.3   1 <1>   0.1100 
 20 C       10.2030     0.3030    -0.7440 C.3   1 <1>   0.1100 
 21 C       11.6170    -2.2240    -0.8510 C.3   1 <1>   0.1200 
 22 C       11.1510    -0.1470    -1.8780 C.3   1 <1>   0.1200 
 23 O       11.1700    -1.5380    -1.9930 O.3   1 <1>  -0.5600 
 24 H       -1.2630     3.0950    -0.8360 H     1 <1>   0.0800 
 25 H       -0.0210     2.3790    -1.8240 H     1 <1>   0.0800 
 26 H        0.4130     3.3610    -0.4470 H     1 <1>   0.0800 
 27 H        2.1510     1.8080     1.7170 H     1 <1>   0.1500 
 28 H        1.0110    -0.7100    -1.5480 H     1 <1>   0.1500 
 29 H        3.3480    -1.4750    -1.7800 H     1 <1>   0.1500 
 30 H        7.8810    -0.8220     0.2810 H     1 <1>   0.3700 
 31 H        9.8810    -0.7210     2.4710 H     1 <1>   0.0800 
 32 H       10.4120     0.8160     1.8560 H     1 <1>   0.0800 
 33 H       11.2380    -2.2010     1.2660 H     1 <1>   0.0800 
 34 H       12.1670    -0.8400     0.7070 H     1 <1>   0.0800 
 35 H       10.5450     1.2580    -0.3840 H     1 <1>   0.0800 
 36 H        9.2210     0.4510    -1.1600 H     1 <1>   0.0800 
 37 H       11.1170    -3.1760    -0.8430 H     1 <1>   0.0800 
 38 H       12.6730    -2.3990    -0.9570 H     1 <1>   0.0800 
 39 H       12.1550     0.1880    -1.6870 H     1 <1>   0.0800 
 40 H       10.8290     0.2610    -2.8190 H     1 <1>   0.0800 
@<TRIPOS>BOND
  1   1   2  2   
  2   1   3  2   
  3   1   4  1   
  4   1   5  1   
  5   4   6  ar  
  6   4   7  ar  
  7   5  24  1   
  8   5  25  1   
  9   5  26  1   
 10   6   8  ar  
 11   6  27  1   
 12   7   9  ar  
 13   7  28  1   
 14   8  10  1   
 15   8  11  ar  
 16   9  11  ar  
 17   9  29  1   
 18  10  12  1   
 19  11  13  1   
 20  12  13  2   
 21  12  14  1   
 22  14  15  am  
 23  14  30  1   
 24  15  16  2   
 25  15  17  1   
 26  17  18  1   
 27  17  31  1   
 28  17  32  1   
 29  18  19  1   
 30  18  20  1   
 31  19  21  1   
 32  19  33  1   
 33  19  34  1   
 34  20  22  1   
 35  20  35  1   
 36  20  36  1   
 37  21  23  1   
 38  21  37  1   
 39  21  38  1   
 40  22  23  1   
 41  22  39  1   
 42  22  40  1   
@<TRIPOS>SUBSTRUCTURE
  1 ****  12 GROUP 4 **** **** 0

# MOE 2024.06 (io_trps.svl 2023.06)
