@<TRIPOS>MOLECULE
NONAME
34 35 1 0 0 
SMALL
USER_CHARGES


@<TRIPOS>ATOM
  1 S       -1.1410     1.0770     3.0780 S.3   1 <1>   0.1810 
  2 N       -2.6880     0.7920     2.4240 N.2   1 <1>  -0.5100 
  3 C       -0.5050     1.8020     1.6270 C.2   1 <1>   0.1040 
  4 C       -2.6970     1.2150     1.2220 C.2   1 <1>   0.1080 
  5 N        0.8000     2.2640     1.5520 N.am  1 <1>  -0.4940 
  6 C       -1.4950     1.8070     0.6900 C.2   1 <1>  -0.0860 
  7 C       -3.9830     1.0600     0.4280 C.3   1 <1>  -0.0590 
  8 C        1.8230     2.3060     2.4670 C.2   1 <1>   0.5690 
  9 C       -1.3110     2.3390    -0.6330 C.2   1 <1>   0.8060 
 10 O        1.7200     1.9000     3.5970 O.2   1 <1>  -0.5700 
 11 C        3.1650     2.8770     2.0360 C.3   1 <1>   0.0810 
 12 O       -0.2290     2.7290    -1.0360 O.2   1 <1>  -0.5700 
 13 O       -2.3530     2.4230    -1.4660 O.3   1 <1>  -0.4300 
 14 C        3.1280     3.5600     0.6760 C.2   1 <1>  -0.1400 
 15 C       -2.2260     2.9470    -2.7690 C.3   1 <1>   0.1200 
 16 S        2.2870     5.1000     0.5660 S.3   1 <1>  -0.0800 
 17 C        3.6250     3.2080    -0.5240 C.2   1 <1>  -0.1500 
 18 C       -3.5980     2.8930    -3.4340 C.3   1 <1>  -0.2400 
 19 C        2.6360     5.2170    -1.1490 C.2   1 <1>  -0.1100 
 20 C        3.3430     4.1510    -1.5630 C.2   1 <1>  -0.1500 
 21 H        1.0490     2.6780     0.6420 H     1 <1>   0.3700 
 22 H       -4.7270     0.5570     1.0210 H     1 <1>   0.0800 
 23 H       -3.8070     0.4760    -0.4560 H     1 <1>   0.0800 
 24 H       -4.3680     2.0250     0.1540 H     1 <1>   0.0800 
 25 H        3.8730     2.0700     2.0090 H     1 <1>   0.0800 
 26 H        3.4960     3.5800     2.7790 H     1 <1>   0.0800 
 27 H       -1.5110     2.3510    -3.3110 H     1 <1>   0.0800 
 28 H       -1.8710     3.9620    -2.6990 H     1 <1>   0.0800 
 29 H        4.1840     2.3130    -0.7370 H     1 <1>   0.1500 
 30 H       -3.9440     1.8760    -3.4910 H     1 <1>   0.0800 
 31 H       -3.5330     3.2880    -4.4320 H     1 <1>   0.0800 
 32 H       -4.3040     3.4840    -2.8780 H     1 <1>   0.0800 
 33 H        2.2690     6.0830    -1.6710 H     1 <1>   0.1500 
 34 H        3.6840     3.9810    -2.5700 H     1 <1>   0.1500 
@<TRIPOS>BOND
  1   1   2  1   
  2   1   3  1   
  3   2   4  2   
  4   3   5  1   
  5   3   6  2   
  6   4   6  1   
  7   4   7  1   
  8   5   8  am  
  9   5  21  1   
 10   6   9  1   
 11   7  22  1   
 12   7  23  1   
 13   7  24  1   
 14   8  10  2   
 15   8  11  1   
 16   9  12  2   
 17   9  13  1   
 18  11  14  1   
 19  11  25  1   
 20  11  26  1   
 21  13  15  1   
 22  14  16  1   
 23  14  17  2   
 24  15  18  1   
 25  15  27  1   
 26  15  28  1   
 27  16  19  1   
 28  17  20  1   
 29  17  29  1   
 30  18  30  1   
 31  18  31  1   
 32  18  32  1   
 33  19  20  2   
 34  19  33  1   
 35  20  34  1   
@<TRIPOS>SUBSTRUCTURE
  1 ****   5 GROUP 4 **** **** 0

# MOE 2024.06 (io_trps.svl 2023.06)
