@<TRIPOS>MOLECULE
NONAME
47 49 1 0 0 
SMALL
USER_CHARGES


@<TRIPOS>ATOM
  1 S        0.1830     0.1830     0.0440 S.o2  1 <1>   1.5760 
  2 O       -0.0230    -0.6150    -1.1430 O.2   1 <1>  -0.6500 
  3 O        0.4190    -0.4460     1.3240 O.2   1 <1>  -0.6500 
  4 N       -1.1020     1.2620     0.1960 N.am  1 <1>  -0.8490 
  5 N        1.4400     1.2660    -0.2470 N.am  1 <1>  -0.8490 
  6 C       -2.2900     0.5910     0.7350 C.3   1 <1>   0.1960 
  7 C       -1.4430     1.8950    -1.0870 C.3   1 <1>   0.1960 
  8 C        1.7430     2.0800     0.9470 C.3   1 <1>   0.1960 
  9 C        2.6430     0.5480    -0.6970 C.3   1 <1>   0.1960 
 10 C       -3.4730     1.5700     0.8510 C.3   1 <1>   0.1200 
 11 C       -2.6390     2.8500    -0.9270 C.3   1 <1>   0.1200 
 12 C        2.8760     3.0860     0.6840 C.3   1 <1>   0.1400 
 13 C        3.8020     1.5110    -1.0040 C.3   1 <1>   0.1400 
 14 O       -3.7390     2.1740    -0.3840 O.3   1 <1>  -0.5600 
 15 N        4.0840     2.3870     0.1670 N.am  1 <1>  -0.6600 
 16 C        5.3380     2.8530     0.4490 C.2   1 <1>   0.6900 
 17 O        5.4890     4.0170     0.7720 O.2   1 <1>  -0.5700 
 18 N        6.4220     2.0210     0.3720 N.am  1 <1>  -0.6600 
 19 C        7.7990     2.5740     0.2620 C.3   1 <1>   0.1400 
 20 C        6.3970     0.6320     0.9090 C.3   1 <1>   0.1400 
 21 C        8.7180     1.5820    -0.4710 C.3   1 <1>   0.1200 
 22 C        7.3770    -0.2570     0.1280 C.3   1 <1>   0.1200 
 23 O        8.6570     0.3100     0.1180 O.3   1 <1>  -0.5600 
 24 H       -2.0680     0.1940     1.7120 H     1 <1>   0.0800 
 25 H       -2.5740    -0.2310     0.0980 H     1 <1>   0.0800 
 26 H       -1.6930     1.1460    -1.8220 H     1 <1>   0.0800 
 27 H       -0.5960     2.4500    -1.4540 H     1 <1>   0.0800 
 28 H        2.0310     1.4440     1.7670 H     1 <1>   0.0800 
 29 H        0.8630     2.6240     1.2460 H     1 <1>   0.0800 
 30 H        2.4150    -0.0090    -1.5900 H     1 <1>   0.0800 
 31 H        2.9550    -0.1530     0.0600 H     1 <1>   0.0800 
 32 H       -3.2540     2.3400     1.5710 H     1 <1>   0.0800 
 33 H       -4.3610     1.0480     1.1600 H     1 <1>   0.0800 
 34 H       -2.9340     3.2420    -1.8830 H     1 <1>   0.0800 
 35 H       -2.3820     3.6690    -0.2780 H     1 <1>   0.0800 
 36 H        3.1170     3.6020     1.5970 H     1 <1>   0.0800 
 37 H        2.5510     3.8150    -0.0380 H     1 <1>   0.0800 
 38 H        3.5300     2.1280    -1.8430 H     1 <1>   0.0800 
 39 H        4.6790     0.9530    -1.2780 H     1 <1>   0.0800 
 40 H        8.1860     2.7640     1.2470 H     1 <1>   0.0800 
 41 H        7.7750     3.5080    -0.2730 H     1 <1>   0.0800 
 42 H        5.4060     0.2210     0.8560 H     1 <1>   0.0800 
 43 H        6.6900     0.6520     1.9450 H     1 <1>   0.0800 
 44 H        9.7380     1.9170    -0.4220 H     1 <1>   0.0800 
 45 H        8.4310     1.4960    -1.5040 H     1 <1>   0.0800 
 46 H        7.0480    -0.3830    -0.8880 H     1 <1>   0.0800 
 47 H        7.4510    -1.2250     0.5920 H     1 <1>   0.0800 
@<TRIPOS>BOND
  1   1   2  2   
  2   1   3  2   
  3   1   4  am  
  4   1   5  am  
  5   4   6  1   
  6   4   7  1   
  7   5   8  1   
  8   5   9  1   
  9   6  10  1   
 10   6  24  1   
 11   6  25  1   
 12   7  11  1   
 13   7  26  1   
 14   7  27  1   
 15   8  12  1   
 16   8  28  1   
 17   8  29  1   
 18   9  13  1   
 19   9  30  1   
 20   9  31  1   
 21  10  14  1   
 22  10  32  1   
 23  10  33  1   
 24  11  14  1   
 25  11  34  1   
 26  11  35  1   
 27  12  15  1   
 28  12  36  1   
 29  12  37  1   
 30  13  15  1   
 31  13  38  1   
 32  13  39  1   
 33  15  16  am  
 34  16  17  2   
 35  16  18  am  
 36  18  19  1   
 37  18  20  1   
 38  19  21  1   
 39  19  40  1   
 40  19  41  1   
 41  20  22  1   
 42  20  42  1   
 43  20  43  1   
 44  21  23  1   
 45  21  44  1   
 46  21  45  1   
 47  22  23  1   
 48  22  46  1   
 49  22  47  1   
@<TRIPOS>SUBSTRUCTURE
  1 ****   5 GROUP 4 **** **** 0

# MOE 2024.06 (io_trps.svl 2023.06)
