@<TRIPOS>MOLECULE
NONAME
34 36 1 0 0 
SMALL
USER_CHARGES


@<TRIPOS>ATOM
  1 S        0.0490    -0.7450     0.4090 S.3   1 <1>  -0.2860 
  2 C       -1.7250    -0.4560     0.4580 C.2   1 <1>   0.2420 
  3 C        0.8620     0.9160     0.1350 C.3   1 <1>  -0.0360 
  4 N       -2.5430    -1.2920     0.9940 N.2   1 <1>  -0.5650 
  5 N       -2.2860     0.6560    -0.0720 N.pl3 1 <1>   0.0330 
  6 C        0.5730     1.5240    -1.2230 C.2   1 <1>   0.9060 
  7 C       -3.7550    -0.6940     0.8140 C.ar  1 <1>   0.2270 
  8 C       -3.6200     0.5170     0.1540 C.ar  1 <1>  -0.1520 
  9 O       -0.4710     2.1780    -1.3600 O.co2 1 <1>  -0.9000 
 10 O        1.3920     1.3900    -2.1340 O.co2 1 <1>  -0.9000 
 11 C       -5.0200    -1.1370     1.1910 C.ar  1 <1>  -0.1500 
 12 C       -4.7220     1.3180    -0.1510 C.ar  1 <1>  -0.1500 
 13 C       -6.0970    -0.3400     0.8880 C.ar  1 <1>   0.1900 
 14 C       -5.9890     0.9030     0.2150 C.ar  1 <1>   0.1000 
 15 F       -7.2860    -0.7700     1.2470 F     1 <1>  -0.1900 
 16 N       -7.0770     1.7310    -0.1040 N.pl3 1 <1>  -0.8380 
 17 C       -8.0230     1.2010    -1.1280 C.3   1 <1>   0.2090 
 18 C       -7.8150     2.3240     1.0490 C.3   1 <1>   0.2090 
 19 C       -9.0490     2.2790    -1.5230 C.3   1 <1>   0.1200 
 20 C       -8.8500     3.3510     0.5540 C.3   1 <1>   0.1200 
 21 O       -9.7120     2.7830    -0.3950 O.3   1 <1>  -0.5600 
 22 H        1.9190     0.7640     0.2320 H     1 <1>   0.0800 
 23 H        0.5130     1.5730     0.9060 H     1 <1>   0.0800 
 24 H       -1.7910     1.3880    -0.6110 H     1 <1>   0.2700 
 25 H       -5.1240    -2.0740     1.7010 H     1 <1>   0.1500 
 26 H       -4.5870     2.2510    -0.6670 H     1 <1>   0.1500 
 27 H       -8.5420     0.3430    -0.7390 H     1 <1>   0.0800 
 28 H       -7.4690     0.8940    -1.9980 H     1 <1>   0.0800 
 29 H       -7.1160     2.8060     1.7090 H     1 <1>   0.0800 
 30 H       -8.3210     1.5500     1.6000 H     1 <1>   0.0800 
 31 H       -9.7900     1.8610    -2.1810 H     1 <1>   0.0800 
 32 H       -8.5570     3.0930    -2.0250 H     1 <1>   0.0800 
 33 H       -8.3520     4.1930     0.1060 H     1 <1>   0.0800 
 34 H       -9.4490     3.6990     1.3760 H     1 <1>   0.0800 
@<TRIPOS>BOND
  1   1   2  1   
  2   1   3  1   
  3   2   4  2   
  4   2   5  1   
  5   3   6  1   
  6   3  22  1   
  7   3  23  1   
  8   4   7  1   
  9   5   8  1   
 10   5  24  1   
 11   6   9  ar  
 12   6  10  ar  
 13   7   8  ar  
 14   7  11  ar  
 15   8  12  ar  
 16  11  13  ar  
 17  11  25  1   
 18  12  14  ar  
 19  12  26  1   
 20  13  14  ar  
 21  13  15  1   
 22  14  16  1   
 23  16  17  1   
 24  16  18  1   
 25  17  19  1   
 26  17  27  1   
 27  17  28  1   
 28  18  20  1   
 29  18  29  1   
 30  18  30  1   
 31  19  21  1   
 32  19  31  1   
 33  19  32  1   
 34  20  21  1   
 35  20  33  1   
 36  20  34  1   
@<TRIPOS>SUBSTRUCTURE
  1 ****  12 GROUP 4 **** **** 0

# MOE 2024.06 (io_trps.svl 2023.06)
