@<TRIPOS>MOLECULE
NONAME
39 40 1 0 0 
SMALL
USER_CHARGES


@<TRIPOS>ATOM
  1 CL      -0.1050    -0.4110     1.2390 Cl    1 <1>  -0.1770 
  2 C       -1.6440    -0.9690     0.6390 C.ar  1 <1>   0.1770 
  3 C       -2.2100    -0.3490    -0.4580 C.ar  1 <1>  -0.1500 
  4 C       -2.2750    -2.0250     1.2680 C.ar  1 <1>  -0.1500 
  5 C       -3.4350    -0.7900    -0.9310 C.ar  1 <1>  -0.1500 
  6 C       -3.5000    -2.4650     0.7940 C.ar  1 <1>  -0.1500 
  7 C       -4.0880    -1.8460    -0.3040 C.ar  1 <1>  -0.1430 
  8 C       -5.4360    -2.3190    -0.8170 C.3   1 <1>   0.4870 
  9 N       -6.4960    -1.8370     0.1090 N.4   1 <1>  -0.9590 
 10 C       -7.8300    -2.4650    -0.2050 C.3   1 <1>   0.3430 
 11 C       -6.5730    -0.3280     0.1230 C.3   1 <1>   0.3430 
 12 C       -8.9510    -1.9580     0.7240 C.3   1 <1>   0.1400 
 13 C       -7.6820     0.1890     1.0580 C.3   1 <1>   0.1400 
 14 N       -8.9820    -0.4670     0.7300 N.am  1 <1>  -0.6600 
 15 C      -10.0690     0.2660     0.3290 C.2   1 <1>   0.7800 
 16 O      -10.0220     1.4720     0.2040 O.2   1 <1>  -0.5700 
 17 O      -11.1900    -0.3950     0.0450 O.3   1 <1>  -0.4300 
 18 C      -12.3510     0.2940    -0.3610 C.3   1 <1>   0.1200 
 19 C      -13.4500    -0.7340    -0.6090 C.3   1 <1>  -0.2400 
 20 H       -1.6900     0.4660    -0.9310 H     1 <1>   0.1500 
 21 H       -1.8040    -2.4930     2.1160 H     1 <1>   0.1500 
 22 H       -3.8620    -0.3030    -1.7920 H     1 <1>   0.1500 
 23 H       -3.9760    -3.2950     1.2880 H     1 <1>   0.1500 
 24 H       -5.4390    -3.3970    -0.8580 H     1 <1>   0.0800 
 25 H       -5.6060    -1.9400    -1.8120 H     1 <1>   0.0800 
 26 H       -6.2150    -2.1260     1.0550 H     1 <1>   0.4500 
 27 H       -7.7630    -3.5370    -0.1190 H     1 <1>   0.0800 
 28 H       -8.1080    -2.2330    -1.2210 H     1 <1>   0.0800 
 29 H       -6.7750     0.0350    -0.8720 H     1 <1>   0.0800 
 30 H       -5.6290     0.0870     0.4390 H     1 <1>   0.0800 
 31 H       -8.7870    -2.3130     1.7260 H     1 <1>   0.0800 
 32 H       -9.8930    -2.3600     0.3900 H     1 <1>   0.0800 
 33 H       -7.7580     1.2580     0.9560 H     1 <1>   0.0800 
 34 H       -7.4260    -0.0190     2.0820 H     1 <1>   0.0800 
 35 H      -12.1280     0.8460    -1.2590 H     1 <1>   0.0800 
 36 H      -12.6330     0.9790     0.4220 H     1 <1>   0.0800 
 37 H      -13.1540    -1.4160    -1.3860 H     1 <1>   0.0800 
 38 H      -14.3490    -0.2330    -0.9190 H     1 <1>   0.0800 
 39 H      -13.6580    -1.2810     0.2930 H     1 <1>   0.0800 
@<TRIPOS>BOND
  1   1   2  1   
  2   2   3  ar  
  3   2   4  ar  
  4   3   5  ar  
  5   3  20  1   
  6   4   6  ar  
  7   4  21  1   
  8   5   7  ar  
  9   5  22  1   
 10   6   7  ar  
 11   6  23  1   
 12   7   8  1   
 13   8   9  1   
 14   8  24  1   
 15   8  25  1   
 16   9  10  1   
 17   9  11  1   
 18   9  26  1   
 19  10  12  1   
 20  10  27  1   
 21  10  28  1   
 22  11  13  1   
 23  11  29  1   
 24  11  30  1   
 25  12  14  1   
 26  12  31  1   
 27  12  32  1   
 28  13  14  1   
 29  13  33  1   
 30  13  34  1   
 31  14  15  am  
 32  15  16  2   
 33  15  17  1   
 34  17  18  1   
 35  18  19  1   
 36  18  35  1   
 37  18  36  1   
 38  19  37  1   
 39  19  38  1   
 40  19  39  1   
@<TRIPOS>SUBSTRUCTURE
  1 ****  11 GROUP 4 **** **** 0

# MOE 2024.06 (io_trps.svl 2023.06)
