@<TRIPOS>MOLECULE
NONAME
43 44 1 0 0 
SMALL
USER_CHARGES


@<TRIPOS>ATOM
  1 O        0.5520     0.8320     2.2090 O.2   1 <1>  -0.5700 
  2 C        0.7090     1.9020     1.6540 C.2   1 <1>   0.5440 
  3 N        1.9790     2.4510     1.6470 N.am  1 <1>  -0.6600 
  4 C       -0.4240     2.5550     1.0380 C.ar  1 <1>   0.0860 
  5 C        3.1270     1.7240     2.2620 C.3   1 <1>   0.1400 
  6 C        2.4040     3.5080     0.6860 C.3   1 <1>   0.1400 
  7 C       -0.6180     2.5610    -0.3490 C.ar  1 <1>   0.0830 
  8 C       -1.3710     3.1940     1.8380 C.ar  1 <1>  -0.1500 
  9 C        3.9650     1.0710     1.1500 C.3   1 <1>   0.3430 
 10 C        3.2690     2.8760    -0.4250 C.3   1 <1>   0.3430 
 11 O        0.2970     1.9280    -1.1290 O.3   1 <1>  -0.3630 
 12 C       -1.7210     3.2070    -0.8970 C.ar  1 <1>  -0.1500 
 13 C       -2.4670     3.8310     1.2910 C.ar  1 <1>  -0.1500 
 14 N        4.4330     2.0790     0.1260 N.4   1 <1>  -0.9590 
 15 C       -0.0680     1.4320    -2.4020 C.3   1 <1>   0.0400 
 16 C       -2.6460     3.8420    -0.0890 C.ar  1 <1>   0.0830 
 17 C        5.2000     1.3980    -0.9480 C.3   1 <1>   0.3430 
 18 O       -3.6860     4.4450    -0.7070 O.3   1 <1>  -0.3620 
 19 C        5.9780     2.4280    -1.7590 C.3   1 <1>  -0.2400 
 20 C       -4.7140     5.0840     0.0180 C.3   1 <1>   0.0400 
 21 H        2.7820     0.9650     2.9430 H     1 <1>   0.0800 
 22 H        3.7300     2.4120     2.8280 H     1 <1>   0.0800 
 23 H        2.9690     4.2600     1.2080 H     1 <1>   0.0800 
 24 H        1.5530     3.9950     0.2450 H     1 <1>   0.0800 
 25 H       -1.2400     3.1790     2.9060 H     1 <1>   0.1500 
 26 H        3.3550     0.3220     0.6710 H     1 <1>   0.0800 
 27 H        4.8130     0.5750     1.5930 H     1 <1>   0.0800 
 28 H        3.6300     3.6580    -1.0710 H     1 <1>   0.0800 
 29 H        2.6390     2.2300    -1.0130 H     1 <1>   0.0800 
 30 H       -1.8890     3.2370    -1.9570 H     1 <1>   0.1500 
 31 H       -3.1710     4.3100     1.9470 H     1 <1>   0.1500 
 32 H        5.0650     2.7340     0.6030 H     1 <1>   0.4500 
 33 H        0.7170     0.7870    -2.7530 H     1 <1>   0.0800 
 34 H       -0.1940     2.2570    -3.0810 H     1 <1>   0.0800 
 35 H       -0.9830     0.8710    -2.3100 H     1 <1>   0.0800 
 36 H        4.5310     0.8460    -1.5910 H     1 <1>   0.0800 
 37 H        5.8970     0.7020    -0.5100 H     1 <1>   0.0800 
 38 H        5.3210     3.0870    -2.2970 H     1 <1>   0.0800 
 39 H        6.5860     1.9150    -2.4840 H     1 <1>   0.0800 
 40 H        6.6330     3.0010    -1.1260 H     1 <1>   0.0800 
 41 H       -5.4290     5.4690    -0.6870 H     1 <1>   0.0800 
 42 H       -4.2900     5.8930     0.5860 H     1 <1>   0.0800 
 43 H       -5.1870     4.3650     0.6620 H     1 <1>   0.0800 
@<TRIPOS>BOND
  1   1   2  2   
  2   2   3  am  
  3   2   4  1   
  4   3   5  1   
  5   3   6  1   
  6   4   7  ar  
  7   4   8  ar  
  8   5   9  1   
  9   5  21  1   
 10   5  22  1   
 11   6  10  1   
 12   6  23  1   
 13   6  24  1   
 14   7  11  1   
 15   7  12  ar  
 16   8  13  ar  
 17   8  25  1   
 18   9  14  1   
 19   9  26  1   
 20   9  27  1   
 21  10  14  1   
 22  10  28  1   
 23  10  29  1   
 24  11  15  1   
 25  12  16  ar  
 26  12  30  1   
 27  13  16  ar  
 28  13  31  1   
 29  14  17  1   
 30  14  32  1   
 31  15  33  1   
 32  15  34  1   
 33  15  35  1   
 34  16  18  1   
 35  17  19  1   
 36  17  36  1   
 37  17  37  1   
 38  18  20  1   
 39  19  38  1   
 40  19  39  1   
 41  19  40  1   
 42  20  41  1   
 43  20  42  1   
 44  20  43  1   
@<TRIPOS>SUBSTRUCTURE
  1 ****   4 GROUP 4 **** **** 0

# MOE 2024.06 (io_trps.svl 2023.06)
