@<TRIPOS>MOLECULE
NONAME
41 43 1 0 0 
SMALL
USER_CHARGES


@<TRIPOS>ATOM
  1 O        0.6890    -0.6360    -0.5930 O.2   1 <1>  -0.5700 
  2 C        0.6740    -1.8390    -0.5350 C.2   1 <1>   0.5690 
  3 N        1.8300    -2.5710    -0.6310 N.am  1 <1>  -0.6600 
  4 C       -0.6620    -2.5140    -0.3300 C.3   1 <1>  -0.1790 
  5 C        3.1210    -1.9050    -0.9890 C.3   1 <1>   0.1400 
  6 C        1.9700    -4.0120    -0.2650 C.3   1 <1>   0.1400 
  7 C        4.1400    -2.0680     0.1490 C.3   1 <1>   0.3430 
  8 C        3.0150    -4.1840     0.8580 C.3   1 <1>   0.3430 
  9 N        4.3240    -3.5170     0.5310 N.4   1 <1>  -0.9590 
 10 C        5.3230    -3.6650     1.6260 C.3   1 <1>   0.4860 
 11 C        6.6660    -3.2160     1.0890 C.ar  1 <1>  -0.1440 
 12 C        7.3470    -4.0110     0.1320 C.ar  1 <1>   0.0000 
 13 C        7.1890    -2.0230     1.5170 C.ar  1 <1>  -0.1500 
 14 C        8.5440    -3.5030    -0.4240 C.ar  1 <1>   0.0000 
 15 C        6.9090    -5.2860    -0.3030 C.ar  1 <1>  -0.1500 
 16 C        8.3930    -1.5480     0.9900 C.ar  1 <1>  -0.1500 
 17 C        9.0470    -2.2710     0.0350 C.ar  1 <1>  -0.1500 
 18 C        9.2090    -4.2440    -1.4220 C.ar  1 <1>  -0.1500 
 19 C        7.5800    -5.9860    -1.2670 C.ar  1 <1>  -0.1500 
 20 C        8.7390    -5.4560    -1.8400 C.ar  1 <1>  -0.1500 
 21 H       -0.7910    -3.3060    -1.0440 H     1 <1>   0.0800 
 22 H       -1.4510    -1.7980    -0.4750 H     1 <1>   0.0800 
 23 H       -0.7320    -2.9000     0.6680 H     1 <1>   0.0800 
 24 H        2.9720    -0.8550    -1.1780 H     1 <1>   0.0800 
 25 H        3.5080    -2.3390    -1.8940 H     1 <1>   0.0800 
 26 H        2.2730    -4.5700    -1.1350 H     1 <1>   0.0800 
 27 H        1.0310    -4.4170     0.0690 H     1 <1>   0.0800 
 28 H        3.7920    -1.5050     0.9990 H     1 <1>   0.0800 
 29 H        5.0820    -1.6460    -0.1640 H     1 <1>   0.0800 
 30 H        3.1720    -5.2350     1.0340 H     1 <1>   0.0800 
 31 H        2.6110    -3.7560     1.7610 H     1 <1>   0.0800 
 32 H        4.7410    -3.9760    -0.2910 H     1 <1>   0.4500 
 33 H        5.3900    -4.6920     1.9440 H     1 <1>   0.0800 
 34 H        5.0400    -3.0610     2.4740 H     1 <1>   0.0800 
 35 H        6.6970    -1.4160     2.2590 H     1 <1>   0.1500 
 36 H        6.0400    -5.7390     0.1310 H     1 <1>   0.1500 
 37 H        8.7920    -0.6110     1.3410 H     1 <1>   0.1500 
 38 H        9.9700    -1.9070    -0.3820 H     1 <1>   0.1500 
 39 H       10.1070    -3.8360    -1.8510 H     1 <1>   0.1500 
 40 H        7.2410    -6.9540    -1.5960 H     1 <1>   0.1500 
 41 H        9.2540    -6.0170    -2.6010 H     1 <1>   0.1500 
@<TRIPOS>BOND
  1   1   2  2   
  2   2   3  am  
  3   2   4  1   
  4   3   5  1   
  5   3   6  1   
  6   4  21  1   
  7   4  22  1   
  8   4  23  1   
  9   5   7  1   
 10   5  24  1   
 11   5  25  1   
 12   6   8  1   
 13   6  26  1   
 14   6  27  1   
 15   7   9  1   
 16   7  28  1   
 17   7  29  1   
 18   8   9  1   
 19   8  30  1   
 20   8  31  1   
 21   9  10  1   
 22   9  32  1   
 23  10  11  1   
 24  10  33  1   
 25  10  34  1   
 26  11  12  ar  
 27  11  13  ar  
 28  12  14  ar  
 29  12  15  ar  
 30  13  16  ar  
 31  13  35  1   
 32  14  17  ar  
 33  14  18  ar  
 34  15  19  ar  
 35  15  36  1   
 36  16  17  ar  
 37  16  37  1   
 38  17  38  1   
 39  18  20  ar  
 40  18  39  1   
 41  19  20  ar  
 42  19  40  1   
 43  20  41  1   
@<TRIPOS>SUBSTRUCTURE
  1 ****   9 GROUP 4 **** **** 0

# MOE 2024.06 (io_trps.svl 2023.06)
