@<TRIPOS>MOLECULE
NONAME
36 37 1 0 0 
SMALL
USER_CHARGES


@<TRIPOS>ATOM
  1 O       -1.0940    -3.8730    -1.3340 O.2   1 <1>  -0.5700 
  2 C       -1.4590    -2.8640    -0.7770 C.2   1 <1>   0.5690 
  3 N       -0.5870    -1.9740    -0.2300 N.am  1 <1>  -0.5790 
  4 C       -2.9540    -2.5880    -0.6900 C.3   1 <1>   0.1810 
  5 C        0.8770    -2.0790    -0.2230 C.3   1 <1>   0.0490 
  6 O       -3.2200    -1.3670    -0.0110 O.3   1 <1>  -0.3630 
  7 C        1.6110    -1.5630     0.9700 C.3   1 <1>  -0.2000 
  8 C        1.6710    -0.8200    -0.3320 C.3   1 <1>  -0.2000 
  9 C       -4.4920    -0.9290     0.1660 C.ar  1 <1>   0.0820 
 10 C       -5.6170    -1.6220    -0.2710 C.ar  1 <1>  -0.1500 
 11 C       -4.6480     0.2820     0.8210 C.ar  1 <1>  -0.1500 
 12 C       -6.8840    -1.1040    -0.0540 C.ar  1 <1>  -0.1440 
 13 C       -5.9090     0.8070     1.0420 C.ar  1 <1>  -0.1440 
 14 C       -7.0220     0.1100     0.6010 C.ar  1 <1>  -0.1500 
 15 C       -8.1140    -1.8580    -0.5320 C.3   1 <1>  -0.0170 
 16 C       -6.0790     2.1360     1.7570 C.3   1 <1>  -0.0970 
 17 C       -8.4570    -1.4670    -1.9710 C.3   1 <1>  -0.2400 
 18 H       -0.9830    -1.1460     0.2220 H     1 <1>   0.3700 
 19 H       -3.4290    -3.3870    -0.1520 H     1 <1>   0.0800 
 20 H       -3.3580    -2.5200    -1.6830 H     1 <1>   0.0800 
 21 H        1.2430    -2.9680    -0.7130 H     1 <1>   0.1000 
 22 H        2.4920    -2.0860     1.2980 H     1 <1>   0.1000 
 23 H        1.0470    -1.1470     1.7860 H     1 <1>   0.1000 
 24 H        1.1500     0.1150    -0.4280 H     1 <1>   0.1000 
 25 H        2.5930    -0.8410    -0.8870 H     1 <1>   0.1000 
 26 H       -5.5310    -2.5610    -0.7820 H     1 <1>   0.1500 
 27 H       -3.7730     0.8090     1.1530 H     1 <1>   0.1500 
 28 H       -8.0040     0.5170     0.7670 H     1 <1>   0.1500 
 29 H       -8.9480    -1.6360     0.1110 H     1 <1>   0.0800 
 30 H       -7.9350    -2.9180    -0.4780 H     1 <1>   0.0800 
 31 H       -5.2060     2.3680     2.3390 H     1 <1>   0.0800 
 32 H       -6.9270     2.0970     2.4170 H     1 <1>   0.0800 
 33 H       -6.2340     2.9180     1.0360 H     1 <1>   0.0800 
 34 H       -8.6510    -0.4110    -2.0310 H     1 <1>   0.0800 
 35 H       -9.3310    -1.9990    -2.3020 H     1 <1>   0.0800 
 36 H       -7.6380    -1.7040    -2.6260 H     1 <1>   0.0800 
@<TRIPOS>BOND
  1   1   2  2   
  2   2   3  am  
  3   2   4  1   
  4   3   5  1   
  5   3  18  1   
  6   4   6  1   
  7   4  19  1   
  8   4  20  1   
  9   5   7  1   
 10   5   8  1   
 11   5  21  1   
 12   6   9  1   
 13   7   8  1   
 14   7  22  1   
 15   7  23  1   
 16   8  24  1   
 17   8  25  1   
 18   9  10  ar  
 19   9  11  ar  
 20  10  12  ar  
 21  10  26  1   
 22  11  13  ar  
 23  11  27  1   
 24  12  14  ar  
 25  12  15  1   
 26  13  14  ar  
 27  13  16  1   
 28  14  28  1   
 29  15  17  1   
 30  15  29  1   
 31  15  30  1   
 32  16  31  1   
 33  16  32  1   
 34  16  33  1   
 35  17  34  1   
 36  17  35  1   
 37  17  36  1   
@<TRIPOS>SUBSTRUCTURE
  1 ****   6 GROUP 4 **** **** 0

# MOE 2024.06 (io_trps.svl 2023.06)
