@<TRIPOS>MOLECULE
NONAME
35 35 1 0 0 
SMALL
USER_CHARGES


@<TRIPOS>ATOM
  1 CL      -0.5170     0.0410     0.7350 Cl    1 <1>  -0.1770 
  2 C       -0.4190    -1.6460     0.2750 C.ar  1 <1>   0.1770 
  3 C       -1.5830    -2.3720     0.0290 C.ar  1 <1>   0.0820 
  4 C        0.8350    -2.2220     0.1680 C.ar  1 <1>  -0.1500 
  5 O       -2.7770    -1.7340     0.1550 O.3   1 <1>  -0.3630 
  6 C       -1.4700    -3.7120    -0.3350 C.ar  1 <1>  -0.1500 
  7 C        0.9400    -3.5560    -0.1940 C.ar  1 <1>  -0.1500 
  8 C       -4.0030    -2.3930    -0.0760 C.3   1 <1>   0.1200 
  9 C       -0.2130    -4.2800    -0.4400 C.ar  1 <1>   0.1770 
 10 C       -5.1240    -1.3840     0.1550 C.3   1 <1>   0.1200 
 11 CL      -0.0770    -5.9590    -0.8950 Cl    1 <1>  -0.1770 
 12 O       -6.3510    -2.0130    -0.0720 O.3   1 <1>  -0.5600 
 13 C       -7.4540    -1.1880     0.1090 C.3   1 <1>   0.1200 
 14 C       -8.7080    -2.0290    -0.1630 C.3   1 <1>   0.3430 
 15 N       -9.9860    -1.2670     0.0530 N.4   1 <1>  -0.9590 
 16 C      -11.1510    -2.2050     0.0080 C.3   1 <1>   0.2630 
 17 C      -10.1690    -0.1710    -0.9520 C.3   1 <1>   0.2630 
 18 H        1.7120    -1.6320     0.3660 H     1 <1>   0.1500 
 19 H       -2.3260    -4.3260    -0.5380 H     1 <1>   0.1500 
 20 H        1.9010    -4.0300    -0.2850 H     1 <1>   0.1500 
 21 H       -4.0850    -3.2120     0.6150 H     1 <1>   0.0800 
 22 H       -4.0140    -2.7420    -1.0940 H     1 <1>   0.0800 
 23 H       -5.0220    -0.5600    -0.5300 H     1 <1>   0.0800 
 24 H       -5.0960    -1.0330     1.1730 H     1 <1>   0.0800 
 25 H       -7.3770    -0.3680    -0.5840 H     1 <1>   0.0800 
 26 H       -7.4460    -0.8310     1.1240 H     1 <1>   0.0800 
 27 H       -8.6850    -2.8790     0.4990 H     1 <1>   0.0800 
 28 H       -8.6690    -2.3910    -1.1770 H     1 <1>   0.0800 
 29 H       -9.9550    -0.8500     0.9970 H     1 <1>   0.4500 
 30 H      -11.2200    -2.6730    -0.9610 H     1 <1>   0.0800 
 31 H      -12.0690    -1.6740     0.2000 H     1 <1>   0.0800 
 32 H      -11.0400    -2.9760     0.7550 H     1 <1>   0.0800 
 33 H      -10.1890    -0.5770    -1.9500 H     1 <1>   0.0800 
 34 H       -9.3630     0.5420    -0.8860 H     1 <1>   0.0800 
 35 H      -11.0970     0.3490    -0.7730 H     1 <1>   0.0800 
@<TRIPOS>BOND
  1   1   2  1   
  2   2   3  ar  
  3   2   4  ar  
  4   3   5  1   
  5   3   6  ar  
  6   4   7  ar  
  7   4  18  1   
  8   5   8  1   
  9   6   9  ar  
 10   6  19  1   
 11   7   9  ar  
 12   7  20  1   
 13   8  10  1   
 14   8  21  1   
 15   8  22  1   
 16   9  11  1   
 17  10  12  1   
 18  10  23  1   
 19  10  24  1   
 20  12  13  1   
 21  13  14  1   
 22  13  25  1   
 23  13  26  1   
 24  14  15  1   
 25  14  27  1   
 26  14  28  1   
 27  15  16  1   
 28  15  17  1   
 29  15  29  1   
 30  16  30  1   
 31  16  31  1   
 32  16  32  1   
 33  17  33  1   
 34  17  34  1   
 35  17  35  1   
@<TRIPOS>SUBSTRUCTURE
  1 ****   8 GROUP 4 **** **** 0

# MOE 2024.06 (io_trps.svl 2023.06)
