@<TRIPOS>MOLECULE
NONAME
40 41 1 0 0 
SMALL
USER_CHARGES


@<TRIPOS>ATOM
  1 O       -1.6900    -0.2340    -1.2440 O.3   1 <1>  -0.3630 
  2 C       -1.1680    -1.4300    -0.8770 C.ar  1 <1>   0.0830 
  3 C       -2.8440     0.2100    -0.5570 C.3   1 <1>   0.2640 
  4 C       -0.6870    -1.6860     0.4120 C.ar  1 <1>   0.0830 
  5 C       -1.1170    -2.4280    -1.8340 C.ar  1 <1>  -0.1500 
  6 C       -2.6930     1.6880    -0.2290 C.ar  1 <1>  -0.1440 
  7 O       -0.6670    -0.7440     1.3870 O.3   1 <1>  -0.3630 
  8 C       -0.2110    -2.9460     0.7310 C.ar  1 <1>  -0.1500 
  9 C       -0.6250    -3.6820    -1.5090 C.ar  1 <1>  -0.1500 
 10 C       -2.5190     2.6190    -1.2420 C.ar  1 <1>  -0.1500 
 11 C       -2.7260     2.1190     1.0890 C.ar  1 <1>  -0.1500 
 12 C        0.2210     0.3370     1.1940 C.3   1 <1>   0.0400 
 13 C       -0.1740    -3.9540    -0.2240 C.ar  1 <1>  -0.1430 
 14 C       -2.3850     3.9630    -0.9430 C.ar  1 <1>  -0.1500 
 15 C       -2.5920     3.4630     1.3900 C.ar  1 <1>  -0.1500 
 16 C        0.3590    -5.3330     0.1500 C.3   1 <1>   0.3430 
 17 C       -2.4220     4.3860     0.3740 C.ar  1 <1>  -0.1500 
 18 O        1.3450    -5.6590    -0.7560 O.3   1 <1>  -0.6800 
 19 C       -0.7050    -6.4360     0.1100 C.3   1 <1>  -0.1600 
 20 C       -1.8440    -6.2000     1.1130 C.3   1 <1>  -0.2400 
 21 H       -2.9810    -0.3700     0.3380 H     1 <1>   0.0800 
 22 H       -3.6890     0.0550    -1.2040 H     1 <1>   0.0800 
 23 H       -1.4680    -2.2230    -2.8290 H     1 <1>   0.1500 
 24 H        0.1330    -3.1270     1.7330 H     1 <1>   0.1500 
 25 H       -0.5960    -4.4510    -2.2620 H     1 <1>   0.1500 
 26 H       -2.4850     2.2940    -2.2680 H     1 <1>   0.1500 
 27 H       -2.8530     1.4070     1.8870 H     1 <1>   0.1500 
 28 H        0.1530     0.9860     2.0480 H     1 <1>   0.0800 
 29 H       -0.0560     0.8780     0.3070 H     1 <1>   0.0800 
 30 H        1.2200    -0.0470     1.0980 H     1 <1>   0.0800 
 31 H       -2.2500     4.6790    -1.7350 H     1 <1>   0.1500 
 32 H       -2.6190     3.7890     2.4150 H     1 <1>   0.1500 
 33 H        0.8170    -5.3030     1.1240 H     1 <1>   0.0800 
 34 H       -2.3180     5.4320     0.6070 H     1 <1>   0.1500 
 35 H        1.8500    -4.8490    -0.9600 H     1 <1>   0.4000 
 36 H       -0.2340    -7.3760     0.3360 H     1 <1>   0.0800 
 37 H       -1.1180    -6.4970    -0.8820 H     1 <1>   0.0800 
 38 H       -1.4570    -6.1350     2.1150 H     1 <1>   0.0800 
 39 H       -2.5460    -7.0140     1.0690 H     1 <1>   0.0800 
 40 H       -2.3670    -5.2880     0.8840 H     1 <1>   0.0800 
@<TRIPOS>BOND
  1   1   2  1   
  2   1   3  1   
  3   2   4  ar  
  4   2   5  ar  
  5   3   6  1   
  6   3  21  1   
  7   3  22  1   
  8   4   7  1   
  9   4   8  ar  
 10   5   9  ar  
 11   5  23  1   
 12   6  10  ar  
 13   6  11  ar  
 14   7  12  1   
 15   8  13  ar  
 16   8  24  1   
 17   9  13  ar  
 18   9  25  1   
 19  10  14  ar  
 20  10  26  1   
 21  11  15  ar  
 22  11  27  1   
 23  12  28  1   
 24  12  29  1   
 25  12  30  1   
 26  13  16  1   
 27  14  17  ar  
 28  14  31  1   
 29  15  17  ar  
 30  15  32  1   
 31  16  18  1   
 32  16  19  1   
 33  16  33  1   
 34  17  34  1   
 35  18  35  1   
 36  19  20  1   
 37  19  36  1   
 38  19  37  1   
 39  20  38  1   
 40  20  39  1   
 41  20  40  1   
@<TRIPOS>SUBSTRUCTURE
  1 ****   2 GROUP 4 **** **** 0

# MOE 2024.06 (io_trps.svl 2023.06)
