@<TRIPOS>MOLECULE
NONAME
47 47 1 0 0 
SMALL
USER_CHARGES


@<TRIPOS>ATOM
  1 O       -1.5190     0.1230     1.6000 O.3   1 <1>  -0.3630 
  2 C       -2.0580     0.9190     0.6450 C.ar  1 <1>   0.0830 
  3 C       -0.8290    -1.0360     1.1790 C.3   1 <1>   0.1200 
  4 C       -1.4430     2.1150     0.2720 C.ar  1 <1>   0.0830 
  5 C       -3.2590     0.5370     0.0720 C.ar  1 <1>  -0.1500 
  6 C        0.5730    -0.6610     0.7000 C.3   1 <1>  -0.2400 
  7 O       -0.2760     2.4580     0.8860 O.3   1 <1>  -0.3620 
  8 C       -2.0430     2.9020    -0.7050 C.ar  1 <1>  -0.1500 
  9 C       -3.8670     1.3400    -0.8820 C.ar  1 <1>  -0.1440 
 10 C        0.4240     3.6350     0.5530 C.3   1 <1>   0.0400 
 11 C       -3.2440     2.5160    -1.2780 C.ar  1 <1>  -0.1500 
 12 C       -5.2070     0.9430    -1.4650 C.3   1 <1>   0.4860 
 13 N       -6.2460     1.1600    -0.4070 N.4   1 <1>  -0.9590 
 14 C       -7.5400     0.4690    -0.7610 C.3   1 <1>   0.3430 
 15 C       -6.3940     2.6350    -0.1380 C.3   1 <1>   0.2630 
 16 C       -8.6020     0.4660     0.3790 C.3   1 <1>   0.3430 
 17 N       -9.9080    -0.2100     0.0270 N.4   1 <1>  -0.9590 
 18 C      -10.9170     0.0110     1.1190 C.3   1 <1>   0.2630 
 19 C       -9.7780    -1.6890    -0.2110 C.3   1 <1>   0.2630 
 20 H       -1.3910    -1.5180     0.3980 H     1 <1>   0.0800 
 21 H       -0.7650    -1.6940     2.0270 H     1 <1>   0.0800 
 22 H       -3.6950    -0.3910     0.3950 H     1 <1>   0.1500 
 23 H        0.5200    -0.0460    -0.1800 H     1 <1>   0.0800 
 24 H        1.1260    -1.5500     0.4600 H     1 <1>   0.0800 
 25 H        1.0950    -0.1290     1.4760 H     1 <1>   0.0800 
 26 H       -1.5900     3.8200    -1.0300 H     1 <1>   0.1500 
 27 H        1.3080     3.6780     1.1630 H     1 <1>   0.0800 
 28 H       -0.2020     4.4850     0.7600 H     1 <1>   0.0800 
 29 H        0.7000     3.5970    -0.4850 H     1 <1>   0.0800 
 30 H       -3.6790     3.1500    -2.0320 H     1 <1>   0.1500 
 31 H       -5.1680    -0.0950    -1.7520 H     1 <1>   0.0800 
 32 H       -5.4220     1.5350    -2.3410 H     1 <1>   0.0800 
 33 H       -5.8200     0.7440     0.4380 H     1 <1>   0.4500 
 34 H       -7.3220    -0.5540    -1.0210 H     1 <1>   0.0800 
 35 H       -7.9640     0.9500    -1.6280 H     1 <1>   0.0800 
 36 H       -6.7550     3.1470    -1.0150 H     1 <1>   0.0800 
 37 H       -5.4400     3.0610     0.1340 H     1 <1>   0.0800 
 38 H       -7.0780     2.8110     0.6760 H     1 <1>   0.0800 
 39 H       -8.8100     1.4890     0.6470 H     1 <1>   0.0800 
 40 H       -8.1810    -0.0230     1.2430 H     1 <1>   0.0800 
 41 H      -10.3130     0.2160    -0.8260 H     1 <1>   0.4500 
 42 H      -10.5770    -0.4270     2.0440 H     1 <1>   0.0800 
 43 H      -11.8610    -0.4410     0.8550 H     1 <1>   0.0800 
 44 H      -11.0810     1.0660     1.2770 H     1 <1>   0.0800 
 45 H       -9.3890    -2.1810     0.6660 H     1 <1>   0.0800 
 46 H       -9.1210    -1.8890    -1.0420 H     1 <1>   0.0800 
 47 H      -10.7430    -2.1160    -0.4370 H     1 <1>   0.0800 
@<TRIPOS>BOND
  1   1   2  1   
  2   1   3  1   
  3   2   4  ar  
  4   2   5  ar  
  5   3   6  1   
  6   3  20  1   
  7   3  21  1   
  8   4   7  1   
  9   4   8  ar  
 10   5   9  ar  
 11   5  22  1   
 12   6  23  1   
 13   6  24  1   
 14   6  25  1   
 15   7  10  1   
 16   8  11  ar  
 17   8  26  1   
 18   9  11  ar  
 19   9  12  1   
 20  10  27  1   
 21  10  28  1   
 22  10  29  1   
 23  11  30  1   
 24  12  13  1   
 25  12  31  1   
 26  12  32  1   
 27  13  14  1   
 28  13  15  1   
 29  13  33  1   
 30  14  16  1   
 31  14  34  1   
 32  14  35  1   
 33  15  36  1   
 34  15  37  1   
 35  15  38  1   
 36  16  17  1   
 37  16  39  1   
 38  16  40  1   
 39  17  18  1   
 40  17  19  1   
 41  17  41  1   
 42  18  42  1   
 43  18  43  1   
 44  18  44  1   
 45  19  45  1   
 46  19  46  1   
 47  19  47  1   
@<TRIPOS>SUBSTRUCTURE
  1 ****   9 GROUP 4 **** **** 0

# MOE 2024.06 (io_trps.svl 2023.06)
