@<TRIPOS>MOLECULE
NONAME
37 39 1 0 0 
SMALL
USER_CHARGES


@<TRIPOS>ATOM
  1 S       -0.0790    -5.9280    -0.0870 S.3   1 <1>  -0.0800 
  2 C        1.5700    -5.3720    -0.3390 C.ar  1 <1>   0.2970 
  3 C       -0.6500    -4.2840     0.1950 C.2   1 <1>  -0.1400 
  4 N        2.5550    -6.1990    -0.6150 N.ar  1 <1>  -0.5670 
  5 C        1.6500    -4.0060    -0.2060 C.ar  1 <1>   0.0000 
  6 C        0.3650    -3.4000     0.0970 C.2   1 <1>  -0.1810 
  7 C       -2.1350    -4.1670     0.4850 C.3   1 <1>  -0.0600 
  8 C        3.7070    -5.5790    -0.7650 C.ar  1 <1>   0.4770 
  9 C        2.9410    -3.4940    -0.3890 C.ar  1 <1>   0.4100 
 10 C        0.2200    -1.8960     0.2770 C.3   1 <1>  -0.0590 
 11 N        3.9610    -4.2850    -0.6690 N.ar  1 <1>  -0.6200 
 12 C        4.8990    -6.4490    -1.0880 C.3   1 <1>  -0.0960 
 13 N        3.2080    -2.1540    -0.2780 N.pl3 1 <1>  -0.8690 
 14 C        4.5360    -1.5190    -0.2990 C.3   1 <1>   0.2890 
 15 C        4.9200    -1.1550     1.1290 C.3   1 <1>  -0.1600 
 16 C        4.4070    -0.1650    -0.9830 C.3   1 <1>  -0.1600 
 17 C        4.1860     0.1550     1.4400 C.3   1 <1>  -0.1600 
 18 C        3.8630     0.7960     0.0830 C.3   1 <1>  -0.1600 
 19 H       -2.3790    -4.7430     1.3590 H     1 <1>   0.0800 
 20 H       -2.6980    -4.5490    -0.3480 H     1 <1>   0.0800 
 21 H       -2.4240    -3.1480     0.6550 H     1 <1>   0.0800 
 22 H       -0.8010    -1.6200     0.4580 H     1 <1>   0.0800 
 23 H        0.5480    -1.3890    -0.6130 H     1 <1>   0.0800 
 24 H        0.8080    -1.5690     1.1150 H     1 <1>   0.0800 
 25 H        4.6080    -7.4810    -1.1560 H     1 <1>   0.0800 
 26 H        5.6370    -6.3420    -0.3160 H     1 <1>   0.0800 
 27 H        5.3210    -6.1410    -2.0260 H     1 <1>   0.0800 
 28 H        2.4790    -1.5510     0.0920 H     1 <1>   0.4000 
 29 H        5.2670    -2.1500    -0.7780 H     1 <1>   0.0800 
 30 H        5.9810    -0.9790     1.1590 H     1 <1>   0.0800 
 31 H        4.6820    -1.9430     1.8210 H     1 <1>   0.0800 
 32 H        3.7850    -0.2140    -1.8590 H     1 <1>   0.0800 
 33 H        5.3900     0.1590    -1.2770 H     1 <1>   0.0800 
 34 H        4.7960     0.8020     2.0470 H     1 <1>   0.0800 
 35 H        3.2720    -0.0560     1.9680 H     1 <1>   0.0800 
 36 H        2.7970     0.8980    -0.0260 H     1 <1>   0.0800 
 37 H        4.3170     1.7680    -0.0110 H     1 <1>   0.0800 
@<TRIPOS>BOND
  1   1   2  1   
  2   1   3  1   
  3   2   4  ar  
  4   2   5  ar  
  5   3   6  2   
  6   3   7  1   
  7   4   8  ar  
  8   5   6  1   
  9   5   9  ar  
 10   6  10  1   
 11   7  19  1   
 12   7  20  1   
 13   7  21  1   
 14   8  11  ar  
 15   8  12  1   
 16   9  11  ar  
 17   9  13  1   
 18  10  22  1   
 19  10  23  1   
 20  10  24  1   
 21  12  25  1   
 22  12  26  1   
 23  12  27  1   
 24  13  14  1   
 25  13  28  1   
 26  14  15  1   
 27  14  16  1   
 28  14  29  1   
 29  15  17  1   
 30  15  30  1   
 31  15  31  1   
 32  16  18  1   
 33  16  32  1   
 34  16  33  1   
 35  17  18  1   
 36  17  34  1   
 37  17  35  1   
 38  18  36  1   
 39  18  37  1   
@<TRIPOS>SUBSTRUCTURE
  1 ****   9 GROUP 4 **** **** 0

# MOE 2024.06 (io_trps.svl 2023.06)
