@<TRIPOS>MOLECULE
NONAME
44 47 1 0 0 
SMALL
USER_CHARGES


@<TRIPOS>ATOM
  1 O       -3.8110     0.4500    -1.0550 O.2   1 <1>  -0.5700 
  2 C       -4.2960     1.0660    -0.1470 C.2   1 <1>   0.4480 
  3 C       -5.8090     1.3880    -0.1090 C.3   1 <1>   0.0610 
  4 C       -3.4330     1.4890     1.0570 C.3   1 <1>   0.1710 
  5 C       -6.4930     0.9630    -1.4370 C.3   1 <1>  -0.1600 
  6 C       -6.0770     2.9030     0.0890 C.3   1 <1>  -0.1600 
  7 C       -6.4960     0.6090     1.0430 C.3   1 <1>  -0.1600 
  8 N       -2.3260     2.4540     0.8090 N.3   1 <1>  -0.8100 
  9 C       -8.0050     1.2510    -1.4110 C.3   1 <1>  -0.0800 
 10 C       -7.5880     3.1990     0.1310 C.3   1 <1>  -0.0800 
 11 C       -8.0080     0.9010     1.0850 C.3   1 <1>  -0.0800 
 12 C       -1.2620     1.8890    -0.0470 C.3   1 <1>   0.1100 
 13 C       -2.7700     3.7420     0.2490 C.3   1 <1>   0.1100 
 14 C       -8.2270     2.7580    -1.1980 C.3   1 <1>  -0.1600 
 15 C       -8.6460     0.4720    -0.2480 C.3   1 <1>  -0.1600 
 16 C       -8.2270     2.4110     1.2890 C.3   1 <1>  -0.1600 
 17 C       -0.1110     2.8960    -0.2210 C.3   1 <1>   0.1200 
 18 C       -1.5760     4.6980     0.0700 C.3   1 <1>   0.1200 
 19 O       -0.5880     4.1120    -0.7280 O.3   1 <1>  -0.5600 
 20 H       -3.0050     0.5920     1.4680 H     1 <1>   0.0800 
 21 H       -4.0630     1.9010     1.8220 H     1 <1>   0.0800 
 22 H       -6.3370    -0.0890    -1.6060 H     1 <1>   0.0800 
 23 H       -6.0420     1.4880    -2.2610 H     1 <1>   0.0800 
 24 H       -5.6290     3.4560    -0.7170 H     1 <1>   0.0800 
 25 H       -5.6400     3.2470     1.0090 H     1 <1>   0.0800 
 26 H       -6.0660     0.8780     1.9910 H     1 <1>   0.0800 
 27 H       -6.3400    -0.4480     0.9050 H     1 <1>   0.0800 
 28 H       -8.4500     0.9460    -2.3430 H     1 <1>   0.0800 
 29 H       -7.7490     4.2540     0.2760 H     1 <1>   0.0800 
 30 H       -8.4620     0.3550     1.8950 H     1 <1>   0.0800 
 31 H       -1.6500     1.6460    -1.0210 H     1 <1>   0.0800 
 32 H       -0.8810     0.9870     0.3980 H     1 <1>   0.0800 
 33 H       -3.4830     4.1970     0.9120 H     1 <1>   0.0800 
 34 H       -3.2350     3.5900    -0.7100 H     1 <1>   0.0800 
 35 H       -7.7940     3.3100    -2.0140 H     1 <1>   0.0800 
 36 H       -9.2820     2.9720    -1.1840 H     1 <1>   0.0800 
 37 H       -8.5060    -0.5850    -0.3970 H     1 <1>   0.0800 
 38 H       -9.7050     0.6610    -0.2240 H     1 <1>   0.0800 
 39 H       -9.2820     2.6220     1.3320 H     1 <1>   0.0800 
 40 H       -7.7960     2.7210     2.2250 H     1 <1>   0.0800 
 41 H        0.6160     2.5140    -0.9150 H     1 <1>   0.0800 
 42 H        0.3710     3.0820     0.7230 H     1 <1>   0.0800 
 43 H       -1.1450     4.9440     1.0260 H     1 <1>   0.0800 
 44 H       -1.8920     5.6050    -0.4130 H     1 <1>   0.0800 
@<TRIPOS>BOND
  1   1   2  2   
  2   2   3  1   
  3   2   4  1   
  4   3   5  1   
  5   3   6  1   
  6   3   7  1   
  7   4   8  1   
  8   4  20  1   
  9   4  21  1   
 10   5   9  1   
 11   5  22  1   
 12   5  23  1   
 13   6  10  1   
 14   6  24  1   
 15   6  25  1   
 16   7  11  1   
 17   7  26  1   
 18   7  27  1   
 19   8  12  1   
 20   8  13  1   
 21   9  14  1   
 22   9  15  1   
 23   9  28  1   
 24  10  14  1   
 25  10  16  1   
 26  10  29  1   
 27  11  15  1   
 28  11  16  1   
 29  11  30  1   
 30  12  17  1   
 31  12  31  1   
 32  12  32  1   
 33  13  18  1   
 34  13  33  1   
 35  13  34  1   
 36  14  35  1   
 37  14  36  1   
 38  15  37  1   
 39  15  38  1   
 40  16  39  1   
 41  16  40  1   
 42  17  19  1   
 43  17  41  1   
 44  17  42  1   
 45  18  19  1   
 46  18  43  1   
 47  18  44  1   
@<TRIPOS>SUBSTRUCTURE
  1 ****   3 GROUP 4 **** **** 0

# MOE 2024.06 (io_trps.svl 2023.06)
