@<TRIPOS>MOLECULE
NONAME
29 29 1 0 0 
SMALL
USER_CHARGES


@<TRIPOS>ATOM
  1 O        4.1480    -1.4070     0.5420 O.co2 1 <1>  -0.9000 
  2 C        3.4690    -1.5270    -0.4880 C.2   1 <1>   0.9060 
  3 O        3.9510    -1.5140    -1.6130 O.co2 1 <1>  -0.9000 
  4 C        2.0460    -2.0000    -0.3230 C.3   1 <1>  -0.1860 
  5 C        2.2320    -3.4930    -0.0220 C.3   1 <1>   0.4230 
  6 C        1.2600    -1.1280     0.6900 C.3   1 <1>  -0.1600 
  7 N        2.9450    -3.6320     1.2590 N.4   1 <1>  -0.8530 
  8 C        1.0090    -4.4330     0.0170 C.3   1 <1>  -0.1600 
  9 C       -0.2680    -1.1430     0.5220 C.3   1 <1>  -0.1600 
 10 C       -0.2240    -4.0070    -0.8010 C.3   1 <1>  -0.1600 
 11 C       -0.9650    -2.3790     1.1060 C.3   1 <1>  -0.1600 
 12 C       -1.3600    -3.4390     0.0640 C.3   1 <1>  -0.1600 
 13 H        1.6050    -1.8770    -1.2930 H     1 <1>   0.0800 
 14 H        2.8790    -3.8590    -0.8060 H     1 <1>   0.0800 
 15 H        1.5350    -1.3540     1.7040 H     1 <1>   0.0800 
 16 H        1.5710    -0.1090     0.5220 H     1 <1>   0.0800 
 17 H        3.6770    -2.8780     1.2330 H     1 <1>   0.4500 
 18 H        3.4160    -4.5280     1.3670 H     1 <1>   0.4500 
 19 H        2.3380    -3.3990     2.0420 H     1 <1>   0.4500 
 20 H        1.3430    -5.3740    -0.3840 H     1 <1>   0.0800 
 21 H        0.7050    -4.6300     1.0290 H     1 <1>   0.0800 
 22 H       -0.6460    -0.2840     1.0520 H     1 <1>   0.0800 
 23 H       -0.5370    -1.0030    -0.5110 H     1 <1>   0.0800 
 24 H        0.0310    -3.3160    -1.5830 H     1 <1>   0.0800 
 25 H       -0.6160    -4.8780    -1.3000 H     1 <1>   0.0800 
 26 H       -0.3720    -2.8100     1.8920 H     1 <1>   0.0800 
 27 H       -1.8790    -2.0480     1.5720 H     1 <1>   0.0800 
 28 H       -2.1070    -3.0200    -0.5900 H     1 <1>   0.0800 
 29 H       -1.8310    -4.2550     0.5870 H     1 <1>   0.0800 
@<TRIPOS>BOND
  1   1   2  ar  
  2   2   3  ar  
  3   2   4  1   
  4   4   5  1   
  5   4   6  1   
  6   4  13  1   
  7   5   7  1   
  8   5   8  1   
  9   5  14  1   
 10   6   9  1   
 11   6  15  1   
 12   6  16  1   
 13   7  17  1   
 14   7  18  1   
 15   7  19  1   
 16   8  10  1   
 17   8  20  1   
 18   8  21  1   
 19   9  11  1   
 20   9  22  1   
 21   9  23  1   
 22  10  12  1   
 23  10  24  1   
 24  10  25  1   
 25  11  12  1   
 26  11  26  1   
 27  11  27  1   
 28  12  28  1   
 29  12  29  1   
@<TRIPOS>SUBSTRUCTURE
  1 ****   4 GROUP 4 **** **** 0

# MOE 2024.06 (io_trps.svl 2023.06)
