@<TRIPOS>MOLECULE
NONAME
43 45 1 0 0 
SMALL
USER_CHARGES


@<TRIPOS>ATOM
  1 CL      -1.4970     1.5350    -1.5380 Cl    1 <1>  -0.1770 
  2 C       -0.1090     1.9650    -0.5700 C.ar  1 <1>   0.1770 
  3 C       -0.2470     2.8180     0.5200 C.ar  1 <1>   0.0860 
  4 C        1.1160     1.4380    -0.9270 C.ar  1 <1>  -0.1500 
  5 C       -1.5220     3.3810     0.9000 C.2   1 <1>   0.5440 
  6 C        0.9030     3.1130     1.2520 C.ar  1 <1>  -0.1500 
  7 C        2.2390     1.7590    -0.1850 C.ar  1 <1>  -0.1500 
  8 O       -2.0480     2.9870     1.9220 O.2   1 <1>  -0.5700 
  9 N       -2.1330     4.3750     0.1670 N.am  1 <1>  -0.6600 
 10 C        2.1510     2.6010     0.9190 C.ar  1 <1>  -0.0090 
 11 C       -3.4920     4.8920     0.5150 C.3   1 <1>   0.1400 
 12 C       -1.5620     5.0170    -1.0550 C.3   1 <1>   0.1400 
 13 S        3.6350     3.0230     1.8790 S.o2  1 <1>   1.4470 
 14 C       -4.4030     4.9020    -0.7240 C.3   1 <1>   0.1200 
 15 C       -2.5860     5.0040    -2.2010 C.3   1 <1>   0.1200 
 16 O        4.3660     1.8090     2.1640 O.2   1 <1>  -0.6500 
 17 O        3.2950     3.9290     2.9540 O.2   1 <1>  -0.6500 
 18 N        4.5580     3.9040     0.7640 N.am  1 <1>  -0.8490 
 19 O       -3.7900     5.5800    -1.7850 O.3   1 <1>  -0.5600 
 20 C        4.0490     5.2690     0.5520 C.3   1 <1>   0.1960 
 21 C        5.9700     3.9770     1.1760 C.3   1 <1>   0.1960 
 22 C        4.9250     6.0340    -0.4570 C.3   1 <1>   0.1200 
 23 C        6.8060     4.7860     0.1670 C.3   1 <1>   0.1200 
 24 O        6.2550     6.0590    -0.0270 O.3   1 <1>  -0.5600 
 25 H        1.1890     0.7800    -1.7760 H     1 <1>   0.1500 
 26 H        0.8070     3.7580     2.1110 H     1 <1>   0.1500 
 27 H        3.1980     1.3500    -0.4590 H     1 <1>   0.1500 
 28 H       -3.4030     5.8930     0.8990 H     1 <1>   0.0800 
 29 H       -3.9470     4.2850     1.2790 H     1 <1>   0.0800 
 30 H       -0.6670     4.5170    -1.3760 H     1 <1>   0.0800 
 31 H       -1.3080     6.0380    -0.8280 H     1 <1>   0.0800 
 32 H       -5.3270     5.4060    -0.5000 H     1 <1>   0.0800 
 33 H       -4.6250     3.8960    -1.0360 H     1 <1>   0.0800 
 34 H       -2.7800     3.9970    -2.5290 H     1 <1>   0.0800 
 35 H       -2.2210     5.5750    -3.0350 H     1 <1>   0.0800 
 36 H        4.0400     5.8160     1.4810 H     1 <1>   0.0800 
 37 H        3.0400     5.2270     0.1790 H     1 <1>   0.0800 
 38 H        6.3800     2.9830     1.2440 H     1 <1>   0.0800 
 39 H        6.0480     4.4350     2.1480 H     1 <1>   0.0800 
 40 H        4.5900     7.0530    -0.5450 H     1 <1>   0.0800 
 41 H        4.8840     5.5680    -1.4260 H     1 <1>   0.0800 
 42 H        6.8460     4.2800    -0.7820 H     1 <1>   0.0800 
 43 H        7.8090     4.9150     0.5330 H     1 <1>   0.0800 
@<TRIPOS>BOND
  1   1   2  1   
  2   2   3  ar  
  3   2   4  ar  
  4   3   5  1   
  5   3   6  ar  
  6   4   7  ar  
  7   4  25  1   
  8   5   8  2   
  9   5   9  am  
 10   6  10  ar  
 11   6  26  1   
 12   7  10  ar  
 13   7  27  1   
 14   9  11  1   
 15   9  12  1   
 16  10  13  1   
 17  11  14  1   
 18  11  28  1   
 19  11  29  1   
 20  12  15  1   
 21  12  30  1   
 22  12  31  1   
 23  13  16  2   
 24  13  17  2   
 25  13  18  am  
 26  14  19  1   
 27  14  32  1   
 28  14  33  1   
 29  15  19  1   
 30  15  34  1   
 31  15  35  1   
 32  18  20  1   
 33  18  21  1   
 34  20  22  1   
 35  20  36  1   
 36  20  37  1   
 37  21  23  1   
 38  21  38  1   
 39  21  39  1   
 40  22  24  1   
 41  22  40  1   
 42  22  41  1   
 43  23  24  1   
 44  23  42  1   
 45  23  43  1   
@<TRIPOS>SUBSTRUCTURE
  1 ****   6 GROUP 4 **** **** 0

# MOE 2024.06 (io_trps.svl 2023.06)
