@<TRIPOS>MOLECULE
NONAME
51 52 1 0 0 
SMALL
USER_CHARGES


@<TRIPOS>ATOM
  1 S       -0.0410     0.7880     1.1650 S.o2  1 <1>   1.4470 
  2 O       -0.3120     1.3340     2.4780 O.2   1 <1>  -0.6500 
  3 O       -0.4530    -0.5650     0.8620 O.2   1 <1>  -0.6500 
  4 N       -0.8260     1.7970     0.0530 N.am  1 <1>  -0.8490 
  5 C        1.7130     0.9940     0.7490 C.ar  1 <1>  -0.0090 
  6 C       -0.5870     3.2270     0.3300 C.3   1 <1>   0.1960 
  7 C       -2.2750     1.5240     0.0220 C.3   1 <1>   0.1960 
  8 C        2.1610     0.8190    -0.5550 C.ar  1 <1>  -0.1500 
  9 C        2.6500     1.3320     1.7170 C.ar  1 <1>  -0.1500 
 10 C       -1.2450     4.1300    -0.7270 C.3   1 <1>   0.1400 
 11 C       -3.0000     2.3750    -1.0350 C.3   1 <1>   0.1400 
 12 C        3.4940     0.9810    -0.8960 C.ar  1 <1>  -0.1440 
 13 C        3.9860     1.4960     1.3970 C.ar  1 <1>  -0.1500 
 14 N       -2.7000     3.8250    -0.8470 N.am  1 <1>  -0.6600 
 15 C        4.4180     1.3220     0.0860 C.ar  1 <1>   0.0830 
 16 C        3.9360     0.7790    -2.3380 C.3   1 <1>  -0.0970 
 17 C       -3.6600     4.7890    -0.6950 C.2   1 <1>   0.7800 
 18 O        5.7150     1.4700    -0.2910 O.3   1 <1>  -0.3630 
 19 O       -3.3880     5.9550    -0.4850 O.2   1 <1>  -0.5700 
 20 O       -4.9360     4.4110    -0.7800 O.3   1 <1>  -0.4300 
 21 C        6.7350     1.7450     0.6410 C.3   1 <1>   0.1200 
 22 C       -5.9780     5.3480    -0.6310 C.3   1 <1>   0.1200 
 23 C        8.0650     1.8060    -0.1110 C.3   1 <1>  -0.1600 
 24 C       -7.3040     4.6070    -0.7720 C.3   1 <1>  -0.2400 
 25 C        9.2310     2.1020     0.8390 C.3   1 <1>  -0.2400 
 26 H        0.4710     3.4230     0.3360 H     1 <1>   0.0800 
 27 H       -0.9780     3.4880     1.3000 H     1 <1>   0.0800 
 28 H       -2.7050     1.7180     0.9910 H     1 <1>   0.0800 
 29 H       -2.4410     0.4850    -0.2100 H     1 <1>   0.0800 
 30 H        1.4430     0.5510    -1.3120 H     1 <1>   0.1500 
 31 H        2.3290     1.4680     2.7370 H     1 <1>   0.1500 
 32 H       -0.7710     3.9680    -1.6780 H     1 <1>   0.0800 
 33 H       -1.0970     5.1610    -0.4540 H     1 <1>   0.0800 
 34 H       -4.0570     2.1900    -0.9690 H     1 <1>   0.0800 
 35 H       -2.6720     2.0740    -2.0140 H     1 <1>   0.0800 
 36 H        4.6710     1.7580     2.1810 H     1 <1>   0.1500 
 37 H        3.1040     0.5370    -2.9730 H     1 <1>   0.0800 
 38 H        4.6520    -0.0220    -2.3890 H     1 <1>   0.0800 
 39 H        4.4000     1.6770    -2.7060 H     1 <1>   0.0800 
 40 H        6.7480     0.9560     1.3730 H     1 <1>   0.0800 
 41 H        6.5210     2.6890     1.1110 H     1 <1>   0.0800 
 42 H       -5.8710     6.1010    -1.3940 H     1 <1>   0.0800 
 43 H       -5.8910     5.8030     0.3420 H     1 <1>   0.0800 
 44 H        8.0130     2.5770    -0.8600 H     1 <1>   0.0800 
 45 H        8.2380     0.8630    -0.6000 H     1 <1>   0.0800 
 46 H       -7.3710     4.1510    -1.7440 H     1 <1>   0.0800 
 47 H       -8.1190     5.2990    -0.6610 H     1 <1>   0.0800 
 48 H       -7.3890     3.8520    -0.0120 H     1 <1>   0.0800 
 49 H        9.0870     3.0510     1.3280 H     1 <1>   0.0800 
 50 H       10.1530     2.1400     0.2870 H     1 <1>   0.0800 
 51 H        9.3130     1.3340     1.5880 H     1 <1>   0.0800 
@<TRIPOS>BOND
  1   1   2  2   
  2   1   3  2   
  3   1   4  am  
  4   1   5  1   
  5   4   6  1   
  6   4   7  1   
  7   5   8  ar  
  8   5   9  ar  
  9   6  10  1   
 10   6  26  1   
 11   6  27  1   
 12   7  11  1   
 13   7  28  1   
 14   7  29  1   
 15   8  12  ar  
 16   8  30  1   
 17   9  13  ar  
 18   9  31  1   
 19  10  14  1   
 20  10  32  1   
 21  10  33  1   
 22  11  14  1   
 23  11  34  1   
 24  11  35  1   
 25  12  15  ar  
 26  12  16  1   
 27  13  15  ar  
 28  13  36  1   
 29  14  17  am  
 30  15  18  1   
 31  16  37  1   
 32  16  38  1   
 33  16  39  1   
 34  17  19  2   
 35  17  20  1   
 36  18  21  1   
 37  20  22  1   
 38  21  23  1   
 39  21  40  1   
 40  21  41  1   
 41  22  24  1   
 42  22  42  1   
 43  22  43  1   
 44  23  25  1   
 45  23  44  1   
 46  23  45  1   
 47  24  46  1   
 48  24  47  1   
 49  24  48  1   
 50  25  49  1   
 51  25  50  1   
 52  25  51  1   
@<TRIPOS>SUBSTRUCTURE
  1 ****   6 GROUP 4 **** **** 0

# MOE 2024.06 (io_trps.svl 2023.06)
