@<TRIPOS>MOLECULE
NONAME
44 45 1 0 0 
SMALL
USER_CHARGES


@<TRIPOS>ATOM
  1 S       -0.2660     0.1170    -0.2280 S.o2  1 <1>   1.3330 
  2 O        0.3480     0.1320     1.0800 O.2   1 <1>  -0.6500 
  3 O       -0.6980     1.3550    -0.8370 O.2   1 <1>  -0.6500 
  4 N       -1.6030    -0.9230    -0.1550 N.am  1 <1>  -0.8490 
  5 C        0.8250    -0.7150    -1.3920 C.3   1 <1>  -0.0550 
  6 C       -2.8240    -0.2020     0.2420 C.3   1 <1>   0.1960 
  7 C       -1.3740    -2.0600     0.7460 C.3   1 <1>   0.1960 
  8 C        2.1440     0.0290    -1.6720 C.3   1 <1>  -0.2400 
  9 C       -4.0510    -1.1160     0.1200 C.3   1 <1>  -0.0190 
 10 C       -2.5320    -3.0590     0.6400 C.3   1 <1>  -0.1600 
 11 C       -5.3050    -0.3520     0.5180 C.2   1 <1>   0.5690 
 12 C       -3.8730    -2.3890     0.9670 C.3   1 <1>  -0.1600 
 13 O       -5.3220     0.2130     1.5840 O.2   1 <1>  -0.5700 
 14 N       -6.3610    -0.3570    -0.3530 N.am  1 <1>  -0.5470 
 15 C       -7.6110     0.2800    -0.2780 C.ar  1 <1>   0.1170 
 16 C       -8.6750    -0.2480    -1.0010 C.ar  1 <1>  -0.1500 
 17 C       -7.8300     1.4300     0.4740 C.ar  1 <1>  -0.1500 
 18 C       -9.9240     0.3490    -0.9760 C.ar  1 <1>  -0.1500 
 19 C       -9.0750     2.0300     0.5040 C.ar  1 <1>  -0.1500 
 20 C      -10.1300     1.4970    -0.2180 C.ar  1 <1>   0.0820 
 21 O      -11.3200     2.1490    -0.1340 O.3   1 <1>  -0.3630 
 22 C      -12.4600     1.6690    -0.8100 C.3   1 <1>   0.0400 
 23 H        0.3020    -0.8430    -2.3200 H     1 <1>   0.0800 
 24 H        1.0610    -1.6910    -1.0160 H     1 <1>   0.0800 
 25 H       -2.9730     0.6510    -0.3990 H     1 <1>   0.0800 
 26 H       -2.7240     0.1580     1.2540 H     1 <1>   0.0800 
 27 H       -1.2840    -1.7120     1.7630 H     1 <1>   0.0800 
 28 H       -0.4560    -2.5590     0.4830 H     1 <1>   0.0800 
 29 H        1.9370     1.0030    -2.0810 H     1 <1>   0.0800 
 30 H        2.7430    -0.5230    -2.3750 H     1 <1>   0.0800 
 31 H        2.7010     0.1510    -0.7590 H     1 <1>   0.0800 
 32 H       -4.1360    -1.3980    -0.9140 H     1 <1>   0.0800 
 33 H       -2.3610    -3.8740     1.3200 H     1 <1>   0.0800 
 34 H       -2.5540    -3.4610    -0.3580 H     1 <1>   0.0800 
 35 H       -4.6830    -3.0740     0.7840 H     1 <1>   0.0800 
 36 H       -3.8910    -2.1250     2.0120 H     1 <1>   0.0800 
 37 H       -6.2380    -0.9380    -1.1790 H     1 <1>   0.3700 
 38 H       -8.5310    -1.1360    -1.5890 H     1 <1>   0.1500 
 39 H       -7.0270     1.8660     1.0390 H     1 <1>   0.1500 
 40 H      -10.7190    -0.0910    -1.5470 H     1 <1>   0.1500 
 41 H       -9.2350     2.9170     1.0890 H     1 <1>   0.1500 
 42 H      -13.2800     2.3300    -0.5930 H     1 <1>   0.0800 
 43 H      -12.6860     0.6790    -0.4560 H     1 <1>   0.0800 
 44 H      -12.2640     1.6670    -1.8680 H     1 <1>   0.0800 
@<TRIPOS>BOND
  1   1   2  2   
  2   1   3  2   
  3   1   4  am  
  4   1   5  1   
  5   4   6  1   
  6   4   7  1   
  7   5   8  1   
  8   5  23  1   
  9   5  24  1   
 10   6   9  1   
 11   6  25  1   
 12   6  26  1   
 13   7  10  1   
 14   7  27  1   
 15   7  28  1   
 16   8  29  1   
 17   8  30  1   
 18   8  31  1   
 19   9  11  1   
 20   9  12  1   
 21   9  32  1   
 22  10  12  1   
 23  10  33  1   
 24  10  34  1   
 25  11  13  2   
 26  11  14  am  
 27  12  35  1   
 28  12  36  1   
 29  14  15  1   
 30  14  37  1   
 31  15  16  ar  
 32  15  17  ar  
 33  16  18  ar  
 34  16  38  1   
 35  17  19  ar  
 36  17  39  1   
 37  18  20  ar  
 38  18  40  1   
 39  19  20  ar  
 40  19  41  1   
 41  20  21  1   
 42  21  22  1   
 43  22  42  1   
 44  22  43  1   
 45  22  44  1   
@<TRIPOS>SUBSTRUCTURE
  1 ****  11 GROUP 4 **** **** 0

# MOE 2024.06 (io_trps.svl 2023.06)
