@<TRIPOS>MOLECULE
NONAME
54 57 1 0 0 
SMALL
USER_CHARGES


@<TRIPOS>ATOM
  1 O        0.8510     0.2250     1.2070 O.2   1 <1>  -0.5700 
  2 C        1.3490     1.3150     1.0850 C.2   1 <1>   0.6900 
  3 N        0.9330     2.1340     0.0880 N.am  1 <1>  -0.5390 
  4 N        2.3190     1.7410     1.9060 N.am  1 <1>  -0.7300 
  5 C        1.4260     3.4160    -0.1230 C.2   1 <1>  -0.0290 
  6 C        3.1340     2.9420     1.6470 C.3   1 <1>   0.5020 
  7 C        2.4660     3.8800     0.6310 C.2   1 <1>  -0.1240 
  8 C        0.6880     4.2040    -1.2070 C.3   1 <1>   0.4810 
  9 C        4.5030     2.4950     1.1410 C.ar  1 <1>  -0.1440 
 10 C        3.0670     5.1810     0.6280 C.2   1 <1>   0.7060 
 11 N       -0.6370     4.6300    -0.6770 N.4   1 <1>  -0.9590 
 12 C        4.6140     1.6320     0.0500 C.ar  1 <1>  -0.1500 
 13 C        5.6610     2.9620     1.7670 C.ar  1 <1>  -0.1500 
 14 O        3.8350     5.5610     1.4860 O.2   1 <1>  -0.5700 
 15 O        2.7240     6.0420    -0.3370 O.3   1 <1>  -0.4300 
 16 C       -1.5530     5.0520    -1.7750 C.3   1 <1>   0.3430 
 17 C       -0.4890     5.6920     0.3630 C.3   1 <1>   0.3430 
 18 C        5.8750     1.2680    -0.3750 C.ar  1 <1>   0.0830 
 19 C        6.9220     2.5810     1.3260 C.ar  1 <1>  -0.1500 
 20 C        3.3600     7.3000    -0.4420 C.3   1 <1>   0.1200 
 21 C       -2.9390     5.3520    -1.2030 C.3   1 <1>  -0.1600 
 22 C       -1.8530     6.0090     0.9760 C.3   1 <1>  -0.1600 
 23 O        6.2050     0.4640    -1.3910 O.3   1 <1>  -0.3620 
 24 C        6.9990     1.7270     0.2460 C.ar  1 <1>   0.0830 
 25 C        4.1520     8.6030    -0.5440 C.3   1 <1>  -0.2400 
 26 C       -2.8780     6.4100    -0.0930 C.3   1 <1>  -0.1600 
 27 C        7.6300     0.3990    -1.4130 C.3   1 <1>   0.4000 
 28 O        8.0880     1.2300    -0.3490 O.3   1 <1>  -0.3620 
 29 H        0.2530     1.6640    -0.5140 H     1 <1>   0.3700 
 30 H        2.7400     1.0370     2.5120 H     1 <1>   0.3700 
 31 H        3.2480     3.4540     2.5890 H     1 <1>   0.0800 
 32 H        0.5520     3.5620    -2.0620 H     1 <1>   0.0800 
 33 H        1.2490     5.0600    -1.5340 H     1 <1>   0.0800 
 34 H       -1.0520     3.8160    -0.2060 H     1 <1>   0.4500 
 35 H        3.7560     1.2420    -0.4650 H     1 <1>   0.1500 
 36 H        5.5920     3.6370     2.6050 H     1 <1>   0.1500 
 37 H       -1.6340     4.2700    -2.5140 H     1 <1>   0.0800 
 38 H       -1.1650     5.9360    -2.2560 H     1 <1>   0.0800 
 39 H       -0.0770     6.5850    -0.0820 H     1 <1>   0.0800 
 40 H        0.1810     5.3620     1.1410 H     1 <1>   0.0800 
 41 H        7.8190     2.9360     1.8010 H     1 <1>   0.1500 
 42 H        2.7700     7.7190     0.3560 H     1 <1>   0.0800 
 43 H        2.8740     7.5150    -1.3780 H     1 <1>   0.0800 
 44 H       -3.3740     4.4450    -0.8210 H     1 <1>   0.0800 
 45 H       -3.5780     5.7050    -1.9940 H     1 <1>   0.0800 
 46 H       -1.7430     6.8130     1.6820 H     1 <1>   0.0800 
 47 H       -2.2080     5.1510     1.5210 H     1 <1>   0.0800 
 48 H        4.7310     8.7560     0.3510 H     1 <1>   0.0800 
 49 H        3.4980     9.4490    -0.6750 H     1 <1>   0.0800 
 50 H        4.8310     8.5650    -1.3780 H     1 <1>   0.0800 
 51 H       -3.8510     6.5240     0.3580 H     1 <1>   0.0800 
 52 H       -2.6020     7.3610    -0.5170 H     1 <1>   0.0800 
 53 H        7.9950     0.7780    -2.3510 H     1 <1>   0.0800 
 54 H        7.9470    -0.6140    -1.2410 H     1 <1>   0.0800 
@<TRIPOS>BOND
  1   1   2  2   
  2   2   3  am  
  3   2   4  am  
  4   3   5  1   
  5   3  29  1   
  6   4   6  1   
  7   4  30  1   
  8   5   7  2   
  9   5   8  1   
 10   6   7  1   
 11   6   9  1   
 12   6  31  1   
 13   7  10  1   
 14   8  11  1   
 15   8  32  1   
 16   8  33  1   
 17   9  12  ar  
 18   9  13  ar  
 19  10  14  2   
 20  10  15  1   
 21  11  16  1   
 22  11  17  1   
 23  11  34  1   
 24  12  18  ar  
 25  12  35  1   
 26  13  19  ar  
 27  13  36  1   
 28  15  20  1   
 29  16  21  1   
 30  16  37  1   
 31  16  38  1   
 32  17  22  1   
 33  17  39  1   
 34  17  40  1   
 35  18  23  1   
 36  18  24  ar  
 37  19  24  ar  
 38  19  41  1   
 39  20  25  1   
 40  20  42  1   
 41  20  43  1   
 42  21  26  1   
 43  21  44  1   
 44  21  45  1   
 45  22  26  1   
 46  22  46  1   
 47  22  47  1   
 48  23  27  1   
 49  24  28  1   
 50  25  48  1   
 51  25  49  1   
 52  25  50  1   
 53  26  51  1   
 54  26  52  1   
 55  27  28  1   
 56  27  53  1   
 57  27  54  1   
@<TRIPOS>SUBSTRUCTURE
  1 ****   7 GROUP 4 **** **** 0

# MOE 2024.06 (io_trps.svl 2023.06)
