@<TRIPOS>MOLECULE
NONAME
44 46 1 0 0 
SMALL
USER_CHARGES


@<TRIPOS>ATOM
  1 O        0.4730     0.3160    -0.3420 O.3   1 <1>  -0.3630 
  2 C        1.4920    -0.5830    -0.1960 C.ar  1 <1>   0.0830 
  3 C        0.6890     1.7040    -0.2680 C.3   1 <1>   0.1200 
  4 C        1.1810    -1.9410    -0.2960 C.ar  1 <1>   0.0830 
  5 C        2.8050    -0.1940     0.0450 C.ar  1 <1>  -0.1500 
  6 C       -0.6510     2.4010    -0.4770 C.3   1 <1>  -0.2400 
  7 O       -0.1160    -2.2940    -0.5340 O.3   1 <1>  -0.3620 
  8 C        2.1990    -2.8770    -0.1510 C.ar  1 <1>  -0.1500 
  9 C        3.8380    -1.1210     0.1920 C.ar  1 <1>   0.0280 
 10 C       -0.5040    -3.6430    -0.6560 C.3   1 <1>   0.0400 
 11 C        3.4970    -2.4680     0.0900 C.ar  1 <1>  -0.1500 
 12 C        5.1790    -0.6480     0.4470 C.2   1 <1>  -0.1780 
 13 C        6.3860    -1.2640     0.4120 C.2   1 <1>  -0.0380 
 14 N        6.6260    -2.6030     0.0890 N.pl3 1 <1>  -0.8380 
 15 C        7.6810    -0.4900     0.7340 C.3   1 <1>   0.3380 
 16 C        7.4830    -2.7320    -1.1280 C.3   1 <1>   0.2090 
 17 C        7.2840    -3.3270     1.2190 C.3   1 <1>   0.2090 
 18 O        7.8010     0.5510    -0.1660 O.3   1 <1>  -0.6800 
 19 C        8.8800    -1.4590     0.5730 C.3   1 <1>  -0.0800 
 20 C        8.8540    -2.0680    -0.8530 C.3   1 <1>  -0.1600 
 21 C        8.6320    -2.6360     1.5460 C.3   1 <1>  -0.1600 
 22 H        1.0900     1.9350     0.7040 H     1 <1>   0.0800 
 23 H        1.3870     1.9820    -1.0390 H     1 <1>   0.0800 
 24 H        3.0580     0.8440     0.1220 H     1 <1>   0.1500 
 25 H       -1.3450     2.1010     0.2870 H     1 <1>   0.0800 
 26 H       -1.0500     2.1470    -1.4430 H     1 <1>   0.0800 
 27 H       -0.5220     3.4670    -0.4270 H     1 <1>   0.0800 
 28 H        2.0050    -3.9290    -0.2200 H     1 <1>   0.1500 
 29 H       -1.5620    -3.6680    -0.8440 H     1 <1>   0.0800 
 30 H       -0.2840    -4.1540     0.2640 H     1 <1>   0.0800 
 31 H        0.0250    -4.0840    -1.4820 H     1 <1>   0.0800 
 32 H        4.2590    -3.2140     0.2030 H     1 <1>   0.1500 
 33 H        5.1970     0.3940     0.7080 H     1 <1>   0.1500 
 34 H        7.6480    -0.0760     1.7260 H     1 <1>   0.0800 
 35 H        7.6080    -3.7720    -1.3770 H     1 <1>   0.0800 
 36 H        6.9920    -2.2450    -1.9540 H     1 <1>   0.0800 
 37 H        6.6350    -3.3010     2.0780 H     1 <1>   0.0800 
 38 H        7.4430    -4.3560     0.9470 H     1 <1>   0.0800 
 39 H        7.4170     0.2390    -1.0070 H     1 <1>   0.4000 
 40 H        9.8100    -0.9630     0.7890 H     1 <1>   0.0800 
 41 H        9.6320    -2.8030    -0.9550 H     1 <1>   0.0800 
 42 H        9.0400    -1.3080    -1.5910 H     1 <1>   0.0800 
 43 H        8.6080    -2.2780     2.5600 H     1 <1>   0.0800 
 44 H        9.4290    -3.3540     1.4770 H     1 <1>   0.0800 
@<TRIPOS>BOND
  1   1   2  1   
  2   1   3  1   
  3   2   4  ar  
  4   2   5  ar  
  5   3   6  1   
  6   3  22  1   
  7   3  23  1   
  8   4   7  1   
  9   4   8  ar  
 10   5   9  ar  
 11   5  24  1   
 12   6  25  1   
 13   6  26  1   
 14   6  27  1   
 15   7  10  1   
 16   8  11  ar  
 17   8  28  1   
 18   9  11  ar  
 19   9  12  1   
 20  10  29  1   
 21  10  30  1   
 22  10  31  1   
 23  11  32  1   
 24  12  13  2   
 25  12  33  1   
 26  13  14  1   
 27  13  15  1   
 28  14  16  1   
 29  14  17  1   
 30  15  18  1   
 31  15  19  1   
 32  15  34  1   
 33  16  20  1   
 34  16  35  1   
 35  16  36  1   
 36  17  21  1   
 37  17  37  1   
 38  17  38  1   
 39  18  39  1   
 40  19  20  1   
 41  19  21  1   
 42  19  40  1   
 43  20  41  1   
 44  20  42  1   
 45  21  43  1   
 46  21  44  1   
@<TRIPOS>SUBSTRUCTURE
  1 ****   9 GROUP 4 **** **** 0

# MOE 2024.06 (io_trps.svl 2023.06)
