@<TRIPOS>MOLECULE
NONAME
33 33 1 0 0 
SMALL
USER_CHARGES


@<TRIPOS>ATOM
  1 N        0.2430     0.7750     0.7180 N.4   1 <1>  -0.9590 
  2 C       -0.9120     1.0010     1.6450 C.3   1 <1>   0.3430 
  3 C       -0.1400    -0.1380    -0.4080 C.3   1 <1>   0.3430 
  4 C        1.5010     0.3930     1.3930 C.3   1 <1>   0.4810 
  5 C       -2.1670     1.4780     0.8710 C.3   1 <1>   0.1100 
  6 C       -1.3720     0.4090    -1.1720 C.3   1 <1>   0.1100 
  7 C        2.6160     0.3840     0.3600 C.2   1 <1>  -0.2760 
  8 N       -1.9000     1.6590    -0.5750 N.3   1 <1>  -0.8100 
  9 C        3.1760    -0.7670    -0.0400 C.2   1 <1>  -0.2880 
 10 C        3.0050     1.7840    -0.1200 C.3   1 <1>  -0.1020 
 11 C       -3.0950     2.1290    -1.2880 C.3   1 <1>   0.0300 
 12 C        4.2900    -0.9870    -1.0540 C.3   1 <1>  -0.1020 
 13 H        0.3800     1.6810     0.2500 H     1 <1>   0.4500 
 14 H       -1.1470     0.0900     2.1710 H     1 <1>   0.0800 
 15 H       -0.6520     1.7470     2.3770 H     1 <1>   0.0800 
 16 H        0.6820    -0.2350    -1.0990 H     1 <1>   0.0800 
 17 H       -0.3630    -1.1200    -0.0270 H     1 <1>   0.0800 
 18 H        1.7380     1.0920     2.1780 H     1 <1>   0.0800 
 19 H        1.3990    -0.5880     1.8260 H     1 <1>   0.0800 
 20 H       -2.5000     2.4120     1.2910 H     1 <1>   0.0800 
 21 H       -2.9600     0.7620     1.0080 H     1 <1>   0.0800 
 22 H       -2.1400    -0.3460    -1.1840 H     1 <1>   0.0800 
 23 H       -1.0890     0.5970    -2.1940 H     1 <1>   0.0800 
 24 H        2.8560    -1.7160     0.3620 H     1 <1>   0.1500 
 25 H        3.2340     2.4140     0.7210 H     1 <1>   0.0800 
 26 H        2.2050     2.2330    -0.6800 H     1 <1>   0.0800 
 27 H        3.8740     1.7700    -0.7500 H     1 <1>   0.0800 
 28 H       -3.4310     3.0620    -0.8680 H     1 <1>   0.0800 
 29 H       -3.8910     1.4070    -1.2180 H     1 <1>   0.0800 
 30 H       -2.8620     2.2940    -2.3270 H     1 <1>   0.0800 
 31 H        3.9540    -1.6580    -1.8240 H     1 <1>   0.0800 
 32 H        5.1410    -1.4310    -0.5670 H     1 <1>   0.0800 
 33 H        4.6120    -0.0790    -1.5260 H     1 <1>   0.0800 
@<TRIPOS>BOND
  1   1   2  1   
  2   1   3  1   
  3   1   4  1   
  4   1  13  1   
  5   2   5  1   
  6   2  14  1   
  7   2  15  1   
  8   3   6  1   
  9   3  16  1   
 10   3  17  1   
 11   4   7  1   
 12   4  18  1   
 13   4  19  1   
 14   5   8  1   
 15   5  20  1   
 16   5  21  1   
 17   6   8  1   
 18   6  22  1   
 19   6  23  1   
 20   7   9  2   
 21   7  10  1   
 22   8  11  1   
 23   9  12  1   
 24   9  24  1   
 25  10  25  1   
 26  10  26  1   
 27  10  27  1   
 28  11  28  1   
 29  11  29  1   
 30  11  30  1   
 31  12  31  1   
 32  12  32  1   
 33  12  33  1   
@<TRIPOS>SUBSTRUCTURE
  1 ****   1 GROUP 4 **** **** 0

# MOE 2024.06 (io_trps.svl 2023.06)
