@<TRIPOS>MOLECULE
NONAME
49 51 1 0 0 
SMALL
USER_CHARGES


@<TRIPOS>ATOM
  1 O       -0.2180     0.2930     0.8680 O.2   1 <1>  -0.5700 
  2 C       -0.2090     1.3790     0.3230 C.2   1 <1>   0.5440 
  3 N       -1.3090     1.8010    -0.3900 N.am  1 <1>  -0.5470 
  4 C        0.9670     2.2260     0.3840 C.ar  1 <1>   0.0860 
  5 C       -2.5800     1.2290    -0.5420 C.ar  1 <1>   0.1170 
  6 C        0.8700     3.6190     0.4170 C.ar  1 <1>  -0.1500 
  7 C        2.2460     1.6720     0.4070 C.ar  1 <1>  -0.1500 
  8 C       -3.1480     0.3900     0.4110 C.ar  1 <1>  -0.1500 
  9 C       -3.3170     1.5160    -1.6850 C.ar  1 <1>  -0.1500 
 10 C        1.9950     4.4240     0.4510 C.ar  1 <1>  -0.1440 
 11 C        3.3810     2.4620     0.4420 C.ar  1 <1>  -0.1430 
 12 C       -4.4050    -0.1520     0.2260 C.ar  1 <1>  -0.1500 
 13 C       -4.5780     0.9800    -1.8740 C.ar  1 <1>  -0.1500 
 14 C        3.2500     3.8390     0.4600 C.ar  1 <1>  -0.1500 
 15 C        1.8710     5.9370     0.4830 C.3   1 <1>  -0.0970 
 16 C        4.7640     1.8340     0.4600 C.3   1 <1>  -0.0970 
 17 C       -5.1330     0.1420    -0.9170 C.ar  1 <1>  -0.1430 
 18 C       -6.5190    -0.4420    -1.1150 C.3   1 <1>   0.4860 
 19 N       -7.4500     0.2000    -0.1510 N.4   1 <1>  -0.9590 
 20 C       -8.8240    -0.4050    -0.1440 C.3   1 <1>   0.3430 
 21 C       -7.5190     1.6950    -0.2770 C.3   1 <1>   0.3430 
 22 C       -9.7760     0.3550     0.8100 C.3   1 <1>   0.1200 
 23 C       -8.4530     2.3050     0.7940 C.3   1 <1>   0.1200 
 24 O       -9.0760     1.3090     1.5620 O.3   1 <1>  -0.5600 
 25 H       -1.1230     2.6070    -0.9840 H     1 <1>   0.3700 
 26 H       -0.1020     4.0780     0.4270 H     1 <1>   0.1500 
 27 H        2.3380     0.5990     0.3950 H     1 <1>   0.1500 
 28 H       -2.5990     0.1560     1.3060 H     1 <1>   0.1500 
 29 H       -2.8940     2.1580    -2.4370 H     1 <1>   0.1500 
 30 H       -4.7970    -0.8080     0.9860 H     1 <1>   0.1500 
 31 H       -5.1130     1.2200    -2.7780 H     1 <1>   0.1500 
 32 H        4.1290     4.4590     0.4840 H     1 <1>   0.1500 
 33 H        0.8640     6.2360     0.7150 H     1 <1>   0.0800 
 34 H        2.1420     6.3450    -0.4740 H     1 <1>   0.0800 
 35 H        2.5260     6.3440     1.2320 H     1 <1>   0.0800 
 36 H        4.7020     0.7750     0.6330 H     1 <1>   0.0800 
 37 H        5.3560     2.2720     1.2440 H     1 <1>   0.0800 
 38 H        5.2530     2.0020    -0.4820 H     1 <1>   0.0800 
 39 H       -6.4820    -1.5060    -0.9450 H     1 <1>   0.0800 
 40 H       -6.8490    -0.2680    -2.1260 H     1 <1>   0.0800 
 41 H       -7.0740     0.0480     0.7960 H     1 <1>   0.4500 
 42 H       -8.7680    -1.4350     0.1680 H     1 <1>   0.0800 
 43 H       -9.2430    -0.3890    -1.1370 H     1 <1>   0.0800 
 44 H       -7.8820     1.9670    -1.2550 H     1 <1>   0.0800 
 45 H       -6.5350     2.1230    -0.1670 H     1 <1>   0.0800 
 46 H      -10.2410    -0.3310     1.4960 H     1 <1>   0.0800 
 47 H      -10.5530     0.8550     0.2570 H     1 <1>   0.0800 
 48 H       -9.2130     2.9140     0.3360 H     1 <1>   0.0800 
 49 H       -7.8860     2.9260     1.4670 H     1 <1>   0.0800 
@<TRIPOS>BOND
  1   1   2  2   
  2   2   3  am  
  3   2   4  1   
  4   3   5  1   
  5   3  25  1   
  6   4   6  ar  
  7   4   7  ar  
  8   5   8  ar  
  9   5   9  ar  
 10   6  10  ar  
 11   6  26  1   
 12   7  11  ar  
 13   7  27  1   
 14   8  12  ar  
 15   8  28  1   
 16   9  13  ar  
 17   9  29  1   
 18  10  14  ar  
 19  10  15  1   
 20  11  14  ar  
 21  11  16  1   
 22  12  17  ar  
 23  12  30  1   
 24  13  17  ar  
 25  13  31  1   
 26  14  32  1   
 27  15  33  1   
 28  15  34  1   
 29  15  35  1   
 30  16  36  1   
 31  16  37  1   
 32  16  38  1   
 33  17  18  1   
 34  18  19  1   
 35  18  39  1   
 36  18  40  1   
 37  19  20  1   
 38  19  21  1   
 39  19  41  1   
 40  20  22  1   
 41  20  42  1   
 42  20  43  1   
 43  21  23  1   
 44  21  44  1   
 45  21  45  1   
 46  22  24  1   
 47  22  46  1   
 48  22  47  1   
 49  23  24  1   
 50  23  48  1   
 51  23  49  1   
@<TRIPOS>SUBSTRUCTURE
  1 ****   5 GROUP 4 **** **** 0

# MOE 2024.06 (io_trps.svl 2023.06)
