@<TRIPOS>MOLECULE
NONAME
43 44 1 0 0 
SMALL
USER_CHARGES


@<TRIPOS>ATOM
  1 CL      -0.7040     0.0410     1.0610 Cl    1 <1>  -0.1770 
  2 C       -0.3950     1.6920     0.5620 C.ar  1 <1>   0.1770 
  3 C       -1.4500     2.5360     0.2340 C.ar  1 <1>   0.0830 
  4 C        0.9160     2.1230     0.5070 C.ar  1 <1>  -0.1500 
  5 O       -2.7150     2.0420     0.3130 O.3   1 <1>  -0.3630 
  6 C       -1.1600     3.8420    -0.1580 C.ar  1 <1>  -0.1500 
  7 C        1.1890     3.4230     0.1160 C.ar  1 <1>  -0.1500 
  8 C       -3.8420     2.8270     0.0120 C.3   1 <1>   0.1200 
  9 C        0.1540     4.2830    -0.2190 C.ar  1 <1>  -0.1440 
 10 C       -5.0750     1.9450     0.2180 C.3   1 <1>  -0.1600 
 11 C        0.4590     5.7080    -0.6460 C.3   1 <1>  -0.0970 
 12 C       -6.3800     2.6970    -0.0770 C.3   1 <1>  -0.1600 
 13 C       -7.5810     1.7710     0.1350 C.3   1 <1>   0.3430 
 14 N       -8.8480     2.4550    -0.2410 N.4   1 <1>  -0.9590 
 15 C       -9.2330     3.5360     0.7390 C.3   1 <1>   0.3430 
 16 C       -9.9670     1.4540    -0.3700 C.3   1 <1>   0.3430 
 17 C      -10.5830     4.1910     0.3720 C.3   1 <1>   0.1100 
 18 C      -11.3080     2.1320    -0.7270 C.3   1 <1>   0.1100 
 19 N      -11.6470     3.1840     0.2430 N.3   1 <1>  -0.9000 
 20 H        1.7110     1.4480     0.7680 H     1 <1>   0.1500 
 21 H       -1.9420     4.5270    -0.4200 H     1 <1>   0.1500 
 22 H        2.2110     3.7610     0.0740 H     1 <1>   0.1500 
 23 H       -3.7630     3.1540    -1.0110 H     1 <1>   0.0800 
 24 H       -3.8530     3.6720     0.6790 H     1 <1>   0.0800 
 25 H       -5.0770     1.5970     1.2370 H     1 <1>   0.0800 
 26 H       -4.9920     1.0910    -0.4330 H     1 <1>   0.0800 
 27 H       -0.2490     6.0400    -1.3830 H     1 <1>   0.0800 
 28 H        1.4440     5.7730    -1.0720 H     1 <1>   0.0800 
 29 H        0.4070     6.3620     0.2060 H     1 <1>   0.0800 
 30 H       -6.3620     3.0400    -1.0970 H     1 <1>   0.0800 
 31 H       -6.4430     3.5460     0.5800 H     1 <1>   0.0800 
 32 H       -7.6230     1.4540     1.1650 H     1 <1>   0.0800 
 33 H       -7.4500     0.8940    -0.4780 H     1 <1>   0.0800 
 34 H       -8.7280     2.8950    -1.1600 H     1 <1>   0.4500 
 35 H       -8.4720     4.2970     0.7690 H     1 <1>   0.0800 
 36 H       -9.3210     3.1150     1.7270 H     1 <1>   0.0800 
 37 H      -10.0940     0.9310     0.5640 H     1 <1>   0.0800 
 38 H       -9.7260     0.7270    -1.1280 H     1 <1>   0.0800 
 39 H      -10.4840     4.7400    -0.5490 H     1 <1>   0.0800 
 40 H      -10.8560     4.8900     1.1450 H     1 <1>   0.0800 
 41 H      -12.0890     1.3900    -0.7240 H     1 <1>   0.0800 
 42 H      -11.2540     2.5490    -1.7180 H     1 <1>   0.0800 
 43 H      -12.5330     3.6410    -0.0290 H     1 <1>   0.3600 
@<TRIPOS>BOND
  1   1   2  1   
  2   2   3  ar  
  3   2   4  ar  
  4   3   5  1   
  5   3   6  ar  
  6   4   7  ar  
  7   4  20  1   
  8   5   8  1   
  9   6   9  ar  
 10   6  21  1   
 11   7   9  ar  
 12   7  22  1   
 13   8  10  1   
 14   8  23  1   
 15   8  24  1   
 16   9  11  1   
 17  10  12  1   
 18  10  25  1   
 19  10  26  1   
 20  11  27  1   
 21  11  28  1   
 22  11  29  1   
 23  12  13  1   
 24  12  30  1   
 25  12  31  1   
 26  13  14  1   
 27  13  32  1   
 28  13  33  1   
 29  14  15  1   
 30  14  16  1   
 31  14  34  1   
 32  15  17  1   
 33  15  35  1   
 34  15  36  1   
 35  16  18  1   
 36  16  37  1   
 37  16  38  1   
 38  17  19  1   
 39  17  39  1   
 40  17  40  1   
 41  18  19  1   
 42  18  41  1   
 43  18  42  1   
 44  19  43  1   
@<TRIPOS>SUBSTRUCTURE
  1 ****   8 GROUP 4 **** **** 0

# MOE 2024.06 (io_trps.svl 2023.06)
