@<TRIPOS>MOLECULE
NONAME
30 31 1 0 0 
SMALL
USER_CHARGES


@<TRIPOS>ATOM
  1 CL      -2.5200     1.2650    -0.4910 Cl    1 <1>  -0.2900 
  2 C       -2.6650     0.1920     0.9060 C.3   1 <1>   0.1910 
  3 C       -3.4850    -1.0420     0.5650 C.2   1 <1>   0.5690 
  4 O       -3.7330    -1.8230     1.4570 O.2   1 <1>  -0.5700 
  5 N       -3.9200    -1.2340    -0.7120 N.am  1 <1>  -0.4300 
  6 N       -4.7710    -2.3440    -1.1750 N.am  1 <1>  -0.4300 
  7 C       -6.1180    -2.4420    -1.0620 C.2   1 <1>   0.6300 
  8 O       -6.6980    -3.4300    -1.4520 O.2   1 <1>  -0.5700 
  9 C       -6.9080    -1.3050    -0.4350 C.3   1 <1>  -0.1000 
 10 C       -8.2340    -0.8910    -1.0040 C.3   1 <1>  -0.0680 
 11 C       -7.0520     0.0200    -1.1270 C.3   1 <1>  -0.2000 
 12 C       -9.3700    -0.5560    -0.0550 C.ar  1 <1>  -0.0320 
 13 C       -9.8110    -1.5030     0.8550 C.ar  1 <1>  -0.1500 
 14 C       -9.9770     0.6890    -0.0910 C.ar  1 <1>  -0.1500 
 15 C      -10.8450    -1.2070     1.7270 C.ar  1 <1>  -0.1500 
 16 C      -11.0100     0.9880     0.7810 C.ar  1 <1>  -0.1500 
 17 C      -11.4430     0.0400     1.6910 C.ar  1 <1>  -0.1500 
 18 H       -3.1390     0.7450     1.6950 H     1 <1>   0.0800 
 19 H       -1.6730    -0.0930     1.2050 H     1 <1>   0.0800 
 20 H       -3.6990    -0.5060    -1.4060 H     1 <1>   0.3700 
 21 H       -4.2990    -3.1950    -1.4970 H     1 <1>   0.3700 
 22 H       -6.8080    -1.3000     0.6350 H     1 <1>   0.1000 
 23 H       -8.5730    -1.4020    -1.8890 H     1 <1>   0.1000 
 24 H       -6.6180     0.1560    -2.1020 H     1 <1>   0.1000 
 25 H       -7.0200     0.9140    -0.5290 H     1 <1>   0.1000 
 26 H       -9.3480    -2.4750     0.8810 H     1 <1>   0.1500 
 27 H       -9.6440     1.4260    -0.7990 H     1 <1>   0.1500 
 28 H      -11.1810    -1.9470     2.4320 H     1 <1>   0.1500 
 29 H      -11.4770     1.9570     0.7490 H     1 <1>   0.1500 
 30 H      -12.2460     0.2720     2.3690 H     1 <1>   0.1500 
@<TRIPOS>BOND
  1   1   2  1   
  2   2   3  1   
  3   2  18  1   
  4   2  19  1   
  5   3   4  2   
  6   3   5  am  
  7   5   6  1   
  8   5  20  1   
  9   6   7  am  
 10   6  21  1   
 11   7   8  2   
 12   7   9  1   
 13   9  10  1   
 14   9  11  1   
 15   9  22  1   
 16  10  11  1   
 17  10  12  1   
 18  10  23  1   
 19  11  24  1   
 20  11  25  1   
 21  12  13  ar  
 22  12  14  ar  
 23  13  15  ar  
 24  13  26  1   
 25  14  16  ar  
 26  14  27  1   
 27  15  17  ar  
 28  15  28  1   
 29  16  17  ar  
 30  16  29  1   
 31  17  30  1   
@<TRIPOS>SUBSTRUCTURE
  1 ****   9 GROUP 4 **** **** 0

# MOE 2024.06 (io_trps.svl 2023.06)
