@<TRIPOS>MOLECULE
NONAME
44 45 1 0 0 
SMALL
USER_CHARGES


@<TRIPOS>ATOM
  1 F       -1.1420     1.1830     2.6420 F     1 <1>  -0.1900 
  2 C       -0.5680     1.8270     1.6590 C.ar  1 <1>   0.1900 
  3 C        0.2450     2.9050     1.9540 C.ar  1 <1>  -0.1500 
  4 C       -0.7980     1.4060     0.3640 C.ar  1 <1>  -0.1500 
  5 C        0.8520     3.5860     0.9120 C.ar  1 <1>  -0.1500 
  6 C       -0.1860     2.0930    -0.6710 C.ar  1 <1>  -0.1500 
  7 C        0.6390     3.1800    -0.4070 C.ar  1 <1>   0.0830 
  8 O        1.1930     3.7870    -1.4880 O.3   1 <1>  -0.3630 
  9 C        2.1590     4.8130    -1.3880 C.3   1 <1>   0.1200 
 10 C        3.5270     4.1980    -1.0680 C.3   1 <1>  -0.1600 
 11 C        4.6210     5.2730    -1.0010 C.3   1 <1>  -0.1600 
 12 C        5.9880     4.6450    -0.6950 C.3   1 <1>  -0.1600 
 13 C        7.0910     5.7110    -0.6400 C.3   1 <1>  -0.1600 
 14 C        8.4480     5.0700    -0.3450 C.3   1 <1>   0.3430 
 15 N        9.5250     6.0970    -0.3840 N.4   1 <1>  -0.9590 
 16 C       10.8830     5.5030    -0.3390 C.3   1 <1>   0.3430 
 17 C        9.4770     7.0760     0.7310 C.3   1 <1>   0.3430 
 18 C       11.7870     6.6570     0.0720 C.3   1 <1>  -0.1600 
 19 C       10.8780     7.6710     0.7740 C.3   1 <1>  -0.1600 
 20 H        0.3950     3.2000     2.9770 H     1 <1>   0.1500 
 21 H       -1.4370     0.5630     0.1730 H     1 <1>   0.1500 
 22 H        1.4810     4.4230     1.1450 H     1 <1>   0.1500 
 23 H       -0.3420     1.7930    -1.6910 H     1 <1>   0.1500 
 24 H        1.8430     5.5300    -0.6520 H     1 <1>   0.0800 
 25 H        2.1930     5.3030    -2.3450 H     1 <1>   0.0800 
 26 H        3.7700     3.4860    -1.8370 H     1 <1>   0.0800 
 27 H        3.4790     3.6800    -0.1270 H     1 <1>   0.0800 
 28 H        4.3710     5.9880    -0.2360 H     1 <1>   0.0800 
 29 H        4.6650     5.7910    -1.9450 H     1 <1>   0.0800 
 30 H        6.2200     3.9210    -1.4590 H     1 <1>   0.0800 
 31 H        5.9340     4.1270     0.2490 H     1 <1>   0.0800 
 32 H        6.8430     6.4240     0.1270 H     1 <1>   0.0800 
 33 H        7.1300     6.2190    -1.5880 H     1 <1>   0.0800 
 34 H        8.6450     4.3140    -1.0890 H     1 <1>   0.0800 
 35 H        8.4260     4.5930     0.6220 H     1 <1>   0.0800 
 36 H        9.4510     6.6240    -1.2640 H     1 <1>   0.4500 
 37 H       11.1720     5.0880    -1.2920 H     1 <1>   0.0800 
 38 H       10.9210     4.7330     0.4150 H     1 <1>   0.0800 
 39 H        9.2750     6.5640     1.6580 H     1 <1>   0.0800 
 40 H        8.7270     7.8330     0.5680 H     1 <1>   0.0800 
 41 H       12.2350     7.0980    -0.8020 H     1 <1>   0.0800 
 42 H       12.5730     6.3080     0.7190 H     1 <1>   0.0800 
 43 H       11.1810     7.8410     1.7930 H     1 <1>   0.0800 
 44 H       10.8920     8.6130     0.2530 H     1 <1>   0.0800 
@<TRIPOS>BOND
  1   1   2  1   
  2   2   3  ar  
  3   2   4  ar  
  4   3   5  ar  
  5   3  20  1   
  6   4   6  ar  
  7   4  21  1   
  8   5   7  ar  
  9   5  22  1   
 10   6   7  ar  
 11   6  23  1   
 12   7   8  1   
 13   8   9  1   
 14   9  10  1   
 15   9  24  1   
 16   9  25  1   
 17  10  11  1   
 18  10  26  1   
 19  10  27  1   
 20  11  12  1   
 21  11  28  1   
 22  11  29  1   
 23  12  13  1   
 24  12  30  1   
 25  12  31  1   
 26  13  14  1   
 27  13  32  1   
 28  13  33  1   
 29  14  15  1   
 30  14  34  1   
 31  14  35  1   
 32  15  16  1   
 33  15  17  1   
 34  15  36  1   
 35  16  18  1   
 36  16  37  1   
 37  16  38  1   
 38  17  19  1   
 39  17  39  1   
 40  17  40  1   
 41  18  19  1   
 42  18  41  1   
 43  18  42  1   
 44  19  43  1   
 45  19  44  1   
@<TRIPOS>SUBSTRUCTURE
  1 ****  11 GROUP 4 **** **** 0

# MOE 2024.06 (io_trps.svl 2023.06)
