@<TRIPOS>MOLECULE
NONAME
40 41 1 0 0 
SMALL
USER_CHARGES


@<TRIPOS>ATOM
  1 S       -0.2590    -0.3400    -0.6100 S.3   1 <1>  -0.0800 
  2 C       -0.9030     0.8010     0.5320 C.2   1 <1>   0.4420 
  3 C        1.2550    -0.1960     0.2140 C.2   1 <1>   0.1980 
  4 N       -0.0210     1.1840     1.3810 N.2   1 <1>  -0.3380 
  5 N       -2.2130     1.2270     0.4970 N.am  1 <1>  -0.4940 
  6 N        1.2070     0.6120     1.1950 N.2   1 <1>  -0.3380 
  7 C        2.4260    -1.0110    -0.2930 C.3   1 <1>   0.0200 
  8 C       -3.2630     0.8800    -0.3050 C.2   1 <1>   0.5690 
  9 C        2.2590    -2.4790     0.0880 C.3   1 <1>   0.1200 
 10 O       -3.1830     0.0520    -1.1770 O.2   1 <1>  -0.5700 
 11 C       -4.5990     1.5860    -0.0640 C.3   1 <1>  -0.0190 
 12 O        3.3520    -3.1820    -0.4070 O.3   1 <1>  -0.5600 
 13 C       -5.6870     0.5890     0.3810 C.3   1 <1>  -0.1600 
 14 C       -5.0580     2.3630    -1.3130 C.3   1 <1>  -0.1600 
 15 C        3.3290    -4.5390    -0.1180 C.3   1 <1>   0.1200 
 16 C       -7.0320     1.2900     0.6170 C.3   1 <1>  -0.1600 
 17 C       -6.4030     3.0650    -1.0780 C.3   1 <1>  -0.1600 
 18 C        4.5820    -5.1570    -0.7240 C.3   1 <1>  -0.2400 
 19 C       -7.4770     2.0670    -0.6280 C.3   1 <1>  -0.1600 
 20 H       -2.4130     1.9190     1.2130 H     1 <1>   0.3700 
 21 H        3.3310    -0.6320     0.1460 H     1 <1>   0.0800 
 22 H        2.4900    -0.9150    -1.3610 H     1 <1>   0.0800 
 23 H        1.3610    -2.8850    -0.3470 H     1 <1>   0.0800 
 24 H        2.2310    -2.5870     1.1590 H     1 <1>   0.0800 
 25 H       -4.4670     2.2990     0.7300 H     1 <1>   0.0800 
 26 H       -5.3770     0.0920     1.2850 H     1 <1>   0.0800 
 27 H       -5.8100    -0.1640    -0.3800 H     1 <1>   0.0800 
 28 H       -5.1570     1.6800    -2.1400 H     1 <1>   0.0800 
 29 H       -4.3140     3.0930    -1.5820 H     1 <1>   0.0800 
 30 H        2.4430    -4.9740    -0.5510 H     1 <1>   0.0800 
 31 H        3.3210    -4.6680     0.9510 H     1 <1>   0.0800 
 32 H       -6.9440     1.9680     1.4480 H     1 <1>   0.0800 
 33 H       -7.7800     0.5570     0.8690 H     1 <1>   0.0800 
 34 H       -6.7210     3.5480    -1.9870 H     1 <1>   0.0800 
 35 H       -6.2860     3.8260    -0.3260 H     1 <1>   0.0800 
 36 H        4.5880    -5.0100    -1.7890 H     1 <1>   0.0800 
 37 H        4.6030    -6.2120    -0.5220 H     1 <1>   0.0800 
 38 H        5.4590    -4.7070    -0.2960 H     1 <1>   0.0800 
 39 H       -8.3930     2.5920    -0.4180 H     1 <1>   0.0800 
 40 H       -7.6730     1.3720    -1.4280 H     1 <1>   0.0800 
@<TRIPOS>BOND
  1   1   2  1   
  2   1   3  1   
  3   2   4  2   
  4   2   5  1   
  5   3   6  2   
  6   3   7  1   
  7   4   6  1   
  8   5   8  am  
  9   5  20  1   
 10   7   9  1   
 11   7  21  1   
 12   7  22  1   
 13   8  10  2   
 14   8  11  1   
 15   9  12  1   
 16   9  23  1   
 17   9  24  1   
 18  11  13  1   
 19  11  14  1   
 20  11  25  1   
 21  12  15  1   
 22  13  16  1   
 23  13  26  1   
 24  13  27  1   
 25  14  17  1   
 26  14  28  1   
 27  14  29  1   
 28  15  18  1   
 29  15  30  1   
 30  15  31  1   
 31  16  19  1   
 32  16  32  1   
 33  16  33  1   
 34  17  19  1   
 35  17  34  1   
 36  17  35  1   
 37  18  36  1   
 38  18  37  1   
 39  18  38  1   
 40  19  39  1   
 41  19  40  1   
@<TRIPOS>SUBSTRUCTURE
  1 ****   2 GROUP 4 **** **** 0

# MOE 2024.06 (io_trps.svl 2023.06)
