@<TRIPOS>MOLECULE
NONAME
50 52 1 0 0 
SMALL
USER_CHARGES


@<TRIPOS>ATOM
  1 O        0.5230    -1.5960     2.2240 O.2   1 <1>  -0.5700 
  2 C        0.7000    -2.4160     1.3400 C.2   1 <1>   0.5440 
  3 N       -0.4010    -2.9830     0.7280 N.am  1 <1>  -0.6600 
  4 C        2.0570    -2.7760     0.9780 C.ar  1 <1>   0.0860 
  5 C       -1.7650    -2.4070     0.8890 C.3   1 <1>   0.1400 
  6 C       -0.3730    -4.2950     0.0230 C.3   1 <1>   0.1400 
  7 C        2.9940    -3.1150     1.9520 C.ar  1 <1>  -0.1500 
  8 C        2.4870    -2.7880    -0.3500 C.ar  1 <1>  -0.1500 
  9 C       -2.4250    -2.2530    -0.4860 C.3   1 <1>  -0.1600 
 10 C       -1.0110    -4.1510    -1.3620 C.3   1 <1>  -0.1600 
 11 C        4.2870    -3.4700     1.6170 C.ar  1 <1>  -0.1500 
 12 C        3.7790    -3.1440    -0.6870 C.ar  1 <1>  -0.1500 
 13 C       -2.4310    -3.5740    -1.2680 C.3   1 <1>  -0.1600 
 14 C        4.7030    -3.4990     0.2910 C.ar  1 <1>   0.1170 
 15 N        6.0230    -3.8650     0.0130 N.am  1 <1>  -0.5470 
 16 C        6.6730    -4.1900    -1.1450 C.2   1 <1>   0.5690 
 17 O        6.1370    -4.2540    -2.2240 O.2   1 <1>  -0.5700 
 18 C        8.1540    -4.5160    -1.0500 C.3   1 <1>   0.0440 
 19 C        8.9300    -3.4930    -0.2180 C.ar  1 <1>  -0.1430 
 20 C        8.9580    -3.5560     1.1740 C.ar  1 <1>   0.0820 
 21 C        9.6210    -2.4820    -0.8690 C.ar  1 <1>  -0.1500 
 22 O        8.2480    -4.5470     1.7780 O.3   1 <1>  -0.3620 
 23 C        9.6850    -2.6110     1.8930 C.ar  1 <1>  -0.1500 
 24 C       10.3400    -1.5450    -0.1490 C.ar  1 <1>  -0.1500 
 25 C        8.4100    -4.8360     3.1500 C.3   1 <1>   0.0400 
 26 C       10.3740    -1.6110     1.2310 C.ar  1 <1>  -0.1500 
 27 H       -1.7150    -1.4450     1.3700 H     1 <1>   0.0800 
 28 H       -2.3500    -3.0620     1.5100 H     1 <1>   0.0800 
 29 H       -0.9310    -5.0090     0.6040 H     1 <1>   0.0800 
 30 H        0.6330    -4.6650    -0.0720 H     1 <1>   0.0800 
 31 H        2.6910    -3.0930     2.9850 H     1 <1>   0.1500 
 32 H        1.7940    -2.5080    -1.1220 H     1 <1>   0.1500 
 33 H       -1.8880    -1.5040    -1.0420 H     1 <1>   0.0800 
 34 H       -3.4340    -1.9030    -0.3570 H     1 <1>   0.0800 
 35 H       -1.0440    -5.1140    -1.8400 H     1 <1>   0.0800 
 36 H       -0.3970    -3.5070    -1.9660 H     1 <1>   0.0800 
 37 H        4.9830    -3.7280     2.3940 H     1 <1>   0.1500 
 38 H        4.0680    -3.1380    -1.7220 H     1 <1>   0.1500 
 39 H       -2.8250    -3.4100    -2.2570 H     1 <1>   0.0800 
 40 H       -3.0710    -4.2810    -0.7680 H     1 <1>   0.0800 
 41 H        6.6460    -3.8940     0.8270 H     1 <1>   0.3700 
 42 H        8.5590    -4.5580    -2.0440 H     1 <1>   0.0800 
 43 H        8.2620    -5.4960    -0.6240 H     1 <1>   0.0800 
 44 H        9.6030    -2.4160    -1.9440 H     1 <1>   0.1500 
 45 H        9.7260    -2.6310     2.9650 H     1 <1>   0.1500 
 46 H       10.8720    -0.7640    -0.6650 H     1 <1>   0.1500 
 47 H        7.8320    -5.7140     3.3790 H     1 <1>   0.0800 
 48 H        8.0520    -4.0030     3.7300 H     1 <1>   0.0800 
 49 H        9.4510    -5.0230     3.3480 H     1 <1>   0.0800 
 50 H       10.9340    -0.8810     1.7890 H     1 <1>   0.1500 
@<TRIPOS>BOND
  1   1   2  2   
  2   2   3  am  
  3   2   4  1   
  4   3   5  1   
  5   3   6  1   
  6   4   7  ar  
  7   4   8  ar  
  8   5   9  1   
  9   5  27  1   
 10   5  28  1   
 11   6  10  1   
 12   6  29  1   
 13   6  30  1   
 14   7  11  ar  
 15   7  31  1   
 16   8  12  ar  
 17   8  32  1   
 18   9  13  1   
 19   9  33  1   
 20   9  34  1   
 21  10  13  1   
 22  10  35  1   
 23  10  36  1   
 24  11  14  ar  
 25  11  37  1   
 26  12  14  ar  
 27  12  38  1   
 28  13  39  1   
 29  13  40  1   
 30  14  15  1   
 31  15  16  am  
 32  15  41  1   
 33  16  17  2   
 34  16  18  1   
 35  18  19  1   
 36  18  42  1   
 37  18  43  1   
 38  19  20  ar  
 39  19  21  ar  
 40  20  22  1   
 41  20  23  ar  
 42  21  24  ar  
 43  21  44  1   
 44  22  25  1   
 45  23  26  ar  
 46  23  45  1   
 47  24  26  ar  
 48  24  46  1   
 49  25  47  1   
 50  25  48  1   
 51  25  49  1   
 52  26  50  1   
@<TRIPOS>SUBSTRUCTURE
  1 ****  14 GROUP 4 **** **** 0

# MOE 2024.06 (io_trps.svl 2023.06)
