@<TRIPOS>MOLECULE
NONAME
32 33 1 0 0 
SMALL
USER_CHARGES


@<TRIPOS>ATOM
  1 CL       0.5830    -0.6890    -0.6020 Cl    1 <1>  -0.1770 
  2 C        2.2790    -0.6320    -0.1970 C.ar  1 <1>   0.1770 
  3 C        2.7580    -1.4090     0.8390 C.ar  1 <1>  -0.1500 
  4 C        3.1230     0.1900    -0.9170 C.ar  1 <1>  -0.1500 
  5 C        4.1050    -1.3590     1.1550 C.ar  1 <1>  -0.1500 
  6 C        4.4680     0.2310    -0.5910 C.ar  1 <1>  -0.1500 
  7 C        4.9940    -0.5400     0.4510 C.ar  1 <1>   0.0540 
  8 C        6.4070    -0.4980     0.7920 C.2   1 <1>   0.4620 
  9 N        6.9730    -1.1750     1.7280 N.2   1 <1>  -0.4100 
 10 N        7.2830     0.2740     0.1430 N.2   1 <1>  -0.5650 
 11 O        8.2340    -0.8770     1.7270 O.3   1 <1>  -0.0190 
 12 C        8.3570    -0.0130     0.7540 C.2   1 <1>   0.2980 
 13 C        9.7280     0.5740     0.4570 C.3   1 <1>   0.0200 
 14 C       10.6620    -0.3380    -0.3770 C.3   1 <1>   0.0000 
 15 C       10.0240    -0.6750    -1.7340 C.3   1 <1>  -0.2400 
 16 C       11.9830     0.4050    -0.6290 C.3   1 <1>  -0.2400 
 17 C       10.9780    -1.6480     0.3640 C.3   1 <1>  -0.2400 
 18 H        2.0840    -2.0420     1.3870 H     1 <1>   0.1500 
 19 H        2.7300     0.7870    -1.7200 H     1 <1>   0.1500 
 20 H        4.4750    -1.9670     1.9630 H     1 <1>   0.1500 
 21 H        5.1230     0.8730    -1.1550 H     1 <1>   0.1500 
 22 H       10.2000     0.8160     1.3930 H     1 <1>   0.0800 
 23 H        9.5800     1.4970    -0.0730 H     1 <1>   0.0800 
 24 H        9.7840     0.2240    -2.2740 H     1 <1>   0.0800 
 25 H        9.1180    -1.2400    -1.6030 H     1 <1>   0.0800 
 26 H       10.6970    -1.2610    -2.3340 H     1 <1>   0.0800 
 27 H       11.8070     1.3210    -1.1650 H     1 <1>   0.0800 
 28 H       12.6530    -0.2010    -1.2140 H     1 <1>   0.0800 
 29 H       12.4690     0.6430     0.3000 H     1 <1>   0.0800 
 30 H       10.0940    -2.2500     0.4800 H     1 <1>   0.0800 
 31 H       11.3840    -1.4460     1.3390 H     1 <1>   0.0800 
 32 H       11.6970    -2.2280    -0.1880 H     1 <1>   0.0800 
@<TRIPOS>BOND
  1   1   2  1   
  2   2   3  ar  
  3   2   4  ar  
  4   3   5  ar  
  5   3  18  1   
  6   4   6  ar  
  7   4  19  1   
  8   5   7  ar  
  9   5  20  1   
 10   6   7  ar  
 11   6  21  1   
 12   7   8  1   
 13   8   9  2   
 14   8  10  1   
 15   9  11  1   
 16  10  12  2   
 17  11  12  1   
 18  12  13  1   
 19  13  14  1   
 20  13  22  1   
 21  13  23  1   
 22  14  15  1   
 23  14  16  1   
 24  14  17  1   
 25  15  24  1   
 26  15  25  1   
 27  15  26  1   
 28  16  27  1   
 29  16  28  1   
 30  16  29  1   
 31  17  30  1   
 32  17  31  1   
 33  17  32  1   
@<TRIPOS>SUBSTRUCTURE
  1 ****   8 GROUP 4 **** **** 0

# MOE 2024.06 (io_trps.svl 2023.06)
