@<TRIPOS>MOLECULE
NONAME
39 41 1 0 0 
SMALL
USER_CHARGES


@<TRIPOS>ATOM
  1 S       -0.3350     0.2090     0.0730 S.3   1 <1>  -0.2860 
  2 C        1.2390     1.0680     0.0340 C.2   1 <1>   0.2420 
  3 C       -1.5500     1.5750    -0.2820 C.3   1 <1>   0.1310 
  4 N        1.3490     2.3320    -0.1690 N.2   1 <1>  -0.3380 
  5 N        2.4040     0.4540     0.2100 N.pl3 1 <1>   0.0480 
  6 C       -2.9870     1.0760    -0.2710 C.2   1 <1>   0.5690 
  7 N        2.6550     2.5920    -0.1290 N.2   1 <1>  -0.3380 
  8 C        3.2820     1.4710     0.1050 C.2   1 <1>   0.1330 
  9 C        2.6640    -0.9880     0.4100 C.3   1 <1>   0.0160 
 10 O       -3.8410     1.7940    -0.7350 O.2   1 <1>  -0.5700 
 11 N       -3.2730    -0.1430     0.2610 N.am  1 <1>  -0.5790 
 12 C        4.7130     1.3260     0.2200 C.ar  1 <1>   0.0530 
 13 C       -4.6050    -0.7570     0.3480 C.3   1 <1>   0.0490 
 14 C        5.3040     0.7380     1.3370 C.ar  1 <1>  -0.1500 
 15 C        5.5530     1.7730    -0.7960 C.ar  1 <1>  -0.1500 
 16 C       -4.9000    -1.6270     1.5240 C.3   1 <1>  -0.2000 
 17 C       -4.7070    -2.2350     0.1670 C.3   1 <1>  -0.2000 
 18 C        6.6760     0.5830     1.4230 C.ar  1 <1>  -0.1500 
 19 C        6.9240     1.6210    -0.7140 C.ar  1 <1>  -0.1500 
 20 C        7.4960     1.0220     0.3970 C.ar  1 <1>  -0.1430 
 21 C        9.0010     0.8520     0.4870 C.3   1 <1>  -0.0970 
 22 H       -1.3030     1.9770    -1.2470 H     1 <1>   0.0800 
 23 H       -1.4120     2.3300     0.4690 H     1 <1>   0.0800 
 24 H        1.9280    -1.5650    -0.1200 H     1 <1>   0.0800 
 25 H        2.6140    -1.2170     1.4580 H     1 <1>   0.0800 
 26 H        3.6400    -1.2350     0.0320 H     1 <1>   0.0800 
 27 H       -2.5030    -0.7150     0.6120 H     1 <1>   0.3700 
 28 H       -5.3910    -0.1310    -0.0460 H     1 <1>   0.1000 
 29 H        4.6850     0.4070     2.1500 H     1 <1>   0.1500 
 30 H        5.1180     2.2470    -1.6590 H     1 <1>   0.1500 
 31 H       -5.8930    -1.6110     1.9370 H     1 <1>   0.1000 
 32 H       -4.1420    -1.7630     2.2740 H     1 <1>   0.1000 
 33 H       -3.8130    -2.7980    -0.0340 H     1 <1>   0.1000 
 34 H       -5.5690    -2.6320    -0.3400 H     1 <1>   0.1000 
 35 H        7.1060     0.1220     2.2960 H     1 <1>   0.1500 
 36 H        7.5470     1.9730    -1.5180 H     1 <1>   0.1500 
 37 H        9.3210     0.8600     1.5140 H     1 <1>   0.0800 
 38 H        9.5010     1.6530    -0.0280 H     1 <1>   0.0800 
 39 H        9.2900    -0.0820     0.0410 H     1 <1>   0.0800 
@<TRIPOS>BOND
  1   1   2  1   
  2   1   3  1   
  3   2   4  2   
  4   2   5  1   
  5   3   6  1   
  6   3  22  1   
  7   3  23  1   
  8   4   7  1   
  9   5   8  1   
 10   5   9  1   
 11   6  10  2   
 12   6  11  am  
 13   7   8  2   
 14   8  12  1   
 15   9  24  1   
 16   9  25  1   
 17   9  26  1   
 18  11  13  1   
 19  11  27  1   
 20  12  14  ar  
 21  12  15  ar  
 22  13  16  1   
 23  13  17  1   
 24  13  28  1   
 25  14  18  ar  
 26  14  29  1   
 27  15  19  ar  
 28  15  30  1   
 29  16  17  1   
 30  16  31  1   
 31  16  32  1   
 32  17  33  1   
 33  17  34  1   
 34  18  20  ar  
 35  18  35  1   
 36  19  20  ar  
 37  19  36  1   
 38  20  21  1   
 39  21  37  1   
 40  21  38  1   
 41  21  39  1   
@<TRIPOS>SUBSTRUCTURE
  1 ****   2 GROUP 4 **** **** 0

# MOE 2024.06 (io_trps.svl 2023.06)
