@<TRIPOS>MOLECULE
NONAME
40 42 1 0 0 
SMALL
USER_CHARGES


@<TRIPOS>ATOM
  1 BR      -2.0540     0.5150     3.3030 Br    1 <1>  -0.1110 
  2 C       -2.5650     1.1790     1.5720 C.ar  1 <1>   0.1110 
  3 C       -3.6650     0.6230     0.9490 C.ar  1 <1>  -0.1500 
  4 C       -1.8220     2.1930     0.9990 C.ar  1 <1>  -0.1500 
  5 C       -4.0450     1.1050    -0.2970 C.ar  1 <1>  -0.1440 
  6 C       -2.1990     2.6620    -0.2470 C.ar  1 <1>  -0.1500 
  7 C       -3.3020     2.1200    -0.8900 C.ar  1 <1>  -0.1500 
  8 C       -5.2610     0.5340    -1.0010 C.3   1 <1>   0.4870 
  9 N       -6.4820     1.0330    -0.3130 N.4   1 <1>  -0.9590 
 10 C       -7.7310     0.3640    -0.8350 C.3   1 <1>   0.3430 
 11 C       -6.5950     2.5400    -0.4000 C.3   1 <1>   0.3430 
 12 C       -9.0150     0.8910    -0.1570 C.3   1 <1>   0.2090 
 13 C       -7.8700     3.0820     0.2800 C.3   1 <1>   0.2090 
 14 N       -9.0810     2.3780    -0.2350 N.pl3 1 <1>  -0.8380 
 15 C      -10.3080     2.9570     0.0680 C.ar  1 <1>   0.1000 
 16 C      -10.7920     2.9910     1.3730 C.ar  1 <1>  -0.1500 
 17 C      -11.0710     3.5120    -0.9530 C.ar  1 <1>  -0.1500 
 18 C      -12.0170     3.5710     1.6540 C.ar  1 <1>  -0.1500 
 19 C      -12.2970     4.0930    -0.6810 C.ar  1 <1>  -0.1500 
 20 C      -12.7580     4.1170     0.6220 C.ar  1 <1>   0.1770 
 21 CL     -14.3050     4.8490     0.9720 Cl    1 <1>  -0.1770 
 22 H       -4.1950    -0.1720     1.4450 H     1 <1>   0.1500 
 23 H       -0.9700     2.6000     1.5150 H     1 <1>   0.1500 
 24 H       -1.6280     3.4480    -0.7150 H     1 <1>   0.1500 
 25 H       -3.5670     2.5030    -1.8620 H     1 <1>   0.1500 
 26 H       -5.2230    -0.5420    -0.9590 H     1 <1>   0.0800 
 27 H       -5.2640     0.8360    -2.0360 H     1 <1>   0.0800 
 28 H       -6.3820     0.8030     0.6820 H     1 <1>   0.4500 
 29 H       -7.6700    -0.7010    -0.6860 H     1 <1>   0.0800 
 30 H       -7.8210     0.5460    -1.8930 H     1 <1>   0.0800 
 31 H       -6.6180     2.8400    -1.4350 H     1 <1>   0.0800 
 32 H       -5.7340     3.0010     0.0570 H     1 <1>   0.0800 
 33 H       -9.0420     0.5800     0.8740 H     1 <1>   0.0800 
 34 H       -9.8770     0.4730    -0.6500 H     1 <1>   0.0800 
 35 H       -7.9610     4.1360     0.0790 H     1 <1>   0.0800 
 36 H       -7.8000     2.9540     1.3460 H     1 <1>   0.0800 
 37 H      -10.2110     2.5650     2.1700 H     1 <1>   0.1500 
 38 H      -10.6970     3.4850    -1.9600 H     1 <1>   0.1500 
 39 H      -12.4000     3.6030     2.6580 H     1 <1>   0.1500 
 40 H      -12.8930     4.5250    -1.4660 H     1 <1>   0.1500 
@<TRIPOS>BOND
  1   1   2  1   
  2   2   3  ar  
  3   2   4  ar  
  4   3   5  ar  
  5   3  22  1   
  6   4   6  ar  
  7   4  23  1   
  8   5   7  ar  
  9   5   8  1   
 10   6   7  ar  
 11   6  24  1   
 12   7  25  1   
 13   8   9  1   
 14   8  26  1   
 15   8  27  1   
 16   9  10  1   
 17   9  11  1   
 18   9  28  1   
 19  10  12  1   
 20  10  29  1   
 21  10  30  1   
 22  11  13  1   
 23  11  31  1   
 24  11  32  1   
 25  12  14  1   
 26  12  33  1   
 27  12  34  1   
 28  13  14  1   
 29  13  35  1   
 30  13  36  1   
 31  14  15  1   
 32  15  16  ar  
 33  15  17  ar  
 34  16  18  ar  
 35  16  37  1   
 36  17  19  ar  
 37  17  38  1   
 38  18  20  ar  
 39  18  39  1   
 40  19  20  ar  
 41  19  40  1   
 42  20  21  1   
@<TRIPOS>SUBSTRUCTURE
  1 ****  13 GROUP 4 **** **** 0

# MOE 2024.06 (io_trps.svl 2023.06)
