@<TRIPOS>MOLECULE
NONAME
46 47 1 0 0 
SMALL
USER_CHARGES


@<TRIPOS>ATOM
  1 O        0.4870     2.2810     0.8180 O.2   1 <1>  -0.5700 
  2 C        0.5960     2.0320    -0.3580 C.2   1 <1>   0.5690 
  3 N       -0.3660     1.4020    -1.1010 N.am  1 <1>  -0.5470 
  4 C        1.8870     2.4220    -1.0310 C.3   1 <1>  -0.0380 
  5 C       -1.6400     0.9360    -0.7400 C.ar  1 <1>   0.1170 
  6 C        3.0140     1.5560    -0.5220 C.2   1 <1>   0.5690 
  7 C       -2.2250    -0.0640    -1.5090 C.ar  1 <1>  -0.1500 
  8 C       -2.3570     1.4370     0.3420 C.ar  1 <1>  -0.1500 
  9 O        3.8160     1.1130    -1.3090 O.2   1 <1>  -0.5700 
 10 N        3.1370     1.3160     0.8090 N.am  1 <1>  -0.7300 
 11 C       -3.4820    -0.5530    -1.2050 C.ar  1 <1>  -0.1500 
 12 C       -3.6140     0.9480     0.6480 C.ar  1 <1>  -0.1500 
 13 C        3.9710     0.2700     1.4710 C.3   1 <1>   0.1400 
 14 C       -4.1860    -0.0490    -0.1240 C.ar  1 <1>  -0.1430 
 15 C        5.4540     0.6770     1.5910 C.3   1 <1>   0.3430 
 16 C       -5.5650    -0.5850     0.2150 C.3   1 <1>  -0.0970 
 17 N        6.0780     0.8640     0.2490 N.4   1 <1>  -0.9590 
 18 C        6.4880    -0.4260    -0.4010 C.3   1 <1>   0.3430 
 19 C        7.2040     1.8540     0.2510 C.3   1 <1>   0.3430 
 20 C        7.1430    -0.1710    -1.7720 C.3   1 <1>   0.1200 
 21 C        7.8310     1.9910    -1.1500 C.3   1 <1>   0.1200 
 22 O        8.2020     0.7340    -1.6400 O.3   1 <1>  -0.5600 
 23 H       -0.1190     1.2000    -2.0680 H     1 <1>   0.3700 
 24 H        2.1030     3.4480    -0.8050 H     1 <1>   0.0800 
 25 H        1.8020     2.3190    -2.0960 H     1 <1>   0.0800 
 26 H       -1.6960    -0.4700    -2.3510 H     1 <1>   0.1500 
 27 H       -1.9410     2.2160     0.9530 H     1 <1>   0.1500 
 28 H        2.3530     1.6690     1.3880 H     1 <1>   0.3700 
 29 H       -3.9130    -1.3300    -1.8130 H     1 <1>   0.1500 
 30 H       -4.1460     1.3500     1.4930 H     1 <1>   0.1500 
 31 H        3.8870    -0.6540     0.9240 H     1 <1>   0.0800 
 32 H        3.5780     0.0970     2.4590 H     1 <1>   0.0800 
 33 H        5.9960    -0.0740     2.1440 H     1 <1>   0.0800 
 34 H        5.5030     1.5980     2.1480 H     1 <1>   0.0800 
 35 H       -6.1720     0.1890     0.6490 H     1 <1>   0.0800 
 36 H       -5.4780    -1.3930     0.9180 H     1 <1>   0.0800 
 37 H       -6.0580    -0.9450    -0.6700 H     1 <1>   0.0800 
 38 H        5.3220     1.2380    -0.3630 H     1 <1>   0.4500 
 39 H        5.6260    -1.0580    -0.5380 H     1 <1>   0.0800 
 40 H        7.1940    -0.9460     0.2240 H     1 <1>   0.0800 
 41 H        7.9710     1.5340     0.9370 H     1 <1>   0.0800 
 42 H        6.8460     2.8180     0.5750 H     1 <1>   0.0800 
 43 H        6.4280     0.2260    -2.4730 H     1 <1>   0.0800 
 44 H        7.5420    -1.0880    -2.1700 H     1 <1>   0.0800 
 45 H        8.7170     2.5990    -1.1030 H     1 <1>   0.0800 
 46 H        7.1400     2.4430    -1.8410 H     1 <1>   0.0800 
@<TRIPOS>BOND
  1   1   2  2   
  2   2   3  am  
  3   2   4  1   
  4   3   5  1   
  5   3  23  1   
  6   4   6  1   
  7   4  24  1   
  8   4  25  1   
  9   5   7  ar  
 10   5   8  ar  
 11   6   9  2   
 12   6  10  am  
 13   7  11  ar  
 14   7  26  1   
 15   8  12  ar  
 16   8  27  1   
 17  10  13  1   
 18  10  28  1   
 19  11  14  ar  
 20  11  29  1   
 21  12  14  ar  
 22  12  30  1   
 23  13  15  1   
 24  13  31  1   
 25  13  32  1   
 26  14  16  1   
 27  15  17  1   
 28  15  33  1   
 29  15  34  1   
 30  16  35  1   
 31  16  36  1   
 32  16  37  1   
 33  17  18  1   
 34  17  19  1   
 35  17  38  1   
 36  18  20  1   
 37  18  39  1   
 38  18  40  1   
 39  19  21  1   
 40  19  41  1   
 41  19  42  1   
 42  20  22  1   
 43  20  43  1   
 44  20  44  1   
 45  21  22  1   
 46  21  45  1   
 47  21  46  1   
@<TRIPOS>SUBSTRUCTURE
  1 ****   6 GROUP 4 **** **** 0

# MOE 2024.06 (io_trps.svl 2023.06)
