@<TRIPOS>MOLECULE
NONAME
48 50 1 0 0 
SMALL
USER_CHARGES


@<TRIPOS>ATOM
  1 O       -0.0760    -0.2950    -0.5200 O.2   1 <1>  -0.5700 
  2 C       -0.4070    -1.4510    -0.3530 C.2   1 <1>   0.7800 
  3 O        0.4940    -2.4270    -0.4370 O.3   1 <1>  -0.4300 
  4 N       -1.6740    -1.8630    -0.0860 N.am  1 <1>  -0.5470 
  5 C        1.8440    -2.1370    -0.7200 C.3   1 <1>   0.1200 
  6 C       -2.8750    -1.1500     0.0610 C.ar  1 <1>   0.1170 
  7 C        2.6150    -3.4530    -0.7500 C.3   1 <1>  -0.2400 
  8 C       -4.0710    -1.8050    -0.1570 C.ar  1 <1>  -0.1500 
  9 C       -2.8990     0.2070     0.4340 C.ar  1 <1>  -0.1500 
 10 C       -5.2730    -1.1190    -0.0150 C.ar  1 <1>   0.2270 
 11 C       -4.0830     0.8940     0.5750 C.ar  1 <1>  -0.1500 
 12 N       -6.5460    -1.5700    -0.1860 N.2   1 <1>  -0.5650 
 13 C       -5.2800     0.2130     0.3430 C.ar  1 <1>  -0.1520 
 14 C       -7.2890    -0.5400     0.0600 C.2   1 <1>   0.0060 
 15 N       -6.5880     0.5850     0.3880 N.pl3 1 <1>   0.0480 
 16 C       -8.8100    -0.5860    -0.0250 C.3   1 <1>   0.5230 
 17 C       -7.0530     1.9500     0.7120 C.3   1 <1>   0.0160 
 18 N       -9.2090    -2.0150    -0.0970 N.4   1 <1>  -0.9590 
 19 C      -10.4020    -2.2630    -0.9500 C.3   1 <1>   0.3430 
 20 C       -9.2930    -2.6380     1.2520 C.3   1 <1>   0.3430 
 21 C      -10.6070    -3.7690    -1.1170 C.3   1 <1>  -0.1600 
 22 C       -9.4880    -4.1480     1.1090 C.3   1 <1>  -0.1600 
 23 C      -10.7030    -4.4880     0.2360 C.3   1 <1>  -0.1600 
 24 H       -1.7460    -2.8760    -0.0550 H     1 <1>   0.3700 
 25 H        2.2220    -1.4840     0.0490 H     1 <1>   0.0800 
 26 H        1.8930    -1.6380    -1.6740 H     1 <1>   0.0800 
 27 H        2.5500    -3.9430     0.2050 H     1 <1>   0.0800 
 28 H        3.6510    -3.2610    -0.9650 H     1 <1>   0.0800 
 29 H        2.2200    -4.0970    -1.5150 H     1 <1>   0.0800 
 30 H       -4.1010    -2.8390    -0.4410 H     1 <1>   0.1500 
 31 H       -1.9710     0.7200     0.6150 H     1 <1>   0.1500 
 32 H       -4.0850     1.9320     0.8570 H     1 <1>   0.1500 
 33 H       -9.1220    -0.0680    -0.9160 H     1 <1>   0.0800 
 34 H       -9.2550    -0.1120     0.8340 H     1 <1>   0.0800 
 35 H       -6.7510     2.1970     1.7140 H     1 <1>   0.0800 
 36 H       -8.1210     2.0190     0.6320 H     1 <1>   0.0800 
 37 H       -6.6000     2.6470     0.0280 H     1 <1>   0.0800 
 38 H       -8.3770    -2.4460    -0.5430 H     1 <1>   0.4500 
 39 H      -10.2660    -1.8110    -1.9190 H     1 <1>   0.0800 
 40 H      -11.2760    -1.8310    -0.4890 H     1 <1>   0.0800 
 41 H      -10.1210    -2.2180     1.8000 H     1 <1>   0.0800 
 42 H       -8.3830    -2.4470     1.8010 H     1 <1>   0.0800 
 43 H       -9.7910    -4.1770    -1.6900 H     1 <1>   0.0800 
 44 H      -11.5100    -3.9420    -1.6770 H     1 <1>   0.0800 
 45 H       -9.6160    -4.5800     2.0860 H     1 <1>   0.0800 
 46 H       -8.5980    -4.5790     0.6820 H     1 <1>   0.0800 
 47 H      -10.7540    -5.5530     0.0800 H     1 <1>   0.0800 
 48 H      -11.6060    -4.1870     0.7410 H     1 <1>   0.0800 
@<TRIPOS>BOND
  1   1   2  2   
  2   2   3  1   
  3   2   4  am  
  4   3   5  1   
  5   4   6  1   
  6   4  24  1   
  7   5   7  1   
  8   5  25  1   
  9   5  26  1   
 10   6   8  ar  
 11   6   9  ar  
 12   7  27  1   
 13   7  28  1   
 14   7  29  1   
 15   8  10  ar  
 16   8  30  1   
 17   9  11  ar  
 18   9  31  1   
 19  10  12  1   
 20  10  13  ar  
 21  11  13  ar  
 22  11  32  1   
 23  12  14  2   
 24  13  15  1   
 25  14  15  1   
 26  14  16  1   
 27  15  17  1   
 28  16  18  1   
 29  16  33  1   
 30  16  34  1   
 31  17  35  1   
 32  17  36  1   
 33  17  37  1   
 34  18  19  1   
 35  18  20  1   
 36  18  38  1   
 37  19  21  1   
 38  19  39  1   
 39  19  40  1   
 40  20  22  1   
 41  20  41  1   
 42  20  42  1   
 43  21  23  1   
 44  21  43  1   
 45  21  44  1   
 46  22  23  1   
 47  22  45  1   
 48  22  46  1   
 49  23  47  1   
 50  23  48  1   
@<TRIPOS>SUBSTRUCTURE
  1 ****  10 GROUP 4 **** **** 0

# MOE 2024.06 (io_trps.svl 2023.06)
