@<TRIPOS>MOLECULE
NONAME
46 48 1 0 0 
SMALL
USER_CHARGES


@<TRIPOS>ATOM
  1 F        0.4440     2.0740     0.0900 F     1 <1>  -0.1900 
  2 C        1.6770     2.5040     0.1600 C.ar  1 <1>   0.1900 
  3 C        2.6630     1.8180    -0.5230 C.ar  1 <1>  -0.1500 
  4 C        1.9520     3.6280     0.9150 C.ar  1 <1>  -0.1500 
  5 C        3.9660     2.2790    -0.4460 C.ar  1 <1>  -0.1500 
  6 C        3.2590     4.0770     0.9800 C.ar  1 <1>  -0.1500 
  7 C        4.2820     3.4150     0.3000 C.ar  1 <1>   0.1170 
  8 N        5.6050     3.8910     0.3600 N.am  1 <1>  -0.4770 
  9 C        6.2550     4.4240     1.4360 C.2   1 <1>   0.5690 
 10 C        6.4300     4.0310    -0.8600 C.3   1 <1>   0.1400 
 11 O        5.8410     4.4990     2.5670 O.2   1 <1>  -0.5700 
 12 C        7.6120     4.9460     1.0580 C.3   1 <1>  -0.0990 
 13 C        7.8380     4.3480    -0.3360 C.3   1 <1>  -0.0190 
 14 C        8.6580     5.2460    -1.2570 C.2   1 <1>   0.5690 
 15 O        8.1040     5.9690    -2.0450 O.2   1 <1>  -0.5700 
 16 N       10.0130     5.2460    -1.1840 N.am  1 <1>  -0.5470 
 17 C       10.8410     4.5170    -0.3220 C.ar  1 <1>   0.1170 
 18 C       11.2920     5.0860     0.8720 C.ar  1 <1>  -0.1430 
 19 C       11.2170     3.2130    -0.6530 C.ar  1 <1>  -0.1430 
 20 C       12.0830     4.3390     1.7280 C.ar  1 <1>  -0.1500 
 21 C       10.9520     6.5200     1.2740 C.3   1 <1>  -0.0170 
 22 C       12.0070     2.4840     0.2190 C.ar  1 <1>  -0.1500 
 23 C       10.7870     2.5700    -1.9670 C.3   1 <1>  -0.0970 
 24 C       12.4370     3.0420     1.4080 C.ar  1 <1>  -0.1500 
 25 C       11.9840     7.4970     0.7070 C.3   1 <1>  -0.2400 
 26 H        2.4110     0.9440    -1.0960 H     1 <1>   0.1500 
 27 H        1.1610     4.1350     1.4380 H     1 <1>   0.1500 
 28 H        4.7410     1.7450    -0.9630 H     1 <1>   0.1500 
 29 H        3.4920     4.9480     1.5660 H     1 <1>   0.1500 
 30 H        6.0300     4.8400    -1.4480 H     1 <1>   0.0800 
 31 H        6.4310     3.1290    -1.4440 H     1 <1>   0.0800 
 32 H        8.3600     4.6240     1.7600 H     1 <1>   0.0800 
 33 H        7.5690     6.0190     1.0240 H     1 <1>   0.0800 
 34 H        8.3470     3.4090    -0.2200 H     1 <1>   0.0800 
 35 H       10.4670     5.9180    -1.8030 H     1 <1>   0.3700 
 36 H       12.4360     4.7640     2.6520 H     1 <1>   0.1500 
 37 H       10.9410     6.6020     2.3480 H     1 <1>   0.0800 
 38 H        9.9720     6.7940     0.9290 H     1 <1>   0.0800 
 39 H       12.2980     1.4760    -0.0210 H     1 <1>   0.1500 
 40 H       11.0190     3.2210    -2.7910 H     1 <1>   0.0800 
 41 H        9.7300     2.3790    -1.9610 H     1 <1>   0.0800 
 42 H       11.2990     1.6380    -2.1250 H     1 <1>   0.0800 
 43 H       13.0510     2.4690     2.0810 H     1 <1>   0.1500 
 44 H       12.9660     7.2520     1.0710 H     1 <1>   0.0800 
 45 H       11.7460     8.5020     1.0060 H     1 <1>   0.0800 
 46 H       11.9940     7.4490    -0.3670 H     1 <1>   0.0800 
@<TRIPOS>BOND
  1   1   2  1   
  2   2   3  ar  
  3   2   4  ar  
  4   3   5  ar  
  5   3  26  1   
  6   4   6  ar  
  7   4  27  1   
  8   5   7  ar  
  9   5  28  1   
 10   6   7  ar  
 11   6  29  1   
 12   7   8  1   
 13   8   9  am  
 14   8  10  1   
 15   9  11  2   
 16   9  12  1   
 17  10  13  1   
 18  10  30  1   
 19  10  31  1   
 20  12  13  1   
 21  12  32  1   
 22  12  33  1   
 23  13  14  1   
 24  13  34  1   
 25  14  15  2   
 26  14  16  am  
 27  16  17  1   
 28  16  35  1   
 29  17  18  ar  
 30  17  19  ar  
 31  18  20  ar  
 32  18  21  1   
 33  19  22  ar  
 34  19  23  1   
 35  20  24  ar  
 36  20  36  1   
 37  21  25  1   
 38  21  37  1   
 39  21  38  1   
 40  22  24  ar  
 41  22  39  1   
 42  23  40  1   
 43  23  41  1   
 44  23  42  1   
 45  24  43  1   
 46  25  44  1   
 47  25  45  1   
 48  25  46  1   
@<TRIPOS>SUBSTRUCTURE
  1 ****  13 GROUP 4 **** **** 0

# MOE 2024.06 (io_trps.svl 2023.06)
