@<TRIPOS>MOLECULE
NONAME
40 40 1 0 0 
SMALL
USER_CHARGES


@<TRIPOS>ATOM
  1 O        0.7540    -1.1190    -0.9870 O.2   1 <1>  -0.5700 
  2 C        1.5910    -1.5570    -0.2220 C.2   1 <1>   0.7800 
  3 O        1.2880    -2.4620     0.7080 O.3   1 <1>  -0.4300 
  4 N        2.8770    -1.1610    -0.2450 N.am  1 <1>  -0.7300 
  5 C        0.0320    -3.0600     0.9370 C.3   1 <1>   0.2800 
  6 C        3.5720    -0.4630    -1.3830 C.3   1 <1>   0.1140 
  7 C       -0.4110    -3.8540    -0.2980 C.3   1 <1>  -0.2400 
  8 C       -0.9940    -1.9990     1.3520 C.3   1 <1>  -0.2400 
  9 C        0.2580    -4.0250     2.1020 C.3   1 <1>  -0.2400 
 10 C        4.9230    -1.1210    -1.7300 C.2   1 <1>   0.9060 
 11 C        3.7560     1.0450    -1.0980 C.3   1 <1>   0.0630 
 12 O        5.3140    -2.0880    -1.0570 O.co2 1 <1>  -0.9000 
 13 O        5.5760    -0.6870    -2.6910 O.co2 1 <1>  -0.9000 
 14 C        4.5820     1.3200     0.1670 C.ar  1 <1>  -0.1440 
 15 C        2.4140     1.7990    -1.0920 C.3   1 <1>  -0.2400 
 16 C        4.0070     1.4110     1.4280 C.ar  1 <1>  -0.1500 
 17 C        5.9550     1.4780     0.0490 C.ar  1 <1>  -0.1500 
 18 C        4.7850     1.6770     2.5420 C.ar  1 <1>  -0.1500 
 19 C        6.7360     1.7430     1.1600 C.ar  1 <1>  -0.1500 
 20 C        6.1510     1.8470     2.4090 C.ar  1 <1>  -0.1500 
 21 H        3.5560    -1.7530     0.2500 H     1 <1>   0.3700 
 22 H        2.9660    -0.5640    -2.2630 H     1 <1>   0.0800 
 23 H       -0.6460    -3.1980    -1.1150 H     1 <1>   0.0800 
 24 H       -1.2930    -4.4240    -0.0730 H     1 <1>   0.0800 
 25 H        0.3670    -4.5310    -0.6030 H     1 <1>   0.0800 
 26 H       -0.6160    -1.4160     2.1720 H     1 <1>   0.0800 
 27 H       -1.9080    -2.4720     1.6600 H     1 <1>   0.0800 
 28 H       -1.2260    -1.3450     0.5320 H     1 <1>   0.0800 
 29 H        0.5950    -3.4880     2.9690 H     1 <1>   0.0800 
 30 H        0.9980    -4.7590     1.8360 H     1 <1>   0.0800 
 31 H       -0.6550    -4.5360     2.3490 H     1 <1>   0.0800 
 32 H        4.3090     1.4460    -1.9300 H     1 <1>   0.0800 
 33 H        1.7530     1.4070    -0.3420 H     1 <1>   0.0800 
 34 H        1.9330     1.6930    -2.0470 H     1 <1>   0.0800 
 35 H        2.5810     2.8430    -0.9010 H     1 <1>   0.0800 
 36 H        2.9500     1.2630     1.5500 H     1 <1>   0.1500 
 37 H        6.4230     1.3780    -0.9180 H     1 <1>   0.1500 
 38 H        4.3240     1.7450     3.5110 H     1 <1>   0.1500 
 39 H        7.7990     1.8570     1.0470 H     1 <1>   0.1500 
 40 H        6.7570     2.0520     3.2730 H     1 <1>   0.1500 
@<TRIPOS>BOND
  1   1   2  2   
  2   2   3  1   
  3   2   4  am  
  4   3   5  1   
  5   4   6  1   
  6   4  21  1   
  7   5   7  1   
  8   5   8  1   
  9   5   9  1   
 10   6  10  1   
 11   6  11  1   
 12   6  22  1   
 13   7  23  1   
 14   7  24  1   
 15   7  25  1   
 16   8  26  1   
 17   8  27  1   
 18   8  28  1   
 19   9  29  1   
 20   9  30  1   
 21   9  31  1   
 22  10  12  ar  
 23  10  13  ar  
 24  11  14  1   
 25  11  15  1   
 26  11  32  1   
 27  14  16  ar  
 28  14  17  ar  
 29  15  33  1   
 30  15  34  1   
 31  15  35  1   
 32  16  18  ar  
 33  16  36  1   
 34  17  19  ar  
 35  17  37  1   
 36  18  20  ar  
 37  18  38  1   
 38  19  20  ar  
 39  19  39  1   
 40  20  40  1   
@<TRIPOS>SUBSTRUCTURE
  1 ****   4 GROUP 4 **** **** 0

# MOE 2024.06 (io_trps.svl 2023.06)
