@<TRIPOS>MOLECULE
NONAME
53 56 1 0 0 
SMALL
USER_CHARGES


@<TRIPOS>ATOM
  1 O        0.3390    -0.0960     0.0500 O.3   1 <1>  -0.3630 
  2 C        1.3510     0.8040     0.2230 C.ar  1 <1>   0.0820 
  3 C       -0.9460     0.0530     0.6100 C.3   1 <1>   0.0400 
  4 C        1.3270     1.9740     1.0030 C.ar  1 <1>   0.0820 
  5 C        2.5030     0.4770    -0.4700 C.ar  1 <1>  -0.1500 
  6 O        0.2050     2.3180     1.6990 O.3   1 <1>  -0.3630 
  7 C        2.4720     2.7690     1.0510 C.ar  1 <1>  -0.1500 
  8 C        3.6360     1.2710    -0.4180 C.ar  1 <1>  -0.1440 
  9 C        0.1180     3.4840     2.4900 C.3   1 <1>   0.0400 
 10 C        3.6180     2.4270     0.3510 C.ar  1 <1>  -0.1440 
 11 C        4.8580     0.8510    -1.2160 C.3   1 <1>   0.4860 
 12 C        4.8450     3.3220     0.4530 C.3   1 <1>  -0.0160 
 13 N        6.0810     1.4690    -0.6390 N.4   1 <1>  -0.9590 
 14 C        5.9290     2.9550    -0.5640 C.3   1 <1>   0.3430 
 15 C        7.3120     1.0330    -1.3540 C.3   1 <1>   0.4860 
 16 C        8.5220     1.5650    -0.6110 C.ar  1 <1>  -0.1440 
 17 C        9.1630     2.7610    -1.0260 C.ar  1 <1>   0.0000 
 18 C        8.9700     0.8730     0.4840 C.ar  1 <1>  -0.1500 
 19 C       10.2420     3.2530    -0.2510 C.ar  1 <1>   0.0000 
 20 C        8.7810     3.5000    -2.1750 C.ar  1 <1>  -0.1500 
 21 C       10.0510     1.3440     1.2300 C.ar  1 <1>  -0.1500 
 22 C       10.6760     2.5160     0.8800 C.ar  1 <1>   0.0820 
 23 C       10.8500     4.4680    -0.6370 C.ar  1 <1>  -0.1500 
 24 C        9.3970     4.6690    -2.5200 C.ar  1 <1>  -0.1500 
 25 O       11.7220     3.0220     1.5820 O.3   1 <1>  -0.3620 
 26 C       10.4420     5.1630    -1.7390 C.ar  1 <1>  -0.1500 
 27 C       12.3040     2.3470     2.6750 C.3   1 <1>   0.0400 
 28 H       -1.5500    -0.7770     0.2900 H     1 <1>   0.0800 
 29 H       -1.3750     0.9750     0.2600 H     1 <1>   0.0800 
 30 H       -0.8620     0.0500     1.6830 H     1 <1>   0.0800 
 31 H        2.4870    -0.4240    -1.0590 H     1 <1>   0.1500 
 32 H        2.4870     3.6660     1.6390 H     1 <1>   0.1500 
 33 H       -0.8660     3.5200     2.9210 H     1 <1>   0.0800 
 34 H        0.2710     4.3450     1.8640 H     1 <1>   0.0800 
 35 H        0.8550     3.4340     3.2710 H     1 <1>   0.0800 
 36 H        4.7320     1.1630    -2.2400 H     1 <1>   0.0800 
 37 H        4.9410    -0.2240    -1.1940 H     1 <1>   0.0800 
 38 H        5.2550     3.2440     1.4440 H     1 <1>   0.0800 
 39 H        4.5620     4.3490     0.3020 H     1 <1>   0.0800 
 40 H        6.1520     1.1380     0.3300 H     1 <1>   0.4500 
 41 H        6.8550     3.4190    -0.2650 H     1 <1>   0.0800 
 42 H        5.6550     3.3410    -1.5330 H     1 <1>   0.0800 
 43 H        7.3050     1.3760    -2.3730 H     1 <1>   0.0800 
 44 H        7.3620    -0.0440    -1.3670 H     1 <1>   0.0800 
 45 H        8.5080    -0.0460     0.8040 H     1 <1>   0.1500 
 46 H        7.9940     3.1500    -2.8120 H     1 <1>   0.1500 
 47 H       10.3670     0.7640     2.0770 H     1 <1>   0.1500 
 48 H       11.6620     4.8500    -0.0420 H     1 <1>   0.1500 
 49 H        9.1000     5.2240    -3.3940 H     1 <1>   0.1500 
 50 H       10.9200     6.0870    -2.0180 H     1 <1>   0.1500 
 51 H       13.1280     2.9390     3.0320 H     1 <1>   0.0800 
 52 H       12.6620     1.3880     2.3440 H     1 <1>   0.0800 
 53 H       11.5700     2.2390     3.4530 H     1 <1>   0.0800 
@<TRIPOS>BOND
  1   1   2  1   
  2   1   3  1   
  3   2   4  ar  
  4   2   5  ar  
  5   3  28  1   
  6   3  29  1   
  7   3  30  1   
  8   4   6  1   
  9   4   7  ar  
 10   5   8  ar  
 11   5  31  1   
 12   6   9  1   
 13   7  10  ar  
 14   7  32  1   
 15   8  10  ar  
 16   8  11  1   
 17   9  33  1   
 18   9  34  1   
 19   9  35  1   
 20  10  12  1   
 21  11  13  1   
 22  11  36  1   
 23  11  37  1   
 24  12  14  1   
 25  12  38  1   
 26  12  39  1   
 27  13  14  1   
 28  13  15  1   
 29  13  40  1   
 30  14  41  1   
 31  14  42  1   
 32  15  16  1   
 33  15  43  1   
 34  15  44  1   
 35  16  17  ar  
 36  16  18  ar  
 37  17  19  ar  
 38  17  20  ar  
 39  18  21  ar  
 40  18  45  1   
 41  19  22  ar  
 42  19  23  ar  
 43  20  24  ar  
 44  20  46  1   
 45  21  22  ar  
 46  21  47  1   
 47  22  25  1   
 48  23  26  ar  
 49  23  48  1   
 50  24  26  ar  
 51  24  49  1   
 52  25  27  1   
 53  26  50  1   
 54  27  51  1   
 55  27  52  1   
 56  27  53  1   
@<TRIPOS>SUBSTRUCTURE
  1 ****  14 GROUP 4 **** **** 0

# MOE 2024.06 (io_trps.svl 2023.06)
