@<TRIPOS>MOLECULE
NONAME
53 56 1 0 0 
SMALL
USER_CHARGES


@<TRIPOS>ATOM
  1 O       -4.4140     0.5220     1.9760 O.3   1 <1>  -0.3630 
  2 C       -4.0970     0.6820     0.6660 C.ar  1 <1>   0.0820 
  3 C       -3.3310     0.3980     2.8790 C.3   1 <1>   0.1200 
  4 C       -2.8090     1.0470     0.2730 C.ar  1 <1>   0.0820 
  5 C       -5.0770     0.4760    -0.2880 C.ar  1 <1>  -0.1500 
  6 C       -2.2350     1.4170     2.5370 C.3   1 <1>   0.1200 
  7 O       -1.8320     1.2750     1.1870 O.3   1 <1>  -0.3630 
  8 C       -2.5130     1.1850    -1.0710 C.ar  1 <1>  -0.1500 
  9 C       -4.7860     0.6260    -1.6370 C.ar  1 <1>  -0.1430 
 10 C       -3.4990     0.9760    -2.0230 C.ar  1 <1>  -0.1500 
 11 C       -5.8770     0.4130    -2.6760 C.3   1 <1>   0.2530 
 12 N       -7.0200     1.3080    -2.4100 N.3   1 <1>  -0.8100 
 13 C       -6.6460     2.7440    -2.4740 C.3   1 <1>   0.1100 
 14 C       -8.1720     1.0270    -3.2950 C.3   1 <1>   0.1100 
 15 C       -7.8380     3.6740    -2.1450 C.3   1 <1>   0.3430 
 16 C       -9.3870     1.9350    -2.9780 C.3   1 <1>   0.3430 
 17 N       -9.0790     2.8850    -1.8570 N.4   1 <1>  -0.9590 
 18 C      -10.2140     3.7100    -1.3960 C.3   1 <1>   0.4810 
 19 C      -11.2480     2.7820    -0.8080 C.2   1 <1>  -0.2880 
 20 C      -11.4440     2.5880     0.5080 C.2   1 <1>  -0.1780 
 21 C      -12.4130     1.7180     1.1380 C.ar  1 <1>   0.0280 
 22 C      -12.2510     1.3460     2.4700 C.ar  1 <1>  -0.1500 
 23 C      -13.5280     1.2260     0.4620 C.ar  1 <1>  -0.1500 
 24 C      -13.1560     0.5120     3.1010 C.ar  1 <1>  -0.1500 
 25 C      -14.4370     0.3910     1.0860 C.ar  1 <1>  -0.1500 
 26 C      -14.2520     0.0310     2.4080 C.ar  1 <1>  -0.1500 
 27 H       -3.7070     0.5590     3.8730 H     1 <1>   0.0800 
 28 H       -2.9460    -0.6040     2.8040 H     1 <1>   0.0800 
 29 H       -6.0660     0.1990     0.0290 H     1 <1>   0.1500 
 30 H       -1.3690     1.2700     3.1570 H     1 <1>   0.0800 
 31 H       -2.6010     2.4190     2.6730 H     1 <1>   0.0800 
 32 H       -1.5150     1.4570    -1.3640 H     1 <1>   0.1500 
 33 H       -3.2520     1.0890    -3.0640 H     1 <1>   0.1500 
 34 H       -6.2030    -0.6120    -2.6220 H     1 <1>   0.0800 
 35 H       -5.4900     0.5910    -3.6660 H     1 <1>   0.0800 
 36 H       -5.8580     2.9480    -1.7680 H     1 <1>   0.0800 
 37 H       -6.2670     2.9820    -3.4540 H     1 <1>   0.0800 
 38 H       -7.8860     1.1620    -4.3250 H     1 <1>   0.0800 
 39 H       -8.4700    -0.0020    -3.1750 H     1 <1>   0.0800 
 40 H       -8.0060     4.3400    -2.9750 H     1 <1>   0.0800 
 41 H       -7.5780     4.2750    -1.2890 H     1 <1>   0.0800 
 42 H      -10.2210     1.3090    -2.7090 H     1 <1>   0.0800 
 43 H       -9.6600     2.4840    -3.8640 H     1 <1>   0.0800 
 44 H       -8.8050     2.2590    -1.0830 H     1 <1>   0.4500 
 45 H       -9.8770     4.3910    -0.6320 H     1 <1>   0.0800 
 46 H      -10.6320     4.2820    -2.2090 H     1 <1>   0.0800 
 47 H      -11.8300     2.2770    -1.5570 H     1 <1>   0.1500 
 48 H      -10.8320     3.1140     1.2220 H     1 <1>   0.1500 
 49 H      -11.4050     1.7080     3.0260 H     1 <1>   0.1500 
 50 H      -13.7010     1.4990    -0.5620 H     1 <1>   0.1500 
 51 H      -13.0090     0.2360     4.1310 H     1 <1>   0.1500 
 52 H      -15.2910     0.0210     0.5460 H     1 <1>   0.1500 
 53 H      -14.9580    -0.6190     2.8960 H     1 <1>   0.1500 
@<TRIPOS>BOND
  1   1   2  1   
  2   1   3  1   
  3   2   4  ar  
  4   2   5  ar  
  5   3   6  1   
  6   3  27  1   
  7   3  28  1   
  8   4   7  1   
  9   4   8  ar  
 10   5   9  ar  
 11   5  29  1   
 12   6   7  1   
 13   6  30  1   
 14   6  31  1   
 15   8  10  ar  
 16   8  32  1   
 17   9  10  ar  
 18   9  11  1   
 19  10  33  1   
 20  11  12  1   
 21  11  34  1   
 22  11  35  1   
 23  12  13  1   
 24  12  14  1   
 25  13  15  1   
 26  13  36  1   
 27  13  37  1   
 28  14  16  1   
 29  14  38  1   
 30  14  39  1   
 31  15  17  1   
 32  15  40  1   
 33  15  41  1   
 34  16  17  1   
 35  16  42  1   
 36  16  43  1   
 37  17  18  1   
 38  17  44  1   
 39  18  19  1   
 40  18  45  1   
 41  18  46  1   
 42  19  20  2   
 43  19  47  1   
 44  20  21  1   
 45  20  48  1   
 46  21  22  ar  
 47  21  23  ar  
 48  22  24  ar  
 49  22  49  1   
 50  23  25  ar  
 51  23  50  1   
 52  24  26  ar  
 53  24  51  1   
 54  25  26  ar  
 55  25  52  1   
 56  26  53  1   
@<TRIPOS>SUBSTRUCTURE
  1 ****  12 GROUP 4 **** **** 0

# MOE 2024.06 (io_trps.svl 2023.06)
