@<TRIPOS>MOLECULE
NONAME
38 38 1 0 0 
SMALL
USER_CHARGES


@<TRIPOS>ATOM
  1 O       -0.4060    -1.5930     2.1000 O.2   1 <1>  -0.5700 
  2 C       -0.1820    -2.1420     1.0360 C.2   1 <1>   0.5440 
  3 N       -1.1850    -2.1970     0.0880 N.am  1 <1>  -0.6600 
  4 C        1.1380    -2.6900     0.8020 C.ar  1 <1>   0.0860 
  5 C       -2.1640    -1.0730     0.0410 C.3   1 <1>   0.2200 
  6 C       -1.5480    -3.4490    -0.6460 C.3   1 <1>   0.2200 
  7 C        1.9080    -2.2860    -0.2860 C.ar  1 <1>  -0.1500 
  8 C        1.7010    -3.6230     1.6690 C.ar  1 <1>  -0.1500 
  9 C       -3.4820    -1.4640     0.7130 C.3   1 <1>  -0.2400 
 10 C       -2.3730    -0.5950    -1.3970 C.3   1 <1>  -0.2400 
 11 C       -1.5790    -4.6520     0.2980 C.3   1 <1>  -0.2400 
 12 C       -0.6230    -3.6930    -1.8370 C.3   1 <1>  -0.2400 
 13 C        3.1690    -2.8060    -0.5100 C.ar  1 <1>  -0.1500 
 14 C        2.9610    -4.1440     1.4460 C.ar  1 <1>  -0.1500 
 15 C        3.7320    -3.7500     0.3520 C.ar  1 <1>   0.0860 
 16 C        5.0560    -4.3040     0.1340 C.2   1 <1>   0.5440 
 17 O        5.3760    -5.3840     0.5780 O.2   1 <1>  -0.5700 
 18 N        6.0090    -3.6420    -0.5630 N.am  1 <1>  -0.8000 
 19 H       -1.7530    -0.2420     0.5940 H     1 <1>   0.0800 
 20 H       -2.5430    -3.3390    -1.0400 H     1 <1>   0.0800 
 21 H        1.4980    -1.5560    -0.9630 H     1 <1>   0.1500 
 22 H        1.1320    -3.9360     2.5290 H     1 <1>   0.1500 
 23 H       -4.0000    -2.2260     0.1640 H     1 <1>   0.0800 
 24 H       -4.1210    -0.6030     0.7780 H     1 <1>   0.0800 
 25 H       -3.2870    -1.8110     1.7130 H     1 <1>   0.0800 
 26 H       -2.8680    -1.3390    -1.9920 H     1 <1>   0.0800 
 27 H       -1.4250    -0.3510    -1.8410 H     1 <1>   0.0800 
 28 H       -2.9810     0.2900    -1.3950 H     1 <1>   0.0800 
 29 H       -0.5930    -4.9130     0.6330 H     1 <1>   0.0800 
 30 H       -1.9900    -5.5030    -0.2140 H     1 <1>   0.0800 
 31 H       -2.2000    -4.4360     1.1480 H     1 <1>   0.0800 
 32 H        0.3420    -4.0350    -1.5170 H     1 <1>   0.0800 
 33 H       -0.5190    -2.7970    -2.4200 H     1 <1>   0.0800 
 34 H       -1.0450    -4.4570    -2.4650 H     1 <1>   0.0800 
 35 H        3.7230    -2.4780    -1.3710 H     1 <1>   0.1500 
 36 H        3.3660    -4.8700     2.1300 H     1 <1>   0.1500 
 37 H        6.9310    -4.0720    -0.6460 H     1 <1>   0.3700 
 38 H        5.9290    -2.6700    -0.8540 H     1 <1>   0.3700 
@<TRIPOS>BOND
  1   1   2  2   
  2   2   3  am  
  3   2   4  1   
  4   3   5  1   
  5   3   6  1   
  6   4   7  ar  
  7   4   8  ar  
  8   5   9  1   
  9   5  10  1   
 10   5  19  1   
 11   6  11  1   
 12   6  12  1   
 13   6  20  1   
 14   7  13  ar  
 15   7  21  1   
 16   8  14  ar  
 17   8  22  1   
 18   9  23  1   
 19   9  24  1   
 20   9  25  1   
 21  10  26  1   
 22  10  27  1   
 23  10  28  1   
 24  11  29  1   
 25  11  30  1   
 26  11  31  1   
 27  12  32  1   
 28  12  33  1   
 29  12  34  1   
 30  13  15  ar  
 31  13  35  1   
 32  14  15  ar  
 33  14  36  1   
 34  15  16  1   
 35  16  17  2   
 36  16  18  am  
 37  18  37  1   
 38  18  38  1   
@<TRIPOS>SUBSTRUCTURE
  1 ****   4 GROUP 4 **** **** 0

# MOE 2024.06 (io_trps.svl 2023.06)
