@<TRIPOS>MOLECULE
NONAME
39 40 1 0 0 
SMALL
USER_CHARGES


@<TRIPOS>ATOM
  1 O       -0.7300    -0.5470     1.0630 O.2   1 <1>  -0.5700 
  2 C       -0.9370    -1.3860     0.2210 C.2   1 <1>   0.5690 
  3 N        0.0250    -2.2330    -0.2590 N.am  1 <1>  -0.5470 
  4 C       -2.3490    -1.5470    -0.3450 C.3   1 <1>  -0.0190 
  5 C        1.3950    -2.3440     0.0290 C.ar  1 <1>   0.1170 
  6 C       -3.1330    -0.2180    -0.3790 C.3   1 <1>  -0.1600 
  7 C       -3.1420    -2.6020     0.4480 C.3   1 <1>  -0.1600 
  8 C        2.0490    -3.5240    -0.3090 C.ar  1 <1>  -0.1500 
  9 C        2.1370    -1.3270     0.6220 C.ar  1 <1>  -0.1500 
 10 C       -4.5510    -0.4110    -0.9210 C.3   1 <1>   0.1400 
 11 C       -4.5630    -2.7730    -0.0980 C.3   1 <1>   0.1400 
 12 C        3.4010    -3.6960    -0.0630 C.ar  1 <1>  -0.1430 
 13 C        3.4870    -1.4880     0.8710 C.ar  1 <1>  -0.1500 
 14 N       -5.2510    -1.4530    -0.1200 N.am  1 <1>  -0.6600 
 15 C        4.1190    -2.6710     0.5290 C.ar  1 <1>  -0.1500 
 16 C        4.1030    -4.9890    -0.4360 C.3   1 <1>  -0.0970 
 17 C       -6.4160    -1.2590     0.5790 C.2   1 <1>   0.5690 
 18 O       -6.9580    -2.1490     1.1890 O.2   1 <1>  -0.5700 
 19 C       -7.0790     0.0990     0.6140 C.3   1 <1>  -0.1790 
 20 H       -0.3130    -2.9360    -0.9100 H     1 <1>   0.3700 
 21 H       -2.2560    -1.8900    -1.3600 H     1 <1>   0.0800 
 22 H       -2.6090     0.4950    -0.9910 H     1 <1>   0.0800 
 23 H       -3.1980     0.1930     0.6150 H     1 <1>   0.0800 
 24 H       -3.2040    -2.3060     1.4820 H     1 <1>   0.0800 
 25 H       -2.6350    -3.5490     0.4120 H     1 <1>   0.0800 
 26 H        1.4930    -4.3200    -0.7680 H     1 <1>   0.1500 
 27 H        1.6660    -0.3990     0.8900 H     1 <1>   0.1500 
 28 H       -4.5090    -0.7330    -1.9480 H     1 <1>   0.0800 
 29 H       -5.0740     0.5270    -0.8920 H     1 <1>   0.0800 
 30 H       -5.1000    -3.4740     0.5180 H     1 <1>   0.0800 
 31 H       -4.5320    -3.1680    -1.0990 H     1 <1>   0.0800 
 32 H        4.0460    -0.6930     1.3320 H     1 <1>   0.1500 
 33 H        5.1700    -2.7880     0.7260 H     1 <1>   0.1500 
 34 H        3.3920    -5.7650    -0.6540 H     1 <1>   0.0800 
 35 H        4.7250    -5.3180     0.3770 H     1 <1>   0.0800 
 36 H        4.7200    -4.8320    -1.3030 H     1 <1>   0.0800 
 37 H       -7.3700     0.3890    -0.3780 H     1 <1>   0.0800 
 38 H       -6.4040     0.8230     1.0270 H     1 <1>   0.0800 
 39 H       -7.9580     0.0560     1.2310 H     1 <1>   0.0800 
@<TRIPOS>BOND
  1   1   2  2   
  2   2   3  am  
  3   2   4  1   
  4   3   5  1   
  5   3  20  1   
  6   4   6  1   
  7   4   7  1   
  8   4  21  1   
  9   5   8  ar  
 10   5   9  ar  
 11   6  10  1   
 12   6  22  1   
 13   6  23  1   
 14   7  11  1   
 15   7  24  1   
 16   7  25  1   
 17   8  12  ar  
 18   8  26  1   
 19   9  13  ar  
 20   9  27  1   
 21  10  14  1   
 22  10  28  1   
 23  10  29  1   
 24  11  14  1   
 25  11  30  1   
 26  11  31  1   
 27  12  15  ar  
 28  12  16  1   
 29  13  15  ar  
 30  13  32  1   
 31  14  17  am  
 32  15  33  1   
 33  16  34  1   
 34  16  35  1   
 35  16  36  1   
 36  17  18  2   
 37  17  19  1   
 38  19  37  1   
 39  19  38  1   
 40  19  39  1   
@<TRIPOS>SUBSTRUCTURE
  1 ****   2 GROUP 4 **** **** 0

# MOE 2024.06 (io_trps.svl 2023.06)
