@<TRIPOS>MOLECULE
NONAME
45 46 1 0 0 
SMALL
USER_CHARGES


@<TRIPOS>ATOM
  1 O       -4.5690     1.2490    -0.2300 O.3   1 <1>  -0.3630 
  2 C       -3.3190     1.7890    -0.3030 C.ar  1 <1>   0.0830 
  3 C       -4.8110    -0.1370    -0.3050 C.3   1 <1>   0.1200 
  4 C       -3.1490     3.1850    -0.3370 C.ar  1 <1>   0.0820 
  5 C       -2.1870     0.9750    -0.3350 C.ar  1 <1>  -0.1500 
  6 C       -6.3210    -0.3520    -0.2670 C.3   1 <1>  -0.2400 
  7 O       -4.1300     4.1330    -0.3170 O.3   1 <1>  -0.3620 
  8 C       -1.8710     3.7130    -0.3940 C.ar  1 <1>  -0.1500 
  9 C       -0.9170     1.5220    -0.3890 C.ar  1 <1>  -0.1500 
 10 C       -5.4950     3.8410    -0.5190 C.3   1 <1>   0.0400 
 11 C       -0.7520     2.8970    -0.4130 C.ar  1 <1>  -0.1430 
 12 C        0.6290     3.5080    -0.4450 C.3   1 <1>   0.4860 
 13 N        0.9470     3.8820     0.9490 N.4   1 <1>  -0.9060 
 14 C        2.2940     4.4760     1.1160 C.3   1 <1>   0.4860 
 15 C        3.3170     3.4630     0.6480 C.ar  1 <1>  -0.1430 
 16 C        3.9570     3.6300    -0.5720 C.ar  1 <1>  -0.1500 
 17 C        3.6120     2.3520     1.4260 C.ar  1 <1>  -0.1500 
 18 C        4.8680     2.6880    -1.0140 C.ar  1 <1>  -0.1500 
 19 C        4.5250     1.4130     0.9790 C.ar  1 <1>  -0.1500 
 20 C        5.1530     1.5740    -0.2440 C.ar  1 <1>  -0.1430 
 21 C        6.1560     0.5430    -0.7300 C.3   1 <1>  -0.0970 
 22 H       -4.3410    -0.6130     0.5380 H     1 <1>   0.0800 
 23 H       -4.3980    -0.5080    -1.2270 H     1 <1>   0.0800 
 24 H       -2.2710    -0.0950    -0.3150 H     1 <1>   0.1500 
 25 H       -6.7270     0.0380     0.6490 H     1 <1>   0.0800 
 26 H       -6.5410    -1.4020    -0.3210 H     1 <1>   0.0800 
 27 H       -6.7850     0.1390    -1.1040 H     1 <1>   0.0800 
 28 H       -1.7790     4.7840    -0.4260 H     1 <1>   0.1500 
 29 H       -0.0660     0.8600    -0.4130 H     1 <1>   0.1500 
 30 H       -6.0290     4.7700    -0.6070 H     1 <1>   0.0800 
 31 H       -5.8630     3.2900     0.3280 H     1 <1>   0.0800 
 32 H       -5.6020     3.2700    -1.4240 H     1 <1>   0.0800 
 33 H        0.6350     4.3750    -1.0850 H     1 <1>   0.0800 
 34 H        1.3420     2.7900    -0.8200 H     1 <1>   0.0800 
 35 H        0.8930     3.0200     1.5020 H     1 <1>   0.4500 
 36 H        0.2100     4.5030     1.2980 H     1 <1>   0.4500 
 37 H        2.4710     4.7140     2.1530 H     1 <1>   0.0800 
 38 H        2.3810     5.3820     0.5380 H     1 <1>   0.0800 
 39 H        3.7640     4.4890    -1.1920 H     1 <1>   0.1500 
 40 H        3.1480     2.2010     2.3860 H     1 <1>   0.1500 
 41 H        5.3640     2.8250    -1.9610 H     1 <1>   0.1500 
 42 H        4.7520     0.5550     1.5890 H     1 <1>   0.1500 
 43 H        7.1420     0.8050    -0.3890 H     1 <1>   0.0800 
 44 H        6.1630     0.4980    -1.8040 H     1 <1>   0.0800 
 45 H        5.9090    -0.4340    -0.3530 H     1 <1>   0.0800 
@<TRIPOS>BOND
  1   1   2  1   
  2   1   3  1   
  3   2   4  ar  
  4   2   5  ar  
  5   3   6  1   
  6   3  22  1   
  7   3  23  1   
  8   4   7  1   
  9   4   8  ar  
 10   5   9  ar  
 11   5  24  1   
 12   6  25  1   
 13   6  26  1   
 14   6  27  1   
 15   7  10  1   
 16   8  11  ar  
 17   8  28  1   
 18   9  11  ar  
 19   9  29  1   
 20  10  30  1   
 21  10  31  1   
 22  10  32  1   
 23  11  12  1   
 24  12  13  1   
 25  12  33  1   
 26  12  34  1   
 27  13  14  1   
 28  13  35  1   
 29  13  36  1   
 30  14  15  1   
 31  14  37  1   
 32  14  38  1   
 33  15  16  ar  
 34  15  17  ar  
 35  16  18  ar  
 36  16  39  1   
 37  17  19  ar  
 38  17  40  1   
 39  18  20  ar  
 40  18  41  1   
 41  19  20  ar  
 42  19  42  1   
 43  20  21  1   
 44  21  43  1   
 45  21  44  1   
 46  21  45  1   
@<TRIPOS>SUBSTRUCTURE
  1 ****  11 GROUP 4 **** **** 0

# MOE 2024.06 (io_trps.svl 2023.06)
