@<TRIPOS>MOLECULE
NONAME
43 46 1 0 0 
SMALL
USER_CHARGES


@<TRIPOS>ATOM
  1 O       -2.1620    -0.3330    -2.2070 O.2   1 <1>  -0.5700 
  2 C       -2.6520    -1.1270    -1.4270 C.2   1 <1>   0.7060 
  3 O       -3.9700    -1.0650    -1.2350 O.3   1 <1>  -0.2330 
  4 C       -1.9000    -2.1260    -0.7190 C.2   1 <1>  -0.1240 
  5 C       -4.6290    -1.8910    -0.3950 C.ar  1 <1>   0.0820 
  6 C       -2.5190    -3.0010     0.1150 C.2   1 <1>  -0.1670 
  7 C       -0.3910    -2.1470    -0.9650 C.3   1 <1>  -0.0220 
  8 C       -3.9390    -2.8840     0.3170 C.ar  1 <1>   0.0280 
  9 C       -5.9960    -1.7160    -0.2600 C.ar  1 <1>  -0.1500 
 10 C       -1.7530    -4.1020     0.8520 C.3   1 <1>  -0.0220 
 11 C        0.3650    -2.9700     0.0840 C.3   1 <1>  -0.1600 
 12 C       -4.6920    -3.6840     1.1840 C.ar  1 <1>  -0.1500 
 13 C       -6.7230    -2.5350     0.5920 C.ar  1 <1>   0.0830 
 14 C       -0.3340    -4.3110     0.3110 C.3   1 <1>  -0.1600 
 15 C       -6.0550    -3.5130     1.3150 C.ar  1 <1>  -0.1500 
 16 O       -8.0610    -2.4530     0.7730 O.3   1 <1>  -0.3630 
 17 C       -8.8950    -1.6260    -0.0240 C.3   1 <1>   0.2610 
 18 C       -8.8590    -0.1490     0.3990 C.2   1 <1>   0.4480 
 19 C      -10.3180    -2.1930     0.0840 C.3   1 <1>  -0.1600 
 20 O       -8.0840     0.3190     1.1810 O.2   1 <1>  -0.5700 
 21 C       -9.8970     0.7330    -0.2730 C.3   1 <1>  -0.0990 
 22 C      -11.3360    -1.3210    -0.6680 C.3   1 <1>  -0.1600 
 23 C      -11.3050     0.1300    -0.1660 C.3   1 <1>  -0.1600 
 24 H       -0.0050    -1.1420    -0.9560 H     1 <1>   0.0800 
 25 H       -0.2110    -2.5570    -1.9430 H     1 <1>   0.0800 
 26 H       -6.4600    -0.9290    -0.8200 H     1 <1>   0.1500 
 27 H       -2.2790    -5.0360     0.7650 H     1 <1>   0.0800 
 28 H       -1.7010    -3.8410     1.8950 H     1 <1>   0.0800 
 29 H        0.3970    -2.4230     1.0120 H     1 <1>   0.0800 
 30 H        1.3770    -3.1300    -0.2440 H     1 <1>   0.0800 
 31 H       -4.2170    -4.4490     1.7690 H     1 <1>   0.1500 
 32 H       -0.3850    -4.8450    -0.6230 H     1 <1>   0.0800 
 33 H        0.2320    -4.9090     1.0040 H     1 <1>   0.0800 
 34 H       -6.6210    -4.1360     1.9840 H     1 <1>   0.1500 
 35 H       -8.5680    -1.7120    -1.0440 H     1 <1>   0.0800 
 36 H      -10.5960    -2.2400     1.1230 H     1 <1>   0.0800 
 37 H      -10.3340    -3.1910    -0.3180 H     1 <1>   0.0800 
 38 H       -9.6280     0.8520    -1.3070 H     1 <1>   0.0800 
 39 H       -9.8830     1.7060     0.1860 H     1 <1>   0.0800 
 40 H      -12.3240    -1.7260    -0.5290 H     1 <1>   0.0800 
 41 H      -11.1210    -1.3420    -1.7240 H     1 <1>   0.0800 
 42 H      -11.9980     0.7260    -0.7340 H     1 <1>   0.0800 
 43 H      -11.6200     0.1540     0.8640 H     1 <1>   0.0800 
@<TRIPOS>BOND
  1   1   2  2   
  2   2   3  1   
  3   2   4  1   
  4   3   5  1   
  5   4   6  2   
  6   4   7  1   
  7   5   8  ar  
  8   5   9  ar  
  9   6   8  1   
 10   6  10  1   
 11   7  11  1   
 12   7  24  1   
 13   7  25  1   
 14   8  12  ar  
 15   9  13  ar  
 16   9  26  1   
 17  10  14  1   
 18  10  27  1   
 19  10  28  1   
 20  11  14  1   
 21  11  29  1   
 22  11  30  1   
 23  12  15  ar  
 24  12  31  1   
 25  13  15  ar  
 26  13  16  1   
 27  14  32  1   
 28  14  33  1   
 29  15  34  1   
 30  16  17  1   
 31  17  18  1   
 32  17  19  1   
 33  17  35  1   
 34  18  20  2   
 35  18  21  1   
 36  19  22  1   
 37  19  36  1   
 38  19  37  1   
 39  21  23  1   
 40  21  38  1   
 41  21  39  1   
 42  22  23  1   
 43  22  40  1   
 44  22  41  1   
 45  23  42  1   
 46  23  43  1   
@<TRIPOS>SUBSTRUCTURE
  1 ****   9 GROUP 4 **** **** 0

# MOE 2024.06 (io_trps.svl 2023.06)
