@<TRIPOS>MOLECULE
NONAME
45 48 1 0 0 
SMALL
USER_CHARGES


@<TRIPOS>ATOM
  1 O        0.1750    -0.7150     1.4350 O.2   1 <1>  -0.5700 
  2 C        0.2150    -1.6360     0.6630 C.2   1 <1>   0.4950 
  3 C        1.3340    -2.0000    -0.1540 C.2   1 <1>  -0.1240 
  4 C       -1.0010    -2.5480     0.6000 C.3   1 <1>  -0.0990 
  5 C        1.4740    -3.2660    -0.6260 C.2   1 <1>  -0.0620 
  6 C        2.5010    -1.0660    -0.5270 C.3   1 <1>   0.3400 
  7 C       -0.5860    -4.0290     0.6220 C.3   1 <1>  -0.1600 
  8 O        2.6280    -3.6790    -1.1850 O.3   1 <1>  -0.1530 
  9 C        0.4240    -4.3580    -0.4890 C.3   1 <1>  -0.0220 
 10 C        3.7620    -1.8760    -0.1790 C.2   1 <1>  -0.1240 
 11 C        2.4600     0.4840    -0.5460 C.ar  1 <1>  -0.1440 
 12 C        3.7420    -3.1510    -0.6430 C.2   1 <1>  -0.0620 
 13 C        4.8550    -1.3810     0.6060 C.2   1 <1>   0.4950 
 14 C        3.6320     1.2100    -0.7470 C.ar  1 <1>  -0.1500 
 15 C        1.2730     1.2130    -0.4850 C.ar  1 <1>  -0.1500 
 16 C        4.9000    -4.1280    -0.5170 C.3   1 <1>  -0.0220 
 17 O        4.8280    -0.4170     1.3250 O.2   1 <1>  -0.5700 
 18 C        6.1460    -2.1840     0.5630 C.3   1 <1>  -0.0990 
 19 C        3.6400     2.5930    -0.7900 C.ar  1 <1>   0.0830 
 20 C        1.2610     2.5970    -0.5330 C.ar  1 <1>  -0.1500 
 21 C        5.8720    -3.6980     0.5940 C.3   1 <1>  -0.1600 
 22 O        4.8290     3.2190    -0.9570 O.3   1 <1>  -0.3630 
 23 C        2.4450     3.2970    -0.6740 C.ar  1 <1>   0.0830 
 24 C        5.3920     3.7480     0.2200 C.3   1 <1>   0.0400 
 25 O        2.4100     4.6470    -0.7080 O.3   1 <1>  -0.5330 
 26 H       -1.5460    -2.3300    -0.3000 H     1 <1>   0.0800 
 27 H       -1.6420    -2.3420     1.4380 H     1 <1>   0.0800 
 28 H        2.4910    -1.1810    -1.5980 H     1 <1>   0.0800 
 29 H       -1.4530    -4.6600     0.5270 H     1 <1>   0.0800 
 30 H       -0.1290    -4.2390     1.5740 H     1 <1>   0.0800 
 31 H        0.9020    -5.2960    -0.2620 H     1 <1>   0.0800 
 32 H       -0.0850    -4.4650    -1.4310 H     1 <1>   0.0800 
 33 H        4.5770     0.7220    -0.8800 H     1 <1>   0.1500 
 34 H        0.3230     0.7250    -0.4150 H     1 <1>   0.1500 
 35 H        5.4150    -4.1780    -1.4600 H     1 <1>   0.0800 
 36 H        4.5240    -5.1110    -0.2910 H     1 <1>   0.0800 
 37 H        6.7580    -1.9120     1.4050 H     1 <1>   0.0800 
 38 H        6.6790    -1.9240    -0.3330 H     1 <1>   0.0800 
 39 H        0.3250     3.1180    -0.4610 H     1 <1>   0.1500 
 40 H        6.7950    -4.2440     0.5060 H     1 <1>   0.0800 
 41 H        5.4340    -3.9430     1.5470 H     1 <1>   0.0800 
 42 H        6.3480     4.1730    -0.0260 H     1 <1>   0.0800 
 43 H        5.5100     2.9520     0.9350 H     1 <1>   0.0800 
 44 H        4.7380     4.5070     0.6090 H     1 <1>   0.0800 
 45 H        1.5070     4.9980    -0.6330 H     1 <1>   0.4500 
@<TRIPOS>BOND
  1   1   2  2   
  2   2   3  1   
  3   2   4  1   
  4   3   5  2   
  5   3   6  1   
  6   4   7  1   
  7   4  26  1   
  8   4  27  1   
  9   5   8  1   
 10   5   9  1   
 11   6  10  1   
 12   6  11  1   
 13   6  28  1   
 14   7   9  1   
 15   7  29  1   
 16   7  30  1   
 17   8  12  1   
 18   9  31  1   
 19   9  32  1   
 20  10  12  2   
 21  10  13  1   
 22  11  14  ar  
 23  11  15  ar  
 24  12  16  1   
 25  13  17  2   
 26  13  18  1   
 27  14  19  ar  
 28  14  33  1   
 29  15  20  ar  
 30  15  34  1   
 31  16  21  1   
 32  16  35  1   
 33  16  36  1   
 34  18  21  1   
 35  18  37  1   
 36  18  38  1   
 37  19  22  1   
 38  19  23  ar  
 39  20  23  ar  
 40  20  39  1   
 41  21  40  1   
 42  21  41  1   
 43  22  24  1   
 44  23  25  1   
 45  24  42  1   
 46  24  43  1   
 47  24  44  1   
 48  25  45  1   
@<TRIPOS>SUBSTRUCTURE
  1 ****   6 GROUP 4 **** **** 0

# MOE 2024.06 (io_trps.svl 2023.06)
