@<TRIPOS>MOLECULE
NONAME
29 29 1 0 0 
SMALL
USER_CHARGES


@<TRIPOS>ATOM
  1 CL       0.1210     0.0940     1.2120 Cl    1 <1>  -0.1770 
  2 C       -1.3200    -0.8720     0.9950 C.ar  1 <1>   0.1770 
  3 C       -1.2480    -2.2460     0.7270 C.ar  1 <1>   0.0860 
  4 C       -2.5250    -0.2050     1.1140 C.ar  1 <1>  -0.1500 
  5 C       -0.0080    -2.9850     0.5850 C.2   1 <1>   0.5440 
  6 C       -2.4660    -2.9230     0.5950 C.ar  1 <1>  -0.1500 
  7 C       -3.7000    -0.9140     0.9690 C.ar  1 <1>   0.1770 
  8 O        0.0530    -4.1310     0.9830 O.2   1 <1>  -0.5700 
  9 N        1.0890    -2.4340    -0.0180 N.am  1 <1>  -0.7300 
 10 C       -3.6810    -2.2710     0.7120 C.ar  1 <1>  -0.1500 
 11 CL      -5.2250    -0.0870     1.1150 Cl    1 <1>  -0.1770 
 12 C        2.4170    -3.0140    -0.3140 C.3   1 <1>   0.3000 
 13 C        3.1570    -3.4760     0.9710 C.3   1 <1>   0.1200 
 14 C        3.2190    -1.8800    -0.9570 C.3   1 <1>  -0.2400 
 15 C        2.2530    -4.1400    -1.3410 C.3   1 <1>  -0.2400 
 16 O        2.5950    -4.6160     1.5310 O.3   1 <1>  -0.6800 
 17 H       -2.5520     0.8500     1.3190 H     1 <1>   0.1500 
 18 H       -2.4530    -3.9830     0.3980 H     1 <1>   0.1500 
 19 H        1.0370    -1.4440    -0.2610 H     1 <1>   0.3700 
 20 H       -4.6090    -2.8070     0.6070 H     1 <1>   0.1500 
 21 H        3.1340    -2.6960     1.7110 H     1 <1>   0.0800 
 22 H        4.1830    -3.7100     0.7490 H     1 <1>   0.0800 
 23 H        4.1990    -2.2300    -1.2290 H     1 <1>   0.0800 
 24 H        3.3370    -1.0620    -0.2680 H     1 <1>   0.0800 
 25 H        2.7330    -1.5260    -1.8480 H     1 <1>   0.0800 
 26 H        3.2140    -4.5380    -1.6100 H     1 <1>   0.0800 
 27 H        1.7700    -3.7780    -2.2300 H     1 <1>   0.0800 
 28 H        1.6680    -4.9450    -0.9340 H     1 <1>   0.0800 
 29 H        1.6050    -4.5590     1.4320 H     1 <1>   0.4000 
@<TRIPOS>BOND
  1   1   2  1   
  2   2   3  ar  
  3   2   4  ar  
  4   3   5  1   
  5   3   6  ar  
  6   4   7  ar  
  7   4  17  1   
  8   5   8  2   
  9   5   9  am  
 10   6  10  ar  
 11   6  18  1   
 12   7  10  ar  
 13   7  11  1   
 14   9  12  1   
 15   9  19  1   
 16  10  20  1   
 17  12  13  1   
 18  12  14  1   
 19  12  15  1   
 20  13  16  1   
 21  13  21  1   
 22  13  22  1   
 23  14  23  1   
 24  14  24  1   
 25  14  25  1   
 26  15  26  1   
 27  15  27  1   
 28  15  28  1   
 29  16  29  1   
@<TRIPOS>SUBSTRUCTURE
  1 ****   5 GROUP 4 **** **** 0

# MOE 2024.06 (io_trps.svl 2023.06)
