@<TRIPOS>MOLECULE
NONAME
40 41 1 0 0 
SMALL
USER_CHARGES


@<TRIPOS>ATOM
  1 O       -0.5070     0.3780     1.4430 O.2   1 <1>  -0.5700 
  2 C       -0.9570     1.4800     1.1960 C.2   1 <1>   0.6900 
  3 N       -2.3000     1.7240     1.3130 N.am  1 <1>  -0.6600 
  4 N       -0.1400     2.5050     0.8200 N.am  1 <1>  -0.5470 
  5 C       -3.0410     2.6740     0.4300 C.3   1 <1>   0.1400 
  6 C       -3.2000     0.7490     1.9970 C.3   1 <1>   0.1400 
  7 C        1.2320     2.4840     0.5430 C.ar  1 <1>   0.1170 
  8 C       -3.9500     1.9080    -0.5490 C.3   1 <1>   0.1100 
  9 C       -4.0980     0.0310     0.9750 C.3   1 <1>   0.1100 
 10 C        1.7890     1.7150    -0.4830 C.ar  1 <1>  -0.1440 
 11 C        2.0680     3.2890     1.3100 C.ar  1 <1>  -0.1500 
 12 N       -4.8730     0.9950     0.1570 N.3   1 <1>  -0.8100 
 13 C        3.1560     1.7600    -0.7090 C.ar  1 <1>  -0.1500 
 14 C        0.9340     0.8220    -1.3740 C.3   1 <1>  -0.0970 
 15 C        3.4290     3.3310     1.0760 C.ar  1 <1>  -0.1500 
 16 C       -5.7440     0.2740    -0.8190 C.3   1 <1>   0.1710 
 17 C        3.9750     2.5630     0.0640 C.ar  1 <1>  -0.1500 
 18 C       -6.9370    -0.4600    -0.1930 C.2   1 <1>   0.5690 
 19 O       -7.3940    -1.4380    -0.7280 O.2   1 <1>  -0.5700 
 20 N       -7.4700     0.0030     0.9540 N.am  1 <1>  -0.8000 
 21 H       -0.5360     3.4140     1.0260 H     1 <1>   0.3700 
 22 H       -2.3580     3.2830    -0.1350 H     1 <1>   0.0800 
 23 H       -3.6450     3.3240     1.0390 H     1 <1>   0.0800 
 24 H       -3.8170     1.2730     2.7040 H     1 <1>   0.0800 
 25 H       -2.6240     0.0200     2.5410 H     1 <1>   0.0800 
 26 H       -3.3330     1.3500    -1.2330 H     1 <1>   0.0800 
 27 H       -4.5200     2.6210    -1.1180 H     1 <1>   0.0800 
 28 H       -4.7700    -0.6200     1.5070 H     1 <1>   0.0800 
 29 H       -3.4770    -0.5800     0.3410 H     1 <1>   0.0800 
 30 H        1.6490     3.8810     2.1020 H     1 <1>   0.1500 
 31 H        3.5930     1.1650    -1.4910 H     1 <1>   0.1500 
 32 H        1.4530     0.5760    -2.2820 H     1 <1>   0.0800 
 33 H        0.7010    -0.0900    -0.8550 H     1 <1>   0.0800 
 34 H        0.0170     1.3180    -1.6350 H     1 <1>   0.0800 
 35 H        4.0640     3.9550     1.6800 H     1 <1>   0.1500 
 36 H       -5.1590    -0.4370    -1.3750 H     1 <1>   0.0800 
 37 H       -6.1500     0.9820    -1.5190 H     1 <1>   0.0800 
 38 H        5.0350     2.5890    -0.1210 H     1 <1>   0.1500 
 39 H       -8.2600    -0.4670     1.3950 H     1 <1>   0.3700 
 40 H       -7.0460     0.8000     1.4330 H     1 <1>   0.3700 
@<TRIPOS>BOND
  1   1   2  2   
  2   2   3  am  
  3   2   4  am  
  4   3   5  1   
  5   3   6  1   
  6   4   7  1   
  7   4  21  1   
  8   5   8  1   
  9   5  22  1   
 10   5  23  1   
 11   6   9  1   
 12   6  24  1   
 13   6  25  1   
 14   7  10  ar  
 15   7  11  ar  
 16   8  12  1   
 17   8  26  1   
 18   8  27  1   
 19   9  12  1   
 20   9  28  1   
 21   9  29  1   
 22  10  13  ar  
 23  10  14  1   
 24  11  15  ar  
 25  11  30  1   
 26  12  16  1   
 27  13  17  ar  
 28  13  31  1   
 29  14  32  1   
 30  14  33  1   
 31  14  34  1   
 32  15  17  ar  
 33  15  35  1   
 34  16  18  1   
 35  16  36  1   
 36  16  37  1   
 37  17  38  1   
 38  18  19  2   
 39  18  20  am  
 40  20  39  1   
 41  20  40  1   
@<TRIPOS>SUBSTRUCTURE
  1 ****   2 GROUP 4 **** **** 0

# MOE 2024.06 (io_trps.svl 2023.06)
