@<TRIPOS>MOLECULE
NONAME
47 49 1 0 0 
SMALL
USER_CHARGES


@<TRIPOS>ATOM
  1 S       -0.0690     0.3490    -1.6660 S.o2  1 <1>   1.4470 
  2 O       -0.0430     1.6160    -2.3640 O.2   1 <1>  -0.6500 
  3 O       -0.4600    -0.8480    -2.3810 O.2   1 <1>  -0.6500 
  4 N       -1.1360     0.5130    -0.3590 N.am  1 <1>  -0.8490 
  5 C        1.5370     0.0970    -0.8540 C.ar  1 <1>  -0.0090 
  6 C       -1.3380    -0.7580     0.3470 C.3   1 <1>   0.1960 
  7 C       -2.4180     1.0810    -0.7890 C.3   1 <1>   0.1960 
  8 C        1.9940     0.9850     0.1130 C.ar  1 <1>  -0.1500 
  9 C        2.3500    -0.9850    -1.1690 C.ar  1 <1>  -0.1500 
 10 C       -2.1770    -0.5340     1.6090 C.3   1 <1>  -0.1600 
 11 C       -3.3090     1.3640     0.4250 C.3   1 <1>  -0.1600 
 12 C        3.2140     0.8000     0.7390 C.ar  1 <1>  -0.1500 
 13 C        3.5700    -1.1720    -0.5440 C.ar  1 <1>  -0.1500 
 14 C       -3.5290     0.1030     1.2690 C.3   1 <1>  -0.1600 
 15 C        4.0340    -0.2800     0.4190 C.ar  1 <1>   0.0860 
 16 C        5.3170    -0.4820     1.0650 C.2   1 <1>   0.5440 
 17 O        5.5100    -1.5210     1.6680 O.2   1 <1>  -0.5700 
 18 N        6.3220     0.4650     1.0080 N.am  1 <1>  -0.6600 
 19 C        7.5800     0.3200     1.7950 C.3   1 <1>   0.1400 
 20 C        6.3270     1.6140     0.0590 C.3   1 <1>   0.1400 
 21 C        8.7720     0.1740     0.8430 C.3   1 <1>  -0.1600 
 22 C        7.5100     1.4820    -0.9060 C.3   1 <1>  -0.1600 
 23 C        8.8420     1.3370    -0.1570 C.3   1 <1>  -0.1600 
 24 H       -0.3850    -1.1730     0.6330 H     1 <1>   0.0800 
 25 H       -1.8330    -1.4650    -0.2990 H     1 <1>   0.0800 
 26 H       -2.9130     0.4000    -1.4630 H     1 <1>   0.0800 
 27 H       -2.2490     2.0080    -1.3140 H     1 <1>   0.0800 
 28 H        1.3790     1.8300     0.3770 H     1 <1>   0.1500 
 29 H        2.0220    -1.6930    -1.9130 H     1 <1>   0.1500 
 30 H       -1.6300     0.1040     2.2810 H     1 <1>   0.0800 
 31 H       -2.3350    -1.4760     2.1040 H     1 <1>   0.0800 
 32 H       -4.2560     1.7460     0.0900 H     1 <1>   0.0800 
 33 H       -2.8420     2.1260     1.0250 H     1 <1>   0.0800 
 34 H        3.5430     1.4970     1.4900 H     1 <1>   0.1500 
 35 H        4.1810    -2.0220    -0.7970 H     1 <1>   0.1500 
 36 H       -4.0580     0.3520     2.1740 H     1 <1>   0.0800 
 37 H       -4.1270    -0.5990     0.7130 H     1 <1>   0.0800 
 38 H        7.5310    -0.5370     2.4450 H     1 <1>   0.0800 
 39 H        7.7090     1.1930     2.4110 H     1 <1>   0.0800 
 40 H        6.4140     2.5290     0.6200 H     1 <1>   0.0800 
 41 H        5.4160     1.6540    -0.5100 H     1 <1>   0.0800 
 42 H        8.6760    -0.7580     0.3140 H     1 <1>   0.0800 
 43 H        9.6800     0.1330     1.4160 H     1 <1>   0.0800 
 44 H        7.5470     2.3460    -1.5450 H     1 <1>   0.0800 
 45 H        7.3520     0.6200    -1.5310 H     1 <1>   0.0800 
 46 H        9.6390     1.1640    -0.8600 H     1 <1>   0.0800 
 47 H        9.0560     2.2500     0.3720 H     1 <1>   0.0800 
@<TRIPOS>BOND
  1   1   2  2   
  2   1   3  2   
  3   1   4  am  
  4   1   5  1   
  5   4   6  1   
  6   4   7  1   
  7   5   8  ar  
  8   5   9  ar  
  9   6  10  1   
 10   6  24  1   
 11   6  25  1   
 12   7  11  1   
 13   7  26  1   
 14   7  27  1   
 15   8  12  ar  
 16   8  28  1   
 17   9  13  ar  
 18   9  29  1   
 19  10  14  1   
 20  10  30  1   
 21  10  31  1   
 22  11  14  1   
 23  11  32  1   
 24  11  33  1   
 25  12  15  ar  
 26  12  34  1   
 27  13  15  ar  
 28  13  35  1   
 29  14  36  1   
 30  14  37  1   
 31  15  16  1   
 32  16  17  2   
 33  16  18  am  
 34  18  19  1   
 35  18  20  1   
 36  19  21  1   
 37  19  38  1   
 38  19  39  1   
 39  20  22  1   
 40  20  40  1   
 41  20  41  1   
 42  21  23  1   
 43  21  42  1   
 44  21  43  1   
 45  22  23  1   
 46  22  44  1   
 47  22  45  1   
 48  23  46  1   
 49  23  47  1   
@<TRIPOS>SUBSTRUCTURE
  1 ****   8 GROUP 4 **** **** 0

# MOE 2024.06 (io_trps.svl 2023.06)
