@<TRIPOS>MOLECULE
NONAME
52 53 1 0 0 
SMALL
USER_CHARGES


@<TRIPOS>ATOM
  1 O       -0.9840    -1.0360    -2.1730 O.3   1 <1>  -0.6800 
  2 C       -0.7140    -1.9330    -1.1680 C.3   1 <1>   0.7670 
  3 C        0.7710    -2.1330    -1.1900 C.1   1 <1>  -0.2000 
  4 C       -1.5260    -3.1930    -1.5160 C.ar  1 <1>  -0.1440 
  5 C       -1.0700    -1.3210     0.2010 C.ar  1 <1>  -0.1440 
  6 C        1.9580    -2.2000    -1.1370 C.1   1 <1>  -0.2000 
  7 C       -2.8060    -3.3800    -0.9980 C.ar  1 <1>  -0.1500 
  8 C       -1.0200    -4.1640    -2.3770 C.ar  1 <1>  -0.1500 
  9 C       -1.0030    -2.1270     1.3350 C.ar  1 <1>  -0.1500 
 10 C       -1.4330     0.0140     0.3650 C.ar  1 <1>  -0.1500 
 11 C        3.4330    -2.1530    -1.0000 C.3   1 <1>   0.5430 
 12 C       -3.5460    -4.5060    -1.3150 C.ar  1 <1>  -0.1500 
 13 C       -1.7580    -5.2900    -2.6950 C.ar  1 <1>  -0.1500 
 14 C       -1.2910    -1.6200     2.5890 C.ar  1 <1>  -0.1500 
 15 C       -1.7220     0.5230     1.6190 C.ar  1 <1>  -0.1500 
 16 N        3.7710    -0.8260    -0.4070 N.4   1 <1>  -0.9590 
 17 C       -3.0220    -5.4640    -2.1620 C.ar  1 <1>  -0.1500 
 18 C       -1.6510    -0.2930     2.7330 C.ar  1 <1>  -0.1500 
 19 C        5.0600    -0.2570    -0.8650 C.3   1 <1>   0.4230 
 20 C        3.6140    -0.6710     1.0690 C.3   1 <1>   0.4230 
 21 C        4.9580     0.1110    -2.3430 C.3   1 <1>  -0.2400 
 22 C        6.2230    -1.2160    -0.6080 C.3   1 <1>  -0.2400 
 23 C        3.5470    -1.9900     1.8430 C.3   1 <1>  -0.2400 
 24 C        2.3700     0.1700     1.3240 C.3   1 <1>  -0.2400 
 25 H       -1.9190    -1.1670    -2.4100 H     1 <1>   0.4000 
 26 H       -3.2480    -2.6510    -0.3390 H     1 <1>   0.1500 
 27 H       -0.0450    -4.0520    -2.8190 H     1 <1>   0.1500 
 28 H       -0.7270    -3.1650     1.2450 H     1 <1>   0.1500 
 29 H       -1.4920     0.6800    -0.4800 H     1 <1>   0.1500 
 30 H        3.8710    -2.2520    -1.9790 H     1 <1>   0.0800 
 31 H        3.7910    -2.9620    -0.3850 H     1 <1>   0.0800 
 32 H       -4.5310    -4.6370    -0.9020 H     1 <1>   0.1500 
 33 H       -1.3510    -6.0320    -3.3600 H     1 <1>   0.1500 
 34 H       -1.2390    -2.2580     3.4550 H     1 <1>   0.1500 
 35 H       -2.0040     1.5560     1.7290 H     1 <1>   0.1500 
 36 H        3.0420    -0.2180    -0.7980 H     1 <1>   0.4500 
 37 H       -3.5970    -6.3400    -2.4080 H     1 <1>   0.1500 
 38 H       -1.8800     0.1030     3.7080 H     1 <1>   0.1500 
 39 H        5.2470     0.6540    -0.3160 H     1 <1>   0.0800 
 40 H        4.4590    -0.1180     1.4480 H     1 <1>   0.0800 
 41 H        4.8660    -0.7560    -2.9720 H     1 <1>   0.0800 
 42 H        5.8510     0.6320    -2.6400 H     1 <1>   0.0800 
 43 H        4.1260     0.7700    -2.5140 H     1 <1>   0.0800 
 44 H        6.1420    -2.1150    -1.1920 H     1 <1>   0.0800 
 45 H        6.2930    -1.4680     0.4340 H     1 <1>   0.0800 
 46 H        7.1450    -0.7340    -0.8850 H     1 <1>   0.0800 
 47 H        2.6560    -2.5450     1.6080 H     1 <1>   0.0800 
 48 H        3.5200    -1.7770     2.8970 H     1 <1>   0.0800 
 49 H        4.4180    -2.5920     1.6590 H     1 <1>   0.0800 
 50 H        1.4790    -0.3450     1.0160 H     1 <1>   0.0800 
 51 H        2.4320     1.1150     0.8170 H     1 <1>   0.0800 
 52 H        2.2780     0.3690     2.3770 H     1 <1>   0.0800 
@<TRIPOS>BOND
  1   1   2  1   
  2   1  25  1   
  3   2   3  1   
  4   2   4  1   
  5   2   5  1   
  6   3   6  3   
  7   4   7  ar  
  8   4   8  ar  
  9   5   9  ar  
 10   5  10  ar  
 11   6  11  1   
 12   7  12  ar  
 13   7  26  1   
 14   8  13  ar  
 15   8  27  1   
 16   9  14  ar  
 17   9  28  1   
 18  10  15  ar  
 19  10  29  1   
 20  11  16  1   
 21  11  30  1   
 22  11  31  1   
 23  12  17  ar  
 24  12  32  1   
 25  13  17  ar  
 26  13  33  1   
 27  14  18  ar  
 28  14  34  1   
 29  15  18  ar  
 30  15  35  1   
 31  16  19  1   
 32  16  20  1   
 33  16  36  1   
 34  17  37  1   
 35  18  38  1   
 36  19  21  1   
 37  19  22  1   
 38  19  39  1   
 39  20  23  1   
 40  20  24  1   
 41  20  40  1   
 42  21  41  1   
 43  21  42  1   
 44  21  43  1   
 45  22  44  1   
 46  22  45  1   
 47  22  46  1   
 48  23  47  1   
 49  23  48  1   
 50  23  49  1   
 51  24  50  1   
 52  24  51  1   
 53  24  52  1   
@<TRIPOS>SUBSTRUCTURE
  1 ****   3 GROUP 4 **** **** 0

# MOE 2024.06 (io_trps.svl 2023.06)
