@<TRIPOS>MOLECULE
NONAME
44 44 1 0 0 
SMALL
USER_CHARGES


@<TRIPOS>ATOM
  1 P       -0.0230     0.4090    -0.4580 P.3   1 <1>   1.2420 
  2 O       -0.0220     0.0340    -1.8740 O.2   1 <1>  -0.7000 
  3 O       -0.8910    -0.5970     0.4460 O.3   1 <1>  -0.5510 
  4 O       -0.7530     1.8150    -0.1980 O.3   1 <1>  -0.5510 
  5 C        1.6090     0.5310     0.3370 C.3   1 <1>   0.3440 
  6 C       -0.8510    -1.9650     0.2110 C.3   1 <1>   0.1200 
  7 C       -2.0600     1.9880    -0.6250 C.3   1 <1>   0.1200 
  8 O        2.5070     1.4480    -0.2320 O.3   1 <1>  -0.6800 
  9 C        2.3620    -0.7930     0.3890 C.ar  1 <1>  -0.1430 
 10 C       -1.7970    -2.6740     1.1900 C.3   1 <1>  -0.0800 
 11 C       -2.5210     3.4140    -0.2890 C.3   1 <1>  -0.0800 
 12 C        2.7220    -1.3370     1.6140 C.ar  1 <1>   0.1600 
 13 C        2.6820    -1.4900    -0.7630 C.ar  1 <1>  -0.1500 
 14 C       -1.7080    -4.1930     0.9980 C.3   1 <1>  -0.2400 
 15 C       -3.2520    -2.2130     1.0120 C.3   1 <1>  -0.2400 
 16 C       -3.9910     3.5980    -0.6840 C.3   1 <1>  -0.2400 
 17 C       -1.6590     4.4720    -0.9950 C.3   1 <1>  -0.2400 
 18 N        3.3440    -2.4920     1.7780 N.ar  1 <1>  -0.6200 
 19 C        3.3390    -2.6910    -0.6090 C.ar  1 <1>  -0.1500 
 20 C        3.6420    -3.1410     0.6640 C.ar  1 <1>   0.1600 
 21 H        1.4680     0.8740     1.3450 H     1 <1>   0.0800 
 22 H        0.1570    -2.3140     0.3500 H     1 <1>   0.0800 
 23 H       -1.1550    -2.1450    -0.8070 H     1 <1>   0.0800 
 24 H       -2.6800     1.2630    -0.1250 H     1 <1>   0.0800 
 25 H       -2.0970     1.8170    -1.6890 H     1 <1>   0.0800 
 26 H        2.7420     1.1620    -1.1370 H     1 <1>   0.4000 
 27 H       -1.4770    -2.4450     2.1930 H     1 <1>   0.0800 
 28 H       -2.4390     3.5500     0.7760 H     1 <1>   0.0800 
 29 H        2.4830    -0.7970     2.5160 H     1 <1>   0.1500 
 30 H        2.4290    -1.1260    -1.7470 H     1 <1>   0.1500 
 31 H       -2.0160    -4.4700     0.0050 H     1 <1>   0.0800 
 32 H       -2.3420    -4.6960     1.7070 H     1 <1>   0.0800 
 33 H       -0.6970    -4.5300     1.1520 H     1 <1>   0.0800 
 34 H       -3.5920    -2.4100     0.0110 H     1 <1>   0.0800 
 35 H       -3.3350    -1.1570     1.2010 H     1 <1>   0.0800 
 36 H       -3.8950    -2.7280     1.7030 H     1 <1>   0.0800 
 37 H       -4.1190     3.4670    -1.7440 H     1 <1>   0.0800 
 38 H       -4.3280     4.5850    -0.4170 H     1 <1>   0.0800 
 39 H       -4.6090     2.8820    -0.1710 H     1 <1>   0.0800 
 40 H       -1.7040     4.3470    -2.0620 H     1 <1>   0.0800 
 41 H       -0.6330     4.3860    -0.6850 H     1 <1>   0.0800 
 42 H       -2.0020     5.4610    -0.7470 H     1 <1>   0.0800 
 43 H        3.6150    -3.2780    -1.4670 H     1 <1>   0.1500 
 44 H        4.1550    -4.0810     0.7730 H     1 <1>   0.1500 
@<TRIPOS>BOND
  1   1   2  2   
  2   1   3  1   
  3   1   4  1   
  4   1   5  1   
  5   3   6  1   
  6   4   7  1   
  7   5   8  1   
  8   5   9  1   
  9   5  21  1   
 10   6  10  1   
 11   6  22  1   
 12   6  23  1   
 13   7  11  1   
 14   7  24  1   
 15   7  25  1   
 16   8  26  1   
 17   9  12  ar  
 18   9  13  ar  
 19  10  14  1   
 20  10  15  1   
 21  10  27  1   
 22  11  16  1   
 23  11  17  1   
 24  11  28  1   
 25  12  18  ar  
 26  12  29  1   
 27  13  19  ar  
 28  13  30  1   
 29  14  31  1   
 30  14  32  1   
 31  14  33  1   
 32  15  34  1   
 33  15  35  1   
 34  15  36  1   
 35  16  37  1   
 36  16  38  1   
 37  16  39  1   
 38  17  40  1   
 39  17  41  1   
 40  17  42  1   
 41  18  20  ar  
 42  19  20  ar  
 43  19  43  1   
 44  20  44  1   
@<TRIPOS>SUBSTRUCTURE
  1 ****   1 GROUP 4 **** **** 0

# MOE 2024.06 (io_trps.svl 2023.06)
