@<TRIPOS>MOLECULE
NONAME
46 47 1 0 0 
SMALL
USER_CHARGES


@<TRIPOS>ATOM
  1 O       -2.0360     1.0400    -2.1120 O.co2 1 <1>  -0.9000 
  2 C       -2.1790     2.0410    -1.4060 C.2   1 <1>   0.9060 
  3 O       -2.7050     3.0760    -1.8440 O.co2 1 <1>  -0.9000 
  4 C       -1.7250     1.9910     0.0510 C.3   1 <1>  -0.1860 
  5 C       -2.8310     2.3440     1.0970 C.3   1 <1>  -0.0190 
  6 C       -0.4440     2.8480     0.2300 C.3   1 <1>  -0.1600 
  7 C       -4.2530     1.8690     0.7710 C.2   1 <1>   0.5690 
  8 C       -2.7960     3.8460     1.4390 C.3   1 <1>  -0.1600 
  9 C       -0.2760     3.3570     1.6660 C.3   1 <1>  -0.1600 
 10 O       -4.7920     1.1080     1.5430 O.2   1 <1>  -0.5700 
 11 N       -4.8630     2.3560    -0.3360 N.am  1 <1>  -0.7300 
 12 C       -1.4540     4.2600     2.0760 C.3   1 <1>  -0.1600 
 13 C       -6.0870     1.9540    -1.0400 C.3   1 <1>   0.3640 
 14 C       -7.2800     2.8040    -0.5840 C.ar  1 <1>  -0.1440 
 15 C       -6.3600     0.4530    -0.9310 C.3   1 <1>  -0.2400 
 16 C       -7.9600     3.6640    -1.4470 C.ar  1 <1>  -0.1440 
 17 C       -7.6990     2.7140     0.7380 C.ar  1 <1>  -0.1500 
 18 C       -9.0420     4.3930    -0.9750 C.ar  1 <1>  -0.1500 
 19 C       -7.5480     3.8410    -2.9020 C.3   1 <1>  -0.0970 
 20 C       -8.7760     3.4440     1.2080 C.ar  1 <1>  -0.1440 
 21 C       -9.4510     4.2840     0.3420 C.ar  1 <1>  -0.1500 
 22 C       -9.2050     3.3200     2.6580 C.3   1 <1>  -0.0970 
 23 H       -1.4590     0.9660     0.2310 H     1 <1>   0.0800 
 24 H       -2.5660     1.8270     2.0020 H     1 <1>   0.0800 
 25 H       -0.4980     3.7020    -0.4260 H     1 <1>   0.0800 
 26 H        0.4130     2.2700    -0.0690 H     1 <1>   0.0800 
 27 H       -3.6040     4.0900     2.1050 H     1 <1>   0.0800 
 28 H       -2.9460     4.4020     0.5280 H     1 <1>   0.0800 
 29 H        0.6470     3.9030     1.7560 H     1 <1>   0.0800 
 30 H       -0.2220     2.5100     2.3280 H     1 <1>   0.0800 
 31 H       -4.2270     2.8830    -0.9680 H     1 <1>   0.3700 
 32 H       -1.5440     4.2400     3.1470 H     1 <1>   0.0800 
 33 H       -1.2430     5.2750     1.7860 H     1 <1>   0.0800 
 34 H       -5.8920     2.1380    -2.0800 H     1 <1>   0.0800 
 35 H       -6.6200     0.1760     0.0720 H     1 <1>   0.0800 
 36 H       -5.4880    -0.0950    -1.2390 H     1 <1>   0.0800 
 37 H       -7.1780     0.1930    -1.5750 H     1 <1>   0.0800 
 38 H       -7.1680     2.0630     1.4100 H     1 <1>   0.1500 
 39 H       -9.5750     5.0560    -1.6310 H     1 <1>   0.1500 
 40 H       -7.6400     2.9080    -3.4280 H     1 <1>   0.0800 
 41 H       -6.5270     4.1770    -2.9540 H     1 <1>   0.0800 
 42 H       -8.1650     4.5700    -3.3950 H     1 <1>   0.0800 
 43 H      -10.2920     4.8570     0.6880 H     1 <1>   0.1500 
 44 H       -8.3590     3.0820     3.2770 H     1 <1>   0.0800 
 45 H       -9.9370     2.5380     2.7540 H     1 <1>   0.0800 
 46 H       -9.6310     4.2440     3.0050 H     1 <1>   0.0800 
@<TRIPOS>BOND
  1   1   2  ar  
  2   2   3  ar  
  3   2   4  1   
  4   4   5  1   
  5   4   6  1   
  6   4  23  1   
  7   5   7  1   
  8   5   8  1   
  9   5  24  1   
 10   6   9  1   
 11   6  25  1   
 12   6  26  1   
 13   7  10  2   
 14   7  11  am  
 15   8  12  1   
 16   8  27  1   
 17   8  28  1   
 18   9  12  1   
 19   9  29  1   
 20   9  30  1   
 21  11  13  1   
 22  11  31  1   
 23  12  32  1   
 24  12  33  1   
 25  13  14  1   
 26  13  15  1   
 27  13  34  1   
 28  14  16  ar  
 29  14  17  ar  
 30  15  35  1   
 31  15  36  1   
 32  15  37  1   
 33  16  18  ar  
 34  16  19  1   
 35  17  20  ar  
 36  17  38  1   
 37  18  21  ar  
 38  18  39  1   
 39  19  40  1   
 40  19  41  1   
 41  19  42  1   
 42  20  21  ar  
 43  20  22  1   
 44  21  43  1   
 45  22  44  1   
 46  22  45  1   
 47  22  46  1   
@<TRIPOS>SUBSTRUCTURE
  1 ****  11 GROUP 4 **** **** 0

# MOE 2024.06 (io_trps.svl 2023.06)
