@<TRIPOS>MOLECULE
NONAME
40 41 1 0 0 
SMALL
USER_CHARGES


@<TRIPOS>ATOM
  1 F       -2.1040    -0.0970     2.2350 F     1 <1>  -0.1900 
  2 C       -3.0810     0.7020     1.8950 C.ar  1 <1>   0.1900 
  3 C       -3.9360     0.3110     0.8850 C.ar  1 <1>  -0.1500 
  4 C       -3.2160     1.9040     2.5610 C.ar  1 <1>  -0.1500 
  5 C       -4.9800     1.1490     0.5150 C.ar  1 <1>   0.1170 
  6 C       -4.2510     2.7460     2.1910 C.ar  1 <1>  -0.1500 
  7 N       -5.8400     0.7450    -0.5170 N.am  1 <1>  -0.5470 
  8 C       -5.1190     2.3700     1.1780 C.ar  1 <1>  -0.1500 
  9 C       -7.1510     1.0410    -0.7280 C.2   1 <1>   0.6900 
 10 O       -7.8050     1.6960     0.0590 O.2   1 <1>  -0.5700 
 11 N       -7.7570     0.5410    -1.8330 N.am  1 <1>  -0.7300 
 12 C       -9.1090     0.9410    -2.3330 C.3   1 <1>   0.1400 
 13 C      -10.2560     0.2170    -1.5930 C.3   1 <1>   0.3430 
 14 N      -10.3160     0.5980    -0.1520 N.4   1 <1>  -0.9590 
 15 C      -10.7390    -0.5270     0.7240 C.3   1 <1>   0.3430 
 16 C      -11.0990     1.8420     0.0860 C.3   1 <1>   0.3430 
 17 C      -10.5650    -0.1260     2.1900 C.3   1 <1>  -0.1600 
 18 C      -10.9400     2.2780     1.5440 C.3   1 <1>  -0.1600 
 19 C      -11.3300     1.1620     2.5210 C.3   1 <1>  -0.1600 
 20 H       -3.7850    -0.6360     0.4040 H     1 <1>   0.1500 
 21 H       -2.5300     2.1720     3.3440 H     1 <1>   0.1500 
 22 H       -4.3800     3.6920     2.6890 H     1 <1>   0.1500 
 23 H       -5.4440     0.0610    -1.1530 H     1 <1>   0.3700 
 24 H       -5.9100     3.0420     0.8990 H     1 <1>   0.1500 
 25 H       -7.1510     0.1170    -2.5390 H     1 <1>   0.3700 
 26 H       -9.1700     0.7050    -3.3810 H     1 <1>   0.0800 
 27 H       -9.2280     2.0070    -2.2330 H     1 <1>   0.0800 
 28 H      -10.0920    -0.8440    -1.6830 H     1 <1>   0.0800 
 29 H      -11.1960     0.4470    -2.0670 H     1 <1>   0.0800 
 30 H       -9.3400     0.8440     0.1220 H     1 <1>   0.4500 
 31 H      -10.1380    -1.3990     0.5200 H     1 <1>   0.0800 
 32 H      -11.7720    -0.7690     0.5350 H     1 <1>   0.0800 
 33 H      -12.1410     1.6660    -0.1260 H     1 <1>   0.0800 
 34 H      -10.7440     2.6300    -0.5580 H     1 <1>   0.0800 
 35 H       -9.5170     0.0090     2.3970 H     1 <1>   0.0800 
 36 H      -10.9180    -0.9240     2.8190 H     1 <1>   0.0800 
 37 H      -11.5550     3.1430     1.7240 H     1 <1>   0.0800 
 38 H       -9.9170     2.5710     1.7130 H     1 <1>   0.0800 
 39 H      -11.1100     1.4680     3.5310 H     1 <1>   0.0800 
 40 H      -12.3900     0.9790     2.4570 H     1 <1>   0.0800 
@<TRIPOS>BOND
  1   1   2  1   
  2   2   3  ar  
  3   2   4  ar  
  4   3   5  ar  
  5   3  20  1   
  6   4   6  ar  
  7   4  21  1   
  8   5   7  1   
  9   5   8  ar  
 10   6   8  ar  
 11   6  22  1   
 12   7   9  am  
 13   7  23  1   
 14   8  24  1   
 15   9  10  2   
 16   9  11  am  
 17  11  12  1   
 18  11  25  1   
 19  12  13  1   
 20  12  26  1   
 21  12  27  1   
 22  13  14  1   
 23  13  28  1   
 24  13  29  1   
 25  14  15  1   
 26  14  16  1   
 27  14  30  1   
 28  15  17  1   
 29  15  31  1   
 30  15  32  1   
 31  16  18  1   
 32  16  33  1   
 33  16  34  1   
 34  17  19  1   
 35  17  35  1   
 36  17  36  1   
 37  18  19  1   
 38  18  37  1   
 39  18  38  1   
 40  19  39  1   
 41  19  40  1   
@<TRIPOS>SUBSTRUCTURE
  1 ****  10 GROUP 4 **** **** 0

# MOE 2024.06 (io_trps.svl 2023.06)
