@<TRIPOS>MOLECULE
NONAME
31 32 1 0 0 
SMALL
USER_CHARGES


@<TRIPOS>ATOM
  1 O       -0.3220     1.1980     1.3570 O.2   1 <1>  -0.5700 
  2 C       -1.2360     1.5820     0.6750 C.2   1 <1>   0.5690 
  3 N       -1.4030     2.8420     0.2280 N.am  1 <1>  -0.6600 
  4 C       -2.3370     0.6770     0.2030 C.3   1 <1>  -0.0990 
  5 C       -2.6220     2.9970    -0.6060 C.3   1 <1>   0.6440 
  6 C       -0.4370     3.9590     0.4360 C.3   1 <1>   0.1400 
  7 C       -3.3580     1.6510    -0.4080 C.3   1 <1>  -0.1600 
  8 C       -2.2060     3.1620    -2.0490 C.1   1 <1>   0.3570 
  9 C       -3.5000     4.1580    -0.0880 C.ar  1 <1>  -0.1440 
 10 C        0.8340     3.7460    -0.3940 C.3   1 <1>   0.1200 
 11 N       -1.8920     3.2850    -3.1380 N.1   1 <1>  -0.5570 
 12 C       -4.2040     4.9950    -0.9530 C.ar  1 <1>  -0.1500 
 13 C       -3.6220     4.3830     1.2820 C.ar  1 <1>  -0.1500 
 14 O        1.5970     4.9050    -0.3710 O.3   1 <1>  -0.6800 
 15 C       -4.9900     6.0240    -0.4630 C.ar  1 <1>  -0.1500 
 16 C       -4.4070     5.4110     1.7710 C.ar  1 <1>  -0.1500 
 17 C       -5.0920     6.2340     0.8980 C.ar  1 <1>  -0.1500 
 18 H       -2.7500     0.1210     1.0250 H     1 <1>   0.0800 
 19 H       -1.9440     0.0040    -0.5380 H     1 <1>   0.0800 
 20 H       -0.1690     3.9970     1.4780 H     1 <1>   0.0800 
 21 H       -0.8990     4.8920     0.1640 H     1 <1>   0.0800 
 22 H       -4.1710     1.7850     0.2840 H     1 <1>   0.0800 
 23 H       -3.7700     1.2740    -1.3280 H     1 <1>   0.0800 
 24 H        0.6040     3.5200    -1.4210 H     1 <1>   0.0800 
 25 H        1.4250     2.9510     0.0290 H     1 <1>   0.0800 
 26 H       -4.1630     4.8690    -2.0220 H     1 <1>   0.1500 
 27 H       -3.1040     3.7560     1.9890 H     1 <1>   0.1500 
 28 H        1.2100     5.5910    -0.9500 H     1 <1>   0.4000 
 29 H       -5.5250     6.6630    -1.1450 H     1 <1>   0.1500 
 30 H       -4.4860     5.5710     2.8330 H     1 <1>   0.1500 
 31 H       -5.7030     7.0350     1.2770 H     1 <1>   0.1500 
@<TRIPOS>BOND
  1   1   2  2   
  2   2   3  am  
  3   2   4  1   
  4   3   5  1   
  5   3   6  1   
  6   4   7  1   
  7   4  18  1   
  8   4  19  1   
  9   5   7  1   
 10   5   8  1   
 11   5   9  1   
 12   6  10  1   
 13   6  20  1   
 14   6  21  1   
 15   7  22  1   
 16   7  23  1   
 17   8  11  3   
 18   9  12  ar  
 19   9  13  ar  
 20  10  14  1   
 21  10  24  1   
 22  10  25  1   
 23  12  15  ar  
 24  12  26  1   
 25  13  16  ar  
 26  13  27  1   
 27  14  28  1   
 28  15  17  ar  
 29  15  29  1   
 30  16  17  ar  
 31  16  30  1   
 32  17  31  1   
@<TRIPOS>SUBSTRUCTURE
  1 ****   5 GROUP 4 **** **** 0

# MOE 2024.06 (io_trps.svl 2023.06)
