@<TRIPOS>MOLECULE
NONAME
52 54 1 0 0 
SMALL
USER_CHARGES


@<TRIPOS>ATOM
  1 S       -0.1970     0.2180    -1.3630 S.3   1 <1>  -0.4600 
  2 C        0.1110    -1.5630    -1.1310 C.3   1 <1>   0.4320 
  3 C        1.4490     1.0010    -1.5760 C.3   1 <1>   0.1310 
  4 C       -1.2200    -2.2690    -0.8790 C.ar  1 <1>  -0.1440 
  5 C        1.2040    -1.7500    -0.0980 C.2   1 <1>  -0.1240 
  6 C        2.5010     0.1010    -2.2220 C.2   1 <1>   0.5690 
  7 C       -2.0920    -1.8410     0.1120 C.ar  1 <1>  -0.1500 
  8 C       -1.5800    -3.3590    -1.6600 C.ar  1 <1>  -0.1500 
  9 C        1.1280    -2.2340     1.2120 C.2   1 <1>   0.6160 
 10 C        2.5150    -1.4750    -0.3580 C.2   1 <1>   0.2090 
 11 O        2.9090     0.3480    -3.3270 O.2   1 <1>  -0.5700 
 12 N        3.0230    -0.9430    -1.5260 N.am  1 <1>  -0.5390 
 13 C       -3.2970    -2.4950     0.3380 C.ar  1 <1>   0.0830 
 14 C       -2.7870    -4.0060    -1.4590 C.ar  1 <1>  -0.1500 
 15 O        0.1510    -2.5000     1.9220 O.2   1 <1>  -0.5700 
 16 N        2.3870    -2.3090     1.6980 N.am  1 <1>  -0.4100 
 17 N        3.2830    -1.7920     0.7100 N.pl3 1 <1>  -0.4890 
 18 O       -4.1360    -2.1050     1.3380 O.3   1 <1>  -0.3620 
 19 C       -3.6590    -3.5810    -0.4620 C.ar  1 <1>   0.0830 
 20 C        4.7230    -2.1670     0.6910 C.3   1 <1>   0.2890 
 21 C       -3.5870    -1.5990     2.5350 C.3   1 <1>   0.0400 
 22 O       -4.8580    -4.1880    -0.2240 O.3   1 <1>  -0.3630 
 23 C        4.8520    -3.6740     0.4140 C.3   1 <1>  -0.1600 
 24 C        5.3630    -1.7440     2.0170 C.3   1 <1>  -0.2400 
 25 C       -5.2920    -5.2940    -0.9810 C.3   1 <1>   0.0400 
 26 C        6.3010    -4.1260     0.1710 C.3   1 <1>  -0.1600 
 27 C        6.3560    -5.6100    -0.2010 C.3   1 <1>  -0.2400 
 28 H        0.4880    -1.8960    -2.0820 H     1 <1>   0.0800 
 29 H        1.7760     1.3010    -0.5980 H     1 <1>   0.0800 
 30 H        1.2950     1.8770    -2.1790 H     1 <1>   0.0800 
 31 H       -1.8210    -0.9920     0.7100 H     1 <1>   0.1500 
 32 H       -0.9240    -3.7120    -2.4370 H     1 <1>   0.1500 
 33 H        3.8550    -1.3630    -1.9390 H     1 <1>   0.3700 
 34 H       -3.0280    -4.8400    -2.0900 H     1 <1>   0.1500 
 35 H        2.5050    -2.0820     2.6890 H     1 <1>   0.3700 
 36 H        5.2020    -1.6230    -0.1040 H     1 <1>   0.0800 
 37 H       -4.3530    -1.6220     3.2880 H     1 <1>   0.0800 
 38 H       -3.2660    -0.5870     2.3710 H     1 <1>   0.0800 
 39 H       -2.7590    -2.2200     2.8310 H     1 <1>   0.0800 
 40 H        4.2700    -3.9090    -0.4600 H     1 <1>   0.0800 
 41 H        4.4420    -4.2250     1.2420 H     1 <1>   0.0800 
 42 H        4.9810    -2.3350     2.8290 H     1 <1>   0.0800 
 43 H        5.1610    -0.7050     2.2050 H     1 <1>   0.0800 
 44 H        6.4280    -1.8730     1.9740 H     1 <1>   0.0800 
 45 H       -6.2560    -5.5920    -0.6090 H     1 <1>   0.0800 
 46 H       -4.5880    -6.0970    -0.8580 H     1 <1>   0.0800 
 47 H       -5.3730    -5.0000    -2.0120 H     1 <1>   0.0800 
 48 H        6.8920    -3.9720     1.0580 H     1 <1>   0.0800 
 49 H        6.7360    -3.5480    -0.6270 H     1 <1>   0.0800 
 50 H        5.9430    -6.2120     0.5900 H     1 <1>   0.0800 
 51 H        7.3760    -5.9130    -0.3620 H     1 <1>   0.0800 
 52 H        5.7990    -5.7960    -1.1030 H     1 <1>   0.0800 
@<TRIPOS>BOND
  1   1   2  1   
  2   1   3  1   
  3   2   4  1   
  4   2   5  1   
  5   2  28  1   
  6   3   6  1   
  7   3  29  1   
  8   3  30  1   
  9   4   7  ar  
 10   4   8  ar  
 11   5   9  1   
 12   5  10  2   
 13   6  11  2   
 14   6  12  am  
 15   7  13  ar  
 16   7  31  1   
 17   8  14  ar  
 18   8  32  1   
 19   9  15  2   
 20   9  16  am  
 21  10  12  1   
 22  10  17  1   
 23  12  33  1   
 24  13  18  1   
 25  13  19  ar  
 26  14  19  ar  
 27  14  34  1   
 28  16  17  1   
 29  16  35  1   
 30  17  20  1   
 31  18  21  1   
 32  19  22  1   
 33  20  23  1   
 34  20  24  1   
 35  20  36  1   
 36  21  37  1   
 37  21  38  1   
 38  21  39  1   
 39  22  25  1   
 40  23  26  1   
 41  23  40  1   
 42  23  41  1   
 43  24  42  1   
 44  24  43  1   
 45  24  44  1   
 46  25  45  1   
 47  25  46  1   
 48  25  47  1   
 49  26  27  1   
 50  26  48  1   
 51  26  49  1   
 52  27  50  1   
 53  27  51  1   
 54  27  52  1   
@<TRIPOS>SUBSTRUCTURE
  1 ****   5 GROUP 4 **** **** 0

# MOE 2024.06 (io_trps.svl 2023.06)
