@<TRIPOS>MOLECULE
NONAME
32 33 1 0 0 
SMALL
USER_CHARGES


@<TRIPOS>ATOM
  1 O        0.3760    -0.4070    -0.7380 O.3   1 <1>  -0.5600 
  2 C        1.2190     0.6240    -0.3010 C.3   1 <1>   0.1200 
  3 C        0.2230    -1.4540     0.1840 C.3   1 <1>   0.1200 
  4 C        2.6390     0.0910     0.0050 C.3   1 <1>   0.3430 
  5 C        1.5890    -2.0630     0.5770 C.3   1 <1>   0.3430 
  6 N        2.7180    -1.4020    -0.1620 N.4   1 <1>  -0.9590 
  7 C        4.0440    -1.9950     0.1900 C.3   1 <1>   0.3430 
  8 C        5.1500    -1.5430    -0.7650 C.3   1 <1>  -0.0170 
  9 C        6.4310    -2.2640    -0.3930 C.ar  1 <1>  -0.1440 
 10 C        7.2970    -1.7150     0.5410 C.ar  1 <1>  -0.1500 
 11 C        6.7400    -3.4840    -0.9740 C.ar  1 <1>  -0.1500 
 12 C        8.4570    -2.3820     0.8940 C.ar  1 <1>  -0.1500 
 13 C        7.9000    -4.1510    -0.6210 C.ar  1 <1>  -0.1500 
 14 C        8.7580    -3.6020     0.3140 C.ar  1 <1>  -0.1500 
 15 H        0.7840     1.0780     0.5730 H     1 <1>   0.0800 
 16 H        1.2610     1.3670    -1.0790 H     1 <1>   0.0800 
 17 H       -0.4000    -2.2030    -0.2740 H     1 <1>   0.0800 
 18 H       -0.2910    -1.0760     1.0520 H     1 <1>   0.0800 
 19 H        2.9040     0.3650     1.0130 H     1 <1>   0.0800 
 20 H        3.3390     0.5750    -0.6560 H     1 <1>   0.0800 
 21 H        1.5750    -3.1200     0.3630 H     1 <1>   0.0800 
 22 H        1.7290    -1.9500     1.6390 H     1 <1>   0.0800 
 23 H        2.5130    -1.5740    -1.1590 H     1 <1>   0.4500 
 24 H        3.9810    -3.0700     0.1440 H     1 <1>   0.0800 
 25 H        4.3140    -1.7260     1.1980 H     1 <1>   0.0800 
 26 H        5.3100    -0.4830    -0.6930 H     1 <1>   0.0800 
 27 H        4.8880    -1.7850    -1.7800 H     1 <1>   0.0800 
 28 H        7.0860    -0.7650     1.0010 H     1 <1>   0.1500 
 29 H        6.0900    -3.9280    -1.7080 H     1 <1>   0.1500 
 30 H        9.1290    -1.9540     1.6180 H     1 <1>   0.1500 
 31 H        8.1390    -5.0980    -1.0750 H     1 <1>   0.1500 
 32 H        9.6610    -4.1200     0.5880 H     1 <1>   0.1500 
@<TRIPOS>BOND
  1   1   2  1   
  2   1   3  1   
  3   2   4  1   
  4   2  15  1   
  5   2  16  1   
  6   3   5  1   
  7   3  17  1   
  8   3  18  1   
  9   4   6  1   
 10   4  19  1   
 11   4  20  1   
 12   5   6  1   
 13   5  21  1   
 14   5  22  1   
 15   6   7  1   
 16   6  23  1   
 17   7   8  1   
 18   7  24  1   
 19   7  25  1   
 20   8   9  1   
 21   8  26  1   
 22   8  27  1   
 23   9  10  ar  
 24   9  11  ar  
 25  10  12  ar  
 26  10  28  1   
 27  11  13  ar  
 28  11  29  1   
 29  12  14  ar  
 30  12  30  1   
 31  13  14  ar  
 32  13  31  1   
 33  14  32  1   
@<TRIPOS>SUBSTRUCTURE
  1 ****   7 GROUP 4 **** **** 0

# MOE 2024.06 (io_trps.svl 2023.06)
