@<TRIPOS>MOLECULE
NONAME
43 45 1 0 0 
SMALL
USER_CHARGES


@<TRIPOS>ATOM
  1 S        0.0960     0.1460    -0.1730 S.o2  1 <1>   1.4470 
  2 O       -0.0820     0.8430    -1.4290 O.2   1 <1>  -0.6500 
  3 O       -0.3690     0.7550     1.0530 O.2   1 <1>  -0.6500 
  4 N        1.7570    -0.1200     0.0100 N.am  1 <1>  -0.8490 
  5 C       -0.5740    -1.5380    -0.2920 C.ar  1 <1>  -0.0090 
  6 C        2.4450     1.1010     0.4740 C.3   1 <1>   0.1960 
  7 C        2.3940    -0.5870    -1.2390 C.3   1 <1>   0.1960 
  8 C       -1.3660    -1.9250    -1.3720 C.ar  1 <1>  -0.1500 
  9 C       -0.3040    -2.4790     0.7010 C.ar  1 <1>  -0.1500 
 10 C        3.9510     0.8710     0.7030 C.3   1 <1>   0.2090 
 11 C        3.8950    -0.8790    -1.0480 C.3   1 <1>   0.2090 
 12 C       -1.8730    -3.2110    -1.4680 C.ar  1 <1>  -0.1500 
 13 C       -0.8020    -3.7700     0.6240 C.ar  1 <1>  -0.1500 
 14 N        4.6150     0.3150    -0.5150 N.pl3 1 <1>  -0.8380 
 15 C       -1.5790    -4.1120    -0.4640 C.ar  1 <1>   0.1900 
 16 C        5.9960     0.1860    -0.4320 C.ar  1 <1>   0.1000 
 17 F       -2.0510    -5.3260    -0.5470 F     1 <1>  -0.1900 
 18 C        6.5930    -0.7080     0.4490 C.ar  1 <1>  -0.1500 
 19 C        6.8070     0.9630    -1.2460 C.ar  1 <1>  -0.1500 
 20 C        7.9690    -0.8280     0.5210 C.ar  1 <1>   0.0820 
 21 C        8.1850     0.8530    -1.1850 C.ar  1 <1>  -0.1500 
 22 O        8.4560    -1.7280     1.4130 O.3   1 <1>  -0.3630 
 23 C        8.7700    -0.0400    -0.3030 C.ar  1 <1>  -0.1500 
 24 C        9.8430    -1.9270     1.5630 C.3   1 <1>   0.0400 
 25 H        2.0100     1.4310     1.4020 H     1 <1>   0.0800 
 26 H        2.3180     1.8900    -0.2490 H     1 <1>   0.0800 
 27 H        2.2890     0.1570    -2.0110 H     1 <1>   0.0800 
 28 H        1.9110    -1.4870    -1.5770 H     1 <1>   0.0800 
 29 H       -1.5900    -1.2090    -2.1470 H     1 <1>   0.1500 
 30 H        0.3040    -2.1910     1.5430 H     1 <1>   0.1500 
 31 H        4.0810     0.1920     1.5280 H     1 <1>   0.0800 
 32 H        4.4190     1.8050     0.9630 H     1 <1>   0.0800 
 33 H        4.3280    -1.1570    -1.9920 H     1 <1>   0.0800 
 34 H        4.0110    -1.7060    -0.3690 H     1 <1>   0.0800 
 35 H       -2.4840    -3.5110    -2.3000 H     1 <1>   0.1500 
 36 H       -0.5950    -4.4960     1.3900 H     1 <1>   0.1500 
 37 H        5.9840    -1.3170     1.0870 H     1 <1>   0.1500 
 38 H        6.3430     1.6530    -1.9260 H     1 <1>   0.1500 
 39 H        8.8000     1.4630    -1.8230 H     1 <1>   0.1500 
 40 H        9.8410    -0.1080    -0.2730 H     1 <1>   0.1500 
 41 H        9.9920    -2.6790     2.3170 H     1 <1>   0.0800 
 42 H       10.2960    -1.0020     1.8740 H     1 <1>   0.0800 
 43 H       10.2510    -2.2620     0.6260 H     1 <1>   0.0800 
@<TRIPOS>BOND
  1   1   2  2   
  2   1   3  2   
  3   1   4  am  
  4   1   5  1   
  5   4   6  1   
  6   4   7  1   
  7   5   8  ar  
  8   5   9  ar  
  9   6  10  1   
 10   6  25  1   
 11   6  26  1   
 12   7  11  1   
 13   7  27  1   
 14   7  28  1   
 15   8  12  ar  
 16   8  29  1   
 17   9  13  ar  
 18   9  30  1   
 19  10  14  1   
 20  10  31  1   
 21  10  32  1   
 22  11  14  1   
 23  11  33  1   
 24  11  34  1   
 25  12  15  ar  
 26  12  35  1   
 27  13  15  ar  
 28  13  36  1   
 29  14  16  1   
 30  15  17  1   
 31  16  18  ar  
 32  16  19  ar  
 33  18  20  ar  
 34  18  37  1   
 35  19  21  ar  
 36  19  38  1   
 37  20  22  1   
 38  20  23  ar  
 39  21  23  ar  
 40  21  39  1   
 41  22  24  1   
 42  23  40  1   
 43  24  41  1   
 44  24  42  1   
 45  24  43  1   
@<TRIPOS>SUBSTRUCTURE
  1 ****  11 GROUP 4 **** **** 0

# MOE 2024.06 (io_trps.svl 2023.06)
