@<TRIPOS>MOLECULE
NONAME
31 31 1 0 0 
SMALL
USER_CHARGES


@<TRIPOS>ATOM
  1 CL       0.1100     0.9790    -1.8880 Cl    1 <1>  -0.1770 
  2 C        0.8510     2.0980    -0.7670 C.ar  1 <1>   0.1770 
  3 C        0.1050     3.1180    -0.1920 C.ar  1 <1>   0.0820 
  4 C        2.1950     1.9360    -0.4760 C.ar  1 <1>  -0.1500 
  5 O       -1.1990     3.2920    -0.5100 O.3   1 <1>  -0.3630 
  6 C        0.7460     3.9750     0.6930 C.ar  1 <1>   0.1770 
  7 C        2.8280     2.8050     0.4060 C.ar  1 <1>  -0.1440 
  8 C       -2.1400     2.6170     0.2890 C.3   1 <1>   0.1200 
  9 CL      -0.1310     5.2800     1.4580 Cl    1 <1>  -0.1770 
 10 C        2.0890     3.8250     0.9950 C.ar  1 <1>  -0.1500 
 11 C        4.3030     2.6470     0.7160 C.3   1 <1>   0.4870 
 12 C       -3.5310     2.9490    -0.2390 C.3   1 <1>  -0.2400 
 13 N        5.0440     3.4580    -0.2730 N.4   1 <1>  -0.9060 
 14 C        6.5100     3.4050    -0.1010 C.3   1 <1>   0.3430 
 15 C        7.1420     4.2760    -1.1750 C.3   1 <1>  -0.2400 
 16 H        2.7220     1.1240    -0.9480 H     1 <1>   0.1500 
 17 H       -2.0280     2.9490     1.3070 H     1 <1>   0.0800 
 18 H       -1.9500     1.5590     0.2250 H     1 <1>   0.0800 
 19 H        2.5320     4.5170     1.6920 H     1 <1>   0.1500 
 20 H        4.5860     1.6080     0.6420 H     1 <1>   0.0800 
 21 H        4.5080     2.9920     1.7170 H     1 <1>   0.0800 
 22 H       -3.7040     4.0090    -0.1820 H     1 <1>   0.0800 
 23 H       -4.2750     2.4470     0.3520 H     1 <1>   0.0800 
 24 H       -3.6260     2.6240    -1.2600 H     1 <1>   0.0800 
 25 H        4.7180     4.4290    -0.2110 H     1 <1>   0.4500 
 26 H        4.7900     3.1380    -1.2160 H     1 <1>   0.4500 
 27 H        6.8640     2.3900    -0.2000 H     1 <1>   0.0800 
 28 H        6.7870     3.7730     0.8760 H     1 <1>   0.0800 
 29 H        6.9030     3.9120    -2.1590 H     1 <1>   0.0800 
 30 H        8.2130     4.2520    -1.0670 H     1 <1>   0.0800 
 31 H        6.8260     5.3000    -1.0800 H     1 <1>   0.0800 
@<TRIPOS>BOND
  1   1   2  1   
  2   2   3  ar  
  3   2   4  ar  
  4   3   5  1   
  5   3   6  ar  
  6   4   7  ar  
  7   4  16  1   
  8   5   8  1   
  9   6   9  1   
 10   6  10  ar  
 11   7  10  ar  
 12   7  11  1   
 13   8  12  1   
 14   8  17  1   
 15   8  18  1   
 16  10  19  1   
 17  11  13  1   
 18  11  20  1   
 19  11  21  1   
 20  12  22  1   
 21  12  23  1   
 22  12  24  1   
 23  13  14  1   
 24  13  25  1   
 25  13  26  1   
 26  14  15  1   
 27  14  27  1   
 28  14  28  1   
 29  15  29  1   
 30  15  30  1   
 31  15  31  1   
@<TRIPOS>SUBSTRUCTURE
  1 ****   7 GROUP 4 **** **** 0

# MOE 2024.06 (io_trps.svl 2023.06)
