@<TRIPOS>MOLECULE
NONAME
46 47 1 0 0 
SMALL
USER_CHARGES


@<TRIPOS>ATOM
  1 S        0.1090     0.2650     1.0730 S.o2  1 <1>   1.4470 
  2 O        0.7070     0.2840     2.3890 O.2   1 <1>  -0.6500 
  3 O       -1.2750     0.6650     0.9310 O.2   1 <1>  -0.6500 
  4 N        0.2460    -1.3190     0.4530 N.am  1 <1>  -0.8490 
  5 C        1.1100     1.2480    -0.0790 C.ar  1 <1>  -0.0090 
  6 C        1.1010    -2.2100     1.2920 C.3   1 <1>   0.2570 
  7 C       -1.0540    -1.9560     0.2040 C.3   1 <1>   0.1160 
  8 C        1.1040     0.9840    -1.4460 C.ar  1 <1>  -0.1500 
  9 C        1.8940     2.3030     0.3730 C.ar  1 <1>  -0.1500 
 10 C        2.6130    -1.9390     1.2720 C.2   1 <1>   0.5690 
 11 C        1.8640     1.7340    -2.3260 C.ar  1 <1>  -0.1500 
 12 C        2.6560     3.0600    -0.5010 C.ar  1 <1>  -0.1500 
 13 O        3.3010    -2.4870     2.1000 O.2   1 <1>  -0.5700 
 14 N        3.1540    -1.1390     0.3130 N.am  1 <1>  -0.7300 
 15 C        2.6440     2.7730    -1.8530 C.ar  1 <1>  -0.1500 
 16 C        4.5870    -0.8450     0.1590 C.3   1 <1>   0.2200 
 17 C        4.9250     0.3880     1.0060 C.3   1 <1>  -0.1600 
 18 C        4.8650    -0.6950    -1.3420 C.3   1 <1>  -0.1600 
 19 C        6.4380     0.5850     1.1800 C.3   1 <1>  -0.1600 
 20 C        6.3060    -0.2990    -1.7030 C.3   1 <1>  -0.1600 
 21 C        7.1140     1.4040     0.0700 C.3   1 <1>  -0.1600 
 22 C        6.6140     1.1660    -1.3640 C.3   1 <1>  -0.1600 
 23 H        0.9850    -3.2240     0.9540 H     1 <1>   0.0800 
 24 H        0.7660    -2.1820     2.3150 H     1 <1>   0.0800 
 25 H       -1.6280    -1.3660    -0.4910 H     1 <1>   0.0800 
 26 H       -1.6110    -2.0440     1.1230 H     1 <1>   0.0800 
 27 H       -0.9180    -2.9350    -0.2220 H     1 <1>   0.0800 
 28 H        0.4920     0.1840    -1.8270 H     1 <1>   0.1500 
 29 H        1.9120     2.5310     1.4260 H     1 <1>   0.1500 
 30 H        1.8470     1.5120    -3.3800 H     1 <1>   0.1500 
 31 H        3.2580     3.8700    -0.1270 H     1 <1>   0.1500 
 32 H        2.5400    -0.6890    -0.3670 H     1 <1>   0.3700 
 33 H        3.2370     3.3590    -2.5340 H     1 <1>   0.1500 
 34 H        5.1490    -1.6860     0.5350 H     1 <1>   0.0800 
 35 H        4.5050     0.2360     1.9860 H     1 <1>   0.0800 
 36 H        4.4800     1.2710     0.5900 H     1 <1>   0.0800 
 37 H        4.1910     0.0320    -1.7590 H     1 <1>   0.0800 
 38 H        4.6550    -1.6410    -1.8090 H     1 <1>   0.0800 
 39 H        6.9150    -0.3780     1.2590 H     1 <1>   0.0800 
 40 H        6.6130     1.0900     2.1150 H     1 <1>   0.0800 
 41 H        6.4180    -0.4210    -2.7670 H     1 <1>   0.0800 
 42 H        7.0150    -0.9590    -1.2310 H     1 <1>   0.0800 
 43 H        8.1700     1.2000     0.1060 H     1 <1>   0.0800 
 44 H        6.9910     2.4510     0.2910 H     1 <1>   0.0800 
 45 H        5.7380     1.7670    -1.5410 H     1 <1>   0.0800 
 46 H        7.3730     1.5230    -2.0380 H     1 <1>   0.0800 
@<TRIPOS>BOND
  1   1   2  2   
  2   1   3  2   
  3   1   4  am  
  4   1   5  1   
  5   4   6  1   
  6   4   7  1   
  7   5   8  ar  
  8   5   9  ar  
  9   6  10  1   
 10   6  23  1   
 11   6  24  1   
 12   7  25  1   
 13   7  26  1   
 14   7  27  1   
 15   8  11  ar  
 16   8  28  1   
 17   9  12  ar  
 18   9  29  1   
 19  10  13  2   
 20  10  14  am  
 21  11  15  ar  
 22  11  30  1   
 23  12  15  ar  
 24  12  31  1   
 25  14  16  1   
 26  14  32  1   
 27  15  33  1   
 28  16  17  1   
 29  16  18  1   
 30  16  34  1   
 31  17  19  1   
 32  17  35  1   
 33  17  36  1   
 34  18  20  1   
 35  18  37  1   
 36  18  38  1   
 37  19  21  1   
 38  19  39  1   
 39  19  40  1   
 40  20  22  1   
 41  20  41  1   
 42  20  42  1   
 43  21  22  1   
 44  21  43  1   
 45  21  44  1   
 46  22  45  1   
 47  22  46  1   
@<TRIPOS>SUBSTRUCTURE
  1 ****  14 GROUP 4 **** **** 0

# MOE 2024.06 (io_trps.svl 2023.06)
