@<TRIPOS>MOLECULE
NONAME
48 50 1 0 0 
SMALL
USER_CHARGES


@<TRIPOS>ATOM
  1 S       -0.8680     0.4300    -0.7580 S.3   1 <1>  -0.0800 
  2 C        0.6810     1.2560    -0.5460 C.2   1 <1>  -0.0450 
  3 C       -0.0980    -1.0300    -1.3370 C.2   1 <1>  -0.1100 
  4 C        0.6920     2.6100    -0.0510 C.2   1 <1>   0.7150 
  5 C        1.6750     0.4040    -0.9160 C.2   1 <1>  -0.1500 
  6 C        1.2380    -0.8780    -1.3590 C.2   1 <1>  -0.1500 
  7 O       -0.3380     3.2060     0.2020 O.2   1 <1>  -0.5700 
  8 N        1.9030     3.2180     0.1320 N.am  1 <1>  -0.5470 
  9 C        2.3330     4.4800     0.5670 C.ar  1 <1>   0.1170 
 10 C        3.7210     4.6750     0.6140 C.ar  1 <1>   0.1000 
 11 C        1.4830     5.5130     0.9410 C.ar  1 <1>  -0.1500 
 12 N        4.5880     3.6290     0.2400 N.pl3 1 <1>  -0.8380 
 13 C        4.2180     5.9030     1.0300 C.ar  1 <1>  -0.1500 
 14 C        1.9950     6.7310     1.3560 C.ar  1 <1>  -0.1500 
 15 C        5.2980     3.7600    -1.0760 C.3   1 <1>   0.2090 
 16 C        5.3780     2.9670     1.3270 C.3   1 <1>   0.2090 
 17 C        3.3630     6.9260     1.4000 C.ar  1 <1>  -0.1500 
 18 C        6.7410     4.2680    -0.9270 C.3   1 <1>   0.1400 
 19 C        6.8310     3.4730     1.4200 C.3   1 <1>   0.1400 
 20 N        7.4940     3.4590     0.0790 N.am  1 <1>  -0.6600 
 21 C        8.5520     2.6660    -0.2990 C.2   1 <1>   0.5690 
 22 O        8.8480     2.5500    -1.4660 O.2   1 <1>  -0.5700 
 23 C        9.3800     1.8890     0.7400 C.3   1 <1>  -0.0190 
 24 C       10.8500     1.7120     0.3180 C.3   1 <1>  -0.2400 
 25 C        8.7620     0.5090     1.0230 C.3   1 <1>  -0.2400 
 26 H       -0.7330    -1.8570    -1.6020 H     1 <1>   0.1500 
 27 H        2.7260     0.6360    -0.8930 H     1 <1>   0.1500 
 28 H        1.9430    -1.6290    -1.6750 H     1 <1>   0.1500 
 29 H        2.7210     2.6480    -0.0870 H     1 <1>   0.3700 
 30 H        0.4180     5.3780     0.9110 H     1 <1>   0.1500 
 31 H        5.2780     6.0610     1.0660 H     1 <1>   0.1500 
 32 H        1.3250     7.5230     1.6430 H     1 <1>   0.1500 
 33 H        4.7500     4.4330    -1.7140 H     1 <1>   0.0800 
 34 H        5.3200     2.7990    -1.5590 H     1 <1>   0.0800 
 35 H        5.3930     1.9070     1.1440 H     1 <1>   0.0800 
 36 H        4.8870     3.1270     2.2720 H     1 <1>   0.0800 
 37 H        3.7610     7.8730     1.7220 H     1 <1>   0.1500 
 38 H        6.7260     5.2960    -0.6150 H     1 <1>   0.0800 
 39 H        7.2250     4.2330    -1.8870 H     1 <1>   0.0800 
 40 H        7.3590     2.8630     2.1260 H     1 <1>   0.0800 
 41 H        6.8300     4.4790     1.7990 H     1 <1>   0.0800 
 42 H        9.3960     2.4570     1.6510 H     1 <1>   0.0800 
 43 H       10.9160     1.1190    -0.5780 H     1 <1>   0.0800 
 44 H       11.4130     1.2270     1.0950 H     1 <1>   0.0800 
 45 H       11.2940     2.6720     0.1200 H     1 <1>   0.0800 
 46 H        8.7700    -0.0870     0.1270 H     1 <1>   0.0800 
 47 H        7.7440     0.6090     1.3530 H     1 <1>   0.0800 
 48 H        9.3220    -0.0060     1.7840 H     1 <1>   0.0800 
@<TRIPOS>BOND
  1   1   2  1   
  2   1   3  1   
  3   2   4  1   
  4   2   5  2   
  5   3   6  2   
  6   3  26  1   
  7   4   7  2   
  8   4   8  am  
  9   5   6  1   
 10   5  27  1   
 11   6  28  1   
 12   8   9  1   
 13   8  29  1   
 14   9  10  ar  
 15   9  11  ar  
 16  10  12  1   
 17  10  13  ar  
 18  11  14  ar  
 19  11  30  1   
 20  12  15  1   
 21  12  16  1   
 22  13  17  ar  
 23  13  31  1   
 24  14  17  ar  
 25  14  32  1   
 26  15  18  1   
 27  15  33  1   
 28  15  34  1   
 29  16  19  1   
 30  16  35  1   
 31  16  36  1   
 32  17  37  1   
 33  18  20  1   
 34  18  38  1   
 35  18  39  1   
 36  19  20  1   
 37  19  40  1   
 38  19  41  1   
 39  20  21  am  
 40  21  22  2   
 41  21  23  1   
 42  23  24  1   
 43  23  25  1   
 44  23  42  1   
 45  24  43  1   
 46  24  44  1   
 47  24  45  1   
 48  25  46  1   
 49  25  47  1   
 50  25  48  1   
@<TRIPOS>SUBSTRUCTURE
  1 ****  12 GROUP 4 **** **** 0

# MOE 2024.06 (io_trps.svl 2023.06)
