@<TRIPOS>MOLECULE
NONAME
49 52 1 0 0 
SMALL
USER_CHARGES


@<TRIPOS>ATOM
  1 F        0.5850    -0.2610    -0.6360 F     1 <1>  -0.1900 
  2 C        1.7490    -0.8250    -0.4730 C.ar  1 <1>   0.1900 
  3 C        2.4970    -1.1490    -1.5880 C.ar  1 <1>  -0.1500 
  4 C        2.1950    -1.0800     0.8090 C.ar  1 <1>  -0.1500 
  5 C        3.7330    -1.7440    -1.4050 C.ar  1 <1>  -0.1500 
  6 C        3.4330    -1.6760     0.9730 C.ar  1 <1>  -0.1500 
  7 C        4.2290    -2.0120    -0.1270 C.ar  1 <1>   0.0860 
  8 C        5.5300    -2.6290     0.0450 C.2   1 <1>   0.5440 
  9 O        5.7380    -3.7110    -0.4720 O.2   1 <1>  -0.5700 
 10 N        6.5410    -2.0250     0.7690 N.am  1 <1>  -0.6600 
 11 C        7.8150    -2.7350     1.0660 C.3   1 <1>   0.1400 
 12 C        6.5340    -0.5850     1.1500 C.3   1 <1>   0.1400 
 13 C        8.9730    -2.0330     0.3530 C.3   1 <1>  -0.1600 
 14 C        7.6880     0.1350     0.4470 C.3   1 <1>  -0.1600 
 15 C        9.0480    -0.5400     0.7260 C.3   1 <1>  -0.0190 
 16 C       10.2140     0.1470     0.0100 C.2   1 <1>   0.5690 
 17 O       10.0000     0.8090    -0.9760 O.2   1 <1>  -0.5700 
 18 N       11.4630    -0.0440     0.5350 N.am  1 <1>  -0.5470 
 19 C       12.7210     0.4350     0.1310 C.ar  1 <1>   0.1170 
 20 C       13.8540    -0.2510     0.5540 C.ar  1 <1>  -0.1500 
 21 C       12.8880     1.5710    -0.6590 C.ar  1 <1>  -0.1500 
 22 C       15.1170     0.1800     0.1970 C.ar  1 <1>   0.0830 
 23 C       14.1500     2.0120    -1.0180 C.ar  1 <1>  -0.1500 
 24 O       16.1940    -0.5310     0.6190 O.3   1 <1>  -0.3620 
 25 C       15.2700     1.3240    -0.5880 C.ar  1 <1>   0.0830 
 26 C       17.4290    -0.2570    -0.0170 C.3   1 <1>   0.1200 
 27 O       16.5020     1.7820    -0.9360 O.3   1 <1>  -0.3630 
 28 C       17.6000     1.2550    -0.2170 C.3   1 <1>   0.1200 
 29 H        2.1170    -0.9410    -2.5720 H     1 <1>   0.1500 
 30 H        1.5810    -0.8200     1.6530 H     1 <1>   0.1500 
 31 H        4.3330    -2.0140    -2.2590 H     1 <1>   0.1500 
 32 H        3.7970    -1.8930     1.9630 H     1 <1>   0.1500 
 33 H        7.7650    -3.7630     0.7470 H     1 <1>   0.0800 
 34 H        7.9780    -2.7310     2.1300 H     1 <1>   0.0800 
 35 H        6.6450    -0.5030     2.2180 H     1 <1>   0.0800 
 36 H        5.6090    -0.1130     0.8720 H     1 <1>   0.0800 
 37 H        8.8350    -2.1340    -0.7110 H     1 <1>   0.0800 
 38 H        9.8930    -2.5270     0.6090 H     1 <1>   0.0800 
 39 H        7.7210     1.1600     0.7720 H     1 <1>   0.0800 
 40 H        7.4940     0.1380    -0.6130 H     1 <1>   0.0800 
 41 H        9.2320    -0.4660     1.7830 H     1 <1>   0.0800 
 42 H       11.5020    -0.6860     1.3220 H     1 <1>   0.3700 
 43 H       13.7630    -1.1320     1.1610 H     1 <1>   0.1500 
 44 H       12.0300     2.1230    -0.9980 H     1 <1>   0.1500 
 45 H       14.2710     2.8900    -1.6280 H     1 <1>   0.1500 
 46 H       17.4360    -0.7630    -0.9660 H     1 <1>   0.0800 
 47 H       18.2150    -0.6530     0.6010 H     1 <1>   0.0800 
 48 H       18.4940     1.4680    -0.7750 H     1 <1>   0.0800 
 49 H       17.6490     1.7550     0.7340 H     1 <1>   0.0800 
@<TRIPOS>BOND
  1   1   2  1   
  2   2   3  ar  
  3   2   4  ar  
  4   3   5  ar  
  5   3  29  1   
  6   4   6  ar  
  7   4  30  1   
  8   5   7  ar  
  9   5  31  1   
 10   6   7  ar  
 11   6  32  1   
 12   7   8  1   
 13   8   9  2   
 14   8  10  am  
 15  10  11  1   
 16  10  12  1   
 17  11  13  1   
 18  11  33  1   
 19  11  34  1   
 20  12  14  1   
 21  12  35  1   
 22  12  36  1   
 23  13  15  1   
 24  13  37  1   
 25  13  38  1   
 26  14  15  1   
 27  14  39  1   
 28  14  40  1   
 29  15  16  1   
 30  15  41  1   
 31  16  17  2   
 32  16  18  am  
 33  18  19  1   
 34  18  42  1   
 35  19  20  ar  
 36  19  21  ar  
 37  20  22  ar  
 38  20  43  1   
 39  21  23  ar  
 40  21  44  1   
 41  22  24  1   
 42  22  25  ar  
 43  23  25  ar  
 44  23  45  1   
 45  24  26  1   
 46  25  27  1   
 47  26  28  1   
 48  26  46  1   
 49  26  47  1   
 50  27  28  1   
 51  28  48  1   
 52  28  49  1   
@<TRIPOS>SUBSTRUCTURE
  1 ****  15 GROUP 4 **** **** 0

# MOE 2024.06 (io_trps.svl 2023.06)
