@<TRIPOS>MOLECULE
NONAME
43 44 1 0 0 
SMALL
USER_CHARGES


@<TRIPOS>ATOM
  1 CL       0.2710    -0.8030     1.5800 Cl    1 <1>  -0.1770 
  2 C        1.7550    -1.3510     0.8390 C.ar  1 <1>   0.1770 
  3 C        2.9540    -1.1640     1.5010 C.ar  1 <1>  -0.1500 
  4 C        1.7100    -1.9640    -0.3990 C.ar  1 <1>  -0.1500 
  5 C        4.1270    -1.6010     0.9100 C.ar  1 <1>  -0.1500 
  6 C        2.8890    -2.3960    -0.9810 C.ar  1 <1>  -0.1500 
  7 C        4.1120    -2.2240    -0.3370 C.ar  1 <1>   0.1990 
  8 N        5.2950    -2.6610    -0.9260 N.am  1 <1>  -0.6930 
  9 S        5.5890    -4.3270    -1.2990 S.o2  1 <1>   1.3330 
 10 C        6.4370    -1.7050    -1.0810 C.3   1 <1>   0.2570 
 11 O        6.8750    -4.3920    -1.9560 O.2   1 <1>  -0.6500 
 12 O        4.4150    -4.8640    -1.9400 O.2   1 <1>  -0.6500 
 13 C        5.7420    -5.0390     0.3250 C.3   1 <1>  -0.1350 
 14 C        7.5680    -1.8980    -0.0650 C.2   1 <1>   0.5690 
 15 O        7.5940    -1.1990     0.9200 O.2   1 <1>  -0.5700 
 16 N        8.5090    -2.8510    -0.2910 N.am  1 <1>  -0.7300 
 17 C        9.6920    -3.1180     0.5400 C.3   1 <1>   0.2200 
 18 C       10.9370    -3.0630    -0.3510 C.3   1 <1>  -0.1600 
 19 C        9.5370    -4.4930     1.1970 C.3   1 <1>  -0.1600 
 20 C       12.2010    -3.4460     0.4330 C.3   1 <1>  -0.1600 
 21 C       10.8000    -4.8820     1.9810 C.3   1 <1>  -0.1600 
 22 C       12.0480    -4.8240     1.0890 C.3   1 <1>  -0.1600 
 23 H        2.9650    -0.6830     2.4620 H     1 <1>   0.1500 
 24 H        0.7670    -2.0990    -0.8970 H     1 <1>   0.1500 
 25 H        5.0610    -1.4590     1.4260 H     1 <1>   0.1500 
 26 H        2.8630    -2.8690    -1.9480 H     1 <1>   0.1500 
 27 H        6.0700    -0.6990    -0.9840 H     1 <1>   0.0800 
 28 H        6.8430    -1.8020    -2.0720 H     1 <1>   0.0800 
 29 H        6.5190    -4.5490     0.8760 H     1 <1>   0.0800 
 30 H        5.9750    -6.0820     0.2500 H     1 <1>   0.0800 
 31 H        4.8200    -4.9300     0.8620 H     1 <1>   0.0800 
 32 H        8.3840    -3.4860    -1.0940 H     1 <1>   0.3700 
 33 H        9.7740    -2.3660     1.3080 H     1 <1>   0.0800 
 34 H       11.0510    -2.0670    -0.7420 H     1 <1>   0.0800 
 35 H       10.8200    -3.7430    -1.1770 H     1 <1>   0.0800 
 36 H        9.3540    -5.2350     0.4390 H     1 <1>   0.0800 
 37 H        8.7000    -4.4720     1.8710 H     1 <1>   0.0800 
 38 H       12.3850    -2.7070     1.1950 H     1 <1>   0.0800 
 39 H       13.0490    -3.4540    -0.2300 H     1 <1>   0.0800 
 40 H       10.6870    -5.8750     2.3800 H     1 <1>   0.0800 
 41 H       10.9250    -4.2060     2.8100 H     1 <1>   0.0800 
 42 H       12.9220    -5.0410     1.6790 H     1 <1>   0.0800 
 43 H       11.9730    -5.5770     0.3230 H     1 <1>   0.0800 
@<TRIPOS>BOND
  1   1   2  1   
  2   2   3  ar  
  3   2   4  ar  
  4   3   5  ar  
  5   3  23  1   
  6   4   6  ar  
  7   4  24  1   
  8   5   7  ar  
  9   5  25  1   
 10   6   7  ar  
 11   6  26  1   
 12   7   8  1   
 13   8   9  am  
 14   8  10  1   
 15   9  11  2   
 16   9  12  2   
 17   9  13  1   
 18  10  14  1   
 19  10  27  1   
 20  10  28  1   
 21  13  29  1   
 22  13  30  1   
 23  13  31  1   
 24  14  15  2   
 25  14  16  am  
 26  16  17  1   
 27  16  32  1   
 28  17  18  1   
 29  17  19  1   
 30  17  33  1   
 31  18  20  1   
 32  18  34  1   
 33  18  35  1   
 34  19  21  1   
 35  19  36  1   
 36  19  37  1   
 37  20  22  1   
 38  20  38  1   
 39  20  39  1   
 40  21  22  1   
 41  21  40  1   
 42  21  41  1   
 43  22  42  1   
 44  22  43  1   
@<TRIPOS>SUBSTRUCTURE
  1 ****   8 GROUP 4 **** **** 0

# MOE 2024.06 (io_trps.svl 2023.06)
