@<TRIPOS>MOLECULE
NONAME
32 33 1 0 0 
SMALL
USER_CHARGES


@<TRIPOS>ATOM
  1 CL      -0.4020    -1.3480    -0.0200 Cl    1 <1>  -0.1770 
  2 C       -2.0200    -0.6970     0.0730 C.ar  1 <1>   0.1770 
  3 C       -2.8830    -1.1570     1.0500 C.ar  1 <1>  -0.1500 
  4 C       -2.4180     0.2700    -0.8310 C.ar  1 <1>  -0.1500 
  5 C       -4.1650    -0.6390     1.1190 C.ar  1 <1>  -0.1500 
  6 C       -3.7010     0.7830    -0.7530 C.ar  1 <1>  -0.1500 
  7 C       -4.5930     0.3340     0.2200 C.ar  1 <1>   0.1170 
  8 N       -5.8990     0.8310     0.3450 N.am  1 <1>  -0.5470 
  9 C       -6.7450     1.3850    -0.5900 C.2   1 <1>   0.5690 
 10 O       -6.4180     1.5030    -1.7450 O.2   1 <1>  -0.5700 
 11 C       -8.1380     1.8520    -0.1590 C.3   1 <1>   0.4010 
 12 F       -8.2470     1.5890     1.1570 F     1 <1>  -0.3400 
 13 C       -8.3260     3.3660    -0.3360 C.3   1 <1>   0.6800 
 14 C       -9.2610     1.0800    -0.8680 C.3   1 <1>   0.6800 
 15 F       -8.0980     3.7200    -1.5970 F     1 <1>  -0.3400 
 16 F       -7.3770     4.0110     0.3460 F     1 <1>  -0.3400 
 17 C       -9.7340     3.8650     0.0800 C.3   1 <1>   0.6800 
 18 F       -9.1100    -0.2270    -0.6390 F     1 <1>  -0.3400 
 19 F       -9.1390     1.1810    -2.1880 F     1 <1>  -0.3400 
 20 C      -10.6830     1.5460    -0.4580 C.3   1 <1>   0.6800 
 21 F       -9.8790     3.7710     1.4040 F     1 <1>  -0.3400 
 22 F       -9.8610     5.1760    -0.1500 F     1 <1>  -0.3400 
 23 C      -10.8550     3.0720    -0.6270 C.3   1 <1>   0.6800 
 24 F      -10.9300     1.2000     0.8070 F     1 <1>  -0.3400 
 25 F      -11.6180     0.8820    -1.1470 F     1 <1>  -0.3400 
 26 F      -10.8790     3.3830    -1.9240 F     1 <1>  -0.3400 
 27 F      -12.0580     3.4630    -0.1920 F     1 <1>  -0.3400 
 28 H       -2.5500    -1.9100     1.7420 H     1 <1>   0.1500 
 29 H       -1.7300     0.6140    -1.5830 H     1 <1>   0.1500 
 30 H       -4.8360    -1.0000     1.8780 H     1 <1>   0.1500 
 31 H       -4.0010     1.5400    -1.4550 H     1 <1>   0.1500 
 32 H       -6.2980     0.7210     1.2800 H     1 <1>   0.3700 
@<TRIPOS>BOND
  1   1   2  1   
  2   2   3  ar  
  3   2   4  ar  
  4   3   5  ar  
  5   3  28  1   
  6   4   6  ar  
  7   4  29  1   
  8   5   7  ar  
  9   5  30  1   
 10   6   7  ar  
 11   6  31  1   
 12   7   8  1   
 13   8   9  am  
 14   8  32  1   
 15   9  10  2   
 16   9  11  1   
 17  11  12  1   
 18  11  13  1   
 19  11  14  1   
 20  13  15  1   
 21  13  16  1   
 22  13  17  1   
 23  14  18  1   
 24  14  19  1   
 25  14  20  1   
 26  17  21  1   
 27  17  22  1   
 28  17  23  1   
 29  20  23  1   
 30  20  24  1   
 31  20  25  1   
 32  23  26  1   
 33  23  27  1   
@<TRIPOS>SUBSTRUCTURE
  1 ****  11 GROUP 4 **** **** 0

# MOE 2024.06 (io_trps.svl 2023.06)
