@<TRIPOS>MOLECULE
NONAME
29 29 1 0 0 
SMALL
USER_CHARGES


@<TRIPOS>ATOM
  1 S        0.4100     2.9500    -0.5720 S.3   1 <1>  -0.3320 
  2 C       -1.0520     2.0500    -0.0190 C.ar  1 <1>   0.1020 
  3 C        1.3520     1.8320    -1.7250 C.3   1 <1>   0.2110 
  4 C       -1.4420     0.8390    -0.5710 C.ar  1 <1>  -0.1500 
  5 C       -1.7870     2.6330     0.9980 C.ar  1 <1>  -0.1500 
  6 C        1.8120     0.5310    -1.0420 C.2   1 <1>   0.5690 
  7 C        2.4980     2.6550    -2.3290 C.3   1 <1>  -0.2400 
  8 C       -2.5750     0.2070    -0.0880 C.ar  1 <1>  -0.1500 
  9 C       -2.9210     1.9970     1.4760 C.ar  1 <1>  -0.1500 
 10 O        1.5800    -0.5060    -1.6150 O.2   1 <1>  -0.5700 
 11 N        2.4660     0.4730     0.1480 N.am  1 <1>  -0.7300 
 12 C       -3.3120     0.7840     0.9330 C.ar  1 <1>  -0.1500 
 13 C        2.8330     1.5430     1.0950 C.3   1 <1>   0.1400 
 14 C        4.1880     1.2040     1.7030 C.3   1 <1>  -0.2400 
 15 H        0.6610     1.5790    -2.5070 H     1 <1>   0.0800 
 16 H       -0.8920     0.3760    -1.3670 H     1 <1>   0.1500 
 17 H       -1.4740     3.5750     1.4100 H     1 <1>   0.1500 
 18 H        3.1880     2.9680    -1.5680 H     1 <1>   0.0800 
 19 H        2.1040     3.5250    -2.8230 H     1 <1>   0.0800 
 20 H        3.0290     2.0600    -3.0500 H     1 <1>   0.0800 
 21 H       -2.8830    -0.7350    -0.5080 H     1 <1>   0.1500 
 22 H       -3.4960     2.4450     2.2680 H     1 <1>   0.1500 
 23 H        2.6710    -0.4750     0.4710 H     1 <1>   0.3700 
 24 H       -4.1920     0.2890     1.3060 H     1 <1>   0.1500 
 25 H        2.0840     1.6060     1.8670 H     1 <1>   0.0800 
 26 H        2.8890     2.4930     0.5940 H     1 <1>   0.0800 
 27 H        4.1380     0.2730     2.2390 H     1 <1>   0.0800 
 28 H        4.4770     1.9780     2.3910 H     1 <1>   0.0800 
 29 H        4.9360     1.1370     0.9320 H     1 <1>   0.0800 
@<TRIPOS>BOND
  1   1   2  1   
  2   1   3  1   
  3   2   4  ar  
  4   2   5  ar  
  5   3   6  1   
  6   3   7  1   
  7   3  15  1   
  8   4   8  ar  
  9   4  16  1   
 10   5   9  ar  
 11   5  17  1   
 12   6  10  2   
 13   6  11  am  
 14   7  18  1   
 15   7  19  1   
 16   7  20  1   
 17   8  12  ar  
 18   8  21  1   
 19   9  12  ar  
 20   9  22  1   
 21  11  13  1   
 22  11  23  1   
 23  12  24  1   
 24  13  14  1   
 25  13  25  1   
 26  13  26  1   
 27  14  27  1   
 28  14  28  1   
 29  14  29  1   
@<TRIPOS>SUBSTRUCTURE
  1 ****   2 GROUP 4 **** **** 0

# MOE 2024.06 (io_trps.svl 2023.06)
