@<TRIPOS>MOLECULE
NONAME
27 27 1 0 0 
SMALL
USER_CHARGES


@<TRIPOS>ATOM
  1 CL       0.8030     0.2630     0.3850 Cl    1 <1>  -0.1770 
  2 C        0.3840    -1.4290     0.2750 C.ar  1 <1>   0.1770 
  3 C        1.2340    -2.3390    -0.3460 C.ar  1 <1>  -0.0090 
  4 C       -0.8230    -1.8110     0.8400 C.ar  1 <1>  -0.1500 
  5 S        2.8050    -1.8410    -1.0840 S.o2  1 <1>   1.2040 
  6 C        0.8270    -3.6700    -0.3800 C.ar  1 <1>  -0.1500 
  7 C       -1.2100    -3.1380     0.7960 C.ar  1 <1>  -0.1500 
  8 O        2.6090    -0.7090    -1.9610 O.2   1 <1>  -0.6500 
  9 O        3.4640    -3.0160    -1.6040 O.2   1 <1>  -0.6500 
 10 C        3.7920    -1.2750     0.3010 C.3   1 <1>  -0.0550 
 11 C       -0.3750    -4.0540     0.1850 C.ar  1 <1>   0.1770 
 12 C        5.1980    -0.8320    -0.1320 C.3   1 <1>  -0.0990 
 13 CL      -0.8480    -5.7310     0.1260 Cl    1 <1>  -0.1770 
 14 C        5.8930    -0.0960     0.9980 C.2   1 <1>   0.6590 
 15 O        6.6040    -0.6990     1.7510 O.2   1 <1>  -0.5700 
 16 O        5.6710     1.2040     1.1760 O.3   1 <1>  -0.4300 
 17 C        4.9720     2.0640     0.2990 C.3   1 <1>   0.0400 
 18 H       -1.4520    -1.0730     1.3090 H     1 <1>   0.1500 
 19 H        1.4430    -4.4190    -0.8510 H     1 <1>   0.1500 
 20 H       -2.1420    -3.4620     1.2260 H     1 <1>   0.1500 
 21 H        3.8870    -2.0590     1.0290 H     1 <1>   0.0800 
 22 H        3.3050    -0.4480     0.7770 H     1 <1>   0.0800 
 23 H        5.1520    -0.2130    -1.0080 H     1 <1>   0.0800 
 24 H        5.7790    -1.7010    -0.3860 H     1 <1>   0.0800 
 25 H        4.9660     3.0490     0.7320 H     1 <1>   0.0800 
 26 H        3.9610     1.7160     0.1810 H     1 <1>   0.0800 
 27 H        5.4800     2.0900    -0.6490 H     1 <1>   0.0800 
@<TRIPOS>BOND
  1   1   2  1   
  2   2   3  ar  
  3   2   4  ar  
  4   3   5  1   
  5   3   6  ar  
  6   4   7  ar  
  7   4  18  1   
  8   5   8  2   
  9   5   9  2   
 10   5  10  1   
 11   6  11  ar  
 12   6  19  1   
 13   7  11  ar  
 14   7  20  1   
 15  10  12  1   
 16  10  21  1   
 17  10  22  1   
 18  11  13  1   
 19  12  14  1   
 20  12  23  1   
 21  12  24  1   
 22  14  15  2   
 23  14  16  1   
 24  16  17  1   
 25  17  25  1   
 26  17  26  1   
 27  17  27  1   
@<TRIPOS>SUBSTRUCTURE
  1 ****   5 GROUP 4 **** **** 0

# MOE 2024.06 (io_trps.svl 2023.06)
