@<TRIPOS>MOLECULE
NONAME
42 43 1 0 0 
SMALL
USER_CHARGES


@<TRIPOS>ATOM
  1 O       -0.3330    -0.0370    -0.8830 O.2   1 <1>  -0.5700 
  2 C       -1.1790    -0.3020    -0.0670 C.2   1 <1>   0.6590 
  3 O       -2.2150     0.4930     0.2010 O.3   1 <1>  -0.2330 
  4 C       -1.1480    -1.6050     0.7400 C.3   1 <1>  -0.0190 
  5 C       -2.4860     1.7240    -0.3090 C.ar  1 <1>   0.0820 
  6 C        0.2740    -2.1700     0.9140 C.3   1 <1>  -0.2400 
  7 C       -2.0560    -2.6720     0.1060 C.3   1 <1>  -0.2400 
  8 C       -3.8530     2.0690    -0.4720 C.ar  1 <1>   0.0000 
  9 C       -1.4920     2.6150    -0.6330 C.ar  1 <1>  -0.1500 
 10 C       -4.1710     3.3430    -0.9980 C.ar  1 <1>   0.0000 
 11 C       -4.9200     1.2050    -0.1400 C.ar  1 <1>  -0.1500 
 12 C       -1.8180     3.8750    -1.1380 C.ar  1 <1>   0.0830 
 13 C       -3.1280     4.2270    -1.3300 C.ar  1 <1>  -0.1500 
 14 C       -5.5250     3.6940    -1.1740 C.ar  1 <1>  -0.1500 
 15 C       -6.2260     1.5720    -0.3180 C.ar  1 <1>  -0.1500 
 16 O       -0.8050     4.7230    -1.4280 O.3   1 <1>  -0.2320 
 17 C       -6.5320     2.8310    -0.8420 C.ar  1 <1>  -0.1500 
 18 C       -0.7550     5.9960    -1.0410 C.2   1 <1>   0.6590 
 19 O       -0.2810     6.8290    -1.7690 O.2   1 <1>  -0.5700 
 20 C       -1.2470     6.3660     0.3720 C.3   1 <1>  -0.0190 
 21 C       -2.3410     7.4470     0.3340 C.3   1 <1>  -0.2400 
 22 C       -0.0810     6.8440     1.2540 C.3   1 <1>  -0.2400 
 23 H       -1.5300    -1.3800     1.7200 H     1 <1>   0.0800 
 24 H        0.6940    -2.4330    -0.0420 H     1 <1>   0.0800 
 25 H        0.2600    -3.0460     1.5380 H     1 <1>   0.0800 
 26 H        0.9120    -1.4340     1.3720 H     1 <1>   0.0800 
 27 H       -1.7050    -2.9220    -0.8810 H     1 <1>   0.0800 
 28 H       -3.0650    -2.3060     0.0270 H     1 <1>   0.0800 
 29 H       -2.0640    -3.5650     0.7060 H     1 <1>   0.0800 
 30 H       -0.4510     2.3770    -0.5060 H     1 <1>   0.1500 
 31 H       -4.6960     0.2340     0.2630 H     1 <1>   0.1500 
 32 H       -3.3810     5.1840    -1.7470 H     1 <1>   0.1500 
 33 H       -5.7570     4.6620    -1.5790 H     1 <1>   0.1500 
 34 H       -7.0290     0.9030    -0.0600 H     1 <1>   0.1500 
 35 H       -7.5650     3.1050    -0.9780 H     1 <1>   0.1500 
 36 H       -1.6620     5.4940     0.8430 H     1 <1>   0.0800 
 37 H       -1.9600     8.3490    -0.1130 H     1 <1>   0.0800 
 38 H       -2.6830     7.6720     1.3280 H     1 <1>   0.0800 
 39 H       -3.1820     7.1110    -0.2460 H     1 <1>   0.0800 
 40 H        0.3640     7.7320     0.8380 H     1 <1>   0.0800 
 41 H        0.6750     6.0820     1.3150 H     1 <1>   0.0800 
 42 H       -0.4260     7.0650     2.2490 H     1 <1>   0.0800 
@<TRIPOS>BOND
  1   1   2  2   
  2   2   3  1   
  3   2   4  1   
  4   3   5  1   
  5   4   6  1   
  6   4   7  1   
  7   4  23  1   
  8   5   8  ar  
  9   5   9  ar  
 10   6  24  1   
 11   6  25  1   
 12   6  26  1   
 13   7  27  1   
 14   7  28  1   
 15   7  29  1   
 16   8  10  ar  
 17   8  11  ar  
 18   9  12  ar  
 19   9  30  1   
 20  10  13  ar  
 21  10  14  ar  
 22  11  15  ar  
 23  11  31  1   
 24  12  13  ar  
 25  12  16  1   
 26  13  32  1   
 27  14  17  ar  
 28  14  33  1   
 29  15  17  ar  
 30  15  34  1   
 31  16  18  1   
 32  17  35  1   
 33  18  19  2   
 34  18  20  1   
 35  20  21  1   
 36  20  22  1   
 37  20  36  1   
 38  21  37  1   
 39  21  38  1   
 40  21  39  1   
 41  22  40  1   
 42  22  41  1   
 43  22  42  1   
@<TRIPOS>SUBSTRUCTURE
  1 ****   9 GROUP 4 **** **** 0

# MOE 2024.06 (io_trps.svl 2023.06)
