@<TRIPOS>MOLECULE
NONAME
46 47 1 0 0 
SMALL
USER_CHARGES


@<TRIPOS>ATOM
  1 CL       0.2720    -0.0010     0.6820 Cl    1 <1>  -0.1770 
  2 C       -0.0650     1.6820     0.3730 C.ar  1 <1>   0.1770 
  3 C       -0.7150     2.0400    -0.7930 C.ar  1 <1>  -0.1500 
  4 C        0.3230     2.6320     1.2980 C.ar  1 <1>  -0.1500 
  5 C       -0.9850     3.3770    -1.0330 C.ar  1 <1>  -0.1500 
  6 C        0.0530     3.9680     1.0520 C.ar  1 <1>  -0.1500 
  7 C       -0.6050     4.3450    -0.1130 C.ar  1 <1>  -0.1430 
  8 C       -0.9160     5.8100    -0.3930 C.3   1 <1>   0.3390 
  9 N       -2.3560     6.0670    -0.2590 N.am  1 <1>  -0.8490 
 10 S       -2.8010     7.6060    -0.8280 S.o2  1 <1>   1.3330 
 11 C       -2.8780     5.6920     1.0900 C.3   1 <1>   0.2570 
 12 O       -1.9150     7.9240    -1.9210 O.2   1 <1>  -0.6500 
 13 O       -4.2250     7.5940    -1.0750 O.2   1 <1>  -0.6500 
 14 C       -2.4400     8.7390     0.5010 C.3   1 <1>  -0.1350 
 15 C       -4.3730     5.9420     1.3460 C.2   1 <1>   0.5690 
 16 O       -4.6480     6.7020     2.2450 O.2   1 <1>  -0.5700 
 17 N       -5.3570     5.3620     0.5780 N.am  1 <1>  -0.6600 
 18 C       -5.0170     4.5120    -0.6140 C.3   1 <1>   0.1400 
 19 C       -6.7040     6.0220     0.5800 C.3   1 <1>   0.1400 
 20 C       -6.2110     3.7000    -1.1480 C.3   1 <1>   0.3430 
 21 C       -7.8230     5.1500    -0.0120 C.3   1 <1>   0.3430 
 22 N       -7.4240     4.5610    -1.3310 N.4   1 <1>  -0.9590 
 23 C       -8.5490     3.8110    -1.9650 C.3   1 <1>   0.2630 
 24 H       -0.9990     1.2800    -1.4990 H     1 <1>   0.1500 
 25 H        0.8310     2.3250     2.1950 H     1 <1>   0.1500 
 26 H       -1.4880     3.6660    -1.9410 H     1 <1>   0.1500 
 27 H        0.3600     4.7070     1.7730 H     1 <1>   0.1500 
 28 H       -0.5940     6.0210    -1.4000 H     1 <1>   0.0800 
 29 H       -0.3590     6.4470     0.2720 H     1 <1>   0.0800 
 30 H       -2.3250     6.2260     1.8430 H     1 <1>   0.0800 
 31 H       -2.7090     4.6450     1.2620 H     1 <1>   0.0800 
 32 H       -1.4090     8.6750     0.7830 H     1 <1>   0.0800 
 33 H       -3.0530     8.5380     1.3570 H     1 <1>   0.0800 
 34 H       -2.6400     9.7430     0.1800 H     1 <1>   0.0800 
 35 H       -4.2240     3.8300    -0.3600 H     1 <1>   0.0800 
 36 H       -4.6560     5.1450    -1.4060 H     1 <1>   0.0800 
 37 H       -6.6360     6.9390     0.0190 H     1 <1>   0.0800 
 38 H       -6.9750     6.2860     1.5890 H     1 <1>   0.0800 
 39 H       -6.4290     2.9070    -0.4520 H     1 <1>   0.0800 
 40 H       -5.9330     3.2500    -2.0870 H     1 <1>   0.0800 
 41 H       -8.7080     5.7540    -0.1290 H     1 <1>   0.0800 
 42 H       -8.0510     4.3610     0.6860 H     1 <1>   0.0800 
 43 H       -7.1480     5.3480    -1.9410 H     1 <1>   0.4500 
 44 H       -8.8500     2.9860    -1.3400 H     1 <1>   0.0800 
 45 H       -8.2460     3.4240    -2.9250 H     1 <1>   0.0800 
 46 H       -9.3960     4.4610    -2.1110 H     1 <1>   0.0800 
@<TRIPOS>BOND
  1   1   2  1   
  2   2   3  ar  
  3   2   4  ar  
  4   3   5  ar  
  5   3  24  1   
  6   4   6  ar  
  7   4  25  1   
  8   5   7  ar  
  9   5  26  1   
 10   6   7  ar  
 11   6  27  1   
 12   7   8  1   
 13   8   9  1   
 14   8  28  1   
 15   8  29  1   
 16   9  10  am  
 17   9  11  1   
 18  10  12  2   
 19  10  13  2   
 20  10  14  1   
 21  11  15  1   
 22  11  30  1   
 23  11  31  1   
 24  14  32  1   
 25  14  33  1   
 26  14  34  1   
 27  15  16  2   
 28  15  17  am  
 29  17  18  1   
 30  17  19  1   
 31  18  20  1   
 32  18  35  1   
 33  18  36  1   
 34  19  21  1   
 35  19  37  1   
 36  19  38  1   
 37  20  22  1   
 38  20  39  1   
 39  20  40  1   
 40  21  22  1   
 41  21  41  1   
 42  21  42  1   
 43  22  23  1   
 44  22  43  1   
 45  23  44  1   
 46  23  45  1   
 47  23  46  1   
@<TRIPOS>SUBSTRUCTURE
  1 ****  11 GROUP 4 **** **** 0

# MOE 2024.06 (io_trps.svl 2023.06)
