@<TRIPOS>MOLECULE
NONAME
49 52 1 0 0 
SMALL
USER_CHARGES


@<TRIPOS>ATOM
  1 F       -0.4560     0.0120     1.1350 F     1 <1>  -0.1900 
  2 C       -0.4460     1.2550     0.7340 C.ar  1 <1>   0.1900 
  3 C       -1.2510     2.1710     1.3830 C.ar  1 <1>  -0.1500 
  4 C        0.3700     1.6070    -0.3260 C.ar  1 <1>  -0.1500 
  5 C       -1.2340     3.4870     0.9520 C.ar  1 <1>  -0.1500 
  6 C        0.3800     2.9250    -0.7510 C.ar  1 <1>  -0.1500 
  7 C       -0.4250     3.8690    -0.1100 C.ar  1 <1>   0.0830 
  8 O       -0.4730     5.1770    -0.4620 O.3   1 <1>  -0.3630 
  9 C        0.3820     5.7060    -1.4660 C.3   1 <1>   0.1810 
 10 C        0.1950     7.2080    -1.6280 C.2   1 <1>   0.5690 
 11 O        0.1430     7.6620    -2.7480 O.2   1 <1>  -0.5700 
 12 N        0.1250     7.9820    -0.5170 N.am  1 <1>  -0.7300 
 13 C        0.1900     9.4580    -0.4430 C.3   1 <1>   0.1140 
 14 C        1.1800     9.9000     0.6750 C.2   1 <1>   0.9060 
 15 C       -1.2380    10.0710    -0.2760 C.3   1 <1>   0.0000 
 16 O        1.8420    10.9490     0.5010 O.co2 1 <1>  -0.9000 
 17 O        1.2820     9.1450     1.6760 O.co2 1 <1>  -0.9000 
 18 C       -2.1490     9.6720    -1.4660 C.3   1 <1>  -0.1600 
 19 C       -1.1630    11.6200    -0.2460 C.3   1 <1>  -0.1600 
 20 C       -1.9240     9.6010     1.0330 C.3   1 <1>  -0.1600 
 21 C       -3.5540    10.2890    -1.3340 C.3   1 <1>  -0.0800 
 22 C       -2.5610    12.2500    -0.1070 C.3   1 <1>  -0.0800 
 23 C       -3.3280    10.2190     1.1770 C.3   1 <1>  -0.0800 
 24 C       -3.4310    11.8220    -1.3010 C.3   1 <1>  -0.1600 
 25 C       -4.1960     9.7980    -0.0230 C.3   1 <1>  -0.1600 
 26 C       -3.2060    11.7540     1.2000 C.3   1 <1>  -0.1600 
 27 H       -1.8720     1.8610     2.2040 H     1 <1>   0.1500 
 28 H        0.9810     0.8620    -0.8030 H     1 <1>   0.1500 
 29 H       -1.8460     4.2290     1.4340 H     1 <1>   0.1500 
 30 H        1.0130     3.1950    -1.5750 H     1 <1>   0.1500 
 31 H        0.1540     5.2180    -2.3960 H     1 <1>   0.0800 
 32 H        1.4000     5.5110    -1.1840 H     1 <1>   0.0800 
 33 H        0.2790     7.5570     0.3900 H     1 <1>   0.3700 
 34 H        0.6080     9.8370    -1.3750 H     1 <1>   0.0800 
 35 H       -2.2500     8.6020    -1.5100 H     1 <1>   0.0800 
 36 H       -1.6960     9.9880    -2.3890 H     1 <1>   0.0800 
 37 H       -0.6890    11.9770    -1.1430 H     1 <1>   0.0800 
 38 H       -0.5580    11.9450     0.5830 H     1 <1>   0.0800 
 39 H       -1.3220     9.8810     1.8810 H     1 <1>   0.0800 
 40 H       -2.0040     8.5290     1.0380 H     1 <1>   0.0800 
 41 H       -4.1600     9.9900    -2.1720 H     1 <1>   0.0800 
 42 H       -2.4720    13.3220    -0.0850 H     1 <1>   0.0800 
 43 H       -3.7790     9.8760     2.0920 H     1 <1>   0.0800 
 44 H       -4.4080    12.2660    -1.2200 H     1 <1>   0.0800 
 45 H       -2.9860    12.1700    -2.2170 H     1 <1>   0.0800 
 46 H       -4.2870     8.7260    -0.0450 H     1 <1>   0.0800 
 47 H       -5.1830    10.2120     0.0770 H     1 <1>   0.0800 
 48 H       -2.6010    12.0550     2.0380 H     1 <1>   0.0800 
 49 H       -4.1790    12.1970     1.3200 H     1 <1>   0.0800 
@<TRIPOS>BOND
  1   1   2  1   
  2   2   3  ar  
  3   2   4  ar  
  4   3   5  ar  
  5   3  27  1   
  6   4   6  ar  
  7   4  28  1   
  8   5   7  ar  
  9   5  29  1   
 10   6   7  ar  
 11   6  30  1   
 12   7   8  1   
 13   8   9  1   
 14   9  10  1   
 15   9  31  1   
 16   9  32  1   
 17  10  11  2   
 18  10  12  am  
 19  12  13  1   
 20  12  33  1   
 21  13  14  1   
 22  13  15  1   
 23  13  34  1   
 24  14  16  ar  
 25  14  17  ar  
 26  15  18  1   
 27  15  19  1   
 28  15  20  1   
 29  18  21  1   
 30  18  35  1   
 31  18  36  1   
 32  19  22  1   
 33  19  37  1   
 34  19  38  1   
 35  20  23  1   
 36  20  39  1   
 37  20  40  1   
 38  21  24  1   
 39  21  25  1   
 40  21  41  1   
 41  22  24  1   
 42  22  26  1   
 43  22  42  1   
 44  23  25  1   
 45  23  26  1   
 46  23  43  1   
 47  24  44  1   
 48  24  45  1   
 49  25  46  1   
 50  25  47  1   
 51  26  48  1   
 52  26  49  1   
@<TRIPOS>SUBSTRUCTURE
  1 ****  12 GROUP 4 **** **** 0

# MOE 2024.06 (io_trps.svl 2023.06)
