@<TRIPOS>MOLECULE
NONAME
44 45 1 0 0 
SMALL
USER_CHARGES


@<TRIPOS>ATOM
  1 F        0.7710    -0.2070    -0.8230 F     1 <1>  -0.1900 
  2 C        0.5950    -1.4430    -0.4270 C.ar  1 <1>   0.1900 
  3 C        1.6990    -2.2290    -0.1060 C.ar  1 <1>   0.0820 
  4 C       -0.7010    -1.9150    -0.3450 C.ar  1 <1>  -0.1500 
  5 O        2.9440    -1.6870    -0.2140 O.3   1 <1>  -0.3630 
  6 C        1.4650    -3.5390     0.3110 C.ar  1 <1>  -0.1500 
  7 C       -0.9130    -3.2180     0.0720 C.ar  1 <1>  -0.1500 
  8 C        4.1010    -2.4280     0.0940 C.3   1 <1>   0.1200 
  9 C        0.1680    -4.0240     0.3970 C.ar  1 <1>  -0.1500 
 10 C        5.3140    -1.5250    -0.1340 C.3   1 <1>  -0.1600 
 11 C        6.6280    -2.2540     0.1790 C.3   1 <1>  -0.1600 
 12 C        7.8350    -1.3350    -0.0530 C.3   1 <1>  -0.1600 
 13 C        9.1530    -2.0570     0.2590 C.3   1 <1>  -0.1600 
 14 C       10.3470    -1.1290     0.0290 C.3   1 <1>   0.3430 
 15 N       11.6130    -1.8090     0.4130 N.4   1 <1>  -0.9590 
 16 C       12.7740    -0.8880     0.4390 C.3   1 <1>   0.3430 
 17 C       12.0040    -2.9240    -0.4870 C.3   1 <1>   0.3430 
 18 C       13.9870    -1.8060     0.3860 C.3   1 <1>  -0.1600 
 19 C       13.4910    -3.1200    -0.2240 C.3   1 <1>  -0.1600 
 20 H       -1.5240    -1.2720    -0.6020 H     1 <1>   0.1500 
 21 H        2.2740    -4.1940     0.5710 H     1 <1>   0.1500 
 22 H       -1.9150    -3.6050     0.1420 H     1 <1>   0.1500 
 23 H        4.1370    -3.2870    -0.5530 H     1 <1>   0.0800 
 24 H        4.0420    -2.7350     1.1240 H     1 <1>   0.0800 
 25 H       -0.0020    -5.0360     0.7200 H     1 <1>   0.1500 
 26 H        5.2230    -0.6580     0.4980 H     1 <1>   0.0800 
 27 H        5.3160    -1.2020    -1.1610 H     1 <1>   0.0800 
 28 H        6.7090    -3.1250    -0.4510 H     1 <1>   0.0800 
 29 H        6.6150    -2.5830     1.2050 H     1 <1>   0.0800 
 30 H        7.7380    -0.4650     0.5750 H     1 <1>   0.0800 
 31 H        7.8330    -1.0060    -1.0800 H     1 <1>   0.0800 
 32 H        9.2300    -2.9220    -0.3760 H     1 <1>   0.0800 
 33 H        9.1380    -2.3780     1.2860 H     1 <1>   0.0800 
 34 H       10.2180    -0.2420     0.6300 H     1 <1>   0.0800 
 35 H       10.3860    -0.8300    -1.0060 H     1 <1>   0.0800 
 36 H       11.5090    -2.1970     1.3600 H     1 <1>   0.4500 
 37 H       12.7780    -0.2700     1.3230 H     1 <1>   0.0800 
 38 H       12.7620    -0.2600    -0.4380 H     1 <1>   0.0800 
 39 H       11.8560    -2.6330    -1.5140 H     1 <1>   0.0800 
 40 H       11.4400    -3.8200    -0.2830 H     1 <1>   0.0800 
 41 H       14.3620    -1.9720     1.3820 H     1 <1>   0.0800 
 42 H       14.7710    -1.3610    -0.2030 H     1 <1>   0.0800 
 43 H       14.0050    -3.3550    -1.1410 H     1 <1>   0.0800 
 44 H       13.6360    -3.9340     0.4660 H     1 <1>   0.0800 
@<TRIPOS>BOND
  1   1   2  1   
  2   2   3  ar  
  3   2   4  ar  
  4   3   5  1   
  5   3   6  ar  
  6   4   7  ar  
  7   4  20  1   
  8   5   8  1   
  9   6   9  ar  
 10   6  21  1   
 11   7   9  ar  
 12   7  22  1   
 13   8  10  1   
 14   8  23  1   
 15   8  24  1   
 16   9  25  1   
 17  10  11  1   
 18  10  26  1   
 19  10  27  1   
 20  11  12  1   
 21  11  28  1   
 22  11  29  1   
 23  12  13  1   
 24  12  30  1   
 25  12  31  1   
 26  13  14  1   
 27  13  32  1   
 28  13  33  1   
 29  14  15  1   
 30  14  34  1   
 31  14  35  1   
 32  15  16  1   
 33  15  17  1   
 34  15  36  1   
 35  16  18  1   
 36  16  37  1   
 37  16  38  1   
 38  17  19  1   
 39  17  39  1   
 40  17  40  1   
 41  18  19  1   
 42  18  41  1   
 43  18  42  1   
 44  19  43  1   
 45  19  44  1   
@<TRIPOS>SUBSTRUCTURE
  1 ****  11 GROUP 4 **** **** 0

# MOE 2024.06 (io_trps.svl 2023.06)
