@<TRIPOS>MOLECULE
NONAME
38 39 1 0 0 
SMALL
USER_CHARGES


@<TRIPOS>ATOM
  1 F        1.7600    -0.1410    -0.1300 F     1 <1>  -0.3400 
  2 C        0.9050     0.8070     0.2400 C.3   1 <1>   1.0200 
  3 F       -0.3020     0.3270    -0.0560 F     1 <1>  -0.3400 
  4 F        0.9260     0.8350     1.5670 F     1 <1>  -0.3400 
  5 C        1.1720     2.1990    -0.4330 C.3   1 <1>   0.4990 
  6 N        2.5780     2.7970    -0.5300 N.am  1 <1>  -0.7300 
  7 C        0.6590     1.9860    -1.8540 C.2   1 <1>   0.6590 
  8 C        0.1740     3.2680     0.0150 C.2   1 <1>  -0.1240 
  9 C        3.6730     2.4600     0.2070 C.2   1 <1>   0.5440 
 10 O        1.1910     1.3310    -2.7120 O.2   1 <1>  -0.5700 
 11 O       -0.4240     2.7190    -2.0750 O.3   1 <1>  -0.2270 
 12 C       -0.6870     3.4650    -1.0060 C.2   1 <1>  -0.0620 
 13 C        0.1760     3.8810     1.3180 C.2   1 <1>   0.4950 
 14 O        3.5030     1.7960     1.2030 O.2   1 <1>  -0.5700 
 15 C        5.0010     2.8890    -0.1930 C.ar  1 <1>   0.0860 
 16 C       -1.8920     4.3790    -1.1580 C.3   1 <1>  -0.1020 
 17 O       -0.8090     4.4110     1.7570 O.2   1 <1>  -0.5700 
 18 C        1.3960     3.9420     2.2140 C.3   1 <1>  -0.1790 
 19 C        6.1210     2.1150     0.1090 C.ar  1 <1>  -0.1500 
 20 C        5.2150     4.0790    -0.8900 C.ar  1 <1>  -0.1500 
 21 C        7.3920     2.5000    -0.2780 C.ar  1 <1>  -0.1500 
 22 C        6.4840     4.4680    -1.2800 C.ar  1 <1>  -0.1500 
 23 C        7.5810     3.6780    -0.9790 C.ar  1 <1>  -0.1430 
 24 C        8.9750     4.1020    -1.4050 C.3   1 <1>  -0.0970 
 25 H        2.7680     3.2140    -1.4450 H     1 <1>   0.3700 
 26 H       -2.7830     3.7900    -1.2820 H     1 <1>   0.0800 
 27 H       -1.7700     5.0040    -2.0240 H     1 <1>   0.0800 
 28 H       -2.0230     5.0140    -0.3020 H     1 <1>   0.0800 
 29 H        1.6390     2.9730     2.6040 H     1 <1>   0.0800 
 30 H        1.1980     4.5890     3.0490 H     1 <1>   0.0800 
 31 H        2.2360     4.3440     1.6810 H     1 <1>   0.0800 
 32 H        5.9900     1.1970     0.6550 H     1 <1>   0.1500 
 33 H        4.3860     4.7200    -1.1270 H     1 <1>   0.1500 
 34 H        8.2350     1.8780    -0.0300 H     1 <1>   0.1500 
 35 H        6.6190     5.3910    -1.8170 H     1 <1>   0.1500 
 36 H        9.5830     3.2390    -1.6120 H     1 <1>   0.0800 
 37 H        9.4380     4.6710    -0.6190 H     1 <1>   0.0800 
 38 H        8.9330     4.7060    -2.2930 H     1 <1>   0.0800 
@<TRIPOS>BOND
  1   1   2  1   
  2   2   3  1   
  3   2   4  1   
  4   2   5  1   
  5   5   6  1   
  6   5   7  1   
  7   5   8  1   
  8   6   9  am  
  9   6  25  1   
 10   7  10  2   
 11   7  11  1   
 12   8  12  2   
 13   8  13  1   
 14   9  14  2   
 15   9  15  1   
 16  11  12  1   
 17  12  16  1   
 18  13  17  2   
 19  13  18  1   
 20  15  19  ar  
 21  15  20  ar  
 22  16  26  1   
 23  16  27  1   
 24  16  28  1   
 25  18  29  1   
 26  18  30  1   
 27  18  31  1   
 28  19  21  ar  
 29  19  32  1   
 30  20  22  ar  
 31  20  33  1   
 32  21  23  ar  
 33  21  34  1   
 34  22  23  ar  
 35  22  35  1   
 36  23  24  1   
 37  24  36  1   
 38  24  37  1   
 39  24  38  1   
@<TRIPOS>SUBSTRUCTURE
  1 ****   6 GROUP 4 **** **** 0

# MOE 2024.06 (io_trps.svl 2023.06)
