@<TRIPOS>MOLECULE
NONAME
53 55 1 0 0 
SMALL
USER_CHARGES


@<TRIPOS>ATOM
  1 S       -0.2280     0.1620     0.6270 S.o2  1 <1>   1.4470 
  2 O       -0.2920    -0.0920     2.0510 O.2   1 <1>  -0.6500 
  3 O       -1.2420     0.9790    -0.0010 O.2   1 <1>  -0.6500 
  4 N       -0.1400    -1.3590    -0.1330 N.am  1 <1>  -0.8490 
  5 C        1.3700     0.9410     0.2360 C.ar  1 <1>  -0.0090 
  6 C       -1.3610    -2.1840     0.0230 C.3   1 <1>   0.2760 
  7 C        1.0230    -2.1030     0.3900 C.3   1 <1>   0.1960 
  8 C        1.8240     1.0220    -1.0740 C.ar  1 <1>  -0.1500 
  9 C        2.1770     1.4850     1.2270 C.ar  1 <1>  -0.1500 
 10 C       -1.1990    -3.5150    -0.7380 C.3   1 <1>  -0.1600 
 11 C       -2.6190    -1.5050    -0.5270 C.3   1 <1>  -0.2400 
 12 C        1.2580    -3.3950    -0.3920 C.3   1 <1>  -0.1600 
 13 C        3.0390     1.6080    -1.3790 C.ar  1 <1>  -0.1500 
 14 C        3.3920     2.0750     0.9240 C.ar  1 <1>  -0.1500 
 15 C        0.0360    -4.3030    -0.3000 C.3   1 <1>  -0.1600 
 16 C        3.8620     2.1430    -0.3890 C.ar  1 <1>   0.0860 
 17 C        5.1410     2.7440    -0.7260 C.2   1 <1>   0.5440 
 18 O        5.3040     3.2580    -1.8130 O.2   1 <1>  -0.5700 
 19 N        6.1750     2.6950     0.1820 N.am  1 <1>  -0.5470 
 20 C        7.4450     3.2930     0.1740 C.ar  1 <1>   0.1170 
 21 C        7.7410     4.4380    -0.5570 C.ar  1 <1>  -0.1500 
 22 C        8.4530     2.7300     0.9490 C.ar  1 <1>  -0.1500 
 23 C        9.0050     5.0010    -0.5170 C.ar  1 <1>  -0.1500 
 24 C        9.7170     3.2910     0.9920 C.ar  1 <1>  -0.1500 
 25 C       10.0020     4.4320     0.2590 C.ar  1 <1>  -0.1430 
 26 C       11.3900     5.0500     0.3020 C.3   1 <1>  -0.0170 
 27 C       12.2790     4.4480    -0.7870 C.3   1 <1>  -0.2400 
 28 H       -1.5150    -2.3980     1.0690 H     1 <1>   0.0800 
 29 H        0.8720    -2.3340     1.4330 H     1 <1>   0.0800 
 30 H        1.9170    -1.5110     0.3090 H     1 <1>   0.0800 
 31 H        1.2110     0.6190    -1.8650 H     1 <1>   0.1500 
 32 H        1.8440     1.4510     2.2520 H     1 <1>   0.1500 
 33 H       -1.1330    -3.3070    -1.7920 H     1 <1>   0.0800 
 34 H       -2.0700    -4.1270    -0.5820 H     1 <1>   0.0800 
 35 H       -2.4240    -1.0700    -1.4910 H     1 <1>   0.0800 
 36 H       -2.9740    -0.7480     0.1480 H     1 <1>   0.0800 
 37 H       -3.4170    -2.2170    -0.6300 H     1 <1>   0.0800 
 38 H        2.1170    -3.9040     0.0060 H     1 <1>   0.0800 
 39 H        1.4630    -3.1510    -1.4200 H     1 <1>   0.0800 
 40 H        3.3620     1.6570    -2.4060 H     1 <1>   0.1500 
 41 H        3.9760     2.4990     1.7230 H     1 <1>   0.1500 
 42 H        0.1670    -5.1670    -0.9290 H     1 <1>   0.0800 
 43 H       -0.0920    -4.6400     0.7150 H     1 <1>   0.0800 
 44 H        6.0200     2.0620     0.9620 H     1 <1>   0.3700 
 45 H        6.9840     4.9010    -1.1630 H     1 <1>   0.1500 
 46 H        8.2550     1.8440     1.5220 H     1 <1>   0.1500 
 47 H        9.2080     5.8840    -1.0960 H     1 <1>   0.1500 
 48 H       10.4820     2.8360     1.5960 H     1 <1>   0.1500 
 49 H       11.8340     4.8790     1.2670 H     1 <1>   0.0800 
 50 H       11.3170     6.1150     0.1620 H     1 <1>   0.0800 
 51 H       12.3720     3.3860    -0.6450 H     1 <1>   0.0800 
 52 H       13.2590     4.8900    -0.7530 H     1 <1>   0.0800 
 53 H       11.8500     4.6290    -1.7570 H     1 <1>   0.0800 
@<TRIPOS>BOND
  1   1   2  2   
  2   1   3  2   
  3   1   4  am  
  4   1   5  1   
  5   4   6  1   
  6   4   7  1   
  7   5   8  ar  
  8   5   9  ar  
  9   6  10  1   
 10   6  11  1   
 11   6  28  1   
 12   7  12  1   
 13   7  29  1   
 14   7  30  1   
 15   8  13  ar  
 16   8  31  1   
 17   9  14  ar  
 18   9  32  1   
 19  10  15  1   
 20  10  33  1   
 21  10  34  1   
 22  11  35  1   
 23  11  36  1   
 24  11  37  1   
 25  12  15  1   
 26  12  38  1   
 27  12  39  1   
 28  13  16  ar  
 29  13  40  1   
 30  14  16  ar  
 31  14  41  1   
 32  15  42  1   
 33  15  43  1   
 34  16  17  1   
 35  17  18  2   
 36  17  19  am  
 37  19  20  1   
 38  19  44  1   
 39  20  21  ar  
 40  20  22  ar  
 41  21  23  ar  
 42  21  45  1   
 43  22  24  ar  
 44  22  46  1   
 45  23  25  ar  
 46  23  47  1   
 47  24  25  ar  
 48  24  48  1   
 49  25  26  1   
 50  26  27  1   
 51  26  49  1   
 52  26  50  1   
 53  27  51  1   
 54  27  52  1   
 55  27  53  1   
@<TRIPOS>SUBSTRUCTURE
  1 ****  16 GROUP 4 **** **** 0

# MOE 2024.06 (io_trps.svl 2023.06)
