@<TRIPOS>MOLECULE
NONAME
37 38 1 0 0 
SMALL
USER_CHARGES


@<TRIPOS>ATOM
  1 CL      -1.1840     1.2710    -1.9750 Cl    1 <1>  -0.1770 
  2 C        0.0510     2.3090    -1.3080 C.ar  1 <1>   0.1770 
  3 C       -0.3140     3.3320    -0.4580 C.ar  1 <1>  -0.1500 
  4 C        1.3720     2.0910    -1.6420 C.ar  1 <1>  -0.1500 
  5 C        0.6470     4.1840     0.0780 C.ar  1 <1>  -0.0090 
  6 C        2.3430     2.9150    -1.1060 C.ar  1 <1>  -0.1500 
  7 S        0.1980     5.5440     1.1930 S.o2  1 <1>   1.4470 
  8 C        1.9830     3.9540    -0.2460 C.ar  1 <1>   0.0830 
  9 O        0.7600     6.8130     0.7840 O.2   1 <1>  -0.6500 
 10 O        0.3210     5.1260     2.5690 O.2   1 <1>  -0.6500 
 11 N       -1.4670     5.6830     1.0200 N.am  1 <1>  -0.9140 
 12 O        2.9020     4.7760     0.3160 O.3   1 <1>  -0.3620 
 13 C       -1.9370     6.8130     0.2370 C.3   1 <1>   0.2760 
 14 C        4.2780     4.6980     0.0230 C.3   1 <1>   0.1200 
 15 C       -3.4540     6.8820     0.3750 C.3   1 <1>  -0.1600 
 16 C       -1.7480     6.5670    -1.2600 C.3   1 <1>  -0.1600 
 17 C        4.9810     5.8030     0.8040 C.3   1 <1>  -0.2400 
 18 C       -4.0020     5.8500    -0.6140 C.3   1 <1>  -0.1600 
 19 C       -2.9520     5.7370    -1.7240 C.3   1 <1>  -0.1600 
 20 H       -1.3550     3.4570    -0.2180 H     1 <1>   0.1500 
 21 H        1.6300     1.2860    -2.3080 H     1 <1>   0.1500 
 22 H        3.3690     2.7330    -1.3670 H     1 <1>   0.1500 
 23 H       -1.7690     5.8310     1.9800 H     1 <1>   0.4200 
 24 H       -1.4770     7.7330     0.5650 H     1 <1>   0.0800 
 25 H        4.4110     4.8370    -1.0360 H     1 <1>   0.0800 
 26 H        4.6380     3.7300     0.3250 H     1 <1>   0.0800 
 27 H       -3.7790     7.8610     0.0700 H     1 <1>   0.0800 
 28 H       -3.7890     6.7080     1.3820 H     1 <1>   0.0800 
 29 H       -0.8090     6.1040    -1.5020 H     1 <1>   0.0800 
 30 H       -1.7800     7.5210    -1.7580 H     1 <1>   0.0800 
 31 H        4.5950     6.7630     0.5110 H     1 <1>   0.0800 
 32 H        6.0370     5.7790     0.6030 H     1 <1>   0.0800 
 33 H        4.8280     5.6640     1.8590 H     1 <1>   0.0800 
 34 H       -4.9640     6.1430    -0.9990 H     1 <1>   0.0800 
 35 H       -4.0990     4.8980    -0.1190 H     1 <1>   0.0800 
 36 H       -2.6710     4.7070    -1.8580 H     1 <1>   0.0800 
 37 H       -3.3320     6.1150    -2.6580 H     1 <1>   0.0800 
@<TRIPOS>BOND
  1   1   2  1   
  2   2   3  ar  
  3   2   4  ar  
  4   3   5  ar  
  5   3  20  1   
  6   4   6  ar  
  7   4  21  1   
  8   5   7  1   
  9   5   8  ar  
 10   6   8  ar  
 11   6  22  1   
 12   7   9  2   
 13   7  10  2   
 14   7  11  am  
 15   8  12  1   
 16  11  13  1   
 17  11  23  1   
 18  12  14  1   
 19  13  15  1   
 20  13  16  1   
 21  13  24  1   
 22  14  17  1   
 23  14  25  1   
 24  14  26  1   
 25  15  18  1   
 26  15  27  1   
 27  15  28  1   
 28  16  19  1   
 29  16  29  1   
 30  16  30  1   
 31  17  31  1   
 32  17  32  1   
 33  17  33  1   
 34  18  19  1   
 35  18  34  1   
 36  18  35  1   
 37  19  36  1   
 38  19  37  1   
@<TRIPOS>SUBSTRUCTURE
  1 ****   5 GROUP 4 **** **** 0

# MOE 2024.06 (io_trps.svl 2023.06)
