@<TRIPOS>MOLECULE
NONAME
40 41 1 0 0 
SMALL
USER_CHARGES


@<TRIPOS>ATOM
  1 O        1.0700    -0.3100     1.1480 O.3   1 <1>  -0.5600 
  2 C        2.0260    -1.2850     1.4720 C.3   1 <1>   0.1200 
  3 C        0.3460    -0.5800    -0.0220 C.3   1 <1>   0.1200 
  4 C        3.0120    -1.5230     0.3050 C.3   1 <1>   0.3430 
  5 C        1.2840    -0.6780    -1.2480 C.3   1 <1>   0.3430 
  6 N        2.7260    -0.6010    -0.8450 N.4   1 <1>  -0.9590 
  7 C        3.6690    -0.7730    -1.9730 C.3   1 <1>   0.4810 
  8 C        5.0720    -0.5030    -1.4630 C.2   1 <1>  -0.2760 
  9 C        5.9880    -1.4670    -1.3170 C.2   1 <1>  -0.2880 
 10 C        5.3680     0.9610    -1.1410 C.3   1 <1>  -0.0220 
 11 C        7.4010    -1.2370    -0.7940 C.3   1 <1>  -0.0220 
 12 C        6.8770     1.2170    -1.0180 C.3   1 <1>  -0.1600 
 13 C        7.5630     0.1510    -0.1480 C.3   1 <1>   0.0580 
 14 C        9.0430     0.4550     0.1160 C.2   1 <1>  -0.2760 
 15 C        9.7940     1.3150    -0.5810 C.2   1 <1>  -0.3000 
 16 C        9.6320    -0.3200     1.2880 C.3   1 <1>  -0.1020 
 17 H        1.5150    -2.1970     1.7310 H     1 <1>   0.0800 
 18 H        2.5600    -0.9430     2.3420 H     1 <1>   0.0800 
 19 H       -0.3650     0.2160    -0.1610 H     1 <1>   0.0800 
 20 H       -0.2010    -1.4980     0.1150 H     1 <1>   0.0800 
 21 H        2.9350    -2.5480    -0.0170 H     1 <1>   0.0800 
 22 H        4.0190    -1.3720     0.6590 H     1 <1>   0.0800 
 23 H        1.0510     0.1220    -1.9310 H     1 <1>   0.0800 
 24 H        1.0910    -1.6070    -1.7590 H     1 <1>   0.0800 
 25 H        2.8620     0.3430    -0.4600 H     1 <1>   0.4500 
 26 H        3.4350    -0.0910    -2.7740 H     1 <1>   0.0800 
 27 H        3.6090    -1.7810    -2.3510 H     1 <1>   0.0800 
 28 H        5.8140    -2.5020    -1.5660 H     1 <1>   0.1500 
 29 H        4.8900     1.2330    -0.2160 H     1 <1>   0.0800 
 30 H        4.9830     1.6000    -1.9180 H     1 <1>   0.0800 
 31 H        8.0940    -1.3320    -1.6120 H     1 <1>   0.0800 
 32 H        7.6390    -1.9940    -0.0690 H     1 <1>   0.0800 
 33 H        7.0420     2.1930    -0.5950 H     1 <1>   0.0800 
 34 H        7.3130     1.2000    -2.0020 H     1 <1>   0.0800 
 35 H        7.0540     0.1450     0.8010 H     1 <1>   0.0800 
 36 H       10.8310     1.5110    -0.3700 H     1 <1>   0.1500 
 37 H        9.4580     1.8990    -1.4190 H     1 <1>   0.1500 
 38 H        9.6100    -1.3770     1.0960 H     1 <1>   0.0800 
 39 H        9.0780    -0.1160     2.1870 H     1 <1>   0.0800 
 40 H       10.6550    -0.0350     1.4540 H     1 <1>   0.0800 
@<TRIPOS>BOND
  1   1   2  1   
  2   1   3  1   
  3   2   4  1   
  4   2  17  1   
  5   2  18  1   
  6   3   5  1   
  7   3  19  1   
  8   3  20  1   
  9   4   6  1   
 10   4  21  1   
 11   4  22  1   
 12   5   6  1   
 13   5  23  1   
 14   5  24  1   
 15   6   7  1   
 16   6  25  1   
 17   7   8  1   
 18   7  26  1   
 19   7  27  1   
 20   8   9  2   
 21   8  10  1   
 22   9  11  1   
 23   9  28  1   
 24  10  12  1   
 25  10  29  1   
 26  10  30  1   
 27  11  13  1   
 28  11  31  1   
 29  11  32  1   
 30  12  13  1   
 31  12  33  1   
 32  12  34  1   
 33  13  14  1   
 34  13  35  1   
 35  14  15  2   
 36  14  16  1   
 37  15  36  1   
 38  15  37  1   
 39  16  38  1   
 40  16  39  1   
 41  16  40  1   
@<TRIPOS>SUBSTRUCTURE
  1 ****   8 GROUP 4 **** **** 0

# MOE 2024.06 (io_trps.svl 2023.06)
