@<TRIPOS>MOLECULE
NONAME
43 43 1 0 0 
SMALL
USER_CHARGES


@<TRIPOS>ATOM
  1 S       -0.0930    -1.0330     0.4630 S.3   1 <1>  -0.3710 
  2 C       -1.2830     0.2860     0.3440 C.2   1 <1>   0.6510 
  3 C        1.3260    -0.3000     1.4290 C.3   1 <1>   0.1310 
  4 N       -1.0500     1.4020     0.9100 N.2   1 <1>  -0.6210 
  5 N       -2.3750    -0.0110    -0.3910 N.am  1 <1>  -0.4900 
  6 C        2.5930    -0.2070     0.5810 C.2   1 <1>   0.5690 
  7 C       -1.9520     2.4110     0.7100 C.2   1 <1>   0.0210 
  8 C       -3.3260     0.9420    -0.5930 C.2   1 <1>   0.6160 
  9 O        3.3370    -1.1630     0.6210 O.2   1 <1>  -0.5700 
 10 N        2.9080     0.9100    -0.1640 N.am  1 <1>  -0.6600 
 11 O       -1.6390     3.4940     1.2140 O.3   1 <1>  -0.8500 
 12 C       -3.1190     2.2050    -0.0340 C.2   1 <1>  -0.1240 
 13 O       -4.2940     0.5750    -1.2780 O.2   1 <1>  -0.5700 
 14 C        1.9930     2.0770    -0.3370 C.3   1 <1>   0.1400 
 15 C        4.1410     0.9360    -0.9940 C.3   1 <1>   0.1400 
 16 C       -4.1180     3.3530    -0.2210 C.3   1 <1>   0.0580 
 17 C        2.1580     3.0820     0.8010 C.3   1 <1>  -0.2400 
 18 C        5.2890     1.5590    -0.2040 C.3   1 <1>  -0.2400 
 19 C       -5.4760     3.0110     0.4240 C.3   1 <1>  -0.1600 
 20 C       -4.2400     3.7330    -1.7040 C.3   1 <1>  -0.2400 
 21 C       -6.4520     4.1960     0.4680 C.3   1 <1>  -0.2400 
 22 H        1.5000    -0.9640     2.2530 H     1 <1>   0.0800 
 23 H        1.0410     0.6550     1.8200 H     1 <1>   0.0800 
 24 H       -2.5030    -0.9170    -0.8150 H     1 <1>   0.3700 
 25 H        0.9780     1.7370    -0.3800 H     1 <1>   0.0800 
 26 H        2.1890     2.5680    -1.2730 H     1 <1>   0.0800 
 27 H        3.9680     1.4910    -1.9000 H     1 <1>   0.0800 
 28 H        4.4080    -0.0690    -1.2760 H     1 <1>   0.0800 
 29 H       -3.7320     4.2160     0.2940 H     1 <1>   0.0800 
 30 H        2.0390     2.6090     1.7570 H     1 <1>   0.0800 
 31 H        1.3880     3.8300     0.7150 H     1 <1>   0.0800 
 32 H        3.1140     3.5660     0.7530 H     1 <1>   0.0800 
 33 H        5.0780     2.5860     0.0250 H     1 <1>   0.0800 
 34 H        6.1910     1.5170    -0.7860 H     1 <1>   0.0800 
 35 H        5.4440     1.0110     0.7080 H     1 <1>   0.0800 
 36 H       -5.2880     2.6860     1.4330 H     1 <1>   0.0800 
 37 H       -5.9360     2.1930    -0.1020 H     1 <1>   0.0800 
 38 H       -4.7330     2.9570    -2.2590 H     1 <1>   0.0800 
 39 H       -3.2560     3.8810    -2.1120 H     1 <1>   0.0800 
 40 H       -4.7900     4.6480    -1.8150 H     1 <1>   0.0800 
 41 H       -5.9940     5.0330     0.9650 H     1 <1>   0.0800 
 42 H       -7.3370     3.9170     1.0100 H     1 <1>   0.0800 
 43 H       -6.7390     4.4910    -0.5240 H     1 <1>   0.0800 
@<TRIPOS>BOND
  1   1   2  1   
  2   1   3  1   
  3   2   4  2   
  4   2   5  1   
  5   3   6  1   
  6   3  22  1   
  7   3  23  1   
  8   4   7  1   
  9   5   8  am  
 10   5  24  1   
 11   6   9  2   
 12   6  10  am  
 13   7  11  1   
 14   7  12  2   
 15   8  12  1   
 16   8  13  2   
 17  10  14  1   
 18  10  15  1   
 19  12  16  1   
 20  14  17  1   
 21  14  25  1   
 22  14  26  1   
 23  15  18  1   
 24  15  27  1   
 25  15  28  1   
 26  16  19  1   
 27  16  20  1   
 28  16  29  1   
 29  17  30  1   
 30  17  31  1   
 31  17  32  1   
 32  18  33  1   
 33  18  34  1   
 34  18  35  1   
 35  19  21  1   
 36  19  36  1   
 37  19  37  1   
 38  20  38  1   
 39  20  39  1   
 40  20  40  1   
 41  21  41  1   
 42  21  42  1   
 43  21  43  1   
@<TRIPOS>SUBSTRUCTURE
  1 ****   4 GROUP 4 **** **** 0

# MOE 2024.06 (io_trps.svl 2023.06)
