@<TRIPOS>MOLECULE
NONAME
38 39 1 0 0 
SMALL
USER_CHARGES


@<TRIPOS>ATOM
  1 O        0.4570     0.2870    -1.6840 O.2   1 <1>  -0.5700 
  2 C        0.8250     1.1720    -0.9360 C.2   1 <1>   0.5440 
  3 N       -0.1210     1.9320    -0.3080 N.am  1 <1>  -0.7300 
  4 C        2.2400     1.4050    -0.7030 C.ar  1 <1>   0.0860 
  5 C       -1.5790     1.7960    -0.4640 C.3   1 <1>   0.2200 
  6 C        3.1680     0.3720    -0.8500 C.ar  1 <1>  -0.1500 
  7 C        2.7360     2.6570    -0.3300 C.ar  1 <1>  -0.1500 
  8 C       -2.1700     3.1670    -0.7680 C.3   1 <1>  -0.1600 
  9 C       -2.1880     1.4430     0.8870 C.3   1 <1>  -0.1600 
 10 C        4.5170     0.5710    -0.6230 C.ar  1 <1>  -0.1500 
 11 C        4.0840     2.8650    -0.1010 C.ar  1 <1>  -0.1500 
 12 C       -2.3080     3.8740     0.5850 C.3   1 <1>  -0.1600 
 13 C       -2.3160     2.7670     1.6480 C.3   1 <1>  -0.1600 
 14 C        4.9870     1.8170    -0.2390 C.ar  1 <1>   0.0820 
 15 O        6.3230     1.9420    -0.0400 O.3   1 <1>  -0.2320 
 16 C        6.9760     2.8040     0.7400 C.2   1 <1>   0.6590 
 17 O        6.4360     3.5860     1.4790 O.2   1 <1>  -0.5700 
 18 C        8.4910     2.7390     0.6500 C.3   1 <1>  -0.0990 
 19 C        9.0310     3.2390    -0.7000 C.3   1 <1>  -0.2400 
 20 H        0.1590     2.5970     0.4110 H     1 <1>   0.3700 
 21 H       -1.8190     1.0700    -1.2240 H     1 <1>   0.0800 
 22 H        2.8160    -0.6010    -1.1490 H     1 <1>   0.1500 
 23 H        2.0590     3.4860    -0.2260 H     1 <1>   0.1500 
 24 H       -3.1500     3.0260    -1.1890 H     1 <1>   0.0800 
 25 H       -1.5720     3.7200    -1.4710 H     1 <1>   0.0800 
 26 H       -1.6040     0.7100     1.4160 H     1 <1>   0.0800 
 27 H       -3.1710     1.0390     0.7190 H     1 <1>   0.0800 
 28 H        5.2100    -0.2420    -0.7440 H     1 <1>   0.1500 
 29 H        4.4220     3.8480     0.1750 H     1 <1>   0.1500 
 30 H       -3.2110     4.4600     0.6200 H     1 <1>   0.0800 
 31 H       -1.4660     4.5260     0.7460 H     1 <1>   0.0800 
 32 H       -1.4760     2.8920     2.3090 H     1 <1>   0.0800 
 33 H       -3.2220     2.7880     2.2300 H     1 <1>   0.0800 
 34 H        8.7980     1.7220     0.8090 H     1 <1>   0.0800 
 35 H        8.9050     3.3370     1.4420 H     1 <1>   0.0800 
 36 H        8.6460     2.6400    -1.5060 H     1 <1>   0.0800 
 37 H       10.1050     3.1820    -0.7120 H     1 <1>   0.0800 
 38 H        8.7400     4.2630    -0.8600 H     1 <1>   0.0800 
@<TRIPOS>BOND
  1   1   2  2   
  2   2   3  am  
  3   2   4  1   
  4   3   5  1   
  5   3  20  1   
  6   4   6  ar  
  7   4   7  ar  
  8   5   8  1   
  9   5   9  1   
 10   5  21  1   
 11   6  10  ar  
 12   6  22  1   
 13   7  11  ar  
 14   7  23  1   
 15   8  12  1   
 16   8  24  1   
 17   8  25  1   
 18   9  13  1   
 19   9  26  1   
 20   9  27  1   
 21  10  14  ar  
 22  10  28  1   
 23  11  14  ar  
 24  11  29  1   
 25  12  13  1   
 26  12  30  1   
 27  12  31  1   
 28  13  32  1   
 29  13  33  1   
 30  14  15  1   
 31  15  16  1   
 32  16  17  2   
 33  16  18  1   
 34  18  19  1   
 35  18  34  1   
 36  18  35  1   
 37  19  36  1   
 38  19  37  1   
 39  19  38  1   
@<TRIPOS>SUBSTRUCTURE
  1 ****   7 GROUP 4 **** **** 0

# MOE 2024.06 (io_trps.svl 2023.06)
