@<TRIPOS>MOLECULE
NONAME
47 50 1 0 0 
SMALL
USER_CHARGES


@<TRIPOS>ATOM
  1 F        0.6590     0.1810    -1.0060 F     1 <1>  -0.3400 
  2 C        0.9810     0.8970     0.0630 C.3   1 <1>   1.1640 
  3 F        0.9370     2.1700    -0.3140 F     1 <1>  -0.3400 
  4 F       -0.0060     0.7340     0.9350 F     1 <1>  -0.3400 
  5 C        2.3520     0.4950     0.6290 C.ar  1 <1>  -0.1440 
  6 C        3.5110     1.1490     0.2230 C.ar  1 <1>  -0.1500 
  7 C        2.4620    -0.5390     1.5540 C.ar  1 <1>  -0.1500 
  8 C        4.7560     0.7930     0.7270 C.ar  1 <1>   0.1000 
  9 C        3.6980    -0.9030     2.0610 C.ar  1 <1>  -0.1500 
 10 N        5.9140     1.4470     0.3250 N.pl3 1 <1>  -0.8380 
 11 C        4.8370    -0.2390     1.6490 C.ar  1 <1>  -0.1500 
 12 C        6.0570     2.8760     0.7240 C.3   1 <1>   0.2090 
 13 C        6.4290     1.1180    -1.0350 C.3   1 <1>   0.2090 
 14 C        7.5150     3.3490     0.5420 C.3   1 <1>   0.3430 
 15 C        7.8820     1.6120    -1.2040 C.3   1 <1>   0.3430 
 16 N        8.0500     3.0730    -0.8500 N.4   1 <1>  -0.9590 
 17 C        9.4650     3.5130    -1.0730 C.3   1 <1>   0.4230 
 18 C       10.5810     2.7760    -0.1240 C.3   1 <1>  -0.0800 
 19 C        9.6480     5.1630    -0.8800 C.3   1 <1>  -0.1600 
 20 C       10.8050     4.0970    -0.0810 C.3   1 <1>  -0.1600 
 21 C       11.9540     3.0250     0.7290 C.3   1 <1>  -0.1600 
 22 C       11.0030     5.4150     0.0030 C.3   1 <1>  -0.0800 
 23 C       12.1520     4.6760     0.9060 C.3   1 <1>  -0.1600 
 24 H        3.4570     1.9460    -0.4950 H     1 <1>   0.1500 
 25 H        1.5850    -1.0710     1.8870 H     1 <1>   0.1500 
 26 H        3.7710    -1.7040     2.7770 H     1 <1>   0.1500 
 27 H        5.7970    -0.5170     2.0410 H     1 <1>   0.1500 
 28 H        5.7730     2.9840     1.7570 H     1 <1>   0.0800 
 29 H        5.3970     3.4870     0.1340 H     1 <1>   0.0800 
 30 H        5.7980     1.5690    -1.7810 H     1 <1>   0.0800 
 31 H        6.3970     0.0500    -1.1760 H     1 <1>   0.0800 
 32 H        8.1180     2.8350     1.2710 H     1 <1>   0.0800 
 33 H        7.5680     4.4020     0.7590 H     1 <1>   0.0800 
 34 H        8.1930     1.4420    -2.2210 H     1 <1>   0.0800 
 35 H        8.5100     1.0140    -0.5650 H     1 <1>   0.0800 
 36 H        7.4650     3.6080    -1.5020 H     1 <1>   0.4500 
 37 H        9.7280     3.2880    -2.0950 H     1 <1>   0.0800 
 38 H        9.9790     2.2760     0.6200 H     1 <1>   0.0800 
 39 H        8.8040     5.6140    -0.3850 H     1 <1>   0.0800 
 40 H        9.7440     5.6330    -1.8460 H     1 <1>   0.0800 
 41 H       11.4920     4.0500    -1.0380 H     1 <1>   0.0800 
 42 H       10.1350     4.1570     0.8860 H     1 <1>   0.0800 
 43 H       12.8020     2.6050     0.2070 H     1 <1>   0.0800 
 44 H       11.9070     2.5470     1.6960 H     1 <1>   0.0800 
 45 H       11.6200     5.9460    -0.7110 H     1 <1>   0.0800 
 46 H       13.1430     4.9720     0.5940 H     1 <1>   0.0800 
 47 H       12.0470     4.9570     1.9440 H     1 <1>   0.0800 
@<TRIPOS>BOND
  1   1   2  1   
  2   2   3  1   
  3   2   4  1   
  4   2   5  1   
  5   5   6  ar  
  6   5   7  ar  
  7   6   8  ar  
  8   6  24  1   
  9   7   9  ar  
 10   7  25  1   
 11   8  10  1   
 12   8  11  ar  
 13   9  11  ar  
 14   9  26  1   
 15  10  12  1   
 16  10  13  1   
 17  11  27  1   
 18  12  14  1   
 19  12  28  1   
 20  12  29  1   
 21  13  15  1   
 22  13  30  1   
 23  13  31  1   
 24  14  16  1   
 25  14  32  1   
 26  14  33  1   
 27  15  16  1   
 28  15  34  1   
 29  15  35  1   
 30  16  17  1   
 31  16  36  1   
 32  17  18  1   
 33  17  19  1   
 34  17  37  1   
 35  18  20  1   
 36  18  21  1   
 37  18  38  1   
 38  19  22  1   
 39  19  39  1   
 40  19  40  1   
 41  20  22  1   
 42  20  41  1   
 43  20  42  1   
 44  21  23  1   
 45  21  43  1   
 46  21  44  1   
 47  22  23  1   
 48  22  45  1   
 49  23  46  1   
 50  23  47  1   
@<TRIPOS>SUBSTRUCTURE
  1 ****  10 GROUP 4 **** **** 0

# MOE 2024.06 (io_trps.svl 2023.06)
