@<TRIPOS>MOLECULE
NONAME
50 51 1 0 0 
SMALL
USER_CHARGES


@<TRIPOS>ATOM
  1 S       -0.1040     0.4360    -0.8680 S.3   1 <1>  -0.0800 
  2 C       -0.3110    -1.2430    -0.3960 C.2   1 <1>   0.1040 
  3 C        1.6200     0.3850    -0.5390 C.2   1 <1>  -0.1400 
  4 N       -1.5550    -1.8560    -0.4340 N.am  1 <1>  -0.4940 
  5 C        0.8830    -1.7830    -0.0100 C.2   1 <1>  -0.0860 
  6 C        1.9670    -0.8390    -0.1020 C.2   1 <1>  -0.1500 
  7 C        2.3890     1.6700    -0.7920 C.3   1 <1>   0.0200 
  8 C       -2.7950    -1.4060    -0.8170 C.2   1 <1>   0.5690 
  9 C        1.0450    -3.1360     0.4390 C.2   1 <1>   0.8060 
 10 C        3.8790     1.5240    -0.4760 C.3   1 <1>  -0.2400 
 11 O       -3.0130    -0.3040    -1.2600 O.2   1 <1>  -0.5700 
 12 C       -4.0080    -2.3380    -0.6630 C.3   1 <1>   0.4040 
 13 O        0.1060    -3.9130     0.5230 O.2   1 <1>  -0.5700 
 14 O        2.2690    -3.5570     0.7780 O.3   1 <1>  -0.4300 
 15 N       -5.3060    -1.5800    -0.5240 N.4   1 <1>  -0.9590 
 16 C        2.5080    -4.8760     1.2300 C.3   1 <1>   0.0400 
 17 C       -5.4080    -0.8460     0.7670 C.3   1 <1>   0.3430 
 18 C       -6.5220    -2.4030    -0.8220 C.3   1 <1>   0.3430 
 19 C       -6.5060     0.2280     0.6580 C.3   1 <1>  -0.0800 
 20 C       -7.8310    -1.7120    -0.3780 C.3   1 <1>  -0.0800 
 21 C       -7.6660    -0.1840    -0.2780 C.3   1 <1>  -0.1600 
 22 C       -5.9080     1.5670     0.1990 C.3   1 <1>  -0.2400 
 23 C       -8.3660    -2.3040     0.9390 C.3   1 <1>  -0.2400 
 24 H       -1.4950    -2.8320    -0.1170 H     1 <1>   0.3700 
 25 H        2.9680    -1.1300     0.1690 H     1 <1>   0.1500 
 26 H        1.9700     2.4530    -0.1840 H     1 <1>   0.0800 
 27 H        2.2680     1.9510    -1.8240 H     1 <1>   0.0800 
 28 H        4.0170     1.2630     0.5580 H     1 <1>   0.0800 
 29 H        4.3880     2.4510    -0.6680 H     1 <1>   0.0800 
 30 H        4.3170     0.7580    -1.0920 H     1 <1>   0.0800 
 31 H       -3.8620    -2.9720     0.1940 H     1 <1>   0.0800 
 32 H       -4.0500    -2.9590    -1.5410 H     1 <1>   0.0800 
 33 H       -5.2480    -0.8230    -1.2280 H     1 <1>   0.4500 
 34 H        3.5590    -4.9780     1.4380 H     1 <1>   0.0800 
 35 H        2.2160    -5.5680     0.4600 H     1 <1>   0.0800 
 36 H        1.9360    -5.0490     2.1250 H     1 <1>   0.0800 
 37 H       -4.4710    -0.3690     1.0080 H     1 <1>   0.0800 
 38 H       -5.6510    -1.5370     1.5570 H     1 <1>   0.0800 
 39 H       -6.4510    -3.3590    -0.3280 H     1 <1>   0.0800 
 40 H       -6.5680    -2.5850    -1.8840 H     1 <1>   0.0800 
 41 H       -6.9020     0.3750     1.6490 H     1 <1>   0.0800 
 42 H       -8.5740    -1.9190    -1.1300 H     1 <1>   0.0800 
 43 H       -7.4780     0.1920    -1.2710 H     1 <1>   0.0800 
 44 H       -8.5830     0.2720     0.0570 H     1 <1>   0.0800 
 45 H       -5.4570     1.4810    -0.7750 H     1 <1>   0.0800 
 46 H       -5.1540     1.9000     0.8910 H     1 <1>   0.0800 
 47 H       -6.6740     2.3220     0.1540 H     1 <1>   0.0800 
 48 H       -7.6850    -2.1600     1.7580 H     1 <1>   0.0800 
 49 H       -8.5450    -3.3590     0.8300 H     1 <1>   0.0800 
 50 H       -9.3020    -1.8390     1.1980 H     1 <1>   0.0800 
@<TRIPOS>BOND
  1   1   2  1   
  2   1   3  1   
  3   2   4  1   
  4   2   5  2   
  5   3   6  2   
  6   3   7  1   
  7   4   8  am  
  8   4  24  1   
  9   5   6  1   
 10   5   9  1   
 11   6  25  1   
 12   7  10  1   
 13   7  26  1   
 14   7  27  1   
 15   8  11  2   
 16   8  12  1   
 17   9  13  2   
 18   9  14  1   
 19  10  28  1   
 20  10  29  1   
 21  10  30  1   
 22  12  15  1   
 23  12  31  1   
 24  12  32  1   
 25  14  16  1   
 26  15  17  1   
 27  15  18  1   
 28  15  33  1   
 29  16  34  1   
 30  16  35  1   
 31  16  36  1   
 32  17  19  1   
 33  17  37  1   
 34  17  38  1   
 35  18  20  1   
 36  18  39  1   
 37  18  40  1   
 38  19  21  1   
 39  19  22  1   
 40  19  41  1   
 41  20  21  1   
 42  20  23  1   
 43  20  42  1   
 44  21  43  1   
 45  21  44  1   
 46  22  45  1   
 47  22  46  1   
 48  22  47  1   
 49  23  48  1   
 50  23  49  1   
 51  23  50  1   
@<TRIPOS>SUBSTRUCTURE
  1 ****   4 GROUP 4 **** **** 0

# MOE 2024.06 (io_trps.svl 2023.06)
