@<TRIPOS>MOLECULE
NONAME
34 34 1 0 0 
SMALL
USER_CHARGES


@<TRIPOS>ATOM
  1 S        0.2140    -0.2110    -1.0610 S.3   1 <1>  -0.3710 
  2 C        1.6910     0.7780    -0.9780 C.2   1 <1>   0.6410 
  3 C       -1.1160     0.7200    -0.1720 C.3   1 <1>   0.0700 
  4 N        2.7510     0.3240    -1.5250 N.2   1 <1>  -0.6610 
  5 N        1.5860     1.9680    -0.3300 N.pl3 1 <1>  -0.5500 
  6 C       -2.4080    -0.1100    -0.1720 C.3   1 <1>  -0.0800 
  7 C        3.8610     1.1130    -1.4380 C.2   1 <1>   0.7670 
  8 C        2.6630     2.7980    -0.2030 C.2   1 <1>  -0.0380 
  9 C       -3.5780     0.7420     0.3340 C.3   1 <1>  -0.2400 
 10 C       -2.2770    -1.3680     0.6990 C.3   1 <1>  -0.2400 
 11 O        4.8790     0.6980    -1.9760 O.2   1 <1>  -0.5700 
 12 C        3.8290     2.3800    -0.7640 C.2   1 <1>  -0.1240 
 13 C        2.4110     4.0860     0.5640 C.3   1 <1>  -0.1020 
 14 C        5.1220     3.1910    -0.7140 C.3   1 <1>   0.1160 
 15 C        5.8650     2.9190     0.5840 C.2   1 <1>  -0.2880 
 16 C        7.0700     2.3490     0.6670 C.2   1 <1>  -0.3000 
 17 H       -1.2550     1.6450    -0.7030 H     1 <1>   0.0800 
 18 H       -0.7740     0.9050     0.8310 H     1 <1>   0.0800 
 19 H        0.6810     2.2110     0.0650 H     1 <1>   0.4000 
 20 H       -2.6220    -0.4100    -1.1850 H     1 <1>   0.0800 
 21 H       -3.4080     1.0630     1.3470 H     1 <1>   0.0800 
 22 H       -4.4920     0.1730     0.3060 H     1 <1>   0.0800 
 23 H       -3.7070     1.6110    -0.2880 H     1 <1>   0.0800 
 24 H       -2.0440    -1.1070     1.7170 H     1 <1>   0.0800 
 25 H       -1.4990    -2.0110     0.3250 H     1 <1>   0.0800 
 26 H       -3.1970    -1.9250     0.6900 H     1 <1>   0.0800 
 27 H        1.7120     4.7020     0.0260 H     1 <1>   0.0800 
 28 H        3.3110     4.6510     0.7150 H     1 <1>   0.0800 
 29 H        2.0010     3.8600     1.5320 H     1 <1>   0.0800 
 30 H        4.9100     4.2410    -0.7900 H     1 <1>   0.0800 
 31 H        5.7540     2.9520    -1.5530 H     1 <1>   0.0800 
 32 H        5.3150     3.2300     1.4550 H     1 <1>   0.1500 
 33 H        7.5850     2.1590     1.5930 H     1 <1>   0.1500 
 34 H        7.6430     2.0170    -0.1830 H     1 <1>   0.1500 
@<TRIPOS>BOND
  1   1   2  1   
  2   1   3  1   
  3   2   4  2   
  4   2   5  1   
  5   3   6  1   
  6   3  17  1   
  7   3  18  1   
  8   4   7  1   
  9   5   8  1   
 10   5  19  1   
 11   6   9  1   
 12   6  10  1   
 13   6  20  1   
 14   7  11  2   
 15   7  12  1   
 16   8  12  2   
 17   8  13  1   
 18   9  21  1   
 19   9  22  1   
 20   9  23  1   
 21  10  24  1   
 22  10  25  1   
 23  10  26  1   
 24  12  14  1   
 25  13  27  1   
 26  13  28  1   
 27  13  29  1   
 28  14  15  1   
 29  14  30  1   
 30  14  31  1   
 31  15  16  2   
 32  15  32  1   
 33  16  33  1   
 34  16  34  1   
@<TRIPOS>SUBSTRUCTURE
  1 ****   5 GROUP 4 **** **** 0

# MOE 2024.06 (io_trps.svl 2023.06)
