@<TRIPOS>MOLECULE
NONAME
39 40 1 0 0 
SMALL
USER_CHARGES


@<TRIPOS>ATOM
  1 S        0.9150    -0.8210    -1.6640 S.3   1 <1>  -0.0800 
  2 C        1.1720    -1.2220     0.0230 C.2   1 <1>  -0.1400 
  3 C       -0.4430    -1.9160    -1.7590 C.2   1 <1>  -0.1100 
  4 C        0.2630    -2.1240     0.4320 C.2   1 <1>  -0.1500 
  5 C        2.3270    -0.5500     0.7430 C.3   1 <1>   0.0200 
  6 C       -0.6850    -2.5300    -0.5740 C.2   1 <1>  -0.0860 
  7 C        2.0570     0.9420     0.9530 C.3   1 <1>  -0.2400 
  8 C       -1.7400    -3.4820    -0.2930 C.2   1 <1>   0.7160 
  9 O       -1.6910    -4.2140     0.6770 O.2   1 <1>  -0.5700 
 10 N       -2.8740    -3.5420    -1.0700 N.am  1 <1>  -0.6600 
 11 C       -3.6770    -4.8000    -1.0820 C.3   1 <1>   0.1400 
 12 C       -3.7000    -2.3150    -1.2550 C.3   1 <1>   0.1400 
 13 C       -4.7460    -4.7460     0.0240 C.3   1 <1>   0.3430 
 14 C       -4.8010    -2.2510    -0.1730 C.3   1 <1>   0.3430 
 15 N       -5.6160    -3.5200    -0.0970 N.4   1 <1>  -0.9590 
 16 C       -6.6080    -3.4740     0.9990 C.3   1 <1>   0.4810 
 17 C       -7.6950    -2.5150     0.5740 C.2   1 <1>  -0.2880 
 18 C       -8.9040    -2.8710     0.1280 C.2   1 <1>  -0.3000 
 19 H       -0.9360    -1.9990    -2.7110 H     1 <1>   0.1500 
 20 H        0.2130    -2.5410     1.4240 H     1 <1>   0.1500 
 21 H        3.2290    -0.6830     0.1720 H     1 <1>   0.0800 
 22 H        2.4660    -1.0220     1.7000 H     1 <1>   0.0800 
 23 H        1.9540     1.4410     0.0050 H     1 <1>   0.0800 
 24 H        2.8720     1.3920     1.4910 H     1 <1>   0.0800 
 25 H        1.1510     1.0790     1.5160 H     1 <1>   0.0800 
 26 H       -3.0300    -5.6460    -0.9140 H     1 <1>   0.0800 
 27 H       -4.1390    -4.9280    -2.0460 H     1 <1>   0.0800 
 28 H       -4.1430    -2.3220    -2.2350 H     1 <1>   0.0800 
 29 H       -3.0840    -1.4340    -1.1800 H     1 <1>   0.0800 
 30 H       -4.2390    -4.7420     0.9760 H     1 <1>   0.0800 
 31 H       -5.3520    -5.6360    -0.0260 H     1 <1>   0.0800 
 32 H       -5.4450    -1.4120    -0.3790 H     1 <1>   0.0800 
 33 H       -4.3250    -2.0750     0.7780 H     1 <1>   0.0800 
 34 H       -6.1660    -3.5940    -0.9630 H     1 <1>   0.4500 
 35 H       -6.1540    -3.1590     1.9260 H     1 <1>   0.0800 
 36 H       -7.0400    -4.4510     1.1410 H     1 <1>   0.0800 
 37 H       -7.4090    -1.4810     0.6710 H     1 <1>   0.1500 
 38 H       -9.6670    -2.1650    -0.1630 H     1 <1>   0.1500 
 39 H       -9.2530    -3.8850     0.0170 H     1 <1>   0.1500 
@<TRIPOS>BOND
  1   1   2  1   
  2   1   3  1   
  3   2   4  2   
  4   2   5  1   
  5   3   6  2   
  6   3  19  1   
  7   4   6  1   
  8   4  20  1   
  9   5   7  1   
 10   5  21  1   
 11   5  22  1   
 12   6   8  1   
 13   7  23  1   
 14   7  24  1   
 15   7  25  1   
 16   8   9  2   
 17   8  10  am  
 18  10  11  1   
 19  10  12  1   
 20  11  13  1   
 21  11  26  1   
 22  11  27  1   
 23  12  14  1   
 24  12  28  1   
 25  12  29  1   
 26  13  15  1   
 27  13  30  1   
 28  13  31  1   
 29  14  15  1   
 30  14  32  1   
 31  14  33  1   
 32  15  16  1   
 33  15  34  1   
 34  16  17  1   
 35  16  35  1   
 36  16  36  1   
 37  17  18  2   
 38  17  37  1   
 39  18  38  1   
 40  18  39  1   
@<TRIPOS>SUBSTRUCTURE
  1 ****   8 GROUP 4 **** **** 0

# MOE 2024.06 (io_trps.svl 2023.06)
