@<TRIPOS>MOLECULE
NONAME
41 42 1 0 0 
SMALL
USER_CHARGES


@<TRIPOS>ATOM
  1 S        0.0260    -0.1000    -0.1300 S.o2  1 <1>   1.4470 
  2 O        0.4200     0.5030     1.1260 O.2   1 <1>  -0.6500 
  3 O       -0.0310     0.7270    -1.3150 O.2   1 <1>  -0.6500 
  4 N        1.1720    -1.3100    -0.4360 N.am  1 <1>  -0.8490 
  5 C       -1.5270    -1.0200     0.0520 C.ar  1 <1>  -0.0090 
  6 C        2.3880    -0.7190    -1.0560 C.3   1 <1>   0.2570 
  7 C        1.4670    -2.1340     0.7450 C.3   1 <1>   0.1160 
  8 C       -2.3560    -0.8300     1.1520 C.ar  1 <1>  -0.1500 
  9 C       -1.9270    -1.9410    -0.9110 C.ar  1 <1>  -0.1500 
 10 C        3.5850    -1.6600    -1.2510 C.2   1 <1>   0.5690 
 11 C       -3.5370    -1.5380     1.2880 C.ar  1 <1>  -0.1500 
 12 C       -3.1070    -2.6540    -0.7840 C.ar  1 <1>  -0.1500 
 13 O        3.6530    -2.3330    -2.2520 O.2   1 <1>  -0.5700 
 14 N        4.5470    -1.7020    -0.2840 N.am  1 <1>  -0.5790 
 15 C       -3.9220    -2.4550     0.3250 C.ar  1 <1>   0.0830 
 16 C        5.7420    -2.5570    -0.3100 C.3   1 <1>   0.0490 
 17 O       -5.0910    -3.1070     0.5340 O.3   1 <1>  -0.3630 
 18 C        6.2340    -3.1100     0.9850 C.3   1 <1>  -0.2000 
 19 C        6.9990    -2.0240     0.2910 C.3   1 <1>  -0.2000 
 20 C       -5.5910    -4.0380    -0.3970 C.3   1 <1>   0.1200 
 21 C       -6.9190    -4.5700     0.1340 C.3   1 <1>  -0.2400 
 22 H        2.7140     0.1180    -0.4640 H     1 <1>   0.0800 
 23 H        2.1260    -0.3380    -2.0280 H     1 <1>   0.0800 
 24 H        0.5530    -2.5210     1.1630 H     1 <1>   0.0800 
 25 H        1.9710    -1.5520     1.4990 H     1 <1>   0.0800 
 26 H        2.0830    -2.9740     0.4710 H     1 <1>   0.0800 
 27 H       -2.0740    -0.1200     1.9120 H     1 <1>   0.1500 
 28 H       -1.3000    -2.1010    -1.7730 H     1 <1>   0.1500 
 29 H       -4.1710    -1.3830     2.1440 H     1 <1>   0.1500 
 30 H       -3.3720    -3.3550    -1.5530 H     1 <1>   0.1500 
 31 H        4.4730    -1.1040     0.5390 H     1 <1>   0.3700 
 32 H        5.8110    -3.1710    -1.1950 H     1 <1>   0.1000 
 33 H        6.6560    -4.1000     0.9950 H     1 <1>   0.1000 
 34 H        5.7030    -2.8790     1.8920 H     1 <1>   0.1000 
 35 H        7.0000    -1.0330     0.7100 H     1 <1>   0.1000 
 36 H        7.9370    -2.2780    -0.1710 H     1 <1>   0.1000 
 37 H       -4.8760    -4.8360    -0.5000 H     1 <1>   0.0800 
 38 H       -5.7320    -3.5370    -1.3390 H     1 <1>   0.0800 
 39 H       -6.7710    -5.0550     1.0830 H     1 <1>   0.0800 
 40 H       -7.3280    -5.2850    -0.5560 H     1 <1>   0.0800 
 41 H       -7.6210    -3.7640     0.2490 H     1 <1>   0.0800 
@<TRIPOS>BOND
  1   1   2  2   
  2   1   3  2   
  3   1   4  am  
  4   1   5  1   
  5   4   6  1   
  6   4   7  1   
  7   5   8  ar  
  8   5   9  ar  
  9   6  10  1   
 10   6  22  1   
 11   6  23  1   
 12   7  24  1   
 13   7  25  1   
 14   7  26  1   
 15   8  11  ar  
 16   8  27  1   
 17   9  12  ar  
 18   9  28  1   
 19  10  13  2   
 20  10  14  am  
 21  11  15  ar  
 22  11  29  1   
 23  12  15  ar  
 24  12  30  1   
 25  14  16  1   
 26  14  31  1   
 27  15  17  1   
 28  16  18  1   
 29  16  19  1   
 30  16  32  1   
 31  17  20  1   
 32  18  19  1   
 33  18  33  1   
 34  18  34  1   
 35  19  35  1   
 36  19  36  1   
 37  20  21  1   
 38  20  37  1   
 39  20  38  1   
 40  21  39  1   
 41  21  40  1   
 42  21  41  1   
@<TRIPOS>SUBSTRUCTURE
  1 ****   4 GROUP 4 **** **** 0

# MOE 2024.06 (io_trps.svl 2023.06)
