@<TRIPOS>MOLECULE
NONAME
36 37 1 0 0 
SMALL
USER_CHARGES


@<TRIPOS>ATOM
  1 O       -1.4130     1.6540     2.3610 O.2   1 <1>  -0.5700 
  2 C       -0.8830     1.9200     1.3130 C.2   1 <1>   0.5690 
  3 N       -1.4850     1.7660     0.0970 N.am  1 <1>  -0.5470 
  4 C        0.5210     2.4680     1.3290 C.3   1 <1>  -0.1790 
  5 C       -2.7570     1.2600    -0.2040 C.ar  1 <1>   0.1170 
  6 C       -3.3570     0.2650     0.5590 C.ar  1 <1>  -0.1500 
  7 C       -3.4460     1.7530    -1.3040 C.ar  1 <1>  -0.1500 
  8 C       -4.6170    -0.2090     0.2470 C.ar  1 <1>  -0.1500 
  9 C       -4.7090     1.2860    -1.6200 C.ar  1 <1>  -0.1500 
 10 C       -5.3080     0.3080    -0.8390 C.ar  1 <1>  -0.1430 
 11 C       -6.7120    -0.1720    -1.1550 C.3   1 <1>   0.4860 
 12 N       -7.6270     0.2840    -0.0740 N.4   1 <1>  -0.9590 
 13 C       -9.0400    -0.1980    -0.2310 C.3   1 <1>   0.3430 
 14 C       -7.5850     1.7660     0.1740 C.3   1 <1>   0.3430 
 15 C       -9.9680     0.3990     0.8520 C.3   1 <1>   0.1200 
 16 C       -8.4840     2.1550     1.3710 C.3   1 <1>   0.1200 
 17 O       -9.2250     1.0580     1.8400 O.3   1 <1>  -0.5600 
 18 H       -0.9520     2.1100    -0.6980 H     1 <1>   0.3700 
 19 H        0.5270     3.4700     0.9420 H     1 <1>   0.0800 
 20 H        1.1650     1.8460     0.7370 H     1 <1>   0.0800 
 21 H        0.8910     2.4860     2.3390 H     1 <1>   0.0800 
 22 H       -2.8310    -0.1430     1.4050 H     1 <1>   0.1500 
 23 H       -2.9910     2.5140    -1.9130 H     1 <1>   0.1500 
 24 H       -5.0420    -0.9820     0.8650 H     1 <1>   0.1500 
 25 H       -5.2140     1.6960    -2.4790 H     1 <1>   0.1500 
 26 H       -6.7160    -1.2490    -1.2170 H     1 <1>   0.0800 
 27 H       -7.0290     0.2270    -2.1040 H     1 <1>   0.0800 
 28 H       -7.2910    -0.1200     0.8120 H     1 <1>   0.4500 
 29 H       -9.0680    -1.2730    -0.1590 H     1 <1>   0.0800 
 30 H       -9.4210     0.0720    -1.2020 H     1 <1>   0.0800 
 31 H       -7.9170     2.2970    -0.7030 H     1 <1>   0.0800 
 32 H       -6.5750     2.0830     0.3810 H     1 <1>   0.0800 
 33 H      -10.5350    -0.3820     1.3290 H     1 <1>   0.0800 
 34 H      -10.6620     1.1000     0.4190 H     1 <1>   0.0800 
 35 H       -9.1660     2.9410     1.0950 H     1 <1>   0.0800 
 36 H       -7.8770     2.5090     2.1860 H     1 <1>   0.0800 
@<TRIPOS>BOND
  1   1   2  2   
  2   2   3  am  
  3   2   4  1   
  4   3   5  1   
  5   3  18  1   
  6   4  19  1   
  7   4  20  1   
  8   4  21  1   
  9   5   6  ar  
 10   5   7  ar  
 11   6   8  ar  
 12   6  22  1   
 13   7   9  ar  
 14   7  23  1   
 15   8  10  ar  
 16   8  24  1   
 17   9  10  ar  
 18   9  25  1   
 19  10  11  1   
 20  11  12  1   
 21  11  26  1   
 22  11  27  1   
 23  12  13  1   
 24  12  14  1   
 25  12  28  1   
 26  13  15  1   
 27  13  29  1   
 28  13  30  1   
 29  14  16  1   
 30  14  31  1   
 31  14  32  1   
 32  15  17  1   
 33  15  33  1   
 34  15  34  1   
 35  16  17  1   
 36  16  35  1   
 37  16  36  1   
@<TRIPOS>SUBSTRUCTURE
  1 ****   8 GROUP 4 **** **** 0

# MOE 2024.06 (io_trps.svl 2023.06)
