@<TRIPOS>MOLECULE
NONAME
44 45 1 0 0 
SMALL
USER_CHARGES


@<TRIPOS>ATOM
  1 O       -0.6300    -0.1290     0.8090 O.3   1 <1>  -0.3630 
  2 C       -1.7420    -0.6250     0.2030 C.ar  1 <1>   0.0830 
  3 C        0.0400     1.0210     0.3400 C.3   1 <1>   0.0400 
  4 C       -2.2740    -1.8270     0.6730 C.ar  1 <1>  -0.1440 
  5 C       -2.3460     0.0260    -0.8650 C.ar  1 <1>  -0.1500 
  6 C       -3.3960    -2.3830     0.0570 C.ar  1 <1>  -0.1430 
  7 C       -1.5990    -2.5250     1.8610 C.3   1 <1>  -0.0960 
  8 C       -3.4700    -0.5090    -1.4570 C.ar  1 <1>  -0.1500 
  9 C       -4.0070    -1.7020    -0.9990 C.ar  1 <1>  -0.1440 
 10 C       -3.9280    -3.7350     0.5440 C.3   1 <1>  -0.0970 
 11 C       -5.2720    -2.2000    -1.6750 C.3   1 <1>   0.4860 
 12 N       -6.3930    -2.0540    -0.7100 N.4   1 <1>  -0.9590 
 13 C       -7.6180    -2.7700    -1.1420 C.3   1 <1>   0.3430 
 14 C       -6.6820    -0.6330    -0.3940 C.3   1 <1>   0.3430 
 15 C       -8.4530    -3.2000     0.0680 C.3   1 <1>  -0.1600 
 16 C       -6.8300    -0.4590     1.1170 C.3   1 <1>  -0.1600 
 17 C       -8.8400    -2.0870     1.0600 C.3   1 <1>  -0.1600 
 18 C       -7.6410    -1.5410     1.8530 C.3   1 <1>  -0.1600 
 19 H        0.9040     1.1780     0.9600 H     1 <1>   0.0800 
 20 H       -0.6200     1.8660     0.4150 H     1 <1>   0.0800 
 21 H        0.3470     0.8560    -0.6770 H     1 <1>   0.0800 
 22 H       -1.9550     0.9490    -1.2480 H     1 <1>   0.1500 
 23 H       -1.0350    -1.8350     2.4610 H     1 <1>   0.0800 
 24 H       -0.9270    -3.2830     1.5010 H     1 <1>   0.0800 
 25 H       -2.3230    -2.9750     2.5130 H     1 <1>   0.0800 
 26 H       -3.9160     0.0210    -2.2810 H     1 <1>   0.1500 
 27 H       -4.4580    -3.6100     1.4710 H     1 <1>   0.0800 
 28 H       -3.1100    -4.4130     0.7110 H     1 <1>   0.0800 
 29 H       -4.5740    -4.2130    -0.1660 H     1 <1>   0.0800 
 30 H       -5.1450    -3.2330    -1.9520 H     1 <1>   0.0800 
 31 H       -5.4690    -1.6290    -2.5670 H     1 <1>   0.0800 
 32 H       -6.0590    -2.4670     0.1690 H     1 <1>   0.4500 
 33 H       -7.3500    -3.6520    -1.7010 H     1 <1>   0.0800 
 34 H       -8.2070    -2.1350    -1.7850 H     1 <1>   0.0800 
 35 H       -7.5920    -0.3270    -0.8850 H     1 <1>   0.0800 
 36 H       -5.8850     0.0060    -0.7390 H     1 <1>   0.0800 
 37 H       -7.9350    -3.9850     0.5920 H     1 <1>   0.0800 
 38 H       -9.3620    -3.6380    -0.3100 H     1 <1>   0.0800 
 39 H       -7.3010     0.4950     1.2820 H     1 <1>   0.0800 
 40 H       -5.8500    -0.3940     1.5580 H     1 <1>   0.0800 
 41 H       -9.5330    -2.5120     1.7680 H     1 <1>   0.0800 
 42 H       -9.3610    -1.2880     0.5590 H     1 <1>   0.0800 
 43 H       -8.0060    -1.1100     2.7710 H     1 <1>   0.0800 
 44 H       -6.9970    -2.3560     2.1370 H     1 <1>   0.0800 
@<TRIPOS>BOND
  1   1   2  1   
  2   1   3  1   
  3   2   4  ar  
  4   2   5  ar  
  5   3  19  1   
  6   3  20  1   
  7   3  21  1   
  8   4   6  ar  
  9   4   7  1   
 10   5   8  ar  
 11   5  22  1   
 12   6   9  ar  
 13   6  10  1   
 14   7  23  1   
 15   7  24  1   
 16   7  25  1   
 17   8   9  ar  
 18   8  26  1   
 19   9  11  1   
 20  10  27  1   
 21  10  28  1   
 22  10  29  1   
 23  11  12  1   
 24  11  30  1   
 25  11  31  1   
 26  12  13  1   
 27  12  14  1   
 28  12  32  1   
 29  13  15  1   
 30  13  33  1   
 31  13  34  1   
 32  14  16  1   
 33  14  35  1   
 34  14  36  1   
 35  15  17  1   
 36  15  37  1   
 37  15  38  1   
 38  16  18  1   
 39  16  39  1   
 40  16  40  1   
 41  17  18  1   
 42  17  41  1   
 43  17  42  1   
 44  18  43  1   
 45  18  44  1   
@<TRIPOS>SUBSTRUCTURE
  1 ****   9 GROUP 4 **** **** 0

# MOE 2024.06 (io_trps.svl 2023.06)
