@<TRIPOS>MOLECULE
NONAME
31 31 1 0 0 
SMALL
USER_CHARGES


@<TRIPOS>ATOM
  1 CL      -0.3450     0.3280    -1.2470 Cl    1 <1>  -0.1770 
  2 C       -0.1550     1.9480    -0.6090 C.ar  1 <1>   0.1770 
  3 C        1.1140     2.4690    -0.3830 C.ar  1 <1>   0.0820 
  4 C       -1.2960     2.6790    -0.3450 C.ar  1 <1>  -0.1500 
  5 O        2.1910     1.6820    -0.6710 O.3   1 <1>  -0.3630 
  6 C        1.2240     3.7620     0.1220 C.ar  1 <1>  -0.1500 
  7 C       -1.1940     3.9700     0.1550 C.ar  1 <1>   0.1990 
  8 C        3.5110     2.1150    -0.4240 C.3   1 <1>   0.0400 
  9 C        0.0790     4.5080     0.3910 C.ar  1 <1>   0.0830 
 10 N       -2.3190     4.7540     0.4220 N.am  1 <1>  -0.7570 
 11 O        0.1280     5.7830     0.8880 O.3   1 <1>  -0.3630 
 12 S       -3.9130     4.2630     0.8130 S.o2  1 <1>   1.3330 
 13 C        1.3450     6.3720     1.2930 C.3   1 <1>   0.0400 
 14 O       -4.4490     5.3710     1.5630 O.2   1 <1>  -0.6500 
 15 O       -3.8390     2.9370     1.3760 O.2   1 <1>  -0.6500 
 16 C       -4.6970     4.2090    -0.8040 C.3   1 <1>  -0.0550 
 17 C       -6.1850     3.8160    -0.7760 C.3   1 <1>  -0.2400 
 18 H       -2.2510     2.2280    -0.5300 H     1 <1>   0.1500 
 19 H        2.1920     4.1810     0.3000 H     1 <1>   0.1500 
 20 H        4.1790     1.3220    -0.7090 H     1 <1>   0.0800 
 21 H        3.6200     2.3230     0.6260 H     1 <1>   0.0800 
 22 H        3.7100     2.9890    -1.0180 H     1 <1>   0.0800 
 23 H       -2.1110     5.6480     0.8650 H     1 <1>   0.4200 
 24 H        1.1270     7.3430     1.7010 H     1 <1>   0.0800 
 25 H        1.9870     6.4750     0.4360 H     1 <1>   0.0800 
 26 H        1.8000     5.7550     2.0480 H     1 <1>   0.0800 
 27 H       -4.1710     3.5070    -1.4220 H     1 <1>   0.0800 
 28 H       -4.6070     5.1740    -1.2640 H     1 <1>   0.0800 
 29 H       -6.3010     2.8380    -0.3430 H     1 <1>   0.0800 
 30 H       -6.5860     3.8050    -1.7740 H     1 <1>   0.0800 
 31 H       -6.7430     4.5220    -0.1850 H     1 <1>   0.0800 
@<TRIPOS>BOND
  1   1   2  1   
  2   2   3  ar  
  3   2   4  ar  
  4   3   5  1   
  5   3   6  ar  
  6   4   7  ar  
  7   4  18  1   
  8   5   8  1   
  9   6   9  ar  
 10   6  19  1   
 11   7   9  ar  
 12   7  10  1   
 13   8  20  1   
 14   8  21  1   
 15   8  22  1   
 16   9  11  1   
 17  10  12  am  
 18  10  23  1   
 19  11  13  1   
 20  12  14  2   
 21  12  15  2   
 22  12  16  1   
 23  13  24  1   
 24  13  25  1   
 25  13  26  1   
 26  16  17  1   
 27  16  27  1   
 28  16  28  1   
 29  17  29  1   
 30  17  30  1   
 31  17  31  1   
@<TRIPOS>SUBSTRUCTURE
  1 ****   7 GROUP 4 **** **** 0

# MOE 2024.06 (io_trps.svl 2023.06)
