@<TRIPOS>MOLECULE
NONAME
29 29 1 0 0 
SMALL
USER_CHARGES


@<TRIPOS>ATOM
  1 P       -0.3270     0.4190     0.5410 P.3   1 <1>   0.8390 
  2 O       -0.7050     0.7470     1.9150 O.2   1 <1>  -0.7000 
  3 C        1.4050     0.7900     0.2310 C.ar  1 <1>  -0.1390 
  4 C       -0.6710    -1.2970     0.2070 C.3   1 <1>  -0.1600 
  5 C       -1.2880     1.3960    -0.5980 C.3   1 <1>  -0.1600 
  6 C        2.1700     0.3010    -0.8480 C.ar  1 <1>  -0.1790 
  7 C        2.0470     1.6350     1.1310 C.ar  1 <1>  -0.1500 
  8 C        0.2170    -2.2950     0.9680 C.3   1 <1>  -0.2400 
  9 C       -2.8120     1.3020    -0.4140 C.3   1 <1>  -0.2400 
 10 C        1.6330    -0.5670    -1.8790 C.2   1 <1>   0.9790 
 11 C        3.5160     0.6540    -0.9470 C.ar  1 <1>  -0.1500 
 12 C        3.3780     1.9880     1.0150 C.ar  1 <1>  -0.1500 
 13 O        0.6500    -0.2170    -2.5510 O.co2 1 <1>  -0.9000 
 14 O        2.1430    -1.6770    -2.0980 O.co2 1 <1>  -0.9000 
 15 C        4.1220     1.4890    -0.0330 C.ar  1 <1>  -0.1500 
 16 H       -0.5950    -1.5250    -0.8380 H     1 <1>   0.0800 
 17 H       -1.6880    -1.5110     0.4750 H     1 <1>   0.0800 
 18 H       -1.0730     1.1400    -1.6160 H     1 <1>   0.0800 
 19 H       -1.0140     2.4290    -0.4880 H     1 <1>   0.0800 
 20 H        1.4860     2.0280     1.9620 H     1 <1>   0.1500 
 21 H        1.2450    -2.1750     0.6700 H     1 <1>   0.0800 
 22 H       -0.0830    -3.3030     0.7460 H     1 <1>   0.0800 
 23 H        0.1410    -2.1290     2.0290 H     1 <1>   0.0800 
 24 H       -3.1470     0.2960    -0.5930 H     1 <1>   0.0800 
 25 H       -3.3080     1.9580    -1.1070 H     1 <1>   0.0800 
 26 H       -3.0810     1.5850     0.5890 H     1 <1>   0.0800 
 27 H        4.0880     0.2520    -1.7670 H     1 <1>   0.1500 
 28 H        3.8290     2.6420     1.7390 H     1 <1>   0.1500 
 29 H        5.1600     1.7450    -0.1380 H     1 <1>   0.1500 
@<TRIPOS>BOND
  1   1   2  2   
  2   1   3  1   
  3   1   4  1   
  4   1   5  1   
  5   3   6  ar  
  6   3   7  ar  
  7   4   8  1   
  8   4  16  1   
  9   4  17  1   
 10   5   9  1   
 11   5  18  1   
 12   5  19  1   
 13   6  10  1   
 14   6  11  ar  
 15   7  12  ar  
 16   7  20  1   
 17   8  21  1   
 18   8  22  1   
 19   8  23  1   
 20   9  24  1   
 21   9  25  1   
 22   9  26  1   
 23  10  13  ar  
 24  10  14  ar  
 25  11  15  ar  
 26  11  27  1   
 27  12  15  ar  
 28  12  28  1   
 29  15  29  1   
@<TRIPOS>SUBSTRUCTURE
  1 ****   3 GROUP 4 **** **** 0

# MOE 2024.06 (io_trps.svl 2023.06)
