@<TRIPOS>MOLECULE
NONAME
56 58 1 0 0 
SMALL
USER_CHARGES


@<TRIPOS>ATOM
  1 O        1.4380    -0.5890    -3.7490 O.2   1 <1>  -0.5700 
  2 C        1.0320    -1.0460    -2.7070 C.2   1 <1>   0.5690 
  3 N        1.5720    -0.7780    -1.4840 N.am  1 <1>  -0.5470 
  4 C       -0.1760    -1.9860    -2.7260 C.3   1 <1>   0.1710 
  5 C        2.6150     0.0440    -1.0270 C.ar  1 <1>   0.1170 
  6 N       -0.8800    -2.0940    -1.4130 N.3   1 <1>  -0.8100 
  7 C        2.7170     0.2880     0.3480 C.ar  1 <1>   0.0830 
  8 C        3.5520     0.6140    -1.8810 C.ar  1 <1>  -0.1500 
  9 C       -1.6510    -0.8610    -1.1100 C.3   1 <1>   0.1100 
 10 C       -1.7890    -3.2600    -1.3870 C.3   1 <1>   0.1100 
 11 O        1.7770    -0.2890     1.1550 O.3   1 <1>  -0.3630 
 12 C        3.7430     1.0890     0.8390 C.ar  1 <1>  -0.1500 
 13 C        4.5700     1.4100    -1.3880 C.ar  1 <1>  -0.1500 
 14 C       -2.3660    -0.9310     0.2530 C.3   1 <1>   0.2090 
 15 C       -2.5030    -3.4180    -0.0300 C.3   1 <1>   0.2090 
 16 C        1.9260    -0.3060     2.5550 C.3   1 <1>   0.1200 
 17 C        4.6660     1.6480    -0.0290 C.ar  1 <1>  -0.1500 
 18 N       -3.1910    -2.1660     0.3980 N.pl3 1 <1>  -0.8380 
 19 C        0.7800    -1.1240     3.1410 C.3   1 <1>  -0.2400 
 20 C       -4.5720    -2.0720     0.2180 C.ar  1 <1>   0.1000 
 21 C       -5.4520    -2.1860     1.2990 C.ar  1 <1>  -0.1430 
 22 C       -5.0860    -1.8680    -1.0570 C.ar  1 <1>  -0.1500 
 23 C       -6.8270    -2.1030     1.0850 C.ar  1 <1>  -0.1430 
 24 C       -4.8580    -2.4070     2.6900 C.3   1 <1>  -0.0970 
 25 C       -6.4460    -1.7790    -1.2680 C.ar  1 <1>  -0.1500 
 26 C       -7.3120    -1.8980    -0.1980 C.ar  1 <1>  -0.1500 
 27 C       -7.8380    -2.2330     2.2170 C.3   1 <1>  -0.0970 
 28 H        1.0280    -1.2060    -0.7240 H     1 <1>   0.3700 
 29 H        0.1890    -2.9550    -3.0120 H     1 <1>   0.0800 
 30 H       -0.8630    -1.6540    -3.4850 H     1 <1>   0.0800 
 31 H        3.4920     0.4360    -2.9390 H     1 <1>   0.1500 
 32 H       -2.3860    -0.6910    -1.8770 H     1 <1>   0.0800 
 33 H       -0.9910    -0.0100    -1.0990 H     1 <1>   0.0800 
 34 H       -1.2250    -4.1560    -1.5800 H     1 <1>   0.0800 
 35 H       -2.5320    -3.1630    -2.1600 H     1 <1>   0.0800 
 36 H        3.8410     1.2950     1.8870 H     1 <1>   0.1500 
 37 H        5.2860     1.8430    -2.0640 H     1 <1>   0.1500 
 38 H       -2.9940    -0.0660     0.3730 H     1 <1>   0.0800 
 39 H       -1.6280    -0.9140     1.0340 H     1 <1>   0.0800 
 40 H       -1.7790    -3.6870     0.7180 H     1 <1>   0.0800 
 41 H       -3.2240    -4.2150    -0.0940 H     1 <1>   0.0800 
 42 H        1.8920     0.7070     2.9160 H     1 <1>   0.0800 
 43 H        2.8750    -0.7570     2.7910 H     1 <1>   0.0800 
 44 H        5.4590     2.2680     0.3530 H     1 <1>   0.1500 
 45 H       -0.1620    -0.6560     2.9180 H     1 <1>   0.0800 
 46 H        0.8850    -1.1860     4.2090 H     1 <1>   0.0800 
 47 H        0.7900    -2.1210     2.7360 H     1 <1>   0.0800 
 48 H       -4.4130    -1.7790    -1.8860 H     1 <1>   0.1500 
 49 H       -4.4310    -3.3910     2.7410 H     1 <1>   0.0800 
 50 H       -5.5780    -2.3030     3.4770 H     1 <1>   0.0800 
 51 H       -4.0780    -1.6890     2.8670 H     1 <1>   0.0800 
 52 H       -6.8310    -1.6200    -2.2590 H     1 <1>   0.1500 
 53 H       -8.3710    -1.8290    -0.3750 H     1 <1>   0.1500 
 54 H       -7.7220    -1.4160     2.9060 H     1 <1>   0.0800 
 55 H       -7.6890    -3.1610     2.7370 H     1 <1>   0.0800 
 56 H       -8.8450    -2.2170     1.8420 H     1 <1>   0.0800 
@<TRIPOS>BOND
  1   1   2  2   
  2   2   3  am  
  3   2   4  1   
  4   3   5  1   
  5   3  28  1   
  6   4   6  1   
  7   4  29  1   
  8   4  30  1   
  9   5   7  ar  
 10   5   8  ar  
 11   6   9  1   
 12   6  10  1   
 13   7  11  1   
 14   7  12  ar  
 15   8  13  ar  
 16   8  31  1   
 17   9  14  1   
 18   9  32  1   
 19   9  33  1   
 20  10  15  1   
 21  10  34  1   
 22  10  35  1   
 23  11  16  1   
 24  12  17  ar  
 25  12  36  1   
 26  13  17  ar  
 27  13  37  1   
 28  14  18  1   
 29  14  38  1   
 30  14  39  1   
 31  15  18  1   
 32  15  40  1   
 33  15  41  1   
 34  16  19  1   
 35  16  42  1   
 36  16  43  1   
 37  17  44  1   
 38  18  20  1   
 39  19  45  1   
 40  19  46  1   
 41  19  47  1   
 42  20  21  ar  
 43  20  22  ar  
 44  21  23  ar  
 45  21  24  1   
 46  22  25  ar  
 47  22  48  1   
 48  23  26  ar  
 49  23  27  1   
 50  24  49  1   
 51  24  50  1   
 52  24  51  1   
 53  25  26  ar  
 54  25  52  1   
 55  26  53  1   
 56  27  54  1   
 57  27  55  1   
 58  27  56  1   
@<TRIPOS>SUBSTRUCTURE
  1 ****   9 GROUP 4 **** **** 0

# MOE 2024.06 (io_trps.svl 2023.06)
