@<TRIPOS>MOLECULE
NONAME
45 47 1 0 0 
SMALL
USER_CHARGES


@<TRIPOS>ATOM
  1 F        2.8420     1.5160     3.1100 F     1 <1>  -0.3400 
  2 C        3.5450     0.8590     2.1960 C.3   1 <1>   1.1640 
  3 F        3.1140    -0.3950     2.2300 F     1 <1>  -0.3400 
  4 F        4.7950     0.8290     2.6520 F     1 <1>  -0.3400 
  5 C        3.4580     1.4720     0.7950 C.ar  1 <1>  -0.1440 
  6 C        4.2690     0.9910    -0.2390 C.ar  1 <1>   0.1170 
  7 C        2.5600     2.5040     0.5320 C.ar  1 <1>  -0.1500 
  8 N        5.2120    -0.0310    -0.0290 N.am  1 <1>  -0.5470 
  9 C        4.1510     1.5570    -1.5050 C.ar  1 <1>  -0.1500 
 10 C        2.4600     3.0560    -0.7320 C.ar  1 <1>  -0.1500 
 11 C        5.5250    -1.0920    -0.8410 C.2   1 <1>   0.5690 
 12 C        3.2570     2.5790    -1.7540 C.ar  1 <1>  -0.1500 
 13 O        4.9260    -1.3240    -1.8630 O.2   1 <1>  -0.5700 
 14 C        6.6450    -2.0450    -0.4020 C.3   1 <1>   0.1710 
 15 N        8.0210    -1.6590    -0.8240 N.3   1 <1>  -0.8100 
 16 C        8.5080    -0.4080    -0.2050 C.3   1 <1>   0.1100 
 17 C        8.9740    -2.7630    -0.5820 C.3   1 <1>   0.1100 
 18 C        9.9050    -0.0190    -0.7260 C.3   1 <1>   0.1400 
 19 C       10.3700    -2.4330    -1.1320 C.3   1 <1>   0.1400 
 20 N       10.8720    -1.1460    -0.5650 N.am  1 <1>  -0.6600 
 21 C       11.9940    -1.0870     0.2390 C.2   1 <1>   0.7150 
 22 O       12.4220    -2.1280     0.7080 O.2   1 <1>  -0.5700 
 23 C       12.6600     0.1700     0.5140 C.2   1 <1>   0.0550 
 24 O       13.1910     0.4210     1.7080 O.3   1 <1>  -0.2800 
 25 C       12.8780     1.2550    -0.2830 C.2   1 <1>  -0.1500 
 26 C       13.7310     1.6180     1.6930 C.2   1 <1>  -0.0100 
 27 C       13.5700     2.1930     0.4830 C.2   1 <1>  -0.1500 
 28 H        1.9190     2.8930     1.3070 H     1 <1>   0.1500 
 29 H        5.7320     0.0120     0.8490 H     1 <1>   0.3700 
 30 H        4.7650     1.1900    -2.3090 H     1 <1>   0.1500 
 31 H        1.7610     3.8530    -0.9220 H     1 <1>   0.1500 
 32 H        3.1820     3.0000    -2.7420 H     1 <1>   0.1500 
 33 H        6.4150    -3.0040    -0.8310 H     1 <1>   0.0800 
 34 H        6.6150    -2.1550     0.6670 H     1 <1>   0.0800 
 35 H        8.5510    -0.5210     0.8650 H     1 <1>   0.0800 
 36 H        7.8320     0.3960    -0.4360 H     1 <1>   0.0800 
 37 H        8.6190    -3.6560    -1.0680 H     1 <1>   0.0800 
 38 H        9.0510    -2.9630     0.4730 H     1 <1>   0.0800 
 39 H       10.2390     0.8510    -0.1900 H     1 <1>   0.0800 
 40 H        9.8320     0.2360    -1.7690 H     1 <1>   0.0800 
 41 H       10.3140    -2.3480    -2.2030 H     1 <1>   0.0800 
 42 H       11.0440    -3.2400    -0.9030 H     1 <1>   0.0800 
 43 H       12.5880     1.3810    -1.3110 H     1 <1>   0.1500 
 44 H       14.2120     1.9840     2.5840 H     1 <1>   0.1500 
 45 H       13.8990     3.1620     0.1520 H     1 <1>   0.1500 
@<TRIPOS>BOND
  1   1   2  1   
  2   2   3  1   
  3   2   4  1   
  4   2   5  1   
  5   5   6  ar  
  6   5   7  ar  
  7   6   8  1   
  8   6   9  ar  
  9   7  10  ar  
 10   7  28  1   
 11   8  11  am  
 12   8  29  1   
 13   9  12  ar  
 14   9  30  1   
 15  10  12  ar  
 16  10  31  1   
 17  11  13  2   
 18  11  14  1   
 19  12  32  1   
 20  14  15  1   
 21  14  33  1   
 22  14  34  1   
 23  15  16  1   
 24  15  17  1   
 25  16  18  1   
 26  16  35  1   
 27  16  36  1   
 28  17  19  1   
 29  17  37  1   
 30  17  38  1   
 31  18  20  1   
 32  18  39  1   
 33  18  40  1   
 34  19  20  1   
 35  19  41  1   
 36  19  42  1   
 37  20  21  am  
 38  21  22  2   
 39  21  23  1   
 40  23  24  1   
 41  23  25  2   
 42  24  26  1   
 43  25  27  1   
 44  25  43  1   
 45  26  27  2   
 46  26  44  1   
 47  27  45  1   
@<TRIPOS>SUBSTRUCTURE
  1 ****  16 GROUP 4 **** **** 0

# MOE 2024.06 (io_trps.svl 2023.06)
