@<TRIPOS>MOLECULE
NONAME
35 36 1 0 0 
SMALL
USER_CHARGES


@<TRIPOS>ATOM
  1 BR       0.7300    -0.8650     2.3060 Br    1 <1>  -0.1110 
  2 C       -0.3500    -2.2880     1.5780 C.ar  1 <1>   0.1110 
  3 C       -0.0430    -2.8230     0.3350 C.ar  1 <1>   0.0830 
  4 C       -1.4140    -2.7400     2.3310 C.ar  1 <1>  -0.1500 
  5 O        1.0240    -2.3250    -0.3420 O.3   1 <1>  -0.3630 
  6 C       -0.8520    -3.8460    -0.1530 C.ar  1 <1>  -0.1500 
  7 C       -2.2030    -3.7590     1.8240 C.ar  1 <1>  -0.1500 
  8 C        1.4480    -2.8710    -1.5720 C.3   1 <1>   0.0400 
  9 C       -1.9410    -4.3210     0.5760 C.ar  1 <1>  -0.0090 
 10 S       -2.9950    -5.6370    -0.0890 S.o2  1 <1>   1.2950 
 11 O       -2.6030    -5.8900    -1.4620 O.2   1 <1>  -0.6500 
 12 O       -2.9980    -6.7350     0.8560 O.2   1 <1>  -0.6500 
 13 N       -4.5800    -4.8540    -0.0650 N.pl3 1 <1>   0.3170 
 14 C       -5.0220    -3.8110    -0.8250 C.2   1 <1>   0.0060 
 15 C       -5.5770    -5.0420     0.8350 C.2   1 <1>  -0.3020 
 16 N       -6.1820    -3.3590    -0.4640 N.2   1 <1>  -0.5650 
 17 C       -4.2160    -3.2410    -1.9930 C.3   1 <1>   0.0200 
 18 C       -6.5330    -4.1320     0.5730 C.2   1 <1>   0.0460 
 19 C       -4.8970    -2.0520    -2.6840 C.3   1 <1>  -0.2400 
 20 C       -7.8520    -3.9180     1.2780 C.3   1 <1>  -0.0590 
 21 H       -1.6180    -2.3030     3.2930 H     1 <1>   0.1500 
 22 H       -0.6450    -4.2890    -1.1100 H     1 <1>   0.1500 
 23 H       -3.0310    -4.1180     2.4140 H     1 <1>   0.1500 
 24 H        2.3240    -2.3350    -1.8900 H     1 <1>   0.0800 
 25 H        0.6640    -2.7520    -2.2980 H     1 <1>   0.0800 
 26 H        1.6890    -3.9100    -1.4290 H     1 <1>   0.0800 
 27 H       -5.5380    -5.8050     1.5920 H     1 <1>   0.1500 
 28 H       -4.0640    -4.0170    -2.7240 H     1 <1>   0.0800 
 29 H       -3.2540    -2.9180    -1.6410 H     1 <1>   0.0800 
 30 H       -5.8550    -2.3500    -3.0720 H     1 <1>   0.0800 
 31 H       -4.2900    -1.6930    -3.4950 H     1 <1>   0.0800 
 32 H       -5.0480    -1.2520    -1.9800 H     1 <1>   0.0800 
 33 H       -7.9680    -4.6240     2.0790 H     1 <1>   0.0800 
 34 H       -8.6580    -4.0440     0.5780 H     1 <1>   0.0800 
 35 H       -7.8910    -2.9210     1.6770 H     1 <1>   0.0800 
@<TRIPOS>BOND
  1   1   2  1   
  2   2   3  ar  
  3   2   4  ar  
  4   3   5  1   
  5   3   6  ar  
  6   4   7  ar  
  7   4  21  1   
  8   5   8  1   
  9   6   9  ar  
 10   6  22  1   
 11   7   9  ar  
 12   7  23  1   
 13   8  24  1   
 14   8  25  1   
 15   8  26  1   
 16   9  10  1   
 17  10  11  2   
 18  10  12  2   
 19  10  13  1   
 20  13  14  1   
 21  13  15  1   
 22  14  16  2   
 23  14  17  1   
 24  15  18  2   
 25  15  27  1   
 26  16  18  1   
 27  17  19  1   
 28  17  28  1   
 29  17  29  1   
 30  18  20  1   
 31  19  30  1   
 32  19  31  1   
 33  19  32  1   
 34  20  33  1   
 35  20  34  1   
 36  20  35  1   
@<TRIPOS>SUBSTRUCTURE
  1 ****   9 GROUP 4 **** **** 0

# MOE 2024.06 (io_trps.svl 2023.06)
