@<TRIPOS>MOLECULE
NONAME
38 39 1 0 0 
SMALL
USER_CHARGES


@<TRIPOS>ATOM
  1 BR       0.5090    -0.3410     1.9430 Br    1 <1>  -0.1110 
  2 C        0.6020     1.2620     0.8820 C.ar  1 <1>   0.1110 
  3 C        1.7010     2.0870     1.0190 C.ar  1 <1>  -0.1500 
  4 C       -0.4330     1.5450     0.0120 C.ar  1 <1>  -0.1500 
  5 C        1.7720     3.2450     0.2570 C.ar  1 <1>  -0.1440 
  6 C       -0.3560     2.6990    -0.7490 C.ar  1 <1>  -0.1500 
  7 C        0.7400     3.5410    -0.6260 C.ar  1 <1>  -0.1500 
  8 C        2.9690     4.1720     0.3940 C.3   1 <1>   0.3530 
  9 N        4.1840     3.4550    -0.0380 N.pl3 1 <1>  -0.8690 
 10 C        5.3870     3.4310     0.5860 C.2   1 <1>  -0.0500 
 11 C        6.5080     2.7330     0.1810 C.2   1 <1>   0.0290 
 12 C        7.7010     2.8170     0.9690 C.2   1 <1>   0.4950 
 13 C        6.5300     1.9200    -1.0050 C.2   1 <1>   0.4950 
 14 O        7.7940     3.4960     1.9650 O.2   1 <1>  -0.5700 
 15 C        8.9590     2.0540     0.5890 C.3   1 <1>  -0.0990 
 16 O        5.6010     1.7910    -1.7710 O.2   1 <1>  -0.5700 
 17 C        7.7810     1.1520    -1.4020 C.3   1 <1>  -0.0990 
 18 C        8.6700     0.7770    -0.2090 C.3   1 <1>   0.0000 
 19 C        7.9730    -0.2730     0.6780 C.3   1 <1>  -0.2400 
 20 C        9.9900     0.1780    -0.7190 C.3   1 <1>  -0.2400 
 21 H        2.4910     1.8280     1.7020 H     1 <1>   0.1500 
 22 H       -1.2720     0.8780    -0.0680 H     1 <1>   0.1500 
 23 H       -1.1470     2.9410    -1.4380 H     1 <1>   0.1500 
 24 H        0.7840     4.4320    -1.2280 H     1 <1>   0.1500 
 25 H        3.0740     4.4870     1.4180 H     1 <1>   0.0800 
 26 H        2.8390     5.0460    -0.2210 H     1 <1>   0.0800 
 27 H        4.0530     2.8940    -0.9010 H     1 <1>   0.4000 
 28 H        5.4570     4.0210     1.4890 H     1 <1>   0.1500 
 29 H        9.5810     2.7170     0.0150 H     1 <1>   0.0800 
 30 H        9.4980     1.8050     1.4870 H     1 <1>   0.0800 
 31 H        7.4870     0.2590    -1.9260 H     1 <1>   0.0800 
 32 H        8.3300     1.7630    -2.0950 H     1 <1>   0.0800 
 33 H        8.6010    -0.5370     1.5110 H     1 <1>   0.0800 
 34 H        7.7750    -1.1680     0.1150 H     1 <1>   0.0800 
 35 H        7.0380     0.0850     1.0680 H     1 <1>   0.0800 
 36 H       10.5140     0.8780    -1.3460 H     1 <1>   0.0800 
 37 H        9.8060    -0.7140    -1.2920 H     1 <1>   0.0800 
 38 H       10.6320    -0.0800     0.1060 H     1 <1>   0.0800 
@<TRIPOS>BOND
  1   1   2  1   
  2   2   3  ar  
  3   2   4  ar  
  4   3   5  ar  
  5   3  21  1   
  6   4   6  ar  
  7   4  22  1   
  8   5   7  ar  
  9   5   8  1   
 10   6   7  ar  
 11   6  23  1   
 12   7  24  1   
 13   8   9  1   
 14   8  25  1   
 15   8  26  1   
 16   9  10  1   
 17   9  27  1   
 18  10  11  2   
 19  10  28  1   
 20  11  12  1   
 21  11  13  1   
 22  12  14  2   
 23  12  15  1   
 24  13  16  2   
 25  13  17  1   
 26  15  18  1   
 27  15  29  1   
 28  15  30  1   
 29  17  18  1   
 30  17  31  1   
 31  17  32  1   
 32  18  19  1   
 33  18  20  1   
 34  19  33  1   
 35  19  34  1   
 36  19  35  1   
 37  20  36  1   
 38  20  37  1   
 39  20  38  1   
@<TRIPOS>SUBSTRUCTURE
  1 ****   9 GROUP 4 **** **** 0

# MOE 2024.06 (io_trps.svl 2023.06)
