@<TRIPOS>MOLECULE
NONAME
42 42 1 0 0 
SMALL
USER_CHARGES


@<TRIPOS>ATOM
  1 O        0.4040     0.7460     1.0770 O.2   1 <1>  -0.5700 
  2 C        0.6200     1.8490     0.6110 C.2   1 <1>   0.8050 
  3 O       -0.3670     2.7470     0.5910 O.3   1 <1>  -0.4300 
  4 C        1.9060     2.2070     0.0780 C.2   1 <1>  -0.2370 
  5 C       -1.6490     2.4490     1.0920 C.3   1 <1>   0.1200 
  6 N        2.8950     1.2670     0.0540 N.pl3 1 <1>   0.0330 
  7 C        2.4340     3.3510    -0.4690 C.2   1 <1>  -0.1810 
  8 C       -2.5230     3.6870     0.9180 C.3   1 <1>  -0.2400 
  9 C        4.0030     1.7920    -0.4980 C.2   1 <1>  -0.3320 
 10 C        3.7740     3.1090    -0.8360 C.2   1 <1>  -0.0860 
 11 C        1.7500     4.6950    -0.6780 C.3   1 <1>  -0.0590 
 12 C        5.2480     0.9420    -0.7000 C.3   1 <1>  -0.0600 
 13 C        4.6650     4.0780    -1.4310 C.2   1 <1>   0.5950 
 14 O        4.3320     4.8440    -2.3030 O.2   1 <1>  -0.5700 
 15 C        6.0990     4.1740    -0.9260 C.3   1 <1>  -0.0990 
 16 C        6.4580     5.5850    -0.4310 C.3   1 <1>  -0.1600 
 17 C        7.8960     5.6440     0.0990 C.3   1 <1>  -0.1600 
 18 C        8.2460     7.0530     0.5880 C.3   1 <1>  -0.1600 
 19 C        9.6820     7.1130     1.1160 C.3   1 <1>  -0.2400 
 20 H       -1.5560     2.1830     2.1320 H     1 <1>   0.0800 
 21 H       -2.0460     1.6140     0.5390 H     1 <1>   0.0800 
 22 H        2.7630     0.3070     0.3980 H     1 <1>   0.2700 
 23 H       -2.1070     4.5130     1.4670 H     1 <1>   0.0800 
 24 H       -3.5110     3.4890     1.2920 H     1 <1>   0.0800 
 25 H       -2.5950     3.9450    -0.1230 H     1 <1>   0.0800 
 26 H        0.8260     4.7640    -0.1400 H     1 <1>   0.0800 
 27 H        1.5530     4.8400    -1.7250 H     1 <1>   0.0800 
 28 H        2.3910     5.4890    -0.3390 H     1 <1>   0.0800 
 29 H        4.9760    -0.0230    -1.0890 H     1 <1>   0.0800 
 30 H        5.7600     0.8060     0.2360 H     1 <1>   0.0800 
 31 H        5.9190     1.4020    -1.4030 H     1 <1>   0.0800 
 32 H        6.7560     3.8940    -1.7290 H     1 <1>   0.0800 
 33 H        6.2370     3.4820    -0.1170 H     1 <1>   0.0800 
 34 H        5.7730     5.8710     0.3500 H     1 <1>   0.0800 
 35 H        6.3450     6.2850    -1.2430 H     1 <1>   0.0800 
 36 H        8.5790     5.3600    -0.6850 H     1 <1>   0.0800 
 37 H        8.0090     4.9460     0.9120 H     1 <1>   0.0800 
 38 H        7.5680     7.3440     1.3730 H     1 <1>   0.0800 
 39 H        8.1370     7.7550    -0.2220 H     1 <1>   0.0800 
 40 H        9.8080     6.4360     1.9420 H     1 <1>   0.0800 
 41 H        9.9080     8.1090     1.4530 H     1 <1>   0.0800 
 42 H       10.3790     6.8490     0.3400 H     1 <1>   0.0800 
@<TRIPOS>BOND
  1   1   2  2   
  2   2   3  1   
  3   2   4  1   
  4   3   5  1   
  5   4   6  1   
  6   4   7  2   
  7   5   8  1   
  8   5  20  1   
  9   5  21  1   
 10   6   9  1   
 11   6  22  1   
 12   7  10  1   
 13   7  11  1   
 14   8  23  1   
 15   8  24  1   
 16   8  25  1   
 17   9  10  2   
 18   9  12  1   
 19  10  13  1   
 20  11  26  1   
 21  11  27  1   
 22  11  28  1   
 23  12  29  1   
 24  12  30  1   
 25  12  31  1   
 26  13  14  2   
 27  13  15  1   
 28  15  16  1   
 29  15  32  1   
 30  15  33  1   
 31  16  17  1   
 32  16  34  1   
 33  16  35  1   
 34  17  18  1   
 35  17  36  1   
 36  17  37  1   
 37  18  19  1   
 38  18  38  1   
 39  18  39  1   
 40  19  40  1   
 41  19  41  1   
 42  19  42  1   
@<TRIPOS>SUBSTRUCTURE
  1 ****  10 GROUP 4 **** **** 0

# MOE 2024.06 (io_trps.svl 2023.06)
