@<TRIPOS>MOLECULE
NONAME
44 45 1 0 0 
SMALL
USER_CHARGES


@<TRIPOS>ATOM
  1 CL       1.7700     0.6180     2.1050 Cl    1 <1>  -0.1770 
  2 C        2.6310     1.3790     0.7850 C.ar  1 <1>   0.1770 
  3 C        2.3230     2.6750     0.3900 C.ar  1 <1>   0.0820 
  4 C        3.6230     0.6440     0.1610 C.ar  1 <1>  -0.1500 
  5 O        1.3300     3.3430     1.0280 O.3   1 <1>  -0.3630 
  6 C        3.0580     3.2480    -0.6570 C.ar  1 <1>   0.0820 
  7 C        4.3410     1.2060    -0.8840 C.ar  1 <1>  -0.1440 
  8 C        0.0250     3.1180     0.5470 C.3   1 <1>   0.1200 
  9 O        2.9040     4.5100    -1.1400 O.3   1 <1>  -0.3630 
 10 C        4.0420     2.5010    -1.2870 C.ar  1 <1>  -0.1500 
 11 C        5.4450     0.4250    -1.5720 C.3   1 <1>   0.4860 
 12 C       -0.9350     3.9710     1.3690 C.3   1 <1>  -0.2400 
 13 C        2.4580     5.5660    -0.3160 C.3   1 <1>   0.1200 
 14 N        6.7460     1.0060    -1.1790 N.4   1 <1>  -0.9060 
 15 C        2.8710     6.8800    -0.9710 C.3   1 <1>  -0.2400 
 16 C        7.0250     0.9880     0.2840 C.3   1 <1>   0.4860 
 17 C        8.5360     1.0570     0.4790 C.ar  1 <1>   0.1670 
 18 N        9.2680     0.4350    -0.4420 N.ar  1 <1>  -0.6200 
 19 C        9.0640     1.7430     1.5630 C.ar  1 <1>  -0.1500 
 20 C       10.5810     0.4950    -0.2630 C.ar  1 <1>   0.1600 
 21 C       10.4310     1.7980     1.7290 C.ar  1 <1>  -0.1500 
 22 C       11.2000     1.1530     0.7860 C.ar  1 <1>  -0.1500 
 23 H        3.8100    -0.3590     0.5060 H     1 <1>   0.1500 
 24 H       -0.2080     2.0720     0.6540 H     1 <1>   0.0800 
 25 H       -0.0080     3.3940    -0.4940 H     1 <1>   0.0800 
 26 H        4.5680     2.9650    -2.1040 H     1 <1>   0.1500 
 27 H        5.3200     0.4850    -2.6420 H     1 <1>   0.0800 
 28 H        5.3980    -0.6130    -1.2820 H     1 <1>   0.0800 
 29 H       -0.8820     3.6910     2.4060 H     1 <1>   0.0800 
 30 H       -1.9420     3.8190     1.0240 H     1 <1>   0.0800 
 31 H       -0.6910     5.0130     1.2650 H     1 <1>   0.0800 
 32 H        2.9100     5.4640     0.6560 H     1 <1>   0.0800 
 33 H        1.3880     5.5070    -0.2340 H     1 <1>   0.0800 
 34 H        6.8360     1.9670    -1.5180 H     1 <1>   0.4500 
 35 H        7.5450     0.4870    -1.5840 H     1 <1>   0.4500 
 36 H        3.9400     6.9310    -1.0630 H     1 <1>   0.0800 
 37 H        2.5400     7.7050    -0.3670 H     1 <1>   0.0800 
 38 H        2.4200     6.9670    -1.9440 H     1 <1>   0.0800 
 39 H        6.6700     0.0670     0.7140 H     1 <1>   0.0800 
 40 H        6.5380     1.8140     0.7760 H     1 <1>   0.0800 
 41 H        8.4270     2.2320     2.2800 H     1 <1>   0.1500 
 42 H       11.2030    -0.0050    -0.9890 H     1 <1>   0.1500 
 43 H       10.8820     2.3200     2.5580 H     1 <1>   0.1500 
 44 H       12.2740     1.1580     0.8620 H     1 <1>   0.1500 
@<TRIPOS>BOND
  1   1   2  1   
  2   2   3  ar  
  3   2   4  ar  
  4   3   5  1   
  5   3   6  ar  
  6   4   7  ar  
  7   4  23  1   
  8   5   8  1   
  9   6   9  1   
 10   6  10  ar  
 11   7  10  ar  
 12   7  11  1   
 13   8  12  1   
 14   8  24  1   
 15   8  25  1   
 16   9  13  1   
 17  10  26  1   
 18  11  14  1   
 19  11  27  1   
 20  11  28  1   
 21  12  29  1   
 22  12  30  1   
 23  12  31  1   
 24  13  15  1   
 25  13  32  1   
 26  13  33  1   
 27  14  16  1   
 28  14  34  1   
 29  14  35  1   
 30  15  36  1   
 31  15  37  1   
 32  15  38  1   
 33  16  17  1   
 34  16  39  1   
 35  16  40  1   
 36  17  18  ar  
 37  17  19  ar  
 38  18  20  ar  
 39  19  21  ar  
 40  19  41  1   
 41  20  22  ar  
 42  20  42  1   
 43  21  22  ar  
 44  21  43  1   
 45  22  44  1   
@<TRIPOS>SUBSTRUCTURE
  1 ****   7 GROUP 4 **** **** 0

# MOE 2024.06 (io_trps.svl 2023.06)
