@<TRIPOS>MOLECULE
NONAME
34 35 1 0 0 
SMALL
USER_CHARGES


@<TRIPOS>ATOM
  1 O        0.2550    -1.0310     0.0760 O.2   1 <1>  -0.7500 
  2 N       -0.1190     0.1520     0.6700 N.4   1 <1>  -0.1220 
  3 C       -1.0580     0.9700    -0.1320 C.3   1 <1>   0.3170 
  4 C        0.9640     1.0810     1.1270 C.3   1 <1>   0.5660 
  5 C       -0.7590     2.3360     0.4730 C.2   1 <1>   0.3280 
  6 C       -2.4860     0.4620     0.1160 C.3   1 <1>  -0.2400 
  7 C       -0.7300     0.9420    -1.6380 C.3   1 <1>  -0.2400 
  8 N        0.2890     2.3840     1.1560 N.2   1 <1>  -0.6960 
  9 C        2.2350     1.1250     0.2520 C.ar  1 <1>  -0.1440 
 10 C       -1.6700     3.5330     0.2310 C.3   1 <1>  -0.0990 
 11 C        2.6650     2.2800    -0.4000 C.ar  1 <1>  -0.1500 
 12 C        3.0110    -0.0210     0.1240 C.ar  1 <1>  -0.1500 
 13 C       -2.7550     3.6880     1.3060 C.3   1 <1>  -0.2400 
 14 C        3.8240     2.2820    -1.1580 C.ar  1 <1>  -0.1500 
 15 C        4.1700    -0.0230    -0.6320 C.ar  1 <1>  -0.1500 
 16 C        4.5790     1.1300    -1.2750 C.ar  1 <1>  -0.1500 
 17 H       -0.6140    -0.1060     1.5230 H     1 <1>   0.3600 
 18 H        1.2410     0.8090     2.1300 H     1 <1>   0.0800 
 19 H       -2.7370     0.5080     1.1600 H     1 <1>   0.0800 
 20 H       -2.5710    -0.5570    -0.2200 H     1 <1>   0.0800 
 21 H       -3.1940     1.0540    -0.4340 H     1 <1>   0.0800 
 22 H        0.2870     1.2440    -1.8100 H     1 <1>   0.0800 
 23 H       -1.3800     1.6010    -2.1810 H     1 <1>   0.0800 
 24 H       -0.8580    -0.0530    -2.0270 H     1 <1>   0.0800 
 25 H       -2.1200     3.4620    -0.7430 H     1 <1>   0.0800 
 26 H       -1.0590     4.4190     0.2380 H     1 <1>   0.0800 
 27 H        2.1090     3.1970    -0.3260 H     1 <1>   0.1500 
 28 H        2.7040    -0.9330     0.6080 H     1 <1>   0.1500 
 29 H       -3.4370     2.8580     1.2970 H     1 <1>   0.0800 
 30 H       -3.3160     4.5890     1.1320 H     1 <1>   0.0800 
 31 H       -2.3020     3.7540     2.2800 H     1 <1>   0.0800 
 32 H        4.1380     3.1830    -1.6550 H     1 <1>   0.1500 
 33 H        4.7480    -0.9250    -0.7220 H     1 <1>   0.1500 
 34 H        5.4790     1.1300    -1.8640 H     1 <1>   0.1500 
@<TRIPOS>BOND
  1   1   2  2   
  2   2   3  1   
  3   2   4  1   
  4   2  17  1   
  5   3   5  1   
  6   3   6  1   
  7   3   7  1   
  8   4   8  1   
  9   4   9  1   
 10   4  18  1   
 11   5   8  2   
 12   5  10  1   
 13   6  19  1   
 14   6  20  1   
 15   6  21  1   
 16   7  22  1   
 17   7  23  1   
 18   7  24  1   
 19   9  11  ar  
 20   9  12  ar  
 21  10  13  1   
 22  10  25  1   
 23  10  26  1   
 24  11  14  ar  
 25  11  27  1   
 26  12  15  ar  
 27  12  28  1   
 28  13  29  1   
 29  13  30  1   
 30  13  31  1   
 31  14  16  ar  
 32  14  32  1   
 33  15  16  ar  
 34  15  33  1   
 35  16  34  1   
@<TRIPOS>SUBSTRUCTURE
  1 ****   4 GROUP 4 **** **** 0

# MOE 2024.06 (io_trps.svl 2023.06)
