@<TRIPOS>MOLECULE
NONAME
49 50 1 0 0 
SMALL
USER_CHARGES


@<TRIPOS>ATOM
  1 CL       0.9210     1.7900    -1.7270 Cl    1 <1>  -0.1770 
  2 C        2.4110     1.5890    -0.8360 C.ar  1 <1>   0.1770 
  3 C        2.7080     2.4320     0.2270 C.ar  1 <1>  -0.1440 
  4 C        3.2670     0.5770    -1.2180 C.ar  1 <1>  -0.1500 
  5 C        3.9000     2.2360     0.9090 C.ar  1 <1>  -0.1500 
  6 C        1.7580     3.5450     0.6410 C.3   1 <1>  -0.0960 
  7 C        4.4570     0.3800    -0.5330 C.ar  1 <1>   0.1990 
  8 C        4.7620     1.2210     0.5320 C.ar  1 <1>  -0.1500 
  9 N        5.3030    -0.6520    -0.9110 N.am  1 <1>  -0.6930 
 10 S        5.4320    -2.0880     0.0450 S.o2  1 <1>   1.4470 
 11 C        6.4470    -0.3410    -1.8260 C.3   1 <1>   0.2570 
 12 O        6.1180    -3.0480    -0.7870 O.2   1 <1>  -0.6500 
 13 O        6.0380    -1.6600     1.2860 O.2   1 <1>  -0.6500 
 14 C        3.6980    -2.5680     0.2660 C.ar  1 <1>  -0.0090 
 15 C        7.6600     0.3410    -1.1770 C.2   1 <1>   0.5690 
 16 C        2.9290    -2.0240     1.2880 C.ar  1 <1>  -0.1500 
 17 C        3.0810    -3.4600    -0.6040 C.ar  1 <1>  -0.1500 
 18 O        8.2790     1.1260    -1.8570 O.2   1 <1>  -0.5700 
 19 N        8.0140     0.0550     0.1110 N.am  1 <1>  -0.7300 
 20 C        1.5940    -2.3570     1.4380 C.ar  1 <1>  -0.1500 
 21 C        1.7470    -3.7980    -0.4590 C.ar  1 <1>  -0.1500 
 22 C        9.1370     0.5860     0.9020 C.3   1 <1>   0.2200 
 23 C        0.9950    -3.2460     0.5630 C.ar  1 <1>  -0.1430 
 24 C        8.9770     2.0920     1.0930 C.3   1 <1>  -0.2400 
 25 C       10.4650     0.2240     0.2420 C.3   1 <1>  -0.2400 
 26 C       -0.4700    -3.6120     0.7270 C.3   1 <1>  -0.0970 
 27 H        3.0070    -0.0610    -2.0420 H     1 <1>   0.1500 
 28 H        4.1630     2.8720     1.7370 H     1 <1>   0.1500 
 29 H        0.8050     3.1310     0.9180 H     1 <1>   0.0800 
 30 H        1.6130     4.2270    -0.1780 H     1 <1>   0.0800 
 31 H        2.1480     4.0960     1.4780 H     1 <1>   0.0800 
 32 H        5.6800     1.0790     1.0720 H     1 <1>   0.1500 
 33 H        6.0890     0.3120    -2.6020 H     1 <1>   0.0800 
 34 H        6.7860    -1.2400    -2.3060 H     1 <1>   0.0800 
 35 H        3.3780    -1.3270     1.9760 H     1 <1>   0.1500 
 36 H        3.6510    -3.8970    -1.4070 H     1 <1>   0.1500 
 37 H        7.4180    -0.5900     0.6480 H     1 <1>   0.3700 
 38 H        1.0230    -1.9200     2.2390 H     1 <1>   0.1500 
 39 H        1.2970    -4.4940    -1.1460 H     1 <1>   0.1500 
 40 H        9.1050     0.1160     1.8720 H     1 <1>   0.0800 
 41 H        9.0430     2.6050     0.1500 H     1 <1>   0.0800 
 42 H        9.7560     2.4630     1.7330 H     1 <1>   0.0800 
 43 H        8.0290     2.3100     1.5490 H     1 <1>   0.0800 
 44 H       10.5650     0.7150    -0.7100 H     1 <1>   0.0800 
 45 H       10.5310    -0.8390     0.1010 H     1 <1>   0.0800 
 46 H       11.2800     0.5360     0.8680 H     1 <1>   0.0800 
 47 H       -1.0270    -2.7690     1.0940 H     1 <1>   0.0800 
 48 H       -0.5660    -4.4240     1.4240 H     1 <1>   0.0800 
 49 H       -0.8920    -3.9110    -0.2150 H     1 <1>   0.0800 
@<TRIPOS>BOND
  1   1   2  1   
  2   2   3  ar  
  3   2   4  ar  
  4   3   5  ar  
  5   3   6  1   
  6   4   7  ar  
  7   4  27  1   
  8   5   8  ar  
  9   5  28  1   
 10   6  29  1   
 11   6  30  1   
 12   6  31  1   
 13   7   8  ar  
 14   7   9  1   
 15   8  32  1   
 16   9  10  am  
 17   9  11  1   
 18  10  12  2   
 19  10  13  2   
 20  10  14  1   
 21  11  15  1   
 22  11  33  1   
 23  11  34  1   
 24  14  16  ar  
 25  14  17  ar  
 26  15  18  2   
 27  15  19  am  
 28  16  20  ar  
 29  16  35  1   
 30  17  21  ar  
 31  17  36  1   
 32  19  22  1   
 33  19  37  1   
 34  20  23  ar  
 35  20  38  1   
 36  21  23  ar  
 37  21  39  1   
 38  22  24  1   
 39  22  25  1   
 40  22  40  1   
 41  23  26  1   
 42  24  41  1   
 43  24  42  1   
 44  24  43  1   
 45  25  44  1   
 46  25  45  1   
 47  25  46  1   
 48  26  47  1   
 49  26  48  1   
 50  26  49  1   
@<TRIPOS>SUBSTRUCTURE
  1 ****   7 GROUP 4 **** **** 0

# MOE 2024.06 (io_trps.svl 2023.06)
