@<TRIPOS>MOLECULE
NONAME
32 32 1 0 0 
SMALL
USER_CHARGES


@<TRIPOS>ATOM
  1 CL       0.2130     0.0830    -0.2860 Cl    1 <1>  -0.1770 
  2 C       -1.3420     0.8800    -0.2480 C.ar  1 <1>   0.1770 
  3 C       -2.5080     0.1520    -0.4120 C.ar  1 <1>  -0.1440 
  4 C       -1.3760     2.2460    -0.0550 C.ar  1 <1>  -0.1500 
  5 C       -3.7150     0.8300    -0.3710 C.ar  1 <1>  -0.1500 
  6 C       -2.4730    -1.3530    -0.6340 C.3   1 <1>  -0.0960 
  7 C       -2.5910     2.9140    -0.0170 C.ar  1 <1>  -0.1430 
  8 C       -3.7900     2.2080    -0.1640 C.ar  1 <1>  -0.0090 
  9 C       -2.5760     4.4250     0.1840 C.3   1 <1>  -0.0960 
 10 S       -5.4120     3.0400    -0.1240 S.o2  1 <1>   1.4470 
 11 O       -5.5380     3.9010     1.0270 O.2   1 <1>  -0.6500 
 12 O       -5.7480     3.5530    -1.4320 O.2   1 <1>  -0.6500 
 13 N       -6.5250     1.8300     0.1990 N.am  1 <1>  -0.9140 
 14 C       -7.8970     2.2420    -0.1590 C.3   1 <1>   0.2570 
 15 C       -8.9910     1.4130     0.5220 C.2   1 <1>   0.6590 
 16 O       -8.8590     1.0000     1.6480 O.2   1 <1>  -0.5700 
 17 O      -10.0900     1.1900    -0.1900 O.3   1 <1>  -0.4300 
 18 C      -11.1710     0.4410     0.3300 C.3   1 <1>   0.0400 
 19 H       -0.4470     2.7740     0.0630 H     1 <1>   0.1500 
 20 H       -4.6250     0.2710    -0.5070 H     1 <1>   0.1500 
 21 H       -1.9160    -1.5800    -1.5260 H     1 <1>   0.0800 
 22 H       -3.4650    -1.7530    -0.7410 H     1 <1>   0.0800 
 23 H       -1.9990    -1.8370     0.2010 H     1 <1>   0.0800 
 24 H       -1.5750     4.8130     0.1260 H     1 <1>   0.0800 
 25 H       -2.9760     4.6750     1.1510 H     1 <1>   0.0800 
 26 H       -3.1630     4.9130    -0.5740 H     1 <1>   0.0800 
 27 H       -6.5210     1.7550     1.2190 H     1 <1>   0.4200 
 28 H       -8.0190     2.1700    -1.2260 H     1 <1>   0.0800 
 29 H       -8.0550     3.2680     0.1240 H     1 <1>   0.0800 
 30 H      -11.9420     0.3890    -0.4180 H     1 <1>   0.0800 
 31 H      -11.5420     0.9310     1.2130 H     1 <1>   0.0800 
 32 H      -10.8230    -0.5480     0.5740 H     1 <1>   0.0800 
@<TRIPOS>BOND
  1   1   2  1   
  2   2   3  ar  
  3   2   4  ar  
  4   3   5  ar  
  5   3   6  1   
  6   4   7  ar  
  7   4  19  1   
  8   5   8  ar  
  9   5  20  1   
 10   6  21  1   
 11   6  22  1   
 12   6  23  1   
 13   7   8  ar  
 14   7   9  1   
 15   8  10  1   
 16   9  24  1   
 17   9  25  1   
 18   9  26  1   
 19  10  11  2   
 20  10  12  2   
 21  10  13  am  
 22  13  14  1   
 23  13  27  1   
 24  14  15  1   
 25  14  28  1   
 26  14  29  1   
 27  15  16  2   
 28  15  17  1   
 29  17  18  1   
 30  18  30  1   
 31  18  31  1   
 32  18  32  1   
@<TRIPOS>SUBSTRUCTURE
  1 ****   8 GROUP 4 **** **** 0

# MOE 2024.06 (io_trps.svl 2023.06)
