@<TRIPOS>MOLECULE
NONAME
49 50 1 0 0 
SMALL
USER_CHARGES


@<TRIPOS>ATOM
  1 O       -0.1650    -0.0700     1.2410 O.2   1 <1>  -0.5700 
  2 C       -0.0280    -1.0160     0.4900 C.2   1 <1>   0.6900 
  3 N        1.1890    -1.5490     0.1890 N.am  1 <1>  -0.5470 
  4 N       -1.1240    -1.5760    -0.0810 N.am  1 <1>  -0.7300 
  5 C        2.4860    -1.1220     0.5120 C.ar  1 <1>   0.1170 
  6 C       -2.4910    -1.1190     0.2080 C.3   1 <1>   0.2200 
  7 C        3.5180    -2.0550     0.4980 C.ar  1 <1>  -0.1500 
  8 C        2.7940     0.1980     0.8250 C.ar  1 <1>  -0.1500 
  9 C       -3.4740    -2.2650     0.0070 C.3   1 <1>  -0.1600 
 10 C       -2.8450     0.0300    -0.7310 C.3   1 <1>  -0.1600 
 11 C        4.8210    -1.6910     0.7930 C.ar  1 <1>  -0.1430 
 12 C        4.0930     0.5700     1.1210 C.ar  1 <1>  -0.1500 
 13 C       -4.9230    -1.8240     0.2650 C.3   1 <1>   0.5030 
 14 C       -4.2670     0.5470    -0.4900 C.3   1 <1>   0.5030 
 15 C        5.1050    -0.3720     1.1040 C.ar  1 <1>  -0.1500 
 16 C        5.9390    -2.7180     0.7770 C.3   1 <1>  -0.0970 
 17 N       -5.2360    -0.5630    -0.4320 N.4   1 <1>  -0.9060 
 18 C       -5.2250    -1.6830     1.7590 C.3   1 <1>  -0.2400 
 19 C       -5.8820    -2.8610    -0.3160 C.3   1 <1>  -0.2400 
 20 C       -4.7030     1.4100    -1.6720 C.3   1 <1>  -0.2400 
 21 C       -4.3650     1.3970     0.7800 C.3   1 <1>  -0.2400 
 22 H        1.1470    -2.4620    -0.2480 H     1 <1>   0.3700 
 23 H       -0.9950    -2.2250    -0.8540 H     1 <1>   0.3700 
 24 H       -2.5250    -0.7840     1.2320 H     1 <1>   0.0800 
 25 H        3.2970    -3.0770     0.2580 H     1 <1>   0.1500 
 26 H        2.0210     0.9440     0.8380 H     1 <1>   0.1500 
 27 H       -3.2230    -3.0700     0.6760 H     1 <1>   0.0800 
 28 H       -3.3840    -2.6360    -0.9990 H     1 <1>   0.0800 
 29 H       -2.7430    -0.3000    -1.7490 H     1 <1>   0.0800 
 30 H       -2.1470     0.8370    -0.5800 H     1 <1>   0.0800 
 31 H        4.3140     1.5950     1.3640 H     1 <1>   0.1500 
 32 H        6.1130    -0.0740     1.3350 H     1 <1>   0.1500 
 33 H        5.5430    -3.7170     0.7480 H     1 <1>   0.0800 
 34 H        6.5430    -2.6180     1.6610 H     1 <1>   0.0800 
 35 H        6.5600    -2.5670    -0.0880 H     1 <1>   0.0800 
 36 H       -6.1060    -0.1960    -0.0420 H     1 <1>   0.4500 
 37 H       -5.4410    -0.8120    -1.4000 H     1 <1>   0.4500 
 38 H       -4.5090    -1.0700     2.2690 H     1 <1>   0.0800 
 39 H       -5.1810    -2.6510     2.2280 H     1 <1>   0.0800 
 40 H       -6.2110    -1.2880     1.9240 H     1 <1>   0.0800 
 41 H       -5.7350    -2.9840    -1.3750 H     1 <1>   0.0800 
 42 H       -6.9070    -2.5900    -0.1320 H     1 <1>   0.0800 
 43 H       -5.7120    -3.8180     0.1470 H     1 <1>   0.0800 
 44 H       -4.6790     0.8560    -2.5940 H     1 <1>   0.0800 
 45 H       -4.0330     2.2450    -1.7810 H     1 <1>   0.0800 
 46 H       -5.6930     1.8050    -1.5230 H     1 <1>   0.0800 
 47 H       -3.9470     0.9090     1.6370 H     1 <1>   0.0800 
 48 H       -5.3820     1.6750     0.9900 H     1 <1>   0.0800 
 49 H       -3.8010     2.3040     0.6490 H     1 <1>   0.0800 
@<TRIPOS>BOND
  1   1   2  2   
  2   2   3  am  
  3   2   4  am  
  4   3   5  1   
  5   3  22  1   
  6   4   6  1   
  7   4  23  1   
  8   5   7  ar  
  9   5   8  ar  
 10   6   9  1   
 11   6  10  1   
 12   6  24  1   
 13   7  11  ar  
 14   7  25  1   
 15   8  12  ar  
 16   8  26  1   
 17   9  13  1   
 18   9  27  1   
 19   9  28  1   
 20  10  14  1   
 21  10  29  1   
 22  10  30  1   
 23  11  15  ar  
 24  11  16  1   
 25  12  15  ar  
 26  12  31  1   
 27  13  17  1   
 28  13  18  1   
 29  13  19  1   
 30  14  17  1   
 31  14  20  1   
 32  14  21  1   
 33  15  32  1   
 34  16  33  1   
 35  16  34  1   
 36  16  35  1   
 37  17  36  1   
 38  17  37  1   
 39  18  38  1   
 40  18  39  1   
 41  18  40  1   
 42  19  41  1   
 43  19  42  1   
 44  19  43  1   
 45  20  44  1   
 46  20  45  1   
 47  20  46  1   
 48  21  47  1   
 49  21  48  1   
 50  21  49  1   
@<TRIPOS>SUBSTRUCTURE
  1 ****   2 GROUP 4 **** **** 0

# MOE 2024.06 (io_trps.svl 2023.06)
