@<TRIPOS>MOLECULE
NONAME
40 41 1 0 0 
SMALL
USER_CHARGES


@<TRIPOS>ATOM
  1 S       -0.2310    -0.0090    -0.0820 S.o2  1 <1>   1.3330 
  2 O       -0.1890     0.3350    -1.4860 O.2   1 <1>  -0.6500 
  3 O       -0.2700     1.0390     0.9140 O.2   1 <1>  -0.6500 
  4 N        1.1080    -0.9900     0.2500 N.am  1 <1>  -0.8490 
  5 C       -1.6110    -1.1180     0.2200 C.3   1 <1>  -0.0550 
  6 C        1.5180    -1.8120    -0.9100 C.3   1 <1>   0.1960 
  7 C        2.2650    -0.1990     0.7180 C.3   1 <1>   0.1960 
  8 C       -2.9870    -0.4690    -0.0030 C.3   1 <1>  -0.1600 
  9 C        2.7010    -2.7410    -0.5790 C.3   1 <1>   0.2090 
 10 C        3.4800    -1.0800     1.0750 C.3   1 <1>   0.2090 
 11 C       -4.1220    -1.4630     0.2680 C.3   1 <1>  -0.1600 
 12 N        3.8680    -1.9650    -0.0600 N.pl3 1 <1>  -0.8380 
 13 C       -5.4870    -0.8090     0.0430 C.3   1 <1>  -0.2400 
 14 C        5.0790    -2.6200     0.0580 C.ar  1 <1>   0.4100 
 15 N        5.0470    -3.9200     0.3310 N.ar  1 <1>  -0.6200 
 16 C        6.2620    -1.9030    -0.1010 C.ar  1 <1>  -0.1500 
 17 C        6.2230    -4.5130     0.4530 C.ar  1 <1>   0.1600 
 18 C        7.4780    -2.5320     0.0290 C.ar  1 <1>  -0.1500 
 19 C        7.4460    -3.8810     0.3160 C.ar  1 <1>  -0.1500 
 20 H       -1.5530    -1.4680     1.2330 H     1 <1>   0.0800 
 21 H       -1.5230    -1.9690    -0.4260 H     1 <1>   0.0800 
 22 H        1.8080    -1.1740    -1.7290 H     1 <1>   0.0800 
 23 H        0.6890    -2.4140    -1.2380 H     1 <1>   0.0800 
 24 H        1.9890     0.3580     1.5970 H     1 <1>   0.0800 
 25 H        2.5540     0.5070    -0.0420 H     1 <1>   0.0800 
 26 H       -3.0490    -0.1140    -1.0190 H     1 <1>   0.0800 
 27 H       -3.0860     0.3820     0.6510 H     1 <1>   0.0800 
 28 H        2.9980    -3.2750    -1.4650 H     1 <1>   0.0800 
 29 H        2.3930    -3.4620     0.1580 H     1 <1>   0.0800 
 30 H        3.2360    -1.6880     1.9290 H     1 <1>   0.0800 
 31 H        4.3090    -0.4490     1.3420 H     1 <1>   0.0800 
 32 H       -4.0630    -1.8140     1.2840 H     1 <1>   0.0800 
 33 H       -4.0270    -2.3130    -0.3870 H     1 <1>   0.0800 
 34 H       -5.6160     0.0320     0.7030 H     1 <1>   0.0800 
 35 H       -6.2720    -1.5180     0.2370 H     1 <1>   0.0800 
 36 H       -5.5800    -0.4670    -0.9730 H     1 <1>   0.0800 
 37 H        6.2030    -0.8570    -0.3310 H     1 <1>   0.1500 
 38 H        6.2110    -5.5670     0.6750 H     1 <1>   0.1500 
 39 H        8.4070    -2.0020    -0.0890 H     1 <1>   0.1500 
 40 H        8.3590    -4.4370     0.4310 H     1 <1>   0.1500 
@<TRIPOS>BOND
  1   1   2  2   
  2   1   3  2   
  3   1   4  am  
  4   1   5  1   
  5   4   6  1   
  6   4   7  1   
  7   5   8  1   
  8   5  20  1   
  9   5  21  1   
 10   6   9  1   
 11   6  22  1   
 12   6  23  1   
 13   7  10  1   
 14   7  24  1   
 15   7  25  1   
 16   8  11  1   
 17   8  26  1   
 18   8  27  1   
 19   9  12  1   
 20   9  28  1   
 21   9  29  1   
 22  10  12  1   
 23  10  30  1   
 24  10  31  1   
 25  11  13  1   
 26  11  32  1   
 27  11  33  1   
 28  12  14  1   
 29  13  34  1   
 30  13  35  1   
 31  13  36  1   
 32  14  15  ar  
 33  14  16  ar  
 34  15  17  ar  
 35  16  18  ar  
 36  16  37  1   
 37  17  19  ar  
 38  17  38  1   
 39  18  19  ar  
 40  18  39  1   
 41  19  40  1   
@<TRIPOS>SUBSTRUCTURE
  1 ****   4 GROUP 4 **** **** 0

# MOE 2024.06 (io_trps.svl 2023.06)
