@<TRIPOS>MOLECULE
NONAME
44 45 1 0 0 
SMALL
USER_CHARGES


@<TRIPOS>ATOM
  1 S       -0.2170    -0.1400    -1.4090 S.o2  1 <1>   1.4470 
  2 O       -0.7070     1.0520    -2.0680 O.2   1 <1>  -0.6500 
  3 O        0.0100    -1.3370    -2.1890 O.2   1 <1>  -0.6500 
  4 N        1.2580     0.2810    -0.6830 N.am  1 <1>  -0.8490 
  5 C       -1.2760    -0.5510     0.0090 C.ar  1 <1>  -0.0090 
  6 C        1.1850     1.5780    -0.0020 C.3   1 <1>   0.1960 
  7 C        2.3610     0.2400    -1.6470 C.3   1 <1>   0.1960 
  8 C       -0.8200    -1.4070     1.0110 C.ar  1 <1>  -0.1500 
  9 C       -2.5630    -0.0280     0.1200 C.ar  1 <1>  -0.1500 
 10 C        2.4790     1.8430     0.7710 C.3   1 <1>  -0.1600 
 11 C        3.6980     0.4740    -0.9370 C.3   1 <1>  -0.1600 
 12 C       -1.6160    -1.7300     2.0970 C.ar  1 <1>  -0.1500 
 13 C       -3.3750    -0.3390     1.1990 C.ar  1 <1>  -0.1500 
 14 C        3.7020     1.8000    -0.1600 C.3   1 <1>  -0.0190 
 15 C       -2.8830    -1.1880     2.1710 C.ar  1 <1>   0.1900 
 16 C        5.0050     2.0000     0.6110 C.2   1 <1>   0.5690 
 17 F       -3.6400    -1.4850     3.1910 F     1 <1>  -0.1900 
 18 O        5.2930     1.2420     1.5050 O.2   1 <1>  -0.5700 
 19 N        5.8180     3.0340     0.2660 N.am  1 <1>  -0.7300 
 20 C        7.0730     3.3920     0.9790 C.3   1 <1>   0.1400 
 21 C        8.2040     2.4340     0.6040 C.3   1 <1>   0.1200 
 22 O        9.3990     2.9480     1.1050 O.3   1 <1>  -0.5600 
 23 C       10.4940     2.1140     0.9070 C.3   1 <1>   0.0400 
 24 H        0.3600     1.5800     0.6900 H     1 <1>   0.0800 
 25 H        1.0210     2.3640    -0.7220 H     1 <1>   0.0800 
 26 H        2.2060     0.9840    -2.4110 H     1 <1>   0.0800 
 27 H        2.3930    -0.7270    -2.1230 H     1 <1>   0.0800 
 28 H        0.1720    -1.8220     0.9350 H     1 <1>   0.1500 
 29 H       -2.9340     0.6310    -0.6490 H     1 <1>   0.1500 
 30 H        2.5800     1.1010     1.5440 H     1 <1>   0.0800 
 31 H        2.4200     2.8050     1.2480 H     1 <1>   0.0800 
 32 H        4.4920     0.4750    -1.6630 H     1 <1>   0.0800 
 33 H        3.8770    -0.3440    -0.2600 H     1 <1>   0.0800 
 34 H       -1.2650    -2.3900     2.8710 H     1 <1>   0.1500 
 35 H       -4.3680     0.0640     1.2860 H     1 <1>   0.1500 
 36 H        3.6050     2.6020    -0.8710 H     1 <1>   0.0800 
 37 H        5.5610     3.6500    -0.5060 H     1 <1>   0.3700 
 38 H        6.9070     3.3390     2.0420 H     1 <1>   0.0800 
 39 H        7.3520     4.3980     0.7190 H     1 <1>   0.0800 
 40 H        8.2920     2.3540    -0.4650 H     1 <1>   0.0800 
 41 H        8.0270     1.4660     1.0420 H     1 <1>   0.0800 
 42 H       11.3620     2.5970     1.3200 H     1 <1>   0.0800 
 43 H       10.6350     1.9540    -0.1480 H     1 <1>   0.0800 
 44 H       10.3250     1.1790     1.4140 H     1 <1>   0.0800 
@<TRIPOS>BOND
  1   1   2  2   
  2   1   3  2   
  3   1   4  am  
  4   1   5  1   
  5   4   6  1   
  6   4   7  1   
  7   5   8  ar  
  8   5   9  ar  
  9   6  10  1   
 10   6  24  1   
 11   6  25  1   
 12   7  11  1   
 13   7  26  1   
 14   7  27  1   
 15   8  12  ar  
 16   8  28  1   
 17   9  13  ar  
 18   9  29  1   
 19  10  14  1   
 20  10  30  1   
 21  10  31  1   
 22  11  14  1   
 23  11  32  1   
 24  11  33  1   
 25  12  15  ar  
 26  12  34  1   
 27  13  15  ar  
 28  13  35  1   
 29  14  16  1   
 30  14  36  1   
 31  15  17  1   
 32  16  18  2   
 33  16  19  am  
 34  19  20  1   
 35  19  37  1   
 36  20  21  1   
 37  20  38  1   
 38  20  39  1   
 39  21  22  1   
 40  21  40  1   
 41  21  41  1   
 42  22  23  1   
 43  23  42  1   
 44  23  43  1   
 45  23  44  1   
@<TRIPOS>SUBSTRUCTURE
  1 ****  10 GROUP 4 **** **** 0

# MOE 2024.06 (io_trps.svl 2023.06)
