@<TRIPOS>MOLECULE
NONAME
40 41 1 0 0 
SMALL
USER_CHARGES


@<TRIPOS>ATOM
  1 S        0.3690     0.2720     0.0880 S.3   1 <1>  -0.2860 
  2 C       -1.1900    -0.5000     0.5250 C.2   1 <1>   0.2420 
  3 C        1.4770    -0.2450     1.4830 C.3   1 <1>   0.1310 
  4 N       -1.3520    -1.2210     1.5760 N.2   1 <1>  -0.3380 
  5 N       -2.2880    -0.3740    -0.2110 N.pl3 1 <1>   0.0480 
  6 C        2.8810     0.2790     1.2620 C.2   1 <1>   0.6590 
  7 N       -2.6280    -1.6040     1.5570 N.2   1 <1>  -0.3380 
  8 C       -3.1830    -1.0940     0.4910 C.2   1 <1>   0.1330 
  9 C       -2.4830     0.3770    -1.4720 C.3   1 <1>   0.0960 
 10 O        3.3460     1.1540     1.9470 O.2   1 <1>  -0.5700 
 11 O        3.5720    -0.2930     0.2830 O.3   1 <1>  -0.4300 
 12 C       -4.5620    -1.2510     0.0970 C.ar  1 <1>   0.0530 
 13 C       -3.0170     1.7850    -1.1900 C.3   1 <1>  -0.2400 
 14 C        4.8860     0.1120    -0.0220 C.3   1 <1>   0.1200 
 15 C       -5.5990    -0.5600     0.7330 C.ar  1 <1>  -0.1440 
 16 C       -4.8850    -2.1010    -0.9590 C.ar  1 <1>  -0.1500 
 17 C        5.3840    -0.7370    -1.1870 C.3   1 <1>  -0.2400 
 18 C       -6.9060    -0.7120     0.2970 C.ar  1 <1>  -0.1500 
 19 C       -5.3080     0.3570     1.9140 C.3   1 <1>  -0.0970 
 20 C       -6.1890    -2.2490    -1.3900 C.ar  1 <1>  -0.1500 
 21 C       -7.2030    -1.5500    -0.7620 C.ar  1 <1>  -0.1500 
 22 H        1.4730    -1.3180     1.5180 H     1 <1>   0.0800 
 23 H        1.0590     0.1580     2.3870 H     1 <1>   0.0800 
 24 H       -3.1760    -0.1590    -2.0950 H     1 <1>   0.0800 
 25 H       -1.5430     0.4390    -1.9920 H     1 <1>   0.0800 
 26 H       -3.9830     1.7330    -0.7190 H     1 <1>   0.0800 
 27 H       -3.1220     2.3240    -2.1150 H     1 <1>   0.0800 
 28 H       -2.3360     2.3250    -0.5560 H     1 <1>   0.0800 
 29 H        5.4990    -0.0300     0.8520 H     1 <1>   0.0800 
 30 H        4.8680     1.1570    -0.2850 H     1 <1>   0.0800 
 31 H       -4.1000    -2.6550    -1.4420 H     1 <1>   0.1500 
 32 H        5.3860    -1.7770    -0.9140 H     1 <1>   0.0800 
 33 H        6.3870    -0.4480    -1.4430 H     1 <1>   0.0800 
 34 H        4.7550    -0.5920    -2.0470 H     1 <1>   0.0800 
 35 H       -7.7050    -0.1800     0.7830 H     1 <1>   0.1500 
 36 H       -4.9110    -0.2210     2.7310 H     1 <1>   0.0800 
 37 H       -6.1990     0.8530     2.2500 H     1 <1>   0.0800 
 38 H       -4.5840     1.1030     1.6400 H     1 <1>   0.0800 
 39 H       -6.4170    -2.9100    -2.2080 H     1 <1>   0.1500 
 40 H       -8.2210    -1.6610    -1.0930 H     1 <1>   0.1500 
@<TRIPOS>BOND
  1   1   2  1   
  2   1   3  1   
  3   2   4  2   
  4   2   5  1   
  5   3   6  1   
  6   3  22  1   
  7   3  23  1   
  8   4   7  1   
  9   5   8  1   
 10   5   9  1   
 11   6  10  2   
 12   6  11  1   
 13   7   8  2   
 14   8  12  1   
 15   9  13  1   
 16   9  24  1   
 17   9  25  1   
 18  11  14  1   
 19  12  15  ar  
 20  12  16  ar  
 21  13  26  1   
 22  13  27  1   
 23  13  28  1   
 24  14  17  1   
 25  14  29  1   
 26  14  30  1   
 27  15  18  ar  
 28  15  19  1   
 29  16  20  ar  
 30  16  31  1   
 31  17  32  1   
 32  17  33  1   
 33  17  34  1   
 34  18  21  ar  
 35  18  35  1   
 36  19  36  1   
 37  19  37  1   
 38  19  38  1   
 39  20  21  ar  
 40  20  39  1   
 41  21  40  1   
@<TRIPOS>SUBSTRUCTURE
  1 ****   2 GROUP 4 **** **** 0

# MOE 2024.06 (io_trps.svl 2023.06)
