@<TRIPOS>MOLECULE
NONAME
53 56 1 0 0 
SMALL
USER_CHARGES


@<TRIPOS>ATOM
  1 S        0.0670    -0.1530     0.7820 S.3   1 <1>  -0.0800 
  2 C       -1.4250    -0.0050    -0.0940 C.2   1 <1>   0.4420 
  3 C        0.7670     0.9310    -0.3710 C.2   1 <1>   0.1980 
  4 N       -1.3180     0.7760    -1.1050 N.2   1 <1>  -0.3380 
  5 N       -2.5630    -0.6750     0.2940 N.am  1 <1>  -0.4940 
  6 N       -0.0670     1.3060    -1.2570 N.2   1 <1>  -0.3380 
  7 C        2.2390     1.2900    -0.1940 C.3   1 <1>   0.1000 
  8 C       -2.8550    -1.4710     1.3610 C.2   1 <1>   0.5690 
  9 C        2.4150     2.3150     0.9400 C.3   1 <1>  -0.1600 
 10 C        2.8580     1.8220    -1.5010 C.3   1 <1>  -0.1600 
 11 O       -2.0800    -1.7350     2.2460 O.2   1 <1>  -0.5700 
 12 C       -4.2690    -2.0530     1.4050 C.3   1 <1>   0.1710 
 13 C        3.8880     2.7100     1.1280 C.3   1 <1>  -0.1600 
 14 C        4.3320     2.2090    -1.3150 C.3   1 <1>  -0.1600 
 15 N       -5.2510    -1.2970     0.5730 N.3   1 <1>  -0.8100 
 16 C        4.4950     3.2290    -0.1810 C.3   1 <1>  -0.1600 
 17 C       -6.4520    -2.1230     0.3000 C.3   1 <1>   0.1100 
 18 C       -5.6640    -0.0360     1.2460 C.3   1 <1>   0.1100 
 19 C       -7.5060    -1.3690    -0.5340 C.3   1 <1>   0.2090 
 20 C       -6.7070     0.7520     0.4300 C.3   1 <1>   0.2090 
 21 N       -7.8970    -0.0970     0.1310 N.pl3 1 <1>  -0.8380 
 22 C       -9.0360     0.5240    -0.3450 C.ar  1 <1>   0.4100 
 23 N       -8.8760     1.6130    -1.0900 N.ar  1 <1>  -0.6200 
 24 C      -10.2840    -0.0130    -0.0390 C.ar  1 <1>  -0.1500 
 25 C       -9.9860     2.1720    -1.5410 C.ar  1 <1>   0.1600 
 26 C      -11.4300     0.5780    -0.5150 C.ar  1 <1>  -0.1500 
 27 C      -11.2650     1.7070    -1.2910 C.ar  1 <1>  -0.1500 
 28 H       -3.3760    -0.5290    -0.3100 H     1 <1>   0.3700 
 29 H        2.7630     0.3900     0.0760 H     1 <1>   0.0800 
 30 H        2.0380     1.9070     1.8610 H     1 <1>   0.0800 
 31 H        1.8380     3.1950     0.7110 H     1 <1>   0.0800 
 32 H        2.3050     2.6870    -1.8290 H     1 <1>   0.0800 
 33 H        2.7750     1.0720    -2.2680 H     1 <1>   0.0800 
 34 H       -4.6010    -2.0920     2.4280 H     1 <1>   0.0800 
 35 H       -4.2000    -3.0640     1.0440 H     1 <1>   0.0800 
 36 H        4.4480     1.8540     1.4650 H     1 <1>   0.0800 
 37 H        3.9630     3.4710     1.8860 H     1 <1>   0.0800 
 38 H        4.7120     2.6270    -2.2320 H     1 <1>   0.0800 
 39 H        4.9090     1.3290    -1.0900 H     1 <1>   0.0800 
 40 H        5.5400     3.4420    -0.0350 H     1 <1>   0.0800 
 41 H        4.0090     4.1490    -0.4580 H     1 <1>   0.0800 
 42 H       -6.9050    -2.4270     1.2290 H     1 <1>   0.0800 
 43 H       -6.1600    -3.0090    -0.2370 H     1 <1>   0.0800 
 44 H       -4.8050     0.5950     1.4010 H     1 <1>   0.0800 
 45 H       -6.0900    -0.2580     2.2100 H     1 <1>   0.0800 
 46 H       -8.3730    -1.9920    -0.6630 H     1 <1>   0.0800 
 47 H       -7.1030    -1.1510    -1.5080 H     1 <1>   0.0800 
 48 H       -6.2640     1.0880    -0.4920 H     1 <1>   0.0800 
 49 H       -7.0200     1.6200     0.9850 H     1 <1>   0.0800 
 50 H      -10.3290    -0.8900     0.5770 H     1 <1>   0.1500 
 51 H       -9.8690     3.0540    -2.1460 H     1 <1>   0.1500 
 52 H      -12.4060     0.1830    -0.2930 H     1 <1>   0.1500 
 53 H      -12.1170     2.2210    -1.6960 H     1 <1>   0.1500 
@<TRIPOS>BOND
  1   1   2  1   
  2   1   3  1   
  3   2   4  2   
  4   2   5  1   
  5   3   6  2   
  6   3   7  1   
  7   4   6  1   
  8   5   8  am  
  9   5  28  1   
 10   7   9  1   
 11   7  10  1   
 12   7  29  1   
 13   8  11  2   
 14   8  12  1   
 15   9  13  1   
 16   9  30  1   
 17   9  31  1   
 18  10  14  1   
 19  10  32  1   
 20  10  33  1   
 21  12  15  1   
 22  12  34  1   
 23  12  35  1   
 24  13  16  1   
 25  13  36  1   
 26  13  37  1   
 27  14  16  1   
 28  14  38  1   
 29  14  39  1   
 30  15  17  1   
 31  15  18  1   
 32  16  40  1   
 33  16  41  1   
 34  17  19  1   
 35  17  42  1   
 36  17  43  1   
 37  18  20  1   
 38  18  44  1   
 39  18  45  1   
 40  19  21  1   
 41  19  46  1   
 42  19  47  1   
 43  20  21  1   
 44  20  48  1   
 45  20  49  1   
 46  21  22  1   
 47  22  23  ar  
 48  22  24  ar  
 49  23  25  ar  
 50  24  26  ar  
 51  24  50  1   
 52  25  27  ar  
 53  25  51  1   
 54  26  27  ar  
 55  26  52  1   
 56  27  53  1   
@<TRIPOS>SUBSTRUCTURE
  1 ****   5 GROUP 4 **** **** 0

# MOE 2024.06 (io_trps.svl 2023.06)
