@<TRIPOS>MOLECULE
NONAME
33 34 1 0 0 
SMALL
USER_CHARGES


@<TRIPOS>ATOM
  1 O        0.0350     1.3310     2.0070 O.2   1 <1>  -0.5700 
  2 C       -0.0020     1.9360     0.9520 C.2   1 <1>   0.5440 
  3 N        1.1530     2.0600     0.2080 N.am  1 <1>  -0.6600 
  4 C       -1.2500     2.5210     0.5040 C.ar  1 <1>   0.0860 
  5 C        2.4550     1.4720     0.6420 C.3   1 <1>   0.1400 
  6 C        1.2560     2.8600    -1.0490 C.3   1 <1>   0.1400 
  7 C       -2.0880     1.8840    -0.4180 C.ar  1 <1>  -0.1440 
  8 C       -1.6330     3.7720     0.9860 C.ar  1 <1>  -0.1500 
  9 C        3.5610     2.5390     0.6260 C.3   1 <1>   0.1200 
 10 C        2.4320     3.8470    -0.9630 C.3   1 <1>   0.1200 
 11 C       -3.2520     2.5020    -0.8430 C.ar  1 <1>  -0.1500 
 12 C       -1.7330     0.5030    -0.9550 C.3   1 <1>  -0.0960 
 13 C       -2.7940     4.3910     0.5610 C.ar  1 <1>  -0.1430 
 14 O        3.6150     3.1820    -0.6180 O.3   1 <1>  -0.5600 
 15 C       -3.6030     3.7490    -0.3590 C.ar  1 <1>  -0.1500 
 16 C       -3.1910     5.7550     1.0980 C.3   1 <1>  -0.0970 
 17 H        2.7210     0.6730    -0.0280 H     1 <1>   0.0800 
 18 H        2.3760     1.0590     1.6320 H     1 <1>   0.0800 
 19 H        0.3500     3.4080    -1.2360 H     1 <1>   0.0800 
 20 H        1.4170     2.1930    -1.8780 H     1 <1>   0.0800 
 21 H       -0.9970     4.2540     1.7070 H     1 <1>   0.1500 
 22 H        4.5180     2.0830     0.8020 H     1 <1>   0.0800 
 23 H        3.3820     3.2760     1.3890 H     1 <1>   0.0800 
 24 H        2.2350     4.6060    -0.2260 H     1 <1>   0.0800 
 25 H        2.5890     4.3220    -1.9160 H     1 <1>   0.0800 
 26 H       -3.8980     2.0160    -1.5530 H     1 <1>   0.1500 
 27 H       -0.8260     0.5510    -1.5310 H     1 <1>   0.0800 
 28 H       -2.5160     0.1170    -1.5810 H     1 <1>   0.0800 
 29 H       -1.5860    -0.1810    -0.1370 H     1 <1>   0.0800 
 30 H       -4.5120     4.2150    -0.6990 H     1 <1>   0.1500 
 31 H       -2.3710     6.2160     1.6180 H     1 <1>   0.0800 
 32 H       -4.0160     5.6500     1.7800 H     1 <1>   0.0800 
 33 H       -3.4870     6.3990     0.2900 H     1 <1>   0.0800 
@<TRIPOS>BOND
  1   1   2  2   
  2   2   3  am  
  3   2   4  1   
  4   3   5  1   
  5   3   6  1   
  6   4   7  ar  
  7   4   8  ar  
  8   5   9  1   
  9   5  17  1   
 10   5  18  1   
 11   6  10  1   
 12   6  19  1   
 13   6  20  1   
 14   7  11  ar  
 15   7  12  1   
 16   8  13  ar  
 17   8  21  1   
 18   9  14  1   
 19   9  22  1   
 20   9  23  1   
 21  10  14  1   
 22  10  24  1   
 23  10  25  1   
 24  11  15  ar  
 25  11  26  1   
 26  12  27  1   
 27  12  28  1   
 28  12  29  1   
 29  13  15  ar  
 30  13  16  1   
 31  15  30  1   
 32  16  31  1   
 33  16  32  1   
 34  16  33  1   
@<TRIPOS>SUBSTRUCTURE
  1 ****   4 GROUP 4 **** **** 0

# MOE 2024.06 (io_trps.svl 2023.06)
