@<TRIPOS>MOLECULE
NONAME
44 45 1 0 0 
SMALL
USER_CHARGES


@<TRIPOS>ATOM
  1 O       -0.9790    -0.7910     2.1360 O.2   1 <1>  -0.5700 
  2 C       -0.3960    -1.4060     1.2680 C.2   1 <1>   0.6900 
  3 N       -0.9570    -1.7170     0.0450 N.am  1 <1>  -0.3680 
  4 N        0.8530    -1.8240     1.5230 N.am  1 <1>  -0.8000 
  5 N       -2.0670    -1.1990    -0.6070 N.2   1 <1>  -0.5120 
  6 C       -2.3900     0.0490    -0.5430 C.2   1 <1>   0.3750 
  7 C       -1.5320     1.0890    -0.0470 C.2   1 <1>  -0.1360 
  8 C       -3.7580     0.4970    -1.1420 C.3   1 <1>   0.0610 
  9 C       -0.2420     1.3130    -0.3980 C.2   1 <1>  -0.1780 
 10 C       -4.7930    -0.6610    -1.2040 C.3   1 <1>  -0.1600 
 11 C       -4.4320     1.6520    -0.3550 C.3   1 <1>  -0.1600 
 12 C       -3.5020     0.9850    -2.5800 C.3   1 <1>  -0.2400 
 13 C        0.6470     2.3140     0.1210 C.ar  1 <1>   0.0280 
 14 C       -5.2540    -1.1200     0.1910 C.3   1 <1>  -0.1600 
 15 C       -4.8610     1.2240     1.0590 C.3   1 <1>  -0.1600 
 16 C        0.5030     2.8290     1.4090 C.ar  1 <1>  -0.1500 
 17 C        1.6990     2.7960    -0.6550 C.ar  1 <1>  -0.1500 
 18 C       -5.8400     0.0470     0.9950 C.3   1 <1>  -0.1600 
 19 C        1.3650     3.7940     1.8960 C.ar  1 <1>  -0.1500 
 20 C        2.5650     3.7600    -0.1720 C.ar  1 <1>  -0.1500 
 21 C        2.3980     4.2640     1.1050 C.ar  1 <1>  -0.1500 
 22 H       -0.6270    -2.6140    -0.3080 H     1 <1>   0.3700 
 23 H        1.2690    -1.5070     2.3980 H     1 <1>   0.3700 
 24 H        1.5070    -2.0480     0.7770 H     1 <1>   0.3700 
 25 H       -1.9850     1.7320     0.6800 H     1 <1>   0.1500 
 26 H        0.1960     0.6810    -1.1500 H     1 <1>   0.1500 
 27 H       -5.6590    -0.3360    -1.7530 H     1 <1>   0.0800 
 28 H       -4.3820    -1.5010    -1.7370 H     1 <1>   0.0800 
 29 H       -3.7890     2.5110    -0.3010 H     1 <1>   0.0800 
 30 H       -5.3140     1.9690    -0.8860 H     1 <1>   0.0800 
 31 H       -4.4180     1.2930    -3.0530 H     1 <1>   0.0800 
 32 H       -3.0660     0.1930    -3.1650 H     1 <1>   0.0800 
 33 H       -2.8220     1.8180    -2.5800 H     1 <1>   0.0800 
 34 H       -5.9930    -1.8940     0.0890 H     1 <1>   0.0800 
 35 H       -4.4190    -1.5370     0.7300 H     1 <1>   0.0800 
 36 H       -4.0000     0.9350     1.6380 H     1 <1>   0.0800 
 37 H       -5.3300     2.0530     1.5610 H     1 <1>   0.0800 
 38 H       -0.2860     2.4610     2.0410 H     1 <1>   0.1500 
 39 H        1.8360     2.4130    -1.6500 H     1 <1>   0.1500 
 40 H       -6.0710    -0.2850     1.9930 H     1 <1>   0.0800 
 41 H       -6.7570     0.3700     0.5340 H     1 <1>   0.0800 
 42 H        1.2330     4.1780     2.8930 H     1 <1>   0.1500 
 43 H        3.3690     4.1210    -0.7900 H     1 <1>   0.1500 
 44 H        3.0700     5.0150     1.4830 H     1 <1>   0.1500 
@<TRIPOS>BOND
  1   1   2  2   
  2   2   3  am  
  3   2   4  am  
  4   3   5  1   
  5   3  22  1   
  6   4  23  1   
  7   4  24  1   
  8   5   6  2   
  9   6   7  1   
 10   6   8  1   
 11   7   9  2   
 12   7  25  1   
 13   8  10  1   
 14   8  11  1   
 15   8  12  1   
 16   9  13  1   
 17   9  26  1   
 18  10  14  1   
 19  10  27  1   
 20  10  28  1   
 21  11  15  1   
 22  11  29  1   
 23  11  30  1   
 24  12  31  1   
 25  12  32  1   
 26  12  33  1   
 27  13  16  ar  
 28  13  17  ar  
 29  14  18  1   
 30  14  34  1   
 31  14  35  1   
 32  15  18  1   
 33  15  36  1   
 34  15  37  1   
 35  16  19  ar  
 36  16  38  1   
 37  17  20  ar  
 38  17  39  1   
 39  18  40  1   
 40  18  41  1   
 41  19  21  ar  
 42  19  42  1   
 43  20  21  ar  
 44  20  43  1   
 45  21  44  1   
@<TRIPOS>SUBSTRUCTURE
  1 ****   7 GROUP 4 **** **** 0

# MOE 2024.06 (io_trps.svl 2023.06)
