@<TRIPOS>MOLECULE
NONAME
46 48 1 0 0 
SMALL
USER_CHARGES


@<TRIPOS>ATOM
  1 S        0.3620    -0.2290     0.4950 S.3   1 <1>  -0.2860 
  2 C       -1.2090    -1.0480     0.7480 C.2   1 <1>   0.2420 
  3 C        1.5140    -1.2210     1.5700 C.3   1 <1>   0.1310 
  4 N       -1.3800    -2.0890     1.4790 N.2   1 <1>  -0.3380 
  5 N       -2.3210    -0.6200     0.1780 N.pl3 1 <1>   0.0330 
  6 C        2.9460    -0.7160     1.4810 C.2   1 <1>   0.5690 
  7 N       -2.6810    -2.3770     1.3930 N.2   1 <1>  -0.3380 
  8 C       -3.2440    -1.4910     0.6140 C.2   1 <1>   0.1330 
  9 O        3.7040    -0.9860     2.3810 O.2   1 <1>  -0.5700 
 10 N        3.3410     0.0080     0.4010 N.am  1 <1>  -0.7300 
 11 C       -4.6410    -1.4400     0.2470 C.ar  1 <1>   0.0530 
 12 C        4.6860     0.5590     0.1820 C.3   1 <1>   0.2200 
 13 C       -5.2620    -0.2540    -0.1530 C.ar  1 <1>  -0.1500 
 14 C       -5.4260    -2.5930     0.2820 C.ar  1 <1>  -0.1500 
 15 C        4.5950     2.0880     0.1480 C.3   1 <1>  -0.1600 
 16 C        5.2400     0.0030    -1.1330 C.3   1 <1>  -0.1600 
 17 C       -6.5970    -0.2220    -0.5150 C.ar  1 <1>  -0.1500 
 18 C       -6.7600    -2.5680    -0.0770 C.ar  1 <1>  -0.1500 
 19 C        5.9560     2.7170    -0.1870 C.3   1 <1>  -0.1600 
 20 C        6.6020     0.6290    -1.4700 C.3   1 <1>  -0.1600 
 21 C       -7.3580    -1.3870    -0.4810 C.ar  1 <1>   0.0830 
 22 C        6.5160     2.1610    -1.5030 C.3   1 <1>  -0.1600 
 23 O       -8.6680    -1.4460    -0.8190 O.3   1 <1>  -0.3630 
 24 C       -9.3800    -0.2970    -1.2210 C.3   1 <1>   0.0400 
 25 H        1.4580    -2.2430     1.2430 H     1 <1>   0.0800 
 26 H        1.1530    -1.1440     2.5790 H     1 <1>   0.0800 
 27 H       -2.4350     0.1720    -0.4520 H     1 <1>   0.2700 
 28 H        2.6490     0.2460    -0.3110 H     1 <1>   0.3700 
 29 H        5.3360     0.2630     0.9910 H     1 <1>   0.0800 
 30 H       -4.7040     0.6630    -0.1770 H     1 <1>   0.1500 
 31 H       -4.9800    -3.5210     0.5950 H     1 <1>   0.1500 
 32 H        4.2660     2.4440     1.1080 H     1 <1>   0.0800 
 33 H        3.8780     2.3900    -0.5950 H     1 <1>   0.0800 
 34 H        4.5520     0.2140    -1.9330 H     1 <1>   0.0800 
 35 H        5.3510    -1.0640    -1.0490 H     1 <1>   0.0800 
 36 H       -7.0310     0.7120    -0.8170 H     1 <1>   0.1500 
 37 H       -7.3480    -3.4680    -0.0460 H     1 <1>   0.1500 
 38 H        6.6490     2.5090     0.6110 H     1 <1>   0.0800 
 39 H        5.8510     3.7860    -0.2610 H     1 <1>   0.0800 
 40 H        6.9400     0.2650    -2.4250 H     1 <1>   0.0800 
 41 H        7.3240     0.3290    -0.7290 H     1 <1>   0.0800 
 42 H        7.4950     2.5720    -1.6800 H     1 <1>   0.0800 
 43 H        5.8810     2.4650    -2.3180 H     1 <1>   0.0800 
 44 H      -10.3940    -0.5890    -1.4290 H     1 <1>   0.0800 
 45 H       -8.9250     0.1020    -2.1110 H     1 <1>   0.0800 
 46 H       -9.3630     0.4220    -0.4220 H     1 <1>   0.0800 
@<TRIPOS>BOND
  1   1   2  1   
  2   1   3  1   
  3   2   4  2   
  4   2   5  1   
  5   3   6  1   
  6   3  25  1   
  7   3  26  1   
  8   4   7  1   
  9   5   8  1   
 10   5  27  1   
 11   6   9  2   
 12   6  10  am  
 13   7   8  2   
 14   8  11  1   
 15  10  12  1   
 16  10  28  1   
 17  11  13  ar  
 18  11  14  ar  
 19  12  15  1   
 20  12  16  1   
 21  12  29  1   
 22  13  17  ar  
 23  13  30  1   
 24  14  18  ar  
 25  14  31  1   
 26  15  19  1   
 27  15  32  1   
 28  15  33  1   
 29  16  20  1   
 30  16  34  1   
 31  16  35  1   
 32  17  21  ar  
 33  17  36  1   
 34  18  21  ar  
 35  18  37  1   
 36  19  22  1   
 37  19  38  1   
 38  19  39  1   
 39  20  22  1   
 40  20  40  1   
 41  20  41  1   
 42  21  23  1   
 43  22  42  1   
 44  22  43  1   
 45  23  24  1   
 46  24  44  1   
 47  24  45  1   
 48  24  46  1   
@<TRIPOS>SUBSTRUCTURE
  1 ****   2 GROUP 4 **** **** 0

# MOE 2024.06 (io_trps.svl 2023.06)
