@<TRIPOS>MOLECULE
NONAME
42 44 1 0 0 
SMALL
USER_CHARGES


@<TRIPOS>ATOM
  1 S        3.4990     2.1920     0.7640 S.3   1 <1>  -0.0800 
  2 C        1.9460     1.9120    -0.0100 C.2   1 <1>  -0.1400 
  3 C        4.0830     0.6120     0.2760 C.2   1 <1>  -0.1100 
  4 C        1.9240     0.6900    -0.5790 C.2   1 <1>  -0.1500 
  5 C        0.9270     3.0360     0.0880 C.3   1 <1>   0.3200 
  6 C        3.1390    -0.0490    -0.4180 C.2   1 <1>  -0.1500 
  7 N       -0.1800     2.7600    -0.8530 N.am  1 <1>  -0.7300 
  8 C       -1.4620     3.1910    -0.8070 C.2   1 <1>   0.5690 
  9 O       -2.2470     2.7220    -1.5970 O.2   1 <1>  -0.5700 
 10 C       -1.9100     4.2200     0.2350 C.3   1 <1>  -0.0190 
 11 C       -1.2980     5.6280    -0.0170 C.3   1 <1>  -0.1860 
 12 C       -3.4260     4.5140     0.2320 C.3   1 <1>   0.0580 
 13 C       -0.1680     6.0520     0.8990 C.2   1 <1>   0.9060 
 14 C       -2.5150     6.5630     0.0320 C.3   1 <1>   0.0580 
 15 C       -3.5140     5.7020    -0.6950 C.2   1 <1>  -0.2760 
 16 C       -3.7890     5.1950     1.5610 C.3   1 <1>  -0.1600 
 17 O        0.1300     5.3550     1.8760 O.co2 1 <1>  -0.9000 
 18 O        0.4620     7.0730     0.6130 O.co2 1 <1>  -0.9000 
 19 C       -3.1340     6.5830     1.4390 C.3   1 <1>  -0.1600 
 20 C       -4.2340     5.9140    -1.8050 C.2   1 <1>  -0.2760 
 21 C       -5.1850     4.8920    -2.4090 C.3   1 <1>  -0.1020 
 22 C       -4.1860     7.1980    -2.6200 C.3   1 <1>  -0.1020 
 23 H        5.0830     0.3440     0.5660 H     1 <1>   0.1500 
 24 H        1.0910     0.2620    -1.1100 H     1 <1>   0.1500 
 25 H        1.3890     3.9750    -0.1660 H     1 <1>   0.0800 
 26 H        0.5580     3.0940     1.0970 H     1 <1>   0.0800 
 27 H        3.2430    -1.0370    -0.8310 H     1 <1>   0.1500 
 28 H        0.0600     2.1440    -1.6250 H     1 <1>   0.3700 
 29 H       -1.6420     3.8350     1.2010 H     1 <1>   0.0800 
 30 H       -0.9080     5.6650    -1.0170 H     1 <1>   0.0800 
 31 H       -4.0430     3.6640     0.0080 H     1 <1>   0.0800 
 32 H       -2.3140     7.5380    -0.3720 H     1 <1>   0.0800 
 33 H       -4.8570     5.2970     1.6370 H     1 <1>   0.0800 
 34 H       -3.4180     4.6500     2.4120 H     1 <1>   0.0800 
 35 H       -2.3920     6.7500     2.2010 H     1 <1>   0.0800 
 36 H       -3.8820     7.3530     1.4960 H     1 <1>   0.0800 
 37 H       -4.8780     4.6570    -3.4120 H     1 <1>   0.0800 
 38 H       -6.1850     5.2850    -2.4320 H     1 <1>   0.0800 
 39 H       -5.1920     3.9780    -1.8470 H     1 <1>   0.0800 
 40 H       -3.8510     6.9840    -3.6190 H     1 <1>   0.0800 
 41 H       -3.5120     7.9140    -2.1900 H     1 <1>   0.0800 
 42 H       -5.1640     7.6410    -2.6660 H     1 <1>   0.0800 
@<TRIPOS>BOND
  1   1   2  1   
  2   1   3  1   
  3   2   4  2   
  4   2   5  1   
  5   3   6  2   
  6   3  23  1   
  7   4   6  1   
  8   4  24  1   
  9   5   7  1   
 10   5  25  1   
 11   5  26  1   
 12   6  27  1   
 13   7   8  am  
 14   7  28  1   
 15   8   9  2   
 16   8  10  1   
 17  10  11  1   
 18  10  12  1   
 19  10  29  1   
 20  11  13  1   
 21  11  14  1   
 22  11  30  1   
 23  12  15  1   
 24  12  16  1   
 25  12  31  1   
 26  13  17  ar  
 27  13  18  ar  
 28  14  15  1   
 29  14  19  1   
 30  14  32  1   
 31  15  20  2   
 32  16  19  1   
 33  16  33  1   
 34  16  34  1   
 35  19  35  1   
 36  19  36  1   
 37  20  21  1   
 38  20  22  1   
 39  21  37  1   
 40  21  38  1   
 41  21  39  1   
 42  22  40  1   
 43  22  41  1   
 44  22  42  1   
@<TRIPOS>SUBSTRUCTURE
  1 ****  10 GROUP 4 **** **** 0

# MOE 2024.06 (io_trps.svl 2023.06)
