@<TRIPOS>MOLECULE
NONAME
45 46 1 0 0 
SMALL
USER_CHARGES


@<TRIPOS>ATOM
  1 CL       0.3440    -0.3110    -1.7780 Cl    1 <1>  -0.1770 
  2 C        0.1630    -1.8420    -0.9580 C.ar  1 <1>   0.1770 
  3 C       -1.0750    -2.3090    -0.5350 C.ar  1 <1>  -0.0090 
  4 C        1.3210    -2.5550    -0.7420 C.ar  1 <1>  -0.1500 
  5 S       -2.6270    -1.4090    -0.7780 S.o2  1 <1>   1.4470 
  6 C       -1.0780    -3.5250     0.1290 C.ar  1 <1>  -0.1500 
  7 C        1.3150    -3.7800    -0.0790 C.ar  1 <1>   0.1000 
  8 O       -2.5870    -0.4920    -1.8960 O.2   1 <1>  -0.6500 
  9 O       -3.7040    -2.3750    -0.7410 O.2   1 <1>  -0.6500 
 10 N       -2.7770    -0.4670     0.6310 N.am  1 <1>  -0.8490 
 11 C        0.0720    -4.2810     0.3600 C.ar  1 <1>   0.0860 
 12 N        2.5210    -4.4610     0.1290 N.pl3 1 <1>  -0.8380 
 13 C       -4.1600    -0.0410     0.8600 C.3   1 <1>   0.1160 
 14 C       -1.8850     0.6960     0.6580 C.3   1 <1>   0.1160 
 15 C       -0.0860    -5.5520     1.0300 C.2   1 <1>   0.5440 
 16 C        3.7650    -4.2450    -0.6550 C.3   1 <1>   0.2090 
 17 C        2.8540    -5.0570     1.4530 C.3   1 <1>   0.2090 
 18 O       -0.3660    -5.5570     2.2170 O.2   1 <1>  -0.5700 
 19 N        0.0390    -6.7600     0.3660 N.am  1 <1>  -0.6600 
 20 C        4.8310    -5.0440     0.0810 C.3   1 <1>  -0.1600 
 21 C        4.3740    -5.0230     1.5350 C.3   1 <1>  -0.1600 
 22 C       -0.1310    -8.0700     1.0530 C.3   1 <1>   0.0600 
 23 C        0.4840    -6.8530    -1.0510 C.3   1 <1>   0.0600 
 24 H        2.2410    -2.1320    -1.0920 H     1 <1>   0.1500 
 25 H       -2.0150    -3.9200     0.4890 H     1 <1>   0.1500 
 26 H       -4.8010    -0.9010     0.9570 H     1 <1>   0.0800 
 27 H       -4.5080     0.5590     0.0350 H     1 <1>   0.0800 
 28 H       -4.2280     0.5310     1.7690 H     1 <1>   0.0800 
 29 H       -0.8590     0.3790     0.6100 H     1 <1>   0.0800 
 30 H       -2.0190     1.2440     1.5750 H     1 <1>   0.0800 
 31 H       -2.0890     1.3510    -0.1740 H     1 <1>   0.0800 
 32 H        4.0320    -3.2030    -0.6400 H     1 <1>   0.0800 
 33 H        3.6430    -4.5820    -1.6700 H     1 <1>   0.0800 
 34 H        2.5110    -6.0780     1.4780 H     1 <1>   0.0800 
 35 H        2.3970    -4.5050     2.2570 H     1 <1>   0.0800 
 36 H        5.8110    -4.6210    -0.0490 H     1 <1>   0.0800 
 37 H        4.8290    -6.0540    -0.2900 H     1 <1>   0.0800 
 38 H        4.7600    -5.8510     2.1020 H     1 <1>   0.0800 
 39 H        4.6760    -4.1030     2.0040 H     1 <1>   0.0800 
 40 H       -0.4350    -7.9340     2.0760 H     1 <1>   0.0800 
 41 H        0.7990    -8.6100     1.0390 H     1 <1>   0.0800 
 42 H       -0.8860    -8.6470     0.5480 H     1 <1>   0.0800 
 43 H        0.2190    -5.9640    -1.5950 H     1 <1>   0.0800 
 44 H        0.0160    -7.6960    -1.5300 H     1 <1>   0.0800 
 45 H        1.5530    -6.9740    -1.0830 H     1 <1>   0.0800 
@<TRIPOS>BOND
  1   1   2  1   
  2   2   3  ar  
  3   2   4  ar  
  4   3   5  1   
  5   3   6  ar  
  6   4   7  ar  
  7   4  24  1   
  8   5   8  2   
  9   5   9  2   
 10   5  10  am  
 11   6  11  ar  
 12   6  25  1   
 13   7  11  ar  
 14   7  12  1   
 15  10  13  1   
 16  10  14  1   
 17  11  15  1   
 18  12  16  1   
 19  12  17  1   
 20  13  26  1   
 21  13  27  1   
 22  13  28  1   
 23  14  29  1   
 24  14  30  1   
 25  14  31  1   
 26  15  18  2   
 27  15  19  am  
 28  16  20  1   
 29  16  32  1   
 30  16  33  1   
 31  17  21  1   
 32  17  34  1   
 33  17  35  1   
 34  19  22  1   
 35  19  23  1   
 36  20  21  1   
 37  20  36  1   
 38  20  37  1   
 39  21  38  1   
 40  21  39  1   
 41  22  40  1   
 42  22  41  1   
 43  22  42  1   
 44  23  43  1   
 45  23  44  1   
 46  23  45  1   
@<TRIPOS>SUBSTRUCTURE
  1 ****  11 GROUP 4 **** **** 0

# MOE 2024.06 (io_trps.svl 2023.06)
