@<TRIPOS>MOLECULE
NONAME
38 39 1 0 0 
SMALL
USER_CHARGES


@<TRIPOS>ATOM
  1 S        0.1750    -0.0420    -0.2820 S.o2  1 <1>   1.3330 
  2 O        0.5050    -1.3900     0.1230 O.2   1 <1>  -0.6500 
  3 O       -0.2530     0.2130    -1.6400 O.2   1 <1>  -0.6500 
  4 N        1.5300     0.9330     0.0060 N.am  1 <1>  -0.8490 
  5 C       -1.0360     0.6170     0.8730 C.3   1 <1>  -0.0550 
  6 C        2.7930     0.1760    -0.1140 C.3   1 <1>   0.1960 
  7 C        1.5310     2.1750    -0.7680 C.3   1 <1>   0.1960 
  8 C       -2.4040    -0.0880     0.8330 C.3   1 <1>  -0.2400 
  9 C        4.0340     1.0720    -0.3170 C.3   1 <1>  -0.0190 
 10 C        2.5840     3.1450    -0.2060 C.3   1 <1>  -0.1600 
 11 C        5.2890     0.3650     0.1800 C.2   1 <1>   0.5690 
 12 C        3.8380     2.4440     0.3510 C.3   1 <1>  -0.1600 
 13 O        5.3420     0.0100     1.3290 O.2   1 <1>  -0.5700 
 14 N        6.3070     0.1740    -0.7110 N.am  1 <1>  -0.4940 
 15 C        7.5440    -0.4190    -0.5800 C.2   1 <1>   0.4420 
 16 S        8.0920    -1.1280     0.9090 S.3   1 <1>  -0.0800 
 17 N        8.4180    -0.5200    -1.5130 N.2   1 <1>  -0.3380 
 18 C        9.5600    -1.5280     0.0890 C.2   1 <1>   0.1980 
 19 N        9.5660    -1.1530    -1.1260 N.2   1 <1>  -0.3380 
 20 C       10.6340    -2.2500     0.8690 C.3   1 <1>  -0.0600 
 21 H       -1.1840     1.6590     0.6660 H     1 <1>   0.0800 
 22 H       -0.6390     0.5380     1.8670 H     1 <1>   0.0800 
 23 H        2.7310    -0.5150    -0.9390 H     1 <1>   0.0800 
 24 H        2.9080    -0.4080     0.7860 H     1 <1>   0.0800 
 25 H        0.5610     2.6430    -0.7280 H     1 <1>   0.0800 
 26 H        1.7440     1.9500    -1.8010 H     1 <1>   0.0800 
 27 H       -2.8360    -0.0020    -0.1490 H     1 <1>   0.0800 
 28 H       -3.0730     0.3560     1.5480 H     1 <1>   0.0800 
 29 H       -2.2870    -1.1320     1.0670 H     1 <1>   0.0800 
 30 H        4.1400     1.2340    -1.3740 H     1 <1>   0.0800 
 31 H        2.1370     3.7330     0.5770 H     1 <1>   0.0800 
 32 H        2.8650     3.8250    -0.9910 H     1 <1>   0.0800 
 33 H        4.7050     3.0660     0.2130 H     1 <1>   0.0800 
 34 H        3.7100     2.2890     1.4100 H     1 <1>   0.0800 
 35 H        6.1560     0.5320    -1.6500 H     1 <1>   0.3700 
 36 H       10.2560    -3.1890     1.2270 H     1 <1>   0.0800 
 37 H       10.9440    -1.6500     1.7050 H     1 <1>   0.0800 
 38 H       11.4830    -2.4320     0.2360 H     1 <1>   0.0800 
@<TRIPOS>BOND
  1   1   2  2   
  2   1   3  2   
  3   1   4  am  
  4   1   5  1   
  5   4   6  1   
  6   4   7  1   
  7   5   8  1   
  8   5  21  1   
  9   5  22  1   
 10   6   9  1   
 11   6  23  1   
 12   6  24  1   
 13   7  10  1   
 14   7  25  1   
 15   7  26  1   
 16   8  27  1   
 17   8  28  1   
 18   8  29  1   
 19   9  11  1   
 20   9  12  1   
 21   9  30  1   
 22  10  12  1   
 23  10  31  1   
 24  10  32  1   
 25  11  13  2   
 26  11  14  am  
 27  12  33  1   
 28  12  34  1   
 29  14  15  1   
 30  14  35  1   
 31  15  16  1   
 32  15  17  2   
 33  16  18  1   
 34  17  19  1   
 35  18  19  2   
 36  18  20  1   
 37  20  36  1   
 38  20  37  1   
 39  20  38  1   
@<TRIPOS>SUBSTRUCTURE
  1 ****   9 GROUP 4 **** **** 0

# MOE 2024.06 (io_trps.svl 2023.06)
