@<TRIPOS>MOLECULE
NONAME
33 34 1 0 0 
SMALL
USER_CHARGES


@<TRIPOS>ATOM
  1 F       -0.7290    -0.3890    -0.3690 F     1 <1>  -0.3400 
  2 C        0.4260    -0.8330    -0.8590 C.3   1 <1>   1.0200 
  3 F        0.1110    -1.9000    -1.5940 F     1 <1>  -0.3400 
  4 F        0.8300     0.0910    -1.7330 F     1 <1>  -0.3400 
  5 C        1.5110    -1.1530     0.2350 C.3   1 <1>   0.5870 
  6 O        1.1420    -2.1190     1.1730 O.3   1 <1>  -0.6800 
  7 N        2.7980    -1.7070    -0.2560 N.2   1 <1>  -0.6960 
  8 C        1.9410     0.1610     0.8730 C.2   1 <1>   0.5690 
  9 C        3.7280    -0.8890     0.0500 C.2   1 <1>   0.4240 
 10 O        1.2400     0.9980     1.3950 O.2   1 <1>  -0.5700 
 11 N        3.2860     0.2450     0.7180 N.am  1 <1>  -0.4200 
 12 C        5.1290    -1.0870    -0.2650 C.ar  1 <1>   0.0860 
 13 C        4.0840     1.4450     1.0640 C.3   1 <1>   0.1400 
 14 C        5.5580    -1.1500    -1.5890 C.ar  1 <1>  -0.1500 
 15 C        6.0890    -1.2200     0.7370 C.ar  1 <1>  -0.1500 
 16 C        4.2830     2.3200    -0.1780 C.3   1 <1>  -0.1600 
 17 C        6.8940    -1.3200    -1.9030 C.ar  1 <1>  -0.1500 
 18 C        7.4270    -1.3890     0.4300 C.ar  1 <1>  -0.1500 
 19 C        5.1040     3.5710     0.1520 C.3   1 <1>  -0.2400 
 20 C        7.8320    -1.4370    -0.8920 C.ar  1 <1>  -0.1500 
 21 H        1.5580    -2.9490     0.8710 H     1 <1>   0.4000 
 22 H        5.0360     1.1480     1.4660 H     1 <1>   0.0800 
 23 H        3.5650     2.0080     1.8230 H     1 <1>   0.0800 
 24 H        4.8310    -1.0660    -2.3790 H     1 <1>   0.1500 
 25 H        5.7820    -1.1940     1.7680 H     1 <1>   0.1500 
 26 H        3.3220     2.6220    -0.5580 H     1 <1>   0.0800 
 27 H        4.7950     1.7610    -0.9410 H     1 <1>   0.0800 
 28 H        7.2060    -1.3640    -2.9320 H     1 <1>   0.1500 
 29 H        8.1560    -1.4880     1.2170 H     1 <1>   0.1500 
 30 H        5.2270     4.1730    -0.7320 H     1 <1>   0.0800 
 31 H        6.0790     3.2990     0.5160 H     1 <1>   0.0800 
 32 H        4.6060     4.1640     0.8990 H     1 <1>   0.0800 
 33 H        8.8730    -1.5690    -1.1340 H     1 <1>   0.1500 
@<TRIPOS>BOND
  1   1   2  1   
  2   2   3  1   
  3   2   4  1   
  4   2   5  1   
  5   5   6  1   
  6   5   7  1   
  7   5   8  1   
  8   6  21  1   
  9   7   9  2   
 10   8  10  2   
 11   8  11  am  
 12   9  11  1   
 13   9  12  1   
 14  11  13  1   
 15  12  14  ar  
 16  12  15  ar  
 17  13  16  1   
 18  13  22  1   
 19  13  23  1   
 20  14  17  ar  
 21  14  24  1   
 22  15  18  ar  
 23  15  25  1   
 24  16  19  1   
 25  16  26  1   
 26  16  27  1   
 27  17  20  ar  
 28  17  28  1   
 29  18  20  ar  
 30  18  29  1   
 31  19  30  1   
 32  19  31  1   
 33  19  32  1   
 34  20  33  1   
@<TRIPOS>SUBSTRUCTURE
  1 ****   9 GROUP 4 **** **** 0

# MOE 2024.06 (io_trps.svl 2023.06)
