@<TRIPOS>MOLECULE
NONAME
29 29 1 0 0 
SMALL
USER_CHARGES


@<TRIPOS>ATOM
  1 BR      -0.4400    -0.0100     2.3890 Br    1 <1>  -0.1110 
  2 C       -1.5810     0.8600     1.0970 C.ar  1 <1>   0.1110 
  3 C       -1.1500     2.0140     0.4530 C.ar  1 <1>   0.0830 
  4 C       -2.8200     0.3030     0.8450 C.ar  1 <1>  -0.1500 
  5 O        0.0600     2.5590     0.7020 O.3   1 <1>  -0.3630 
  6 C       -1.9980     2.6270    -0.4550 C.ar  1 <1>  -0.1500 
  7 C       -3.6550     0.9200    -0.0730 C.ar  1 <1>  -0.1500 
  8 C        1.1360     2.0310    -0.0360 C.3   1 <1>   0.1200 
  9 C       -3.2450     2.0790    -0.7180 C.ar  1 <1>  -0.1500 
 10 C        2.4210     2.7070     0.4440 C.3   1 <1>  -0.1600 
 11 C        3.6460     2.1770    -0.3140 C.3   1 <1>  -0.1600 
 12 C        4.9320     2.8550     0.1770 C.3   1 <1>  -0.1600 
 13 C        6.1560     2.3280    -0.5740 C.3   1 <1>   0.0700 
 14 S        7.6200     3.1680     0.0760 S.3   1 <1>  -0.4100 
 15 H       -3.1250    -0.5920     1.3570 H     1 <1>   0.1500 
 16 H       -1.6820     3.5280    -0.9490 H     1 <1>   0.1500 
 17 H       -4.6250     0.5020    -0.2840 H     1 <1>   0.1500 
 18 H        0.9600     2.2290    -1.0790 H     1 <1>   0.0800 
 19 H        1.1780     0.9690     0.1310 H     1 <1>   0.0800 
 20 H       -3.9000     2.5570    -1.4260 H     1 <1>   0.1500 
 21 H        2.5400     2.5180     1.4970 H     1 <1>   0.0800 
 22 H        2.3350     3.7690     0.2920 H     1 <1>   0.0800 
 23 H        3.5230     2.3620    -1.3680 H     1 <1>   0.0800 
 24 H        3.7240     1.1130    -0.1650 H     1 <1>   0.0800 
 25 H        5.0580     2.6670     1.2300 H     1 <1>   0.0800 
 26 H        4.8560     3.9190     0.0300 H     1 <1>   0.0800 
 27 H        6.1040     2.5400    -1.6270 H     1 <1>   0.0800 
 28 H        6.2980     1.2730    -0.4130 H     1 <1>   0.0800 
 29 H        7.3480     4.4800    -0.1880 H     1 <1>   0.1800 
@<TRIPOS>BOND
  1   1   2  1   
  2   2   3  ar  
  3   2   4  ar  
  4   3   5  1   
  5   3   6  ar  
  6   4   7  ar  
  7   4  15  1   
  8   5   8  1   
  9   6   9  ar  
 10   6  16  1   
 11   7   9  ar  
 12   7  17  1   
 13   8  10  1   
 14   8  18  1   
 15   8  19  1   
 16   9  20  1   
 17  10  11  1   
 18  10  21  1   
 19  10  22  1   
 20  11  12  1   
 21  11  23  1   
 22  11  24  1   
 23  12  13  1   
 24  12  25  1   
 25  12  26  1   
 26  13  14  1   
 27  13  27  1   
 28  13  28  1   
 29  14  29  1   
@<TRIPOS>SUBSTRUCTURE
  1 ****   8 GROUP 4 **** **** 0

# MOE 2024.06 (io_trps.svl 2023.06)
