@<TRIPOS>MOLECULE
NONAME
32 32 1 0 0 
SMALL
USER_CHARGES


@<TRIPOS>ATOM
  1 O        0.5420    -0.0160     0.0910 O.2   1 <1>  -0.5200 
  2 N        1.1010    -0.8670     0.8090 N.pl3 1 <1>   0.8360 
  3 O        1.7390    -0.4940     1.8140 O.2   1 <1>  -0.5200 
  4 C        1.1470    -2.2070     0.4060 C.2   1 <1>   0.2190 
  5 C        2.2550    -2.7240    -0.2270 C.2   1 <1>  -0.0380 
  6 C       -0.0240    -2.9540     0.6940 C.2   1 <1>   0.4950 
  7 N        3.3760    -1.9920    -0.5320 N.pl3 1 <1>  -0.8690 
  8 C        2.2610    -4.1990    -0.6410 C.3   1 <1>  -0.0220 
  9 O       -0.9800    -2.5410     1.3100 O.2   1 <1>  -0.5700 
 10 C       -0.1090    -4.3860     0.1960 C.3   1 <1>  -0.0990 
 11 C        4.5860    -2.3920    -1.3070 C.3   1 <1>   0.2090 
 12 C        1.2700    -5.0700     0.1610 C.3   1 <1>   0.0000 
 13 C        5.7330    -2.7330    -0.3500 C.3   1 <1>   0.1200 
 14 C        1.7920    -5.2800     1.5960 C.3   1 <1>  -0.2400 
 15 C        1.1370    -6.4470    -0.5070 C.3   1 <1>  -0.2400 
 16 O        6.8410    -3.1550    -1.0740 O.3   1 <1>  -0.6800 
 17 H        3.4470    -1.0100    -0.2110 H     1 <1>   0.4000 
 18 H        3.2440    -4.6130    -0.5090 H     1 <1>   0.0800 
 19 H        2.0260    -4.2490    -1.6900 H     1 <1>   0.0800 
 20 H       -0.5380    -4.3670    -0.7900 H     1 <1>   0.0800 
 21 H       -0.7770    -4.9410     0.8310 H     1 <1>   0.0800 
 22 H        4.8830    -1.5720    -1.9390 H     1 <1>   0.0800 
 23 H        4.3640    -3.2370    -1.9340 H     1 <1>   0.0800 
 24 H        5.4490    -3.5190     0.3280 H     1 <1>   0.0800 
 25 H        6.0200    -1.8600     0.2100 H     1 <1>   0.0800 
 26 H        1.9370    -4.3470     2.1110 H     1 <1>   0.0800 
 27 H        2.7350    -5.7980     1.5820 H     1 <1>   0.0800 
 28 H        1.0980    -5.8720     2.1670 H     1 <1>   0.0800 
 29 H        0.7680    -6.3530    -1.5130 H     1 <1>   0.0800 
 30 H        0.4540    -7.0710     0.0440 H     1 <1>   0.0800 
 31 H        2.0910    -6.9450    -0.5440 H     1 <1>   0.0800 
 32 H        6.7100    -4.0550    -1.4320 H     1 <1>   0.4000 
@<TRIPOS>BOND
  1   1   2  2   
  2   2   3  2   
  3   2   4  1   
  4   4   5  2   
  5   4   6  1   
  6   5   7  1   
  7   5   8  1   
  8   6   9  2   
  9   6  10  1   
 10   7  11  1   
 11   7  17  1   
 12   8  12  1   
 13   8  18  1   
 14   8  19  1   
 15  10  12  1   
 16  10  20  1   
 17  10  21  1   
 18  11  13  1   
 19  11  22  1   
 20  11  23  1   
 21  12  14  1   
 22  12  15  1   
 23  13  16  1   
 24  13  24  1   
 25  13  25  1   
 26  14  26  1   
 27  14  27  1   
 28  14  28  1   
 29  15  29  1   
 30  15  30  1   
 31  15  31  1   
 32  16  32  1   
@<TRIPOS>SUBSTRUCTURE
  1 ****   5 GROUP 4 **** **** 0

# MOE 2024.06 (io_trps.svl 2023.06)
