@<TRIPOS>MOLECULE
NONAME
37 37 1 0 0 
SMALL
USER_CHARGES


@<TRIPOS>ATOM
  1 O        0.1890    -0.1030    -1.1960 O.2   1 <1>  -0.5700 
  2 C        0.7320     0.9310    -0.8540 C.2   1 <1>   0.6900 
  3 N        2.0790     1.0980    -1.0360 N.am  1 <1>  -0.6600 
  4 N        0.0350     1.9330    -0.2620 N.am  1 <1>  -0.7300 
  5 C        2.7370     2.4200    -1.2050 C.3   1 <1>   0.1400 
  6 C        2.9730    -0.0740    -1.2240 C.3   1 <1>   0.1400 
  7 C       -1.3810     1.9880     0.1060 C.3   1 <1>   0.3000 
  8 C        3.8970     2.5380    -0.2140 C.3   1 <1>  -0.1600 
  9 C        4.1480     0.0220    -0.2450 C.3   1 <1>  -0.1600 
 10 C       -2.2520     1.8520    -1.1440 C.3   1 <1>  -0.2400 
 11 C       -1.6090     3.3600     0.7390 C.3   1 <1>  -0.2400 
 12 C       -1.6940     0.8950     1.1290 C.3   1 <1>  -0.2400 
 13 C        4.8890     1.3670    -0.3670 C.3   1 <1>  -0.0190 
 14 C        6.0300     1.4560     0.6440 C.2   1 <1>   0.5690 
 15 O        5.8070     1.6720     1.8070 O.2   1 <1>  -0.5700 
 16 N        7.2990     1.2870     0.2300 N.am  1 <1>  -0.8000 
 17 H        0.6050     2.6210     0.2150 H     1 <1>   0.3700 
 18 H        2.0380     3.2240    -1.0530 H     1 <1>   0.0800 
 19 H        3.1080     2.4950    -2.2120 H     1 <1>   0.0800 
 20 H        3.3290    -0.0850    -2.2390 H     1 <1>   0.0800 
 21 H        2.4340    -0.9900    -1.0470 H     1 <1>   0.0800 
 22 H        3.5000     2.5510     0.7870 H     1 <1>   0.0800 
 23 H        4.4100     3.4700    -0.3730 H     1 <1>   0.0800 
 24 H        4.8290    -0.7880    -0.4300 H     1 <1>   0.0800 
 25 H        3.7700    -0.0920     0.7570 H     1 <1>   0.0800 
 26 H       -1.9820     2.5950    -1.8720 H     1 <1>   0.0800 
 27 H       -3.2880     1.9800    -0.8900 H     1 <1>   0.0800 
 28 H       -2.1370     0.8780    -1.5820 H     1 <1>   0.0800 
 29 H       -1.0010     3.4770     1.6170 H     1 <1>   0.0800 
 30 H       -2.6390     3.4660     1.0280 H     1 <1>   0.0800 
 31 H       -1.3750     4.1410     0.0370 H     1 <1>   0.0800 
 32 H       -1.0440     0.9790     1.9810 H     1 <1>   0.0800 
 33 H       -1.5690    -0.0790     0.6910 H     1 <1>   0.0800 
 34 H       -2.7110     0.9790     1.4630 H     1 <1>   0.0800 
 35 H        5.3140     1.4250    -1.3530 H     1 <1>   0.0800 
 36 H        8.0510     1.3430     0.9190 H     1 <1>   0.3700 
 37 H        7.5740     1.0890    -0.7300 H     1 <1>   0.3700 
@<TRIPOS>BOND
  1   1   2  2   
  2   2   3  am  
  3   2   4  am  
  4   3   5  1   
  5   3   6  1   
  6   4   7  1   
  7   4  17  1   
  8   5   8  1   
  9   5  18  1   
 10   5  19  1   
 11   6   9  1   
 12   6  20  1   
 13   6  21  1   
 14   7  10  1   
 15   7  11  1   
 16   7  12  1   
 17   8  13  1   
 18   8  22  1   
 19   8  23  1   
 20   9  13  1   
 21   9  24  1   
 22   9  25  1   
 23  10  26  1   
 24  10  27  1   
 25  10  28  1   
 26  11  29  1   
 27  11  30  1   
 28  11  31  1   
 29  12  32  1   
 30  12  33  1   
 31  12  34  1   
 32  13  14  1   
 33  13  35  1   
 34  14  15  2   
 35  14  16  am  
 36  16  36  1   
 37  16  37  1   
@<TRIPOS>SUBSTRUCTURE
  1 ****   3 GROUP 4 **** **** 0

# MOE 2024.06 (io_trps.svl 2023.06)
