@<TRIPOS>MOLECULE
NONAME
42 43 1 0 0 
SMALL
USER_CHARGES


@<TRIPOS>ATOM
  1 O       -0.0810     0.3060    -0.2350 O.2   1 <1>  -0.5700 
  2 C       -0.1920     1.4880     0.0210 C.2   1 <1>   0.5440 
  3 N        0.8680     2.1500     0.5750 N.am  1 <1>  -0.7300 
  4 C       -1.4350     2.1840    -0.2680 C.ar  1 <1>   0.0860 
  5 C        2.1790     1.5480     0.9040 C.3   1 <1>   0.1400 
  6 C       -2.2300     1.7990    -1.3470 C.ar  1 <1>  -0.1500 
  7 C       -1.8910     3.2490     0.5100 C.ar  1 <1>  -0.1500 
  8 C        3.2830     2.3460     0.2100 C.3   1 <1>  -0.1600 
  9 C       -3.4200     2.4400    -1.6390 C.ar  1 <1>  -0.1500 
 10 C       -3.0800     3.8970     0.2250 C.ar  1 <1>  -0.1500 
 11 C        4.6670     1.7680     0.5230 C.3   1 <1>  -0.2400 
 12 C       -3.8580     3.4920    -0.8500 C.ar  1 <1>  -0.1430 
 13 C       -5.1780     4.1780    -1.1560 C.3   1 <1>   0.4860 
 14 N       -6.1870     3.7540    -0.1500 N.4   1 <1>  -0.9590 
 15 C       -6.3840     2.2650    -0.0750 C.3   1 <1>   0.3430 
 16 C       -7.5040     4.4620    -0.2830 C.3   1 <1>   0.3430 
 17 C       -7.4000     1.8910     1.0310 C.3   1 <1>   0.1200 
 18 C       -8.5410     3.9310     0.7350 C.3   1 <1>   0.1200 
 19 O       -7.9490     3.0340     1.6340 O.3   1 <1>  -0.5600 
 20 H        0.8160     3.1610     0.6980 H     1 <1>   0.3700 
 21 H        2.2090     0.5210     0.5780 H     1 <1>   0.0800 
 22 H        2.3200     1.5670     1.9710 H     1 <1>   0.0800 
 23 H       -1.8980     0.9780    -1.9620 H     1 <1>   0.1500 
 24 H       -1.3070     3.5680     1.3560 H     1 <1>   0.1500 
 25 H        3.2490     3.3700     0.5370 H     1 <1>   0.0800 
 26 H        3.1230     2.3160    -0.8540 H     1 <1>   0.0800 
 27 H       -3.9920     2.1050    -2.4890 H     1 <1>   0.1500 
 28 H       -3.3870     4.7170     0.8530 H     1 <1>   0.1500 
 29 H        4.8600     1.7980     1.5810 H     1 <1>   0.0800 
 30 H        5.4270     2.3410     0.0200 H     1 <1>   0.0800 
 31 H        4.7320     0.7470     0.1870 H     1 <1>   0.0800 
 32 H       -5.5050     3.9100    -2.1470 H     1 <1>   0.0800 
 33 H       -5.0420     5.2460    -1.1190 H     1 <1>   0.0800 
 34 H       -5.8310     4.0030     0.7840 H     1 <1>   0.4500 
 35 H       -5.4470     1.7740     0.1340 H     1 <1>   0.0800 
 36 H       -6.7410     1.8910    -1.0200 H     1 <1>   0.0800 
 37 H       -7.8980     4.3340    -1.2770 H     1 <1>   0.0800 
 38 H       -7.3700     5.5200    -0.1210 H     1 <1>   0.0800 
 39 H       -6.9120     1.3190     1.8010 H     1 <1>   0.0800 
 40 H       -8.2000     1.2940     0.6280 H     1 <1>   0.0800 
 41 H       -9.3510     3.4300     0.2310 H     1 <1>   0.0800 
 42 H       -8.9550     4.7450     1.3050 H     1 <1>   0.0800 
@<TRIPOS>BOND
  1   1   2  2   
  2   2   3  am  
  3   2   4  1   
  4   3   5  1   
  5   3  20  1   
  6   4   6  ar  
  7   4   7  ar  
  8   5   8  1   
  9   5  21  1   
 10   5  22  1   
 11   6   9  ar  
 12   6  23  1   
 13   7  10  ar  
 14   7  24  1   
 15   8  11  1   
 16   8  25  1   
 17   8  26  1   
 18   9  12  ar  
 19   9  27  1   
 20  10  12  ar  
 21  10  28  1   
 22  11  29  1   
 23  11  30  1   
 24  11  31  1   
 25  12  13  1   
 26  13  14  1   
 27  13  32  1   
 28  13  33  1   
 29  14  15  1   
 30  14  16  1   
 31  14  34  1   
 32  15  17  1   
 33  15  35  1   
 34  15  36  1   
 35  16  18  1   
 36  16  37  1   
 37  16  38  1   
 38  17  19  1   
 39  17  39  1   
 40  17  40  1   
 41  18  19  1   
 42  18  41  1   
 43  18  42  1   
@<TRIPOS>SUBSTRUCTURE
  1 ****   7 GROUP 4 **** **** 0

# MOE 2024.06 (io_trps.svl 2023.06)
