@<TRIPOS>MOLECULE
NONAME
53 56 1 0 0 
SMALL
USER_CHARGES


@<TRIPOS>ATOM
  1 O       -1.1310    -1.6110     1.9660 O.2   1 <1>  -0.5700 
  2 C       -1.1290    -1.9350     0.7980 C.2   1 <1>   0.5690 
  3 N       -1.9860    -1.3300    -0.0930 N.am  1 <1>  -0.6600 
  4 C       -0.1630    -3.0530     0.3610 C.3   1 <1>   0.1220 
  5 C       -2.1500    -1.7480    -1.5120 C.3   1 <1>   0.1400 
  6 C       -2.7800    -0.1330     0.3110 C.3   1 <1>   0.2840 
  7 C        1.2470    -2.4380     0.3410 C.2   1 <1>   0.5690 
  8 C       -0.5040    -3.5960    -1.0560 C.3   1 <1>  -0.1600 
  9 C       -0.2340    -4.2370     1.3660 C.3   1 <1>  -0.1600 
 10 C       -0.9150    -2.4830    -2.0240 C.3   1 <1>  -0.1600 
 11 C       -2.3700     1.0900    -0.5020 C.ar  1 <1>  -0.1440 
 12 O        1.3960    -1.3350    -0.1390 O.2   1 <1>  -0.5700 
 13 N        2.3360    -3.1470     0.7980 N.am  1 <1>  -0.6600 
 14 C        0.9470    -5.1970     1.1890 C.3   1 <1>  -0.1600 
 15 C       -3.3260     1.8600    -1.1490 C.ar  1 <1>  -0.1500 
 16 C       -1.0330     1.4460    -0.6040 C.ar  1 <1>  -0.1500 
 17 C        2.2680    -4.4780     1.4620 C.3   1 <1>   0.1400 
 18 C        3.7100    -2.5840     0.6870 C.3   1 <1>   0.2840 
 19 C       -2.9510     2.9680    -1.8890 C.ar  1 <1>  -0.1500 
 20 C       -0.6560     2.5530    -1.3430 C.ar  1 <1>  -0.1500 
 21 C        4.4880    -3.3340    -0.3840 C.ar  1 <1>  -0.1440 
 22 C       -1.6150     3.3150    -1.9870 C.ar  1 <1>  -0.1500 
 23 C        5.5710    -4.1350    -0.0510 C.ar  1 <1>  -0.1500 
 24 C        4.1120    -3.2180    -1.7140 C.ar  1 <1>  -0.1500 
 25 C        6.2680    -4.8120    -1.0370 C.ar  1 <1>  -0.1500 
 26 C        4.8080    -3.8950    -2.7010 C.ar  1 <1>  -0.1500 
 27 C        5.8860    -4.6930    -2.3620 C.ar  1 <1>  -0.1500 
 28 H       -2.3210    -0.8880    -2.1370 H     1 <1>   0.0800 
 29 H       -3.0120    -2.3890    -1.5820 H     1 <1>   0.0800 
 30 H       -2.6380     0.0880     1.3540 H     1 <1>   0.0800 
 31 H       -3.8240    -0.3440     0.1630 H     1 <1>   0.0800 
 32 H       -1.3180    -4.2970    -0.9910 H     1 <1>   0.0800 
 33 H        0.3470    -4.1160    -1.4620 H     1 <1>   0.0800 
 34 H       -1.1650    -4.7640     1.2570 H     1 <1>   0.0800 
 35 H       -0.1990    -3.8610     2.3740 H     1 <1>   0.0800 
 36 H       -0.1130    -1.7770    -2.1560 H     1 <1>   0.0800 
 37 H       -1.1320    -2.9040    -2.9890 H     1 <1>   0.0800 
 38 H        0.9640    -5.6110     0.1970 H     1 <1>   0.0800 
 39 H        0.8510    -6.0190     1.8760 H     1 <1>   0.0800 
 40 H       -4.3680     1.6010    -1.0800 H     1 <1>   0.1500 
 41 H       -0.2790     0.8550    -0.1080 H     1 <1>   0.1500 
 42 H        2.3810    -4.3310     2.5230 H     1 <1>   0.0800 
 43 H        3.0800    -5.0980     1.1200 H     1 <1>   0.0800 
 44 H        4.2050    -2.6670     1.6380 H     1 <1>   0.0800 
 45 H        3.6770    -1.5390     0.4320 H     1 <1>   0.0800 
 46 H       -3.6970     3.5610    -2.3880 H     1 <1>   0.1500 
 47 H        0.3850     2.8160    -1.4160 H     1 <1>   0.1500 
 48 H       -1.3210     4.1760    -2.5610 H     1 <1>   0.1500 
 49 H        5.8770    -4.2350     0.9750 H     1 <1>   0.1500 
 50 H        3.2720    -2.5970    -1.9780 H     1 <1>   0.1500 
 51 H        7.1070    -5.4320    -0.7750 H     1 <1>   0.1500 
 52 H        4.5080    -3.7980    -3.7290 H     1 <1>   0.1500 
 53 H        6.4280    -5.2190    -3.1290 H     1 <1>   0.1500 
@<TRIPOS>BOND
  1   1   2  2   
  2   2   3  am  
  3   2   4  1   
  4   3   5  1   
  5   3   6  1   
  6   4   7  1   
  7   4   8  1   
  8   4   9  1   
  9   5  10  1   
 10   5  28  1   
 11   5  29  1   
 12   6  11  1   
 13   6  30  1   
 14   6  31  1   
 15   7  12  2   
 16   7  13  am  
 17   8  10  1   
 18   8  32  1   
 19   8  33  1   
 20   9  14  1   
 21   9  34  1   
 22   9  35  1   
 23  10  36  1   
 24  10  37  1   
 25  11  15  ar  
 26  11  16  ar  
 27  13  17  1   
 28  13  18  1   
 29  14  17  1   
 30  14  38  1   
 31  14  39  1   
 32  15  19  ar  
 33  15  40  1   
 34  16  20  ar  
 35  16  41  1   
 36  17  42  1   
 37  17  43  1   
 38  18  21  1   
 39  18  44  1   
 40  18  45  1   
 41  19  22  ar  
 42  19  46  1   
 43  20  22  ar  
 44  20  47  1   
 45  21  23  ar  
 46  21  24  ar  
 47  22  48  1   
 48  23  25  ar  
 49  23  49  1   
 50  24  26  ar  
 51  24  50  1   
 52  25  27  ar  
 53  25  51  1   
 54  26  27  ar  
 55  26  52  1   
 56  27  53  1   
@<TRIPOS>SUBSTRUCTURE
  1 ****  12 GROUP 4 **** **** 0

# MOE 2024.06 (io_trps.svl 2023.06)
