@<TRIPOS>MOLECULE
10625
46 48 1 0 0 
SMALL
USER_CHARGES


@<TRIPOS>ATOM
  1 O        0.5050    -1.1690     2.0580 O.2   1 <1>  -0.5700 
  2 C        0.2610    -1.7900     1.0400 C.2   1 <1>   0.7060 
  3 O        1.2500    -1.9980     0.1670 O.3   1 <1>  -0.4300 
  4 C       -1.0450    -2.2800     0.7370 C.2   1 <1>  -0.1240 
  5 C        2.5480    -1.4820     0.3890 C.3   1 <1>   0.1200 
  6 C       -1.3950    -3.3790     0.0020 C.2   1 <1>  -0.0380 
  7 C       -2.1360    -1.3790     1.3450 C.3   1 <1>   0.4570 
  8 C        3.4460    -1.7990    -0.8170 C.3   1 <1>  -0.0800 
  9 N       -2.7170    -3.7130    -0.1930 N.pl3 1 <1>  -0.5840 
 10 C       -0.4220    -4.3540    -0.6440 C.3   1 <1>  -0.1020 
 11 N       -3.4860    -1.9710     1.1980 N.pl3 1 <1>   0.3140 
 12 C       -2.1010    -0.0050     0.6690 C.ar  1 <1>  -0.1440 
 13 C        3.5820    -3.3110    -1.0530 C.3   1 <1>  -0.2400 
 14 C        4.8360    -1.1850    -0.6100 C.3   1 <1>  -0.2400 
 15 C       -3.7330    -3.0370     0.4650 C.2   1 <1>   0.2700 
 16 N       -4.6290    -1.5750     1.7340 N.2   1 <1>  -0.4180 
 17 C       -2.4230     0.1350    -0.6760 C.ar  1 <1>  -0.1500 
 18 C       -1.7340     1.1200     1.3940 C.ar  1 <1>  -0.1500 
 19 N       -4.9810    -3.3180     0.5000 N.2   1 <1>  -0.3380 
 20 N       -5.5210    -2.3940     1.2980 N.2   1 <1>   0.0000 
 21 C       -2.3810     1.3790    -1.2790 C.ar  1 <1>  -0.1500 
 22 C       -1.6920     2.3660     0.7920 C.ar  1 <1>  -0.1500 
 23 C       -2.0170     2.5010    -0.5540 C.ar  1 <1>   0.0820 
 24 O       -2.0030     3.6820    -1.2210 O.3   1 <1>  -0.3620 
 25 C       -1.6760     4.8880    -0.5680 C.3   1 <1>   0.0400 
 26 H        2.9400    -1.9270     1.2880 H     1 <1>   0.0800 
 27 H        2.4660    -0.4170     0.5260 H     1 <1>   0.0800 
 28 H       -1.9620    -1.2680     2.4000 H     1 <1>   0.0800 
 29 H        3.0080    -1.3460    -1.6900 H     1 <1>   0.0800 
 30 H       -2.9980    -4.5340    -0.7410 H     1 <1>   0.4000 
 31 H       -0.8030    -5.3580    -0.5850 H     1 <1>   0.0800 
 32 H        0.5300    -4.3470    -0.1480 H     1 <1>   0.0800 
 33 H       -0.2800    -4.0970    -1.6780 H     1 <1>   0.0800 
 34 H        3.9810    -3.7970    -0.1800 H     1 <1>   0.0800 
 35 H        4.2390    -3.5010    -1.8830 H     1 <1>   0.0800 
 36 H        2.6250    -3.7420    -1.2810 H     1 <1>   0.0800 
 37 H        5.3150    -1.6080     0.2560 H     1 <1>   0.0800 
 38 H        4.7580    -0.1200    -0.4730 H     1 <1>   0.0800 
 39 H        5.4570    -1.3680    -1.4690 H     1 <1>   0.0800 
 40 H       -2.7090    -0.7200    -1.2660 H     1 <1>   0.1500 
 41 H       -1.4720     1.0350     2.4360 H     1 <1>   0.1500 
 42 H       -2.6320     1.4880    -2.3180 H     1 <1>   0.1500 
 43 H       -1.4030     3.2130     1.3830 H     1 <1>   0.1500 
 44 H       -1.7420     5.6850    -1.2860 H     1 <1>   0.0800 
 45 H       -0.6710     4.8190    -0.1900 H     1 <1>   0.0800 
 46 H       -2.3790     5.0540     0.2290 H     1 <1>   0.0800 
@<TRIPOS>BOND
  1   1   2  2   
  2   2   3  1   
  3   2   4  1   
  4   3   5  1   
  5   4   6  2   
  6   4   7  1   
  7   5   8  1   
  8   5  26  1   
  9   5  27  1   
 10   6   9  1   
 11   6  10  1   
 12   7  11  1   
 13   7  12  1   
 14   7  28  1   
 15   8  13  1   
 16   8  14  1   
 17   8  29  1   
 18   9  15  1   
 19   9  30  1   
 20  10  31  1   
 21  10  32  1   
 22  10  33  1   
 23  11  15  1   
 24  11  16  1   
 25  12  17  ar  
 26  12  18  ar  
 27  13  34  1   
 28  13  35  1   
 29  13  36  1   
 30  14  37  1   
 31  14  38  1   
 32  14  39  1   
 33  15  19  2   
 34  16  20  2   
 35  17  21  ar  
 36  17  40  1   
 37  18  22  ar  
 38  18  41  1   
 39  19  20  1   
 40  21  23  ar  
 41  21  42  1   
 42  22  23  ar  
 43  22  43  1   
 44  23  24  1   
 45  24  25  1   
 46  25  44  1   
 47  25  45  1   
 48  25  46  1   
@<TRIPOS>SUBSTRUCTURE
  1 ****  12 GROUP 4 **** **** 0

# MOE 2024.06 (io_trps.svl 2023.06)
