@<TRIPOS>MOLECULE
NONAME
34 36 1 0 0 
SMALL
USER_CHARGES


@<TRIPOS>ATOM
  1 BR      -0.5470    -0.9420     0.9380 Br    1 <1>  -0.1110 
  2 C       -1.8510     0.4510     0.5810 C.ar  1 <1>   0.1110 
  3 C       -3.0730     0.4490     1.2450 C.ar  1 <1>  -0.1710 
  4 C       -1.4770     1.4240    -0.3160 C.ar  1 <1>  -0.1500 
  5 O       -3.2850    -0.4250     2.1300 O.3   1 <1>  -0.8290 
  6 C       -4.0310     1.4660     0.9040 C.ar  1 <1>   0.3100 
  7 C       -2.3520     2.4500    -0.5970 C.ar  1 <1>  -0.1440 
  8 N       -5.2520     1.4840     1.4940 N.ar  1 <1>  -0.6200 
  9 C       -3.6580     2.4570    -0.0510 C.ar  1 <1>   0.0000 
 10 C       -1.8320     3.6030    -1.4210 C.3   1 <1>   0.4870 
 11 C       -6.1050     2.3980     1.1540 C.ar  1 <1>   0.1600 
 12 C       -4.6280     3.4260    -0.3970 C.ar  1 <1>  -0.1500 
 13 N       -1.0040     4.4440    -0.5110 N.4   1 <1>  -0.9590 
 14 C       -5.8450     3.3890     0.2100 C.ar  1 <1>  -0.1500 
 15 C       -1.7940     4.9420     0.6770 C.3   1 <1>   0.3430 
 16 C       -0.3200     5.5740    -1.2230 C.3   1 <1>   0.3430 
 17 C       -0.9560     5.8820     1.5600 C.3   1 <1>   0.1200 
 18 C        0.4490     6.4750    -0.2380 C.3   1 <1>   0.1200 
 19 O       -0.3980     6.9070     0.7870 O.3   1 <1>  -0.5600 
 20 H       -0.4970     1.3570    -0.7500 H     1 <1>   0.1500 
 21 H       -2.6360     4.1770    -1.8450 H     1 <1>   0.0800 
 22 H       -1.2260     3.2180    -2.2260 H     1 <1>   0.0800 
 23 H       -7.0690     2.3780     1.6330 H     1 <1>   0.1500 
 24 H       -4.4380     4.1820    -1.1320 H     1 <1>   0.1500 
 25 H       -0.2920     3.8140    -0.1180 H     1 <1>   0.4500 
 26 H       -6.6180     4.1000    -0.0190 H     1 <1>   0.1500 
 27 H       -2.1320     4.1090     1.2740 H     1 <1>   0.0800 
 28 H       -2.6660     5.4770     0.3400 H     1 <1>   0.0800 
 29 H       -1.0520     6.1800    -1.7310 H     1 <1>   0.0800 
 30 H        0.3630     5.1880    -1.9610 H     1 <1>   0.0800 
 31 H       -0.1640     5.3460     2.0550 H     1 <1>   0.0800 
 32 H       -1.5800     6.3380     2.3100 H     1 <1>   0.0800 
 33 H        0.8190     7.3490    -0.7460 H     1 <1>   0.0800 
 34 H        1.2840     5.9540     0.1980 H     1 <1>   0.0800 
@<TRIPOS>BOND
  1   1   2  1   
  2   2   3  ar  
  3   2   4  ar  
  4   3   5  1   
  5   3   6  ar  
  6   4   7  ar  
  7   4  20  1   
  8   6   8  ar  
  9   6   9  ar  
 10   7   9  ar  
 11   7  10  1   
 12   8  11  ar  
 13   9  12  ar  
 14  10  13  1   
 15  10  21  1   
 16  10  22  1   
 17  11  14  ar  
 18  11  23  1   
 19  12  14  ar  
 20  12  24  1   
 21  13  15  1   
 22  13  16  1   
 23  13  25  1   
 24  14  26  1   
 25  15  17  1   
 26  15  27  1   
 27  15  28  1   
 28  16  18  1   
 29  16  29  1   
 30  16  30  1   
 31  17  19  1   
 32  17  31  1   
 33  17  32  1   
 34  18  19  1   
 35  18  33  1   
 36  18  34  1   
@<TRIPOS>SUBSTRUCTURE
  1 ****   7 GROUP 4 **** **** 0

# MOE 2024.06 (io_trps.svl 2023.06)
