@<TRIPOS>MOLECULE
NONAME
41 42 1 0 0 
SMALL
USER_CHARGES


@<TRIPOS>ATOM
  1 O        0.4100     0.1790    -0.2740 O.3   1 <1>  -0.3630 
  2 C       -0.2170    -0.6750    -1.1330 C.ar  1 <1>   0.0830 
  3 C        1.5370    -0.2260     0.4670 C.3   1 <1>   0.1200 
  4 C       -0.3010    -2.0710    -0.9890 C.ar  1 <1>   0.0820 
  5 C       -0.8130    -0.0640    -2.2240 C.ar  1 <1>  -0.1500 
  6 C        2.3100     1.0240     0.8820 C.3   1 <1>  -0.1600 
  7 O        0.2430    -2.6820     0.1040 O.3   1 <1>  -0.3630 
  8 C       -0.9620    -2.8090    -1.9700 C.ar  1 <1>  -0.1500 
  9 C       -1.4730    -0.8080    -3.1850 C.ar  1 <1>  -0.1500 
 10 C        3.5850     0.6370     1.6370 C.3   1 <1>   0.1200 
 11 C       -0.1180    -3.9950     0.4740 C.3   1 <1>   0.0400 
 12 C       -1.5430    -2.1830    -3.0580 C.ar  1 <1>  -0.1500 
 13 O        4.2990     1.8020     1.9940 O.3   1 <1>  -0.3630 
 14 C        5.0870     2.4860     1.1230 C.ar  1 <1>   0.0830 
 15 C        5.3070     2.1070    -0.1990 C.ar  1 <1>  -0.1500 
 16 C        5.6960     3.6290     1.6170 C.ar  1 <1>  -0.1500 
 17 C        6.1300     2.8770    -1.0160 C.ar  1 <1>   0.0830 
 18 C        6.5180     4.3940     0.8080 C.ar  1 <1>  -0.1500 
 19 O        6.3900     2.5840    -2.3160 O.3   1 <1>  -0.3620 
 20 C        6.7320     4.0160    -0.5050 C.ar  1 <1>  -0.1500 
 21 C        5.7650     1.5000    -2.9650 C.3   1 <1>   0.0400 
 22 H        2.1420    -0.8620    -0.1570 H     1 <1>   0.0800 
 23 H        1.1950    -0.7690     1.3310 H     1 <1>   0.0800 
 24 H       -0.7540     1.0060    -2.3180 H     1 <1>   0.1500 
 25 H        1.6890     1.6250     1.5220 H     1 <1>   0.0800 
 26 H        2.5580     1.5860     0.0010 H     1 <1>   0.0800 
 27 H       -1.0360    -3.8780    -1.9080 H     1 <1>   0.1500 
 28 H       -1.9280    -0.3180    -4.0280 H     1 <1>   0.1500 
 29 H        4.2260    -0.0080     1.0640 H     1 <1>   0.0800 
 30 H        3.3280     0.1330     2.5530 H     1 <1>   0.0800 
 31 H        0.3130    -4.2020     1.4370 H     1 <1>   0.0800 
 32 H        0.2720    -4.6850    -0.2530 H     1 <1>   0.0800 
 33 H       -1.1900    -4.0600     0.5340 H     1 <1>   0.0800 
 34 H       -2.0520    -2.7650    -3.8070 H     1 <1>   0.1500 
 35 H        4.8450     1.2260    -0.5890 H     1 <1>   0.1500 
 36 H        5.5220     3.9140     2.6390 H     1 <1>   0.1500 
 37 H        6.9880     5.2790     1.1990 H     1 <1>   0.1500 
 38 H        7.3680     4.6020    -1.1430 H     1 <1>   0.1500 
 39 H        6.0930     1.4890    -3.9880 H     1 <1>   0.0800 
 40 H        4.6980     1.6370    -2.9250 H     1 <1>   0.0800 
 41 H        6.0560     0.5860    -2.4780 H     1 <1>   0.0800 
@<TRIPOS>BOND
  1   1   2  1   
  2   1   3  1   
  3   2   4  ar  
  4   2   5  ar  
  5   3   6  1   
  6   3  22  1   
  7   3  23  1   
  8   4   7  1   
  9   4   8  ar  
 10   5   9  ar  
 11   5  24  1   
 12   6  10  1   
 13   6  25  1   
 14   6  26  1   
 15   7  11  1   
 16   8  12  ar  
 17   8  27  1   
 18   9  12  ar  
 19   9  28  1   
 20  10  13  1   
 21  10  29  1   
 22  10  30  1   
 23  11  31  1   
 24  11  32  1   
 25  11  33  1   
 26  12  34  1   
 27  13  14  1   
 28  14  15  ar  
 29  14  16  ar  
 30  15  17  ar  
 31  15  35  1   
 32  16  18  ar  
 33  16  36  1   
 34  17  19  1   
 35  17  20  ar  
 36  18  20  ar  
 37  18  37  1   
 38  19  21  1   
 39  20  38  1   
 40  21  39  1   
 41  21  40  1   
 42  21  41  1   
@<TRIPOS>SUBSTRUCTURE
  1 ****   6 GROUP 4 **** **** 0

# MOE 2024.06 (io_trps.svl 2023.06)
