@<TRIPOS>MOLECULE
NONAME
52 54 1 0 0 
SMALL
USER_CHARGES


@<TRIPOS>ATOM
  1 O       -0.7910    -0.8970    -1.5090 O.2   1 <1>  -0.5700 
  2 C       -1.3160    -1.7770    -0.8520 C.2   1 <1>   0.6900 
  3 N       -2.6740    -1.9390    -0.8570 N.am  1 <1>  -0.6600 
  4 N       -0.5570    -2.6250    -0.1190 N.am  1 <1>  -0.7300 
  5 C       -3.4430    -2.4670     0.3130 C.3   1 <1>   0.1400 
  6 C       -3.5300    -1.1930    -1.8310 C.3   1 <1>   0.1400 
  7 C        0.9100    -2.5940    -0.0350 C.3   1 <1>   0.2200 
  8 C       -4.2390    -1.3510     1.0170 C.3   1 <1>   0.2090 
  9 C       -4.3160    -0.0640    -1.1440 C.3   1 <1>   0.2090 
 10 C        1.4810    -3.7460    -0.8680 C.3   1 <1>  -0.1600 
 11 C        1.3230    -2.7130     1.4360 C.3   1 <1>  -0.1600 
 12 N       -5.0550    -0.5420     0.0650 N.pl3 1 <1>  -0.8380 
 13 C        3.0080    -3.8280    -0.7290 C.3   1 <1>  -0.1600 
 14 C        2.8500    -2.7920     1.5790 C.3   1 <1>  -0.1600 
 15 C       -6.4160    -0.8250    -0.0520 C.ar  1 <1>   0.1000 
 16 C        3.4270    -3.9430     0.7430 C.3   1 <1>  -0.1600 
 17 C       -7.3740     0.0250     0.5020 C.ar  1 <1>  -0.1440 
 18 C       -6.8430    -1.9650    -0.7230 C.ar  1 <1>  -0.1500 
 19 C       -8.7200    -0.2760     0.3770 C.ar  1 <1>  -0.1500 
 20 C       -6.9470     1.2830     1.2440 C.3   1 <1>  -0.0970 
 21 C       -8.1870    -2.2590    -0.8450 C.ar  1 <1>  -0.1500 
 22 C       -9.1360    -1.4140    -0.2950 C.ar  1 <1>  -0.1440 
 23 C      -10.6150    -1.7300    -0.4210 C.3   1 <1>  -0.0970 
 24 H       -0.9980    -3.4820     0.1940 H     1 <1>   0.3700 
 25 H       -2.7850    -2.9210     1.0300 H     1 <1>   0.0800 
 26 H       -4.1270    -3.2220    -0.0300 H     1 <1>   0.0800 
 27 H       -4.2220    -1.8780    -2.2860 H     1 <1>   0.0800 
 28 H       -2.9270    -0.7750    -2.6180 H     1 <1>   0.0800 
 29 H        1.2780    -1.6590    -0.4270 H     1 <1>   0.0800 
 30 H       -3.5530    -0.6970     1.5240 H     1 <1>   0.0800 
 31 H       -4.8870    -1.7870     1.7580 H     1 <1>   0.0800 
 32 H       -5.0140     0.3630    -1.8430 H     1 <1>   0.0800 
 33 H       -3.6290     0.7100    -0.8490 H     1 <1>   0.0800 
 34 H        1.2260    -3.5920    -1.9020 H     1 <1>   0.0800 
 35 H        1.0490    -4.6760    -0.5430 H     1 <1>   0.0800 
 36 H        0.8860    -3.5980     1.8630 H     1 <1>   0.0800 
 37 H        0.9600    -1.8560     1.9750 H     1 <1>   0.0800 
 38 H        3.4510    -2.9440    -1.1570 H     1 <1>   0.0800 
 39 H        3.3760    -4.6780    -1.2780 H     1 <1>   0.0800 
 40 H        3.1100    -2.9320     2.6140 H     1 <1>   0.0800 
 41 H        3.2860    -1.8630     1.2530 H     1 <1>   0.0800 
 42 H        4.5010    -3.9360     0.8130 H     1 <1>   0.0800 
 43 H        3.0780    -4.8820     1.1400 H     1 <1>   0.0800 
 44 H       -6.1150    -2.6230    -1.1520 H     1 <1>   0.1500 
 45 H       -9.4560     0.3800     0.8070 H     1 <1>   0.1500 
 46 H       -6.3260     1.0160     2.0790 H     1 <1>   0.0800 
 47 H       -7.7970     1.8320     1.6050 H     1 <1>   0.0800 
 48 H       -6.3810     1.9160     0.5840 H     1 <1>   0.0800 
 49 H       -8.4920    -3.1480    -1.3680 H     1 <1>   0.1500 
 50 H      -11.1840    -0.8230    -0.5140 H     1 <1>   0.0800 
 51 H      -10.9470    -2.2630     0.4510 H     1 <1>   0.0800 
 52 H      -10.7990    -2.3360    -1.2900 H     1 <1>   0.0800 
@<TRIPOS>BOND
  1   1   2  2   
  2   2   3  am  
  3   2   4  am  
  4   3   5  1   
  5   3   6  1   
  6   4   7  1   
  7   4  24  1   
  8   5   8  1   
  9   5  25  1   
 10   5  26  1   
 11   6   9  1   
 12   6  27  1   
 13   6  28  1   
 14   7  10  1   
 15   7  11  1   
 16   7  29  1   
 17   8  12  1   
 18   8  30  1   
 19   8  31  1   
 20   9  12  1   
 21   9  32  1   
 22   9  33  1   
 23  10  13  1   
 24  10  34  1   
 25  10  35  1   
 26  11  14  1   
 27  11  36  1   
 28  11  37  1   
 29  12  15  1   
 30  13  16  1   
 31  13  38  1   
 32  13  39  1   
 33  14  16  1   
 34  14  40  1   
 35  14  41  1   
 36  15  17  ar  
 37  15  18  ar  
 38  16  42  1   
 39  16  43  1   
 40  17  19  ar  
 41  17  20  1   
 42  18  21  ar  
 43  18  44  1   
 44  19  22  ar  
 45  19  45  1   
 46  20  46  1   
 47  20  47  1   
 48  20  48  1   
 49  21  22  ar  
 50  21  49  1   
 51  22  23  1   
 52  23  50  1   
 53  23  51  1   
 54  23  52  1   
@<TRIPOS>SUBSTRUCTURE
  1 ****   5 GROUP 4 **** **** 0

# MOE 2024.06 (io_trps.svl 2023.06)
