@<TRIPOS>MOLECULE
NONAME
43 44 1 0 0 
SMALL
USER_CHARGES


@<TRIPOS>ATOM
  1 O        0.3100    -0.3690    -0.8370 O.3   1 <1>  -0.3630 
  2 C       -0.8760    -0.7530    -0.2840 C.ar  1 <1>   0.0830 
  3 C        1.5170    -1.0000    -0.4690 C.3   1 <1>   0.1200 
  4 C       -1.2170    -2.0660     0.0810 C.ar  1 <1>   0.0830 
  5 C       -1.7900     0.2700    -0.0910 C.ar  1 <1>  -0.1500 
  6 C        2.6630    -0.0440    -0.7830 C.3   1 <1>   0.1200 
  7 O       -0.3380    -3.0860    -0.1500 O.3   1 <1>  -0.3630 
  8 C       -2.4640    -2.3010     0.6590 C.ar  1 <1>  -0.1500 
  9 C       -3.0260     0.0220     0.4770 C.ar  1 <1>  -0.1500 
 10 O        3.8700    -0.6450    -0.4170 O.3   1 <1>  -0.5600 
 11 C       -0.6960    -4.4390     0.0270 C.3   1 <1>   0.0400 
 12 C       -3.3600    -1.2650     0.8550 C.ar  1 <1>  -0.1500 
 13 C        4.9930     0.1320    -0.6620 C.3   1 <1>   0.1200 
 14 C        6.2140    -0.6850    -0.2230 C.3   1 <1>   0.3430 
 15 N        7.5070     0.0370    -0.4560 N.4   1 <1>  -0.9590 
 16 C        8.6830    -0.8220    -0.1720 C.3   1 <1>   0.3430 
 17 C        7.6860     1.2500     0.3830 C.3   1 <1>   0.3430 
 18 C        9.8330     0.1590     0.0060 C.3   1 <1>  -0.1600 
 19 C        9.1880     1.4980     0.3750 C.3   1 <1>  -0.1600 
 20 H        1.6140    -1.9030    -1.0450 H     1 <1>   0.0800 
 21 H        1.4820    -1.2200     0.5840 H     1 <1>   0.0800 
 22 H       -1.5250     1.2690    -0.3860 H     1 <1>   0.1500 
 23 H        2.5420     0.8660    -0.2210 H     1 <1>   0.0800 
 24 H        2.6830     0.1650    -1.8390 H     1 <1>   0.0800 
 25 H       -2.7620    -3.2850     0.9640 H     1 <1>   0.1500 
 26 H       -3.7240     0.8280     0.6230 H     1 <1>   0.1500 
 27 H        0.1320    -5.0470    -0.2890 H     1 <1>   0.0800 
 28 H       -1.5590    -4.6540    -0.5800 H     1 <1>   0.0800 
 29 H       -0.9010    -4.6140     1.0680 H     1 <1>   0.0800 
 30 H       -4.3200    -1.4600     1.3010 H     1 <1>   0.1500 
 31 H        4.9050     1.0400    -0.0910 H     1 <1>   0.0800 
 32 H        5.0340     0.3450    -1.7170 H     1 <1>   0.0800 
 33 H        6.2150    -1.6080    -0.7790 H     1 <1>   0.0800 
 34 H        6.1130    -0.9210     0.8230 H     1 <1>   0.0800 
 35 H        7.5710     0.3200    -1.4430 H     1 <1>   0.4500 
 36 H        8.8720    -1.5210    -0.9720 H     1 <1>   0.0800 
 37 H        8.5270    -1.3630     0.7480 H     1 <1>   0.0800 
 38 H        7.3610     1.0480     1.3910 H     1 <1>   0.0800 
 39 H        7.1410     2.0940    -0.0080 H     1 <1>   0.0800 
 40 H       10.3830     0.2480    -0.9150 H     1 <1>   0.0800 
 41 H       10.5060    -0.1870     0.7720 H     1 <1>   0.0800 
 42 H        9.5150     1.8460     1.3400 H     1 <1>   0.0800 
 43 H        9.4330     2.2480    -0.3580 H     1 <1>   0.0800 
@<TRIPOS>BOND
  1   1   2  1   
  2   1   3  1   
  3   2   4  ar  
  4   2   5  ar  
  5   3   6  1   
  6   3  20  1   
  7   3  21  1   
  8   4   7  1   
  9   4   8  ar  
 10   5   9  ar  
 11   5  22  1   
 12   6  10  1   
 13   6  23  1   
 14   6  24  1   
 15   7  11  1   
 16   8  12  ar  
 17   8  25  1   
 18   9  12  ar  
 19   9  26  1   
 20  10  13  1   
 21  11  27  1   
 22  11  28  1   
 23  11  29  1   
 24  12  30  1   
 25  13  14  1   
 26  13  31  1   
 27  13  32  1   
 28  14  15  1   
 29  14  33  1   
 30  14  34  1   
 31  15  16  1   
 32  15  17  1   
 33  15  35  1   
 34  16  18  1   
 35  16  36  1   
 36  16  37  1   
 37  17  19  1   
 38  17  38  1   
 39  17  39  1   
 40  18  19  1   
 41  18  40  1   
 42  18  41  1   
 43  19  42  1   
 44  19  43  1   
@<TRIPOS>SUBSTRUCTURE
  1 ****   6 GROUP 4 **** **** 0

# MOE 2024.06 (io_trps.svl 2023.06)
