@<TRIPOS>MOLECULE
NONAME
30 30 1 0 0 
SMALL
USER_CHARGES


@<TRIPOS>ATOM
  1 O        0.4320     1.0130    -1.2390 O.2   1 <1>  -0.5700 
  2 C        0.7950     1.4860    -0.1920 C.2   1 <1>   0.6590 
  3 O       -0.0560     2.0680     0.6460 O.3   1 <1>  -0.4300 
  4 C        2.2570     1.4710     0.2540 C.3   1 <1>  -0.0190 
  5 C       -1.4350     2.1620     0.3550 C.3   1 <1>   0.0400 
  6 C        2.9900     2.7400    -0.2220 C.3   1 <1>  -0.1600 
  7 C        3.0050     0.2070    -0.2200 C.3   1 <1>  -0.1600 
  8 C        4.4620     2.7480     0.2200 C.3   1 <1>  -0.1600 
  9 C        4.4720     0.2150     0.2320 C.3   1 <1>  -0.1600 
 10 C        5.2070     1.4840    -0.2490 C.3   1 <1>  -0.0190 
 11 C        6.6690     1.5160     0.1970 C.2   1 <1>   0.6590 
 12 O        7.0370     1.0510     1.2460 O.2   1 <1>  -0.5700 
 13 O        7.5130     2.1040    -0.6440 O.3   1 <1>  -0.4300 
 14 C        8.8920     2.2140    -0.3540 C.3   1 <1>   0.0400 
 15 H        2.2580     1.4670     1.3300 H     1 <1>   0.0800 
 16 H       -1.9220     2.6680     1.1690 H     1 <1>   0.0800 
 17 H       -1.8350     1.1690     0.2410 H     1 <1>   0.0800 
 18 H       -1.5610     2.7190    -0.5570 H     1 <1>   0.0800 
 19 H        2.4940     3.6100     0.1740 H     1 <1>   0.0800 
 20 H        2.9400     2.7940    -1.2970 H     1 <1>   0.0800 
 21 H        2.9650     0.1500    -1.2960 H     1 <1>   0.0800 
 22 H        2.5140    -0.6680     0.1700 H     1 <1>   0.0800 
 23 H        4.5110     2.8090     1.2940 H     1 <1>   0.0800 
 24 H        4.9490     3.6210    -0.1800 H     1 <1>   0.0800 
 25 H        4.9720    -0.6570    -0.1530 H     1 <1>   0.0800 
 26 H        4.5120     0.1650     1.3080 H     1 <1>   0.0800 
 27 H        5.2070     1.4740    -1.3250 H     1 <1>   0.0800 
 28 H        9.3740     2.7210    -1.1700 H     1 <1>   0.0800 
 29 H        9.3020     1.2250    -0.2360 H     1 <1>   0.0800 
 30 H        9.0120     2.7750     0.5570 H     1 <1>   0.0800 
@<TRIPOS>BOND
  1   1   2  2   
  2   2   3  1   
  3   2   4  1   
  4   3   5  1   
  5   4   6  1   
  6   4   7  1   
  7   4  15  1   
  8   5  16  1   
  9   5  17  1   
 10   5  18  1   
 11   6   8  1   
 12   6  19  1   
 13   6  20  1   
 14   7   9  1   
 15   7  21  1   
 16   7  22  1   
 17   8  10  1   
 18   8  23  1   
 19   8  24  1   
 20   9  10  1   
 21   9  25  1   
 22   9  26  1   
 23  10  11  1   
 24  10  27  1   
 25  11  12  2   
 26  11  13  1   
 27  13  14  1   
 28  14  28  1   
 29  14  29  1   
 30  14  30  1   
@<TRIPOS>SUBSTRUCTURE
  1 ****   8 GROUP 4 **** **** 0

# MOE 2024.06 (io_trps.svl 2023.06)
