@<TRIPOS>MOLECULE
NONAME
44 45 1 0 0 
SMALL
USER_CHARGES


@<TRIPOS>ATOM
  1 S        0.0680    -1.9980     0.3290 S.3   1 <1>  -0.2860 
  2 C       -1.6570    -1.4990     0.3920 C.2   1 <1>   0.2420 
  3 C        0.9450    -0.5010     1.0050 C.3   1 <1>   0.1310 
  4 N       -2.0410    -0.3390     0.7890 N.2   1 <1>  -0.3380 
  5 N       -2.6580    -2.2990     0.0280 N.pl3 1 <1>   0.0480 
  6 C        2.4560    -0.6610     0.9440 C.2   1 <1>   0.5690 
  7 N       -3.3730    -0.3480     0.6880 N.2   1 <1>  -0.3380 
  8 C       -3.7240    -1.5100     0.2370 C.2   1 <1>   0.0060 
  9 C       -2.5900    -3.6920    -0.4690 C.3   1 <1>   0.0960 
 10 O        3.1220     0.0000     1.7010 O.2   1 <1>  -0.5700 
 11 N        2.9850    -1.5400     0.0360 N.am  1 <1>  -0.5470 
 12 C       -5.1590    -1.9550    -0.0310 C.3   1 <1>   0.0200 
 13 C       -2.4240    -3.7160    -1.9920 C.3   1 <1>  -0.2400 
 14 C        4.3090    -1.8780    -0.2820 C.ar  1 <1>   0.1170 
 15 C       -6.1900    -0.8350     0.1770 C.3   1 <1>  -0.1600 
 16 C        5.4010    -1.0810     0.0500 C.ar  1 <1>  -0.1500 
 17 C        4.5440    -3.0600    -0.9760 C.ar  1 <1>  -0.1500 
 18 C       -7.6180    -1.3180    -0.1130 C.3   1 <1>  -0.1600 
 19 C        6.6870    -1.4570    -0.2970 C.ar  1 <1>  -0.1500 
 20 C        5.8270    -3.4400    -1.3260 C.ar  1 <1>  -0.1500 
 21 C       -8.6310    -0.1910     0.0990 C.3   1 <1>  -0.2400 
 22 C        6.9020    -2.6370    -0.9860 C.ar  1 <1>  -0.1500 
 23 H        0.6200    -0.3750     2.0220 H     1 <1>   0.0800 
 24 H        0.6360     0.3440     0.4190 H     1 <1>   0.0800 
 25 H       -3.4900    -4.2080    -0.1870 H     1 <1>   0.0800 
 26 H       -1.7590    -4.1890     0.0000 H     1 <1>   0.0800 
 27 H        2.2800    -2.0860    -0.4600 H     1 <1>   0.3700 
 28 H       -5.3940    -2.7720     0.6270 H     1 <1>   0.0800 
 29 H       -5.2290    -2.3060    -1.0440 H     1 <1>   0.0800 
 30 H       -3.2550    -3.2290    -2.4710 H     1 <1>   0.0800 
 31 H       -2.3800    -4.7330    -2.3370 H     1 <1>   0.0800 
 32 H       -1.5120    -3.2210    -2.2770 H     1 <1>   0.0800 
 33 H       -5.9500    -0.0100    -0.4710 H     1 <1>   0.0800 
 34 H       -6.1290    -0.4830     1.1940 H     1 <1>   0.0800 
 35 H        5.2550    -0.1580     0.5790 H     1 <1>   0.1500 
 36 H        3.7180    -3.6930    -1.2430 H     1 <1>   0.1500 
 37 H       -7.8630    -2.1390     0.5380 H     1 <1>   0.0800 
 38 H       -7.6840    -1.6640    -1.1310 H     1 <1>   0.0800 
 39 H        7.5190    -0.8290    -0.0300 H     1 <1>   0.1500 
 40 H        5.9930    -4.3590    -1.8610 H     1 <1>   0.1500 
 41 H       -8.5970     0.1590     1.1160 H     1 <1>   0.0800 
 42 H       -9.6260    -0.5440    -0.1080 H     1 <1>   0.0800 
 43 H       -8.4180     0.6350    -0.5570 H     1 <1>   0.0800 
 44 H        7.9020    -2.9300    -1.2550 H     1 <1>   0.1500 
@<TRIPOS>BOND
  1   1   2  1   
  2   1   3  1   
  3   2   4  2   
  4   2   5  1   
  5   3   6  1   
  6   3  23  1   
  7   3  24  1   
  8   4   7  1   
  9   5   8  1   
 10   5   9  1   
 11   6  10  2   
 12   6  11  am  
 13   7   8  2   
 14   8  12  1   
 15   9  13  1   
 16   9  25  1   
 17   9  26  1   
 18  11  14  1   
 19  11  27  1   
 20  12  15  1   
 21  12  28  1   
 22  12  29  1   
 23  13  30  1   
 24  13  31  1   
 25  13  32  1   
 26  14  16  ar  
 27  14  17  ar  
 28  15  18  1   
 29  15  33  1   
 30  15  34  1   
 31  16  19  ar  
 32  16  35  1   
 33  17  20  ar  
 34  17  36  1   
 35  18  21  1   
 36  18  37  1   
 37  18  38  1   
 38  19  22  ar  
 39  19  39  1   
 40  20  22  ar  
 41  20  40  1   
 42  21  41  1   
 43  21  42  1   
 44  21  43  1   
 45  22  44  1   
@<TRIPOS>SUBSTRUCTURE
  1 ****   1 GROUP 4 **** **** 0

# MOE 2024.06 (io_trps.svl 2023.06)
