@<TRIPOS>MOLECULE
NONAME
48 49 1 0 0 
SMALL
USER_CHARGES


@<TRIPOS>ATOM
  1 O       -4.8270     5.6300     0.1130 O.3   1 <1>  -0.3630 
  2 C       -3.4880     5.3960     0.0480 C.ar  1 <1>   0.0830 
  3 C       -5.3650     6.9260    -0.0130 C.3   1 <1>   0.3200 
  4 C       -3.0310     4.1060     0.3240 C.ar  1 <1>  -0.1440 
  5 C       -2.5770     6.3990    -0.2830 C.ar  1 <1>  -0.1500 
  6 C       -6.8400     6.8280     0.1770 C.1   1 <1>  -0.2000 
  7 C       -1.6670     3.8550     0.2620 C.ar  1 <1>  -0.1500 
  8 C       -3.9900     2.9670     0.6940 C.3   1 <1>   0.0640 
  9 C       -1.2200     6.1340    -0.3380 C.ar  1 <1>  -0.1430 
 10 C       -8.0110     6.6860     0.3230 C.1   1 <1>  -0.2000 
 11 C       -0.7700     4.8550    -0.0650 C.ar  1 <1>  -0.1500 
 12 C       -3.6940     2.4360     2.1010 C.3   1 <1>  -0.2400 
 13 C       -3.9200     1.8350    -0.3380 C.3   1 <1>  -0.2400 
 14 C       -0.2330     7.2290    -0.7010 C.3   1 <1>  -0.0970 
 15 C       -9.4620     6.4000     0.5060 C.3   1 <1>   0.3100 
 16 N       -9.8380     5.1780    -0.2380 N.3   1 <1>  -0.8100 
 17 C      -11.2960     4.9710    -0.2480 C.3   1 <1>   0.1100 
 18 C       -9.1080     3.9750     0.2270 C.3   1 <1>   0.1100 
 19 C      -11.6730     3.7570    -1.1220 C.3   1 <1>   0.3430 
 20 C       -9.4560     2.7510    -0.6410 C.3   1 <1>   0.3430 
 21 N      -10.9380     2.5180    -0.6970 N.4   1 <1>  -0.9060 
 22 H       -5.1380     7.2980    -0.9970 H     1 <1>   0.0800 
 23 H       -4.9280     7.5540     0.7420 H     1 <1>   0.0800 
 24 H       -2.9030     7.3960    -0.5050 H     1 <1>   0.1500 
 25 H       -1.2880     2.8710     0.4700 H     1 <1>   0.1500 
 26 H       -5.0020     3.3270     0.7000 H     1 <1>   0.0800 
 27 H        0.2810     4.6300    -0.1070 H     1 <1>   0.1500 
 28 H       -2.7160     1.9940     2.1490 H     1 <1>   0.0800 
 29 H       -4.4200     1.6950     2.3820 H     1 <1>   0.0800 
 30 H       -3.7390     3.2450     2.8090 H     1 <1>   0.0800 
 31 H       -2.9440     1.3830    -0.3470 H     1 <1>   0.0800 
 32 H       -4.1230     2.2270    -1.3190 H     1 <1>   0.0800 
 33 H       -4.6460     1.0770    -0.1110 H     1 <1>   0.0800 
 34 H       -0.6000     8.1880    -0.3810 H     1 <1>   0.0800 
 35 H       -0.0880     7.2490    -1.7660 H     1 <1>   0.0800 
 36 H        0.7140     7.0540    -0.2230 H     1 <1>   0.0800 
 37 H      -10.0240     7.2400     0.1330 H     1 <1>   0.0800 
 38 H       -9.6770     6.2810     1.5540 H     1 <1>   0.0800 
 39 H      -11.7770     5.8470    -0.6510 H     1 <1>   0.0800 
 40 H      -11.6570     4.8270     0.7570 H     1 <1>   0.0800 
 41 H       -9.3390     3.7760     1.2600 H     1 <1>   0.0800 
 42 H       -8.0450     4.1360     0.1530 H     1 <1>   0.0800 
 43 H      -11.4250     3.9910    -2.1450 H     1 <1>   0.0800 
 44 H      -12.7370     3.5930    -1.0680 H     1 <1>   0.0800 
 45 H       -8.9570     1.8810    -0.2460 H     1 <1>   0.0800 
 46 H       -9.0770     2.9280    -1.6340 H     1 <1>   0.0800 
 47 H      -11.1450     1.7480    -1.3450 H     1 <1>   0.4500 
 48 H      -11.2650     2.2400     0.2340 H     1 <1>   0.4500 
@<TRIPOS>BOND
  1   1   2  1   
  2   1   3  1   
  3   2   4  ar  
  4   2   5  ar  
  5   3   6  1   
  6   3  22  1   
  7   3  23  1   
  8   4   7  ar  
  9   4   8  1   
 10   5   9  ar  
 11   5  24  1   
 12   6  10  3   
 13   7  11  ar  
 14   7  25  1   
 15   8  12  1   
 16   8  13  1   
 17   8  26  1   
 18   9  11  ar  
 19   9  14  1   
 20  10  15  1   
 21  11  27  1   
 22  12  28  1   
 23  12  29  1   
 24  12  30  1   
 25  13  31  1   
 26  13  32  1   
 27  13  33  1   
 28  14  34  1   
 29  14  35  1   
 30  14  36  1   
 31  15  16  1   
 32  15  37  1   
 33  15  38  1   
 34  16  17  1   
 35  16  18  1   
 36  17  19  1   
 37  17  39  1   
 38  17  40  1   
 39  18  20  1   
 40  18  41  1   
 41  18  42  1   
 42  19  21  1   
 43  19  43  1   
 44  19  44  1   
 45  20  21  1   
 46  20  45  1   
 47  20  46  1   
 48  21  47  1   
 49  21  48  1   
@<TRIPOS>SUBSTRUCTURE
  1 ****   1 GROUP 4 **** **** 0

# MOE 2024.06 (io_trps.svl 2023.06)
