@<TRIPOS>MOLECULE
NONAME
43 45 1 0 0 
SMALL
USER_CHARGES


@<TRIPOS>ATOM
  1 S       -0.2790    -0.6650    -1.4510 S.3   1 <1>  -0.3710 
  2 C       -1.2000     0.4720    -0.4190 C.2   1 <1>   0.6510 
  3 C        1.1930     0.3260    -2.0390 C.3   1 <1>   0.1310 
  4 N       -0.8030     1.6830    -0.4380 N.2   1 <1>  -0.6210 
  5 N       -2.2510    -0.0390     0.3190 N.am  1 <1>  -0.2370 
  6 C        2.4060     0.1210    -1.1320 C.2   1 <1>   0.5690 
  7 C       -1.3950     2.5700     0.4040 C.2   1 <1>   0.0210 
  8 C       -2.9070     0.8680     1.1500 C.2   1 <1>   0.6160 
  9 C       -2.6580    -1.3850     0.2290 C.ar  1 <1>   0.1170 
 10 O        3.0750    -0.8640    -1.3550 O.2   1 <1>  -0.5700 
 11 N        2.7700     1.0010    -0.1360 N.am  1 <1>  -0.6600 
 12 O       -0.9100     3.7000     0.4360 O.3   1 <1>  -0.8500 
 13 C       -2.4580     2.1770     1.1900 C.2   1 <1>  -0.1360 
 14 O       -3.8720     0.4800     1.8340 O.2   1 <1>  -0.5700 
 15 C       -3.6270    -1.7960    -0.6900 C.ar  1 <1>  -0.1430 
 16 C       -2.0780    -2.3300     1.0690 C.ar  1 <1>  -0.1500 
 17 C        3.8770     0.6780     0.8090 C.3   1 <1>   0.1400 
 18 C        2.0480     2.2690     0.2290 C.3   1 <1>   0.1400 
 19 C       -3.9890    -3.1320    -0.7540 C.ar  1 <1>  -0.1500 
 20 C       -4.2920    -0.7910    -1.6220 C.3   1 <1>  -0.0970 
 21 C       -2.4440    -3.6600     1.0000 C.ar  1 <1>  -0.1500 
 22 C        4.7670     1.9050     1.0470 C.3   1 <1>   0.1200 
 23 C        3.0110     3.4030     0.6210 C.3   1 <1>   0.1200 
 24 C       -3.4020    -4.0630     0.0860 C.ar  1 <1>  -0.1500 
 25 O        4.0040     2.9750     1.5180 O.3   1 <1>  -0.5600 
 26 H        0.9130     1.3560    -2.1340 H     1 <1>   0.0800 
 27 H        1.4250    -0.0510    -3.0160 H     1 <1>   0.0800 
 28 H       -2.9250     2.8920     1.8340 H     1 <1>   0.1500 
 29 H       -1.3340    -2.0130     1.7780 H     1 <1>   0.1500 
 30 H        4.4820    -0.1240     0.4250 H     1 <1>   0.0800 
 31 H        3.4560     0.3590     1.7460 H     1 <1>   0.0800 
 32 H        1.3800     2.0800     1.0520 H     1 <1>   0.0800 
 33 H        1.4580     2.6310    -0.5900 H     1 <1>   0.0800 
 34 H       -4.7340    -3.4570    -1.4580 H     1 <1>   0.1500 
 35 H       -3.5500    -0.3010    -2.2270 H     1 <1>   0.0800 
 36 H       -4.8130    -0.0480    -1.0440 H     1 <1>   0.0800 
 37 H       -4.9980    -1.2730    -2.2720 H     1 <1>   0.0800 
 38 H       -1.9860    -4.3800     1.6540 H     1 <1>   0.1500 
 39 H        5.2570     2.2010     0.1360 H     1 <1>   0.0800 
 40 H        5.5130     1.6840     1.7890 H     1 <1>   0.0800 
 41 H        2.4530     4.1950     1.0920 H     1 <1>   0.0800 
 42 H        3.4910     3.7990    -0.2550 H     1 <1>   0.0800 
 43 H       -3.6900    -5.0970     0.0280 H     1 <1>   0.1500 
@<TRIPOS>BOND
  1   1   2  1   
  2   1   3  1   
  3   2   4  2   
  4   2   5  1   
  5   3   6  1   
  6   3  26  1   
  7   3  27  1   
  8   4   7  1   
  9   5   8  am  
 10   5   9  1   
 11   6  10  2   
 12   6  11  am  
 13   7  12  1   
 14   7  13  2   
 15   8  13  1   
 16   8  14  2   
 17   9  15  ar  
 18   9  16  ar  
 19  11  17  1   
 20  11  18  1   
 21  13  28  1   
 22  15  19  ar  
 23  15  20  1   
 24  16  21  ar  
 25  16  29  1   
 26  17  22  1   
 27  17  30  1   
 28  17  31  1   
 29  18  23  1   
 30  18  32  1   
 31  18  33  1   
 32  19  24  ar  
 33  19  34  1   
 34  20  35  1   
 35  20  36  1   
 36  20  37  1   
 37  21  24  ar  
 38  21  38  1   
 39  22  25  1   
 40  22  39  1   
 41  22  40  1   
 42  23  25  1   
 43  23  41  1   
 44  23  42  1   
 45  24  43  1   
@<TRIPOS>SUBSTRUCTURE
  1 ****   2 GROUP 4 **** **** 0

# MOE 2024.06 (io_trps.svl 2023.06)
