@<TRIPOS>MOLECULE
NONAME
28 28 1 0 0 
SMALL
USER_CHARGES


@<TRIPOS>ATOM
  1 I        0.3290    -0.0360    -0.1240 I     1 <1>  -0.0810 
  2 C       -1.6240    -0.9050    -0.0160 C.ar  1 <1>   0.0810 
  3 C       -1.7940    -2.2810     0.0740 C.ar  1 <1>  -0.1440 
  4 C       -2.6900    -0.0250    -0.0410 C.ar  1 <1>  -0.1500 
  5 C       -3.0940    -2.7550     0.1380 C.ar  1 <1>  -0.1500 
  6 C       -0.6310    -3.2660     0.1000 C.3   1 <1>  -0.0960 
  7 C       -3.9830    -0.5170     0.0280 C.ar  1 <1>  -0.1430 
  8 C       -4.1900    -1.8970     0.1140 C.ar  1 <1>   0.1170 
  9 C       -5.1420     0.4720     0.0090 C.3   1 <1>  -0.0960 
 10 N       -5.4690    -2.4630     0.2030 N.am  1 <1>  -0.5470 
 11 C       -6.4730    -2.4390    -0.7210 C.2   1 <1>   0.5690 
 12 O       -6.3780    -1.8970    -1.7930 O.2   1 <1>  -0.5700 
 13 C       -7.7710    -3.1430    -0.3700 C.3   1 <1>  -0.0990 
 14 C       -8.5510    -2.4340     0.7490 C.3   1 <1>  -0.2400 
 15 H       -2.5090     1.0320    -0.1150 H     1 <1>   0.1500 
 16 H       -3.2720    -3.8120     0.2010 H     1 <1>   0.1500 
 17 H        0.0010    -3.0720     0.9480 H     1 <1>   0.0800 
 18 H       -0.0510    -3.1770    -0.8010 H     1 <1>   0.0800 
 19 H       -0.9860    -4.2780     0.1710 H     1 <1>   0.0800 
 20 H       -4.8060     1.4640     0.2510 H     1 <1>   0.0800 
 21 H       -5.8920     0.1890     0.7240 H     1 <1>   0.0800 
 22 H       -5.5850     0.4920    -0.9710 H     1 <1>   0.0800 
 23 H       -5.6440    -3.0140     1.0390 H     1 <1>   0.3700 
 24 H       -7.5520    -4.1540    -0.0810 H     1 <1>   0.0800 
 25 H       -8.3830    -3.1840    -1.2540 H     1 <1>   0.0800 
 26 H       -7.9770    -2.4060     1.6580 H     1 <1>   0.0800 
 27 H       -9.4740    -2.9510     0.9400 H     1 <1>   0.0800 
 28 H       -8.7780    -1.4240     0.4540 H     1 <1>   0.0800 
@<TRIPOS>BOND
  1   1   2  1   
  2   2   3  ar  
  3   2   4  ar  
  4   3   5  ar  
  5   3   6  1   
  6   4   7  ar  
  7   4  15  1   
  8   5   8  ar  
  9   5  16  1   
 10   6  17  1   
 11   6  18  1   
 12   6  19  1   
 13   7   8  ar  
 14   7   9  1   
 15   8  10  1   
 16   9  20  1   
 17   9  21  1   
 18   9  22  1   
 19  10  11  am  
 20  10  23  1   
 21  11  12  2   
 22  11  13  1   
 23  13  14  1   
 24  13  24  1   
 25  13  25  1   
 26  14  26  1   
 27  14  27  1   
 28  14  28  1   
@<TRIPOS>SUBSTRUCTURE
  1 ****   8 GROUP 4 **** **** 0

# MOE 2024.06 (io_trps.svl 2023.06)
