@<TRIPOS>MOLECULE
NONAME
31 31 1 0 0 
SMALL
USER_CHARGES


@<TRIPOS>ATOM
  1 BR      -0.1340    -2.7130    -1.4380 Br    1 <1>  -0.1110 
  2 C        1.5600    -2.3820    -0.5980 C.ar  1 <1>   0.1110 
  3 C        2.2990    -1.2820    -0.9850 C.ar  1 <1>  -0.1500 
  4 C        2.0070    -3.2500     0.3780 C.ar  1 <1>  -0.1500 
  5 C        3.5180    -1.0490    -0.3750 C.ar  1 <1>  -0.1500 
  6 C        3.2290    -3.0010     0.9750 C.ar  1 <1>  -0.1500 
  7 C        4.0230    -1.9010     0.6190 C.ar  1 <1>   0.0860 
  8 C        5.2960    -1.6960     1.2880 C.2   1 <1>   0.4230 
  9 O        5.6230    -2.3330     2.2570 O.2   1 <1>  -0.5700 
 10 C        6.2930    -0.6550     0.8180 C.3   1 <1>  -0.0380 
 11 C        6.9170    -1.0530    -0.5050 C.2   1 <1>   0.4480 
 12 O        6.4040    -0.6670    -1.5140 O.2   1 <1>  -0.5700 
 13 C        8.2200    -1.8950    -0.5200 C.3   1 <1>   0.0610 
 14 C        9.4160    -1.0240    -0.0950 C.3   1 <1>  -0.2400 
 15 C        8.1420    -3.1150     0.4150 C.3   1 <1>  -0.2400 
 16 C        8.5070    -2.4250    -1.9400 C.3   1 <1>  -0.2400 
 17 H        1.9250    -0.6250    -1.7510 H     1 <1>   0.1500 
 18 H        1.4100    -4.0980     0.6610 H     1 <1>   0.1500 
 19 H        4.0760    -0.1870    -0.6930 H     1 <1>   0.1500 
 20 H        3.5820    -3.6750     1.7380 H     1 <1>   0.1500 
 21 H        7.0580    -0.5300     1.5610 H     1 <1>   0.0800 
 22 H        5.8000     0.2920     0.7120 H     1 <1>   0.0800 
 23 H        9.3060    -0.6800     0.9170 H     1 <1>   0.0800 
 24 H        9.4970    -0.1650    -0.7390 H     1 <1>   0.0800 
 25 H       10.3330    -1.5820    -0.1600 H     1 <1>   0.0800 
 26 H        8.0700    -2.8140     1.4450 H     1 <1>   0.0800 
 27 H        9.0210    -3.7270     0.3170 H     1 <1>   0.0800 
 28 H        7.2830    -3.7190     0.1760 H     1 <1>   0.0800 
 29 H        8.6180    -1.6080    -2.6320 H     1 <1>   0.0800 
 30 H        7.6930    -3.0410    -2.2800 H     1 <1>   0.0800 
 31 H        9.4100    -3.0100    -1.9620 H     1 <1>   0.0800 
@<TRIPOS>BOND
  1   1   2  1   
  2   2   3  ar  
  3   2   4  ar  
  4   3   5  ar  
  5   3  17  1   
  6   4   6  ar  
  7   4  18  1   
  8   5   7  ar  
  9   5  19  1   
 10   6   7  ar  
 11   6  20  1   
 12   7   8  1   
 13   8   9  2   
 14   8  10  1   
 15  10  11  1   
 16  10  21  1   
 17  10  22  1   
 18  11  12  2   
 19  11  13  1   
 20  13  14  1   
 21  13  15  1   
 22  13  16  1   
 23  14  23  1   
 24  14  24  1   
 25  14  25  1   
 26  15  26  1   
 27  15  27  1   
 28  15  28  1   
 29  16  29  1   
 30  16  30  1   
 31  16  31  1   
@<TRIPOS>SUBSTRUCTURE
  1 ****   7 GROUP 4 **** **** 0

# MOE 2024.06 (io_trps.svl 2023.06)
