@<TRIPOS>MOLECULE
NONAME
37 38 1 0 0 
SMALL
USER_CHARGES


@<TRIPOS>ATOM
  1 O       -0.3600     0.2840    -0.2860 O.2   1 <1>  -0.5700 
  2 C       -0.3760     1.3560     0.2890 C.2   1 <1>   0.7800 
  3 O       -1.5220     1.8340     0.7980 O.3   1 <1>  -0.2330 
  4 N        0.7560     2.1200     0.4400 N.am  1 <1>  -0.6600 
  5 C       -2.7140     1.1820     0.8530 C.ar  1 <1>   0.0820 
  6 C        2.0630     1.7020    -0.1370 C.3   1 <1>   0.1400 
  7 C        0.7830     3.4250     1.1550 C.3   1 <1>   0.1400 
  8 C       -3.8590     1.9140     0.5930 C.ar  1 <1>  -0.1500 
  9 C       -2.8130    -0.1640     1.1830 C.ar  1 <1>  -0.1500 
 10 C        2.5740     2.7860    -1.0930 C.3   1 <1>  -0.1600 
 11 C        1.2790     4.5210     0.2050 C.3   1 <1>  -0.1600 
 12 C       -5.1100     1.3150     0.6430 C.ar  1 <1>   0.1170 
 13 C       -4.0570    -0.7690     1.2430 C.ar  1 <1>  -0.1500 
 14 C        2.6390     4.1610    -0.4120 C.3   1 <1>  -0.1600 
 15 N       -6.2530     2.0730     0.3720 N.am  1 <1>  -0.5470 
 16 C       -5.1970    -0.0320     0.9760 C.ar  1 <1>  -0.1500 
 17 C       -7.2580     1.8630    -0.5150 C.2   1 <1>   0.5690 
 18 O       -8.1780     2.6360    -0.5730 O.2   1 <1>  -0.5700 
 19 C       -7.2360     0.6790    -1.4540 C.3   1 <1>  -0.1790 
 20 H        1.9660     0.7710    -0.6690 H     1 <1>   0.0800 
 21 H        2.7670     1.5570     0.6640 H     1 <1>   0.0800 
 22 H        1.4500     3.3460     1.9970 H     1 <1>   0.0800 
 23 H       -0.1920     3.6870     1.5270 H     1 <1>   0.0800 
 24 H       -3.7750     2.9550     0.3430 H     1 <1>   0.1500 
 25 H       -1.9290    -0.7400     1.3950 H     1 <1>   0.1500 
 26 H        1.9160     2.8320    -1.9440 H     1 <1>   0.0800 
 27 H        3.5510     2.5120    -1.4500 H     1 <1>   0.0800 
 28 H        1.3620     5.4480     0.7440 H     1 <1>   0.0800 
 29 H        0.5520     4.6590    -0.5750 H     1 <1>   0.0800 
 30 H       -4.1330    -1.8120     1.4980 H     1 <1>   0.1500 
 31 H        2.9220     4.9100    -1.1310 H     1 <1>   0.0800 
 32 H        3.3880     4.1410     0.3610 H     1 <1>   0.0800 
 33 H       -6.3450     2.9600     0.8670 H     1 <1>   0.3700 
 34 H       -6.1610    -0.5040     1.0350 H     1 <1>   0.1500 
 35 H       -6.2390     0.5070    -1.8130 H     1 <1>   0.0800 
 36 H       -7.8770     0.8750    -2.2940 H     1 <1>   0.0800 
 37 H       -7.5920    -0.1940    -0.9420 H     1 <1>   0.0800 
@<TRIPOS>BOND
  1   1   2  2   
  2   2   3  1   
  3   2   4  am  
  4   3   5  1   
  5   4   6  1   
  6   4   7  1   
  7   5   8  ar  
  8   5   9  ar  
  9   6  10  1   
 10   6  20  1   
 11   6  21  1   
 12   7  11  1   
 13   7  22  1   
 14   7  23  1   
 15   8  12  ar  
 16   8  24  1   
 17   9  13  ar  
 18   9  25  1   
 19  10  14  1   
 20  10  26  1   
 21  10  27  1   
 22  11  14  1   
 23  11  28  1   
 24  11  29  1   
 25  12  15  1   
 26  12  16  ar  
 27  13  16  ar  
 28  13  30  1   
 29  14  31  1   
 30  14  32  1   
 31  15  17  am  
 32  15  33  1   
 33  16  34  1   
 34  17  18  2   
 35  17  19  1   
 36  19  35  1   
 37  19  36  1   
 38  19  37  1   
@<TRIPOS>SUBSTRUCTURE
  1 ****   5 GROUP 4 **** **** 0

# MOE 2024.06 (io_trps.svl 2023.06)
