@<TRIPOS>MOLECULE
NONAME
36 36 1 0 0 
SMALL
USER_CHARGES


@<TRIPOS>ATOM
  1 BR      -0.1920    -0.9920     0.8460 Br    1 <1>  -0.1110 
  2 C        1.6880    -1.2540     0.4720 C.ar  1 <1>   0.1110 
  3 C        2.3950    -0.2290    -0.1450 C.ar  1 <1>  -0.1440 
  4 C        2.2770    -2.4590     0.8320 C.ar  1 <1>  -0.1440 
  5 C        3.7410    -0.4270    -0.4080 C.ar  1 <1>  -0.1500 
  6 C        1.7240     1.0820    -0.5280 C.3   1 <1>  -0.0960 
  7 C        3.6240    -2.6300     0.5570 C.ar  1 <1>  -0.1500 
  8 C        1.4850    -3.5690     1.5070 C.3   1 <1>  -0.0960 
  9 C        4.3590    -1.6270    -0.0580 C.ar  1 <1>   0.0820 
 10 O        5.6710    -1.8920    -0.2830 O.3   1 <1>  -0.3630 
 11 C        6.5190    -0.9320    -0.9030 C.3   1 <1>   0.1810 
 12 C        7.9450    -1.4510    -1.0430 C.2   1 <1>   0.5690 
 13 O        8.7950    -0.7000    -1.4550 O.2   1 <1>  -0.5700 
 14 N        8.2310    -2.7350    -0.6990 N.am  1 <1>  -0.7300 
 15 C        9.5610    -3.3830    -0.8180 C.3   1 <1>   0.1400 
 16 C       10.4600    -2.9740     0.3480 C.3   1 <1>   0.1200 
 17 O       11.6210    -3.7440     0.3030 O.3   1 <1>  -0.5600 
 18 C       12.5570    -3.4030     1.2730 C.3   1 <1>   0.0400 
 19 H        4.2930     0.3600    -0.8840 H     1 <1>   0.1500 
 20 H        1.3250     1.5610     0.3490 H     1 <1>   0.0800 
 21 H        0.9210     0.8960    -1.2180 H     1 <1>   0.0800 
 22 H        2.4220     1.7540    -0.9930 H     1 <1>   0.0800 
 23 H        4.1210    -3.5470     0.8180 H     1 <1>   0.1500 
 24 H        1.0810    -3.2170     2.4390 H     1 <1>   0.0800 
 25 H        2.1090    -4.4210     1.7070 H     1 <1>   0.0800 
 26 H        0.6760    -3.8820     0.8720 H     1 <1>   0.0800 
 27 H        6.5260    -0.0440    -0.2970 H     1 <1>   0.0800 
 28 H        6.1280    -0.7110    -1.8780 H     1 <1>   0.0800 
 29 H        7.4680    -3.3090    -0.3290 H     1 <1>   0.3700 
 30 H       10.0230    -3.0810    -1.7420 H     1 <1>   0.0800 
 31 H        9.4350    -4.4510    -0.8210 H     1 <1>   0.0800 
 32 H        9.9660    -3.1580     1.2860 H     1 <1>   0.0800 
 33 H       10.7260    -1.9340     0.2590 H     1 <1>   0.0800 
 34 H       13.4070    -4.0530     1.1610 H     1 <1>   0.0800 
 35 H       12.1240    -3.5360     2.2490 H     1 <1>   0.0800 
 36 H       12.8620    -2.3810     1.1290 H     1 <1>   0.0800 
@<TRIPOS>BOND
  1   1   2  1   
  2   2   3  ar  
  3   2   4  ar  
  4   3   5  ar  
  5   3   6  1   
  6   4   7  ar  
  7   4   8  1   
  8   5   9  ar  
  9   5  19  1   
 10   6  20  1   
 11   6  21  1   
 12   6  22  1   
 13   7   9  ar  
 14   7  23  1   
 15   8  24  1   
 16   8  25  1   
 17   8  26  1   
 18   9  10  1   
 19  10  11  1   
 20  11  12  1   
 21  11  27  1   
 22  11  28  1   
 23  12  13  2   
 24  12  14  am  
 25  14  15  1   
 26  14  29  1   
 27  15  16  1   
 28  15  30  1   
 29  15  31  1   
 30  16  17  1   
 31  16  32  1   
 32  16  33  1   
 33  17  18  1   
 34  18  34  1   
 35  18  35  1   
 36  18  36  1   
@<TRIPOS>SUBSTRUCTURE
  1 ****  10 GROUP 4 **** **** 0

# MOE 2024.06 (io_trps.svl 2023.06)
