@<TRIPOS>MOLECULE
NONAME
50 52 1 0 0 
SMALL
USER_CHARGES


@<TRIPOS>ATOM
  1 S        0.3810    -0.5920     0.4960 S.o2  1 <1>   1.4470 
  2 O        0.7390    -0.6550     1.8970 O.2   1 <1>  -0.6500 
  3 O        0.3140     0.6940    -0.1610 O.2   1 <1>  -0.6500 
  4 N        1.5420    -1.5000    -0.3400 N.am  1 <1>  -0.8490 
  5 C       -1.1590    -1.5050     0.1970 C.ar  1 <1>  -0.0090 
  6 C        1.7980    -2.8070     0.2980 C.3   1 <1>   0.1960 
  7 C        2.8050    -0.7520    -0.4650 C.3   1 <1>   0.1960 
  8 C       -1.6280    -1.7070    -1.0960 C.ar  1 <1>  -0.1500 
  9 C       -1.9020    -2.0330     1.2480 C.ar  1 <1>  -0.1500 
 10 C        2.7940    -3.6440    -0.5210 C.3   1 <1>   0.1400 
 11 C        3.8560    -1.5240    -1.2850 C.3   1 <1>   0.1400 
 12 C       -2.7940    -2.4130    -1.3330 C.ar  1 <1>  -0.1500 
 13 C       -3.0710    -2.7410     1.0210 C.ar  1 <1>  -0.1500 
 14 N        4.0710    -2.8940    -0.7270 N.am  1 <1>  -0.6600 
 15 C       -3.5240    -2.9350    -0.2790 C.ar  1 <1>   0.0830 
 16 C        5.2230    -3.2850    -0.0960 C.2   1 <1>   0.6900 
 17 O       -4.6540    -3.6130    -0.5930 O.3   1 <1>  -0.3630 
 18 O        5.1810    -4.0970     0.8080 O.2   1 <1>  -0.5700 
 19 N        6.4100    -2.7550    -0.5050 N.am  1 <1>  -0.5470 
 20 C       -5.4980    -4.1410     0.4060 C.3   1 <1>   0.0400 
 21 C        7.6910    -2.9810     0.0090 C.ar  1 <1>   0.1170 
 22 C        8.3700    -4.1870    -0.1760 C.ar  1 <1>  -0.1430 
 23 C        8.3160    -1.9540     0.7060 C.ar  1 <1>  -0.1500 
 24 C        9.6490    -4.3390     0.3350 C.ar  1 <1>  -0.1500 
 25 C        7.7310    -5.3490    -0.9270 C.3   1 <1>  -0.0970 
 26 C        9.5930    -2.1110     1.2110 C.ar  1 <1>  -0.1500 
 27 C       10.2620    -3.3070     1.0250 C.ar  1 <1>  -0.1500 
 28 H        0.8770    -3.3570     0.3820 H     1 <1>   0.0800 
 29 H        2.1950    -2.6680     1.2910 H     1 <1>   0.0800 
 30 H        3.2030    -0.5420     0.5150 H     1 <1>   0.0800 
 31 H        2.6190     0.1890    -0.9530 H     1 <1>   0.0800 
 32 H       -1.0710    -1.3050    -1.9250 H     1 <1>   0.1500 
 33 H       -1.5620    -1.8870     2.2600 H     1 <1>   0.1500 
 34 H        2.3620    -3.8740    -1.4780 H     1 <1>   0.0800 
 35 H        2.9790    -4.5750    -0.0130 H     1 <1>   0.0800 
 36 H        4.7720    -0.9620    -1.2850 H     1 <1>   0.0800 
 37 H        3.5150    -1.6080    -2.3030 H     1 <1>   0.0800 
 38 H       -3.1480    -2.5620    -2.3380 H     1 <1>   0.1500 
 39 H       -3.6110    -3.1300     1.8640 H     1 <1>   0.1500 
 40 H        6.3620    -2.2210    -1.3640 H     1 <1>   0.3700 
 41 H       -6.3330    -4.6140    -0.0790 H     1 <1>   0.0800 
 42 H       -5.8460    -3.3370     1.0300 H     1 <1>   0.0800 
 43 H       -4.9500    -4.8670     0.9800 H     1 <1>   0.0800 
 44 H        7.7940    -1.0270     0.8570 H     1 <1>   0.1500 
 45 H       10.1790    -5.2660     0.2020 H     1 <1>   0.1500 
 46 H        7.3020    -5.0070    -1.8510 H     1 <1>   0.0800 
 47 H        6.9550    -5.7850    -0.3240 H     1 <1>   0.0800 
 48 H        8.4560    -6.1090    -1.1520 H     1 <1>   0.0800 
 49 H       10.0640    -1.3090     1.7510 H     1 <1>   0.1500 
 50 H       11.2550    -3.4370     1.4180 H     1 <1>   0.1500 
@<TRIPOS>BOND
  1   1   2  2   
  2   1   3  2   
  3   1   4  am  
  4   1   5  1   
  5   4   6  1   
  6   4   7  1   
  7   5   8  ar  
  8   5   9  ar  
  9   6  10  1   
 10   6  28  1   
 11   6  29  1   
 12   7  11  1   
 13   7  30  1   
 14   7  31  1   
 15   8  12  ar  
 16   8  32  1   
 17   9  13  ar  
 18   9  33  1   
 19  10  14  1   
 20  10  34  1   
 21  10  35  1   
 22  11  14  1   
 23  11  36  1   
 24  11  37  1   
 25  12  15  ar  
 26  12  38  1   
 27  13  15  ar  
 28  13  39  1   
 29  14  16  am  
 30  15  17  1   
 31  16  18  2   
 32  16  19  am  
 33  17  20  1   
 34  19  21  1   
 35  19  40  1   
 36  20  41  1   
 37  20  42  1   
 38  20  43  1   
 39  21  22  ar  
 40  21  23  ar  
 41  22  24  ar  
 42  22  25  1   
 43  23  26  ar  
 44  23  44  1   
 45  24  27  ar  
 46  24  45  1   
 47  25  46  1   
 48  25  47  1   
 49  25  48  1   
 50  26  27  ar  
 51  26  49  1   
 52  27  50  1   
@<TRIPOS>SUBSTRUCTURE
  1 ****   6 GROUP 4 **** **** 0

# MOE 2024.06 (io_trps.svl 2023.06)
