@<TRIPOS>MOLECULE
NONAME
57 59 1 0 0 
SMALL
USER_CHARGES


@<TRIPOS>ATOM
  1 O       -1.2610     3.4060    -1.2890 O.2   1 <1>  -0.5700 
  2 C       -0.7210     2.8990    -0.3220 C.2   1 <1>   0.5440 
  3 N       -1.4360     2.0830     0.5150 N.am  1 <1>  -0.5470 
  4 C        0.6690     3.1900    -0.0320 C.ar  1 <1>   0.0860 
  5 C       -2.7170     1.5210     0.3300 C.ar  1 <1>   0.1170 
  6 C        1.5710     3.4640    -1.0620 C.ar  1 <1>  -0.1500 
  7 C        1.1610     3.2250     1.2760 C.ar  1 <1>  -0.1500 
  8 C       -3.9230     2.2550     0.2630 C.ar  1 <1>   0.1000 
  9 C       -2.7660     0.1370     0.2310 C.ar  1 <1>  -0.1500 
 10 C        2.8980     3.7590    -0.8090 C.ar  1 <1>  -0.1500 
 11 C        2.4860     3.5190     1.5360 C.ar  1 <1>  -0.1500 
 12 N       -4.0300     3.6550     0.3450 N.pl3 1 <1>  -0.8380 
 13 C       -5.1130     1.5570     0.1020 C.ar  1 <1>  -0.1500 
 14 C       -3.9630    -0.5350     0.0670 C.ar  1 <1>  -0.1500 
 15 C        3.3660     3.7890     0.5010 C.ar  1 <1>   0.0830 
 16 C       -4.4870     4.3880    -0.8810 C.3   1 <1>   0.2090 
 17 C       -3.4150     4.4280     1.4700 C.3   1 <1>   0.2090 
 18 C       -5.1420     0.1780     0.0030 C.ar  1 <1>  -0.1500 
 19 O        4.6420     4.0690     0.8410 O.3   1 <1>  -0.3630 
 20 C       -3.8380     5.7800    -1.0360 C.3   1 <1>   0.3430 
 21 C       -2.4610     5.5600     1.0070 C.3   1 <1>   0.3430 
 22 C        5.6360     4.3170    -0.1280 C.3   1 <1>   0.1200 
 23 N       -2.4510     5.7780    -0.4800 N.4   1 <1>  -0.9590 
 24 C        6.9580     4.5690     0.5970 C.3   1 <1>  -0.1600 
 25 C       -1.6210     6.9350    -0.9130 C.3   1 <1>   0.2630 
 26 C        8.0930     4.8460    -0.3980 C.3   1 <1>  -0.1600 
 27 C        9.4150     5.0970     0.3330 C.3   1 <1>  -0.2400 
 28 H       -0.8620     1.5530     1.1700 H     1 <1>   0.3700 
 29 H        1.2230     3.4400    -2.0810 H     1 <1>   0.1500 
 30 H        0.5090     3.0270     2.1080 H     1 <1>   0.1500 
 31 H       -1.8560    -0.4340     0.2740 H     1 <1>   0.1500 
 32 H        3.5520     3.9600    -1.6370 H     1 <1>   0.1500 
 33 H        2.8570     3.5430     2.5460 H     1 <1>   0.1500 
 34 H       -6.0370     2.1030     0.0590 H     1 <1>   0.1500 
 35 H       -3.9770    -1.6090    -0.0100 H     1 <1>   0.1500 
 36 H       -5.5570     4.4920    -0.8600 H     1 <1>   0.0800 
 37 H       -4.2360     3.7960    -1.7460 H     1 <1>   0.0800 
 38 H       -2.8840     3.7570     2.1220 H     1 <1>   0.0800 
 39 H       -4.2080     4.8620     2.0530 H     1 <1>   0.0800 
 40 H       -6.0800    -0.3360    -0.1210 H     1 <1>   0.1500 
 41 H       -4.4370     6.5090    -0.5160 H     1 <1>   0.0800 
 42 H       -3.8240     6.0420    -2.0800 H     1 <1>   0.0800 
 43 H       -1.4640     5.3170     1.3340 H     1 <1>   0.0800 
 44 H       -2.7490     6.4700     1.5060 H     1 <1>   0.0800 
 45 H        5.3460     5.1810    -0.6990 H     1 <1>   0.0800 
 46 H        5.7110     3.4540    -0.7660 H     1 <1>   0.0800 
 47 H       -2.0420     4.8960    -0.8680 H     1 <1>   0.4500 
 48 H        7.2040     3.7040     1.1880 H     1 <1>   0.0800 
 49 H        6.8430     5.4140     1.2530 H     1 <1>   0.0800 
 50 H       -2.0320     7.8550    -0.5330 H     1 <1>   0.0800 
 51 H       -1.5890     6.9850    -1.9890 H     1 <1>   0.0800 
 52 H       -0.6130     6.8250    -0.5470 H     1 <1>   0.0800 
 53 H        7.8500     5.7090    -0.9940 H     1 <1>   0.0800 
 54 H        8.2100     4.0040    -1.0590 H     1 <1>   0.0800 
 55 H        9.3290     5.9480     0.9850 H     1 <1>   0.0800 
 56 H       10.1990     5.2890    -0.3780 H     1 <1>   0.0800 
 57 H        9.6890     4.2380     0.9200 H     1 <1>   0.0800 
@<TRIPOS>BOND
  1   1   2  2   
  2   2   3  am  
  3   2   4  1   
  4   3   5  1   
  5   3  28  1   
  6   4   6  ar  
  7   4   7  ar  
  8   5   8  ar  
  9   5   9  ar  
 10   6  10  ar  
 11   6  29  1   
 12   7  11  ar  
 13   7  30  1   
 14   8  12  1   
 15   8  13  ar  
 16   9  14  ar  
 17   9  31  1   
 18  10  15  ar  
 19  10  32  1   
 20  11  15  ar  
 21  11  33  1   
 22  12  16  1   
 23  12  17  1   
 24  13  18  ar  
 25  13  34  1   
 26  14  18  ar  
 27  14  35  1   
 28  15  19  1   
 29  16  20  1   
 30  16  36  1   
 31  16  37  1   
 32  17  21  1   
 33  17  38  1   
 34  17  39  1   
 35  18  40  1   
 36  19  22  1   
 37  20  23  1   
 38  20  41  1   
 39  20  42  1   
 40  21  23  1   
 41  21  43  1   
 42  21  44  1   
 43  22  24  1   
 44  22  45  1   
 45  22  46  1   
 46  23  25  1   
 47  23  47  1   
 48  24  26  1   
 49  24  48  1   
 50  24  49  1   
 51  25  50  1   
 52  25  51  1   
 53  25  52  1   
 54  26  27  1   
 55  26  53  1   
 56  26  54  1   
 57  27  55  1   
 58  27  56  1   
 59  27  57  1   
@<TRIPOS>SUBSTRUCTURE
  1 ****   4 GROUP 4 **** **** 0

# MOE 2024.06 (io_trps.svl 2023.06)
