@<TRIPOS>MOLECULE
NONAME
53 54 1 0 0 
SMALL
USER_CHARGES


@<TRIPOS>ATOM
  1 S       -0.0120     0.0170     0.7020 S.o2  1 <1>   1.4470 
  2 O       -0.2180     0.9680     1.7700 O.2   1 <1>  -0.6500 
  3 O       -0.6770    -1.2660     0.7280 O.2   1 <1>  -0.6500 
  4 N       -0.4990     0.6870    -0.7620 N.am  1 <1>  -0.9140 
  5 C        1.7680    -0.2130     0.4520 C.ar  1 <1>  -0.0090 
  6 C       -1.6790     1.5290    -0.8160 C.3   1 <1>   0.2760 
  7 C        2.3570    -1.4700     0.5510 C.ar  1 <1>  -0.1500 
  8 C        2.5880     0.8710     0.1610 C.ar  1 <1>  -0.1500 
  9 C       -1.3690     2.9370    -0.3140 C.3   1 <1>  -0.2400 
 10 C       -2.8820     0.9020    -0.1140 C.3   1 <1>  -0.2400 
 11 C        3.7170    -1.6580     0.3620 C.ar  1 <1>  -0.1430 
 12 C        3.9460     0.7060    -0.0350 C.ar  1 <1>  -0.1500 
 13 C        4.5090    -0.5550     0.0540 C.ar  1 <1>   0.0830 
 14 C        4.2950    -3.0590     0.5080 C.3   1 <1>  -0.0970 
 15 O        5.8360    -0.6710    -0.1530 O.3   1 <1>  -0.3630 
 16 C        6.2490    -1.2240    -1.3960 C.3   1 <1>   0.1810 
 17 C        7.1440    -2.4470    -1.1930 C.2   1 <1>   0.5690 
 18 O        6.8890    -3.4280    -1.8510 O.2   1 <1>  -0.5700 
 19 N        8.2040    -2.4570    -0.3110 N.am  1 <1>  -0.6600 
 20 C        8.9050    -3.7410     0.0160 C.3   1 <1>   0.1400 
 21 C        8.6900    -1.2630     0.4530 C.3   1 <1>   0.1400 
 22 C       10.4340    -3.5790    -0.0420 C.3   1 <1>   0.3430 
 23 C       10.2280    -1.1520     0.4200 C.3   1 <1>   0.3430 
 24 N       10.9100    -2.4360     0.8160 N.4   1 <1>  -0.9590 
 25 C       12.3970    -2.3000     0.7530 C.3   1 <1>   0.2630 
 26 H       -0.7190    -0.1400    -1.3110 H     1 <1>   0.4200 
 27 H       -1.9360     1.6280    -1.8590 H     1 <1>   0.0800 
 28 H        1.7310    -2.3160     0.7830 H     1 <1>   0.1500 
 29 H        2.1520     1.8530     0.0900 H     1 <1>   0.1500 
 30 H       -1.2330     2.9600     0.7500 H     1 <1>   0.0800 
 31 H       -2.1890     3.5900    -0.5510 H     1 <1>   0.0800 
 32 H       -0.4860     3.3160    -0.7950 H     1 <1>   0.0800 
 33 H       -2.7480     0.8830     0.9530 H     1 <1>   0.0800 
 34 H       -3.0510    -0.0990    -0.4700 H     1 <1>   0.0800 
 35 H       -3.7610     1.4840    -0.3210 H     1 <1>   0.0800 
 36 H        4.5690     1.5530    -0.2570 H     1 <1>   0.1500 
 37 H        3.6440    -3.6810     1.0950 H     1 <1>   0.0800 
 38 H        5.2500    -3.0210     1.0000 H     1 <1>   0.0800 
 39 H        4.4160    -3.5110    -0.4610 H     1 <1>   0.0800 
 40 H        6.7810    -0.4660    -1.9360 H     1 <1>   0.0800 
 41 H        5.3790    -1.5070    -1.9630 H     1 <1>   0.0800 
 42 H        8.6180    -4.5180    -0.6730 H     1 <1>   0.0800 
 43 H        8.6110    -4.0620     1.0000 H     1 <1>   0.0800 
 44 H        8.3510    -1.3350     1.4720 H     1 <1>   0.0800 
 45 H        8.2820    -0.3580     0.0390 H     1 <1>   0.0800 
 46 H       10.7190    -3.4090    -1.0680 H     1 <1>   0.0800 
 47 H       10.8960    -4.4980     0.2810 H     1 <1>   0.0800 
 48 H       10.5360    -0.3560     1.0780 H     1 <1>   0.0800 
 49 H       10.5260    -0.8830    -0.5810 H     1 <1>   0.0800 
 50 H       10.6370    -2.6450     1.7870 H     1 <1>   0.4500 
 51 H       12.7120    -2.0830    -0.2560 H     1 <1>   0.0800 
 52 H       12.8710    -3.2150     1.0710 H     1 <1>   0.0800 
 53 H       12.7290    -1.5020     1.3970 H     1 <1>   0.0800 
@<TRIPOS>BOND
  1   1   2  2   
  2   1   3  2   
  3   1   4  am  
  4   1   5  1   
  5   4   6  1   
  6   4  26  1   
  7   5   7  ar  
  8   5   8  ar  
  9   6   9  1   
 10   6  10  1   
 11   6  27  1   
 12   7  11  ar  
 13   7  28  1   
 14   8  12  ar  
 15   8  29  1   
 16   9  30  1   
 17   9  31  1   
 18   9  32  1   
 19  10  33  1   
 20  10  34  1   
 21  10  35  1   
 22  11  13  ar  
 23  11  14  1   
 24  12  13  ar  
 25  12  36  1   
 26  13  15  1   
 27  14  37  1   
 28  14  38  1   
 29  14  39  1   
 30  15  16  1   
 31  16  17  1   
 32  16  40  1   
 33  16  41  1   
 34  17  18  2   
 35  17  19  am  
 36  19  20  1   
 37  19  21  1   
 38  20  22  1   
 39  20  42  1   
 40  20  43  1   
 41  21  23  1   
 42  21  44  1   
 43  21  45  1   
 44  22  24  1   
 45  22  46  1   
 46  22  47  1   
 47  23  24  1   
 48  23  48  1   
 49  23  49  1   
 50  24  25  1   
 51  24  50  1   
 52  25  51  1   
 53  25  52  1   
 54  25  53  1   
@<TRIPOS>SUBSTRUCTURE
  1 ****  13 GROUP 4 **** **** 0

# MOE 2024.06 (io_trps.svl 2023.06)
