@<TRIPOS>MOLECULE
NONAME
43 44 1 0 0 
SMALL
USER_CHARGES


@<TRIPOS>ATOM
  1 S        0.1440    -0.5430     1.3770 S.o2  1 <1>   1.4470 
  2 O        0.5360    -0.8550     2.7340 O.2   1 <1>  -0.6500 
  3 O       -0.4510     0.7450     1.0960 O.2   1 <1>  -0.6500 
  4 N        1.6010    -0.5860     0.5070 N.am  1 <1>  -0.8490 
  5 C       -0.8430    -1.8880     0.6800 C.ar  1 <1>  -0.0090 
  6 C        2.4060     0.6300     0.7290 C.3   1 <1>   0.1960 
  7 C        2.4000    -1.7980     0.7720 C.3   1 <1>   0.1960 
  8 C       -1.0770    -1.9790    -0.6890 C.ar  1 <1>   0.0830 
  9 C       -1.3930    -2.8670     1.5000 C.ar  1 <1>  -0.1500 
 10 C        3.7320     0.6090    -0.0720 C.3   1 <1>   0.3430 
 11 C        3.6590    -1.8630    -0.1300 C.3   1 <1>   0.3430 
 12 O       -0.5650    -1.0590    -1.5310 O.3   1 <1>  -0.3630 
 13 C       -1.8200    -3.0230    -1.2180 C.ar  1 <1>  -0.1500 
 14 C       -2.1410    -3.9130     0.9820 C.ar  1 <1>  -0.1440 
 15 N        3.8310    -0.6090    -0.9500 N.4   1 <1>  -0.9590 
 16 C       -1.4720    -0.0950    -2.0210 C.3   1 <1>   0.0400 
 17 C       -2.3510    -3.9870    -0.3840 C.ar  1 <1>  -0.1500 
 18 C       -2.7310    -4.9670     1.9010 C.3   1 <1>  -0.0970 
 19 C        5.0310    -0.5990    -1.8240 C.3   1 <1>   0.3430 
 20 C        4.8710    -1.6370    -2.9280 C.3   1 <1>  -0.2400 
 21 H        2.6210     0.7440     1.7800 H     1 <1>   0.0800 
 22 H        1.8380     1.4950     0.4250 H     1 <1>   0.0800 
 23 H        1.8030    -2.6760     0.5910 H     1 <1>   0.0800 
 24 H        2.7030    -1.8230     1.8060 H     1 <1>   0.0800 
 25 H       -1.2350    -2.8080     2.5640 H     1 <1>   0.1500 
 26 H        4.5590     0.6300     0.6190 H     1 <1>   0.0800 
 27 H        3.7870     1.5020    -0.6730 H     1 <1>   0.0800 
 28 H        3.5660    -2.7140    -0.7840 H     1 <1>   0.0800 
 29 H        4.5270    -2.0220     0.4890 H     1 <1>   0.0800 
 30 H       -1.9790    -3.0800    -2.2800 H     1 <1>   0.1500 
 31 H        2.9800    -0.5700    -1.5360 H     1 <1>   0.4500 
 32 H       -0.9330     0.5890    -2.6520 H     1 <1>   0.0800 
 33 H       -1.9010     0.4370    -1.1890 H     1 <1>   0.0800 
 34 H       -2.2430    -0.5880    -2.5860 H     1 <1>   0.0800 
 35 H       -2.9310    -4.7930    -0.8010 H     1 <1>   0.1500 
 36 H       -2.1730    -5.0290     2.8190 H     1 <1>   0.0800 
 37 H       -2.7100    -5.9320     1.4270 H     1 <1>   0.0800 
 38 H       -3.7510    -4.7180     2.1340 H     1 <1>   0.0800 
 39 H        5.9170    -0.8040    -1.2450 H     1 <1>   0.0800 
 40 H        5.1400     0.3750    -2.2750 H     1 <1>   0.0800 
 41 H        4.8630    -2.6360    -2.5320 H     1 <1>   0.0800 
 42 H        5.7050    -1.5620    -3.6030 H     1 <1>   0.0800 
 43 H        3.9720    -1.4610    -3.4920 H     1 <1>   0.0800 
@<TRIPOS>BOND
  1   1   2  2   
  2   1   3  2   
  3   1   4  am  
  4   1   5  1   
  5   4   6  1   
  6   4   7  1   
  7   5   8  ar  
  8   5   9  ar  
  9   6  10  1   
 10   6  21  1   
 11   6  22  1   
 12   7  11  1   
 13   7  23  1   
 14   7  24  1   
 15   8  12  1   
 16   8  13  ar  
 17   9  14  ar  
 18   9  25  1   
 19  10  15  1   
 20  10  26  1   
 21  10  27  1   
 22  11  15  1   
 23  11  28  1   
 24  11  29  1   
 25  12  16  1   
 26  13  17  ar  
 27  13  30  1   
 28  14  17  ar  
 29  14  18  1   
 30  15  19  1   
 31  15  31  1   
 32  16  32  1   
 33  16  33  1   
 34  16  34  1   
 35  17  35  1   
 36  18  36  1   
 37  18  37  1   
 38  18  38  1   
 39  19  20  1   
 40  19  39  1   
 41  19  40  1   
 42  20  41  1   
 43  20  42  1   
 44  20  43  1   
@<TRIPOS>SUBSTRUCTURE
  1 ****   4 GROUP 4 **** **** 0

# MOE 2024.06 (io_trps.svl 2023.06)
