@<TRIPOS>MOLECULE
NONAME
42 43 1 0 0 
SMALL
USER_CHARGES


@<TRIPOS>ATOM
  1 CL      -0.4040    -2.0330    -1.3010 Cl    1 <1>  -0.1770 
  2 C        1.0260    -2.2510    -0.3240 C.ar  1 <1>   0.1770 
  3 C        2.2630    -2.2820    -0.9320 C.ar  1 <1>  -0.1500 
  4 C        0.8910    -2.3900     1.0460 C.ar  1 <1>  -0.1500 
  5 C        3.4050    -2.4560    -0.1630 C.ar  1 <1>   0.1000 
  6 C        2.0270    -2.5640     1.8200 C.ar  1 <1>  -0.1500 
  7 N        4.6470    -2.4830    -0.7820 N.pl3 1 <1>  -0.8380 
  8 C        3.2720    -2.5960     1.2160 C.ar  1 <1>  -0.1500 
  9 C        5.3950    -3.7780    -0.7030 C.3   1 <1>   0.2090 
 10 C        5.5290    -1.3030    -0.5310 C.3   1 <1>   0.2090 
 11 C        6.6020    -3.7770    -1.6550 C.3   1 <1>   0.1400 
 12 C        6.7470    -1.3010    -1.4730 C.3   1 <1>   0.1400 
 13 N        7.4860    -2.5990    -1.3930 N.am  1 <1>  -0.6600 
 14 C        8.6190    -2.7440    -0.6450 C.2   1 <1>   0.6900 
 15 O        8.8230    -3.7620    -0.0100 O.2   1 <1>  -0.5700 
 16 N        9.5220    -1.7350    -0.6280 N.am  1 <1>  -0.7300 
 17 C       10.7940    -1.7560     0.1200 C.3   1 <1>   0.1400 
 18 C       11.1080    -0.3430     0.6110 C.3   1 <1>  -0.1600 
 19 C       12.4180    -0.3110     1.4060 C.3   1 <1>  -0.1600 
 20 C       12.7300     1.1040     1.8990 C.3   1 <1>  -0.2400 
 21 H        2.3520    -2.1740    -1.9960 H     1 <1>   0.1500 
 22 H       -0.0860    -2.3620     1.4940 H     1 <1>   0.1500 
 23 H        1.9410    -2.6740     2.8870 H     1 <1>   0.1500 
 24 H        4.1550    -2.7300     1.8140 H     1 <1>   0.1500 
 25 H        4.7350    -4.5870    -0.9620 H     1 <1>   0.0800 
 26 H        5.7440    -3.9370     0.3030 H     1 <1>   0.0800 
 27 H        5.8720    -1.3220     0.4890 H     1 <1>   0.0800 
 28 H        4.9620    -0.4010    -0.6780 H     1 <1>   0.0800 
 29 H        6.2500    -3.7370    -2.6700 H     1 <1>   0.0800 
 30 H        7.1550    -4.6930    -1.5340 H     1 <1>   0.0800 
 31 H        7.3890    -0.4800    -1.2100 H     1 <1>   0.0800 
 32 H        6.4090    -1.1500    -2.4830 H     1 <1>   0.0800 
 33 H        9.4520    -1.0530    -1.3770 H     1 <1>   0.3700 
 34 H       11.5790    -2.1120    -0.5260 H     1 <1>   0.0800 
 35 H       10.7110    -2.4270     0.9590 H     1 <1>   0.0800 
 36 H       10.3030    -0.0050     1.2400 H     1 <1>   0.0800 
 37 H       11.1890     0.3180    -0.2340 H     1 <1>   0.0800 
 38 H       13.2290    -0.6570     0.7860 H     1 <1>   0.0800 
 39 H       12.3430    -0.9720     2.2540 H     1 <1>   0.0800 
 40 H       12.8350     1.7790     1.0670 H     1 <1>   0.0800 
 41 H       13.6500     1.1050     2.4560 H     1 <1>   0.0800 
 42 H       11.9430     1.4620     2.5390 H     1 <1>   0.0800 
@<TRIPOS>BOND
  1   1   2  1   
  2   2   3  ar  
  3   2   4  ar  
  4   3   5  ar  
  5   3  21  1   
  6   4   6  ar  
  7   4  22  1   
  8   5   7  1   
  9   5   8  ar  
 10   6   8  ar  
 11   6  23  1   
 12   7   9  1   
 13   7  10  1   
 14   8  24  1   
 15   9  11  1   
 16   9  25  1   
 17   9  26  1   
 18  10  12  1   
 19  10  27  1   
 20  10  28  1   
 21  11  13  1   
 22  11  29  1   
 23  11  30  1   
 24  12  13  1   
 25  12  31  1   
 26  12  32  1   
 27  13  14  am  
 28  14  15  2   
 29  14  16  am  
 30  16  17  1   
 31  16  33  1   
 32  17  18  1   
 33  17  34  1   
 34  17  35  1   
 35  18  19  1   
 36  18  36  1   
 37  18  37  1   
 38  19  20  1   
 39  19  38  1   
 40  19  39  1   
 41  20  40  1   
 42  20  41  1   
 43  20  42  1   
@<TRIPOS>SUBSTRUCTURE
  1 ****  10 GROUP 4 **** **** 0

# MOE 2024.06 (io_trps.svl 2023.06)
