@<TRIPOS>MOLECULE
NONAME
33 33 1 0 0 
SMALL
USER_CHARGES


@<TRIPOS>ATOM
  1 O        1.0420     3.8220     1.7340 O.2   1 <1>  -0.5700 
  2 C        0.3070     3.2510     0.9650 C.2   1 <1>   0.5690 
  3 N        0.7560     2.2640     0.1500 N.am  1 <1>  -0.7300 
  4 C       -1.1620     3.6550     0.9200 C.3   1 <1>   0.1810 
  5 C        2.1400     1.7890     0.0580 C.3   1 <1>   0.2780 
  6 O       -1.8780     2.9030    -0.0510 O.3   1 <1>  -0.3630 
  7 C        2.4130     1.4780    -1.3970 C.2   1 <1>  -0.2880 
  8 C       -3.2030     3.1080    -0.2760 C.ar  1 <1>   0.0830 
  9 C        2.6950     0.2690    -1.8940 C.2   1 <1>  -0.3000 
 10 C       -3.8100     2.3480    -1.2720 C.ar  1 <1>  -0.1430 
 11 C       -3.9580     4.0340     0.4410 C.ar  1 <1>  -0.1500 
 12 C       -5.1580     2.5220    -1.5370 C.ar  1 <1>  -0.1500 
 13 C       -3.0090     1.3290    -2.0720 C.3   1 <1>  -0.0970 
 14 C       -5.3050     4.2050     0.1700 C.ar  1 <1>  -0.1430 
 15 C       -5.9010     3.4440    -0.8210 C.ar  1 <1>  -0.1500 
 16 C       -6.1280     5.2130     0.9520 C.3   1 <1>  -0.0970 
 17 H        0.0910     1.8140    -0.4830 H     1 <1>   0.3700 
 18 H       -1.2340     4.6960     0.6640 H     1 <1>   0.0800 
 19 H       -1.6060     3.4780     1.8820 H     1 <1>   0.0800 
 20 H        2.2540     0.9050     0.6620 H     1 <1>   0.0800 
 21 H        2.8190     2.5450     0.4160 H     1 <1>   0.0800 
 22 H        2.3550     2.3600    -2.0130 H     1 <1>   0.1500 
 23 H        2.8850     0.0790    -2.9360 H     1 <1>   0.1500 
 24 H        2.7590    -0.6300    -1.3050 H     1 <1>   0.1500 
 25 H       -3.5160     4.6300     1.2150 H     1 <1>   0.1500 
 26 H       -5.6400     1.9410    -2.3030 H     1 <1>   0.1500 
 27 H       -2.2010     1.8210    -2.5820 H     1 <1>   0.0800 
 28 H       -3.6260     0.8370    -2.8020 H     1 <1>   0.0800 
 29 H       -2.6020     0.5860    -1.4100 H     1 <1>   0.0800 
 30 H       -6.9470     3.5640    -1.0390 H     1 <1>   0.1500 
 31 H       -5.5030     5.9990     1.3350 H     1 <1>   0.0800 
 32 H       -6.6140     4.7230     1.7760 H     1 <1>   0.0800 
 33 H       -6.8770     5.6540     0.3200 H     1 <1>   0.0800 
@<TRIPOS>BOND
  1   1   2  2   
  2   2   3  am  
  3   2   4  1   
  4   3   5  1   
  5   3  17  1   
  6   4   6  1   
  7   4  18  1   
  8   4  19  1   
  9   5   7  1   
 10   5  20  1   
 11   5  21  1   
 12   6   8  1   
 13   7   9  2   
 14   7  22  1   
 15   8  10  ar  
 16   8  11  ar  
 17   9  23  1   
 18   9  24  1   
 19  10  12  ar  
 20  10  13  1   
 21  11  14  ar  
 22  11  25  1   
 23  12  15  ar  
 24  12  26  1   
 25  13  27  1   
 26  13  28  1   
 27  13  29  1   
 28  14  15  ar  
 29  14  16  1   
 30  15  30  1   
 31  16  31  1   
 32  16  32  1   
 33  16  33  1   
@<TRIPOS>SUBSTRUCTURE
  1 ****   6 GROUP 4 **** **** 0

# MOE 2024.06 (io_trps.svl 2023.06)
