@<TRIPOS>MOLECULE
NONAME
37 37 1 0 0 
SMALL
USER_CHARGES


@<TRIPOS>ATOM
  1 O        0.3520     0.6120     1.0050 O.3   1 <1>  -0.5600 
  2 C        1.6530     0.9710     0.6240 C.3   1 <1>   0.4800 
  3 C       -0.7000     0.6040     0.0850 C.3   1 <1>   0.2800 
  4 C        2.4150    -0.2680     0.2760 C.1   1 <1>  -0.2000 
  5 C        1.6640     1.9820    -0.5430 C.3   1 <1>  -0.1600 
  6 C        2.2730     1.5850     1.8790 C.3   1 <1>  -0.2400 
  7 C       -0.8330     1.9770    -0.6220 C.3   1 <1>  -0.1600 
  8 C       -0.5140    -0.5540    -0.9060 C.3   1 <1>  -0.2400 
  9 C       -1.9480     0.3230     0.9240 C.3   1 <1>  -0.2400 
 10 C        2.9930    -1.2680    -0.0100 C.1   1 <1>  -0.2000 
 11 C        0.4160     2.8640    -0.5340 C.3   1 <1>  -0.1600 
 12 C        3.6710    -2.5460    -0.3550 C.3   1 <1>   0.4800 
 13 O        2.6850    -3.4860    -0.4390 O.3   1 <1>  -0.6800 
 14 C        4.6220    -2.9820     0.7520 C.3   1 <1>  -0.2400 
 15 C        4.3540    -2.4760    -1.7140 C.3   1 <1>  -0.2400 
 16 H        1.7130     1.4530    -1.4780 H     1 <1>   0.0800 
 17 H        2.5500     2.5890    -0.4900 H     1 <1>   0.0800 
 18 H        2.2490     0.8730     2.6830 H     1 <1>   0.0800 
 19 H        1.7290     2.4640     2.1710 H     1 <1>   0.0800 
 20 H        3.2960     1.8560     1.6950 H     1 <1>   0.0800 
 21 H       -1.6640     2.5260    -0.2160 H     1 <1>   0.0800 
 22 H       -1.0690     1.8070    -1.6580 H     1 <1>   0.0800 
 23 H        0.3070    -0.3750    -1.5720 H     1 <1>   0.0800 
 24 H       -1.3990    -0.6710    -1.5050 H     1 <1>   0.0800 
 25 H       -0.3420    -1.4720    -0.3750 H     1 <1>   0.0800 
 26 H       -2.0740     1.0890     1.6670 H     1 <1>   0.0800 
 27 H       -1.8570    -0.6270     1.4170 H     1 <1>   0.0800 
 28 H       -2.8230     0.3020     0.3000 H     1 <1>   0.0800 
 29 H        0.4370     3.5620    -1.3530 H     1 <1>   0.0800 
 30 H        0.3860     3.4250     0.3840 H     1 <1>   0.0800 
 31 H        1.9920    -3.2230     0.1930 H     1 <1>   0.4000 
 32 H        5.0540    -3.9370     0.5170 H     1 <1>   0.0800 
 33 H        4.1020    -3.0460     1.6900 H     1 <1>   0.0800 
 34 H        5.4150    -2.2630     0.8530 H     1 <1>   0.0800 
 35 H        4.7870    -3.4280    -1.9620 H     1 <1>   0.0800 
 36 H        5.1340    -1.7370    -1.6930 H     1 <1>   0.0800 
 37 H        3.6430    -2.2000    -2.4710 H     1 <1>   0.0800 
@<TRIPOS>BOND
  1   1   2  1   
  2   1   3  1   
  3   2   4  1   
  4   2   5  1   
  5   2   6  1   
  6   3   7  1   
  7   3   8  1   
  8   3   9  1   
  9   4  10  3   
 10   5  11  1   
 11   5  16  1   
 12   5  17  1   
 13   6  18  1   
 14   6  19  1   
 15   6  20  1   
 16   7  11  1   
 17   7  21  1   
 18   7  22  1   
 19   8  23  1   
 20   8  24  1   
 21   8  25  1   
 22   9  26  1   
 23   9  27  1   
 24   9  28  1   
 25  10  12  1   
 26  11  29  1   
 27  11  30  1   
 28  12  13  1   
 29  12  14  1   
 30  12  15  1   
 31  13  31  1   
 32  14  32  1   
 33  14  33  1   
 34  14  34  1   
 35  15  35  1   
 36  15  36  1   
 37  15  37  1   
@<TRIPOS>SUBSTRUCTURE
  1 ****   4 GROUP 4 **** **** 0

# MOE 2024.06 (io_trps.svl 2023.06)
