@<TRIPOS>MOLECULE
NONAME
36 38 1 0 0 
SMALL
USER_CHARGES


@<TRIPOS>ATOM
  1 S       -8.1990     1.1120     1.5670 S.3   1 <1>  -0.4100 
  2 C       -6.5750     1.0760     0.7870 C.3   1 <1>   0.2300 
  3 C       -5.5170     0.8280     1.8780 C.3   1 <1>  -0.1600 
  4 C       -6.3320     2.4280     0.0830 C.3   1 <1>  -0.1600 
  5 C       -6.5300    -0.0660    -0.2370 C.3   1 <1>  -0.1600 
  6 C       -4.1120     0.8320     1.2350 C.3   1 <1>  -0.0800 
  7 C       -4.9250     2.4240    -0.5590 C.3   1 <1>  -0.0800 
  8 C       -5.1380    -0.0850    -0.8980 C.3   1 <1>  -0.0800 
  9 C       -3.9170     2.2310     0.6070 C.3   1 <1>   0.4230 
 10 C       -4.0640    -0.3040     0.1870 C.3   1 <1>  -0.1600 
 11 C       -4.9060     1.2690    -1.5950 C.3   1 <1>  -0.1600 
 12 N       -2.4740     2.5590     0.3270 N.4   1 <1>  -0.9590 
 13 C       -2.2560     4.0310     0.4660 C.3   1 <1>   0.2630 
 14 C       -1.9040     2.1000    -0.9770 C.3   1 <1>   0.2630 
 15 H       -9.0380     1.2030     0.4940 H     1 <1>   0.1800 
 16 H       -5.5880     1.5910     2.6340 H     1 <1>   0.0800 
 17 H       -5.7040    -0.1200     2.3540 H     1 <1>   0.0800 
 18 H       -6.4170     3.2290     0.7970 H     1 <1>   0.0800 
 19 H       -7.0830     2.5840    -0.6720 H     1 <1>   0.0800 
 20 H       -7.2910     0.0770    -0.9840 H     1 <1>   0.0800 
 21 H       -6.7200    -1.0060     0.2520 H     1 <1>   0.0800 
 22 H       -3.3810     0.6630     2.0060 H     1 <1>   0.0800 
 23 H       -4.7620     3.3700    -1.0440 H     1 <1>   0.0800 
 24 H       -5.0970    -0.8830    -1.6220 H     1 <1>   0.0800 
 25 H       -4.2270     2.9230     1.3730 H     1 <1>   0.0800 
 26 H       -4.2460    -1.2470     0.6750 H     1 <1>   0.0800 
 27 H       -3.0910    -0.3760    -0.2610 H     1 <1>   0.0800 
 28 H       -5.6870     1.4290    -2.3200 H     1 <1>   0.0800 
 29 H       -3.9910     1.2350    -2.1530 H     1 <1>   0.0800 
 30 H       -1.9360     2.0960     1.0730 H     1 <1>   0.4500 
 31 H       -2.8080     4.5650    -0.2910 H     1 <1>   0.0800 
 32 H       -1.2090     4.2670     0.3580 H     1 <1>   0.0800 
 33 H       -2.5840     4.3700     1.4350 H     1 <1>   0.0800 
 34 H       -2.4060     2.5880    -1.7960 H     1 <1>   0.0800 
 35 H       -2.0120     1.0360    -1.0890 H     1 <1>   0.0800 
 36 H       -0.8540     2.3390    -1.0290 H     1 <1>   0.0800 
@<TRIPOS>BOND
  1   1   2  1   
  2   1  15  1   
  3   2   3  1   
  4   2   4  1   
  5   2   5  1   
  6   3   6  1   
  7   3  16  1   
  8   3  17  1   
  9   4   7  1   
 10   4  18  1   
 11   4  19  1   
 12   5   8  1   
 13   5  20  1   
 14   5  21  1   
 15   6   9  1   
 16   6  10  1   
 17   6  22  1   
 18   7   9  1   
 19   7  11  1   
 20   7  23  1   
 21   8  10  1   
 22   8  11  1   
 23   8  24  1   
 24   9  12  1   
 25   9  25  1   
 26  10  26  1   
 27  10  27  1   
 28  11  28  1   
 29  11  29  1   
 30  12  13  1   
 31  12  14  1   
 32  12  30  1   
 33  13  31  1   
 34  13  32  1   
 35  13  33  1   
 36  14  34  1   
 37  14  35  1   
 38  14  36  1   
@<TRIPOS>SUBSTRUCTURE
  1 ****   9 GROUP 4 **** **** 0

# MOE 2024.06 (io_trps.svl 2023.06)
