@<TRIPOS>MOLECULE
NONAME
61 65 1 0 0 
SMALL
USER_CHARGES


@<TRIPOS>ATOM
  1 N       -0.2870    -0.4090     0.2960 N.4   1 <1>  -0.9590 
  2 C       -0.4490    -1.4200    -0.7900 C.3   1 <1>   0.3430 
  3 C       -1.4580     0.5090     0.4020 C.3   1 <1>   0.3430 
  4 C        0.9610     0.4090     0.1050 C.3   1 <1>   0.3430 
  5 C       -1.7170    -2.2430    -0.5520 C.3   1 <1>  -0.1600 
  6 C       -2.7420    -0.2880     0.6410 C.3   1 <1>  -0.1600 
  7 C        2.2380    -0.4060     0.3260 C.3   1 <1>  -0.0170 
  8 C       -2.9550    -1.3490    -0.4450 C.3   1 <1>   0.4230 
  9 C        3.4200     0.5340     0.2140 C.ar  1 <1>  -0.1440 
 10 N       -4.1270    -2.2190    -0.1530 N.4   1 <1>  -0.9060 
 11 C        3.8970     1.1940     1.3370 C.ar  1 <1>  -0.1500 
 12 C        4.0280     0.7520    -1.0140 C.ar  1 <1>  -0.1500 
 13 C       -5.5100    -1.7260    -0.3660 C.3   1 <1>   0.5030 
 14 C        4.9630     2.0690     1.2310 C.ar  1 <1>  -0.1500 
 15 C        5.0940     1.6280    -1.1180 C.ar  1 <1>  -0.1500 
 16 C       -6.3530    -2.9580    -0.7500 C.3   1 <1>  -0.1600 
 17 C       -5.6070    -0.6840    -1.5020 C.3   1 <1>  -0.1600 
 18 C       -6.0750    -1.1380     0.9420 C.3   1 <1>  -0.1600 
 19 C        5.5610     2.2880     0.0040 C.ar  1 <1>  -0.1500 
 20 C       -7.8260    -2.5590    -0.9600 C.3   1 <1>  -0.0800 
 21 C       -7.0760    -0.2680    -1.7070 C.3   1 <1>  -0.0800 
 22 C       -7.5420    -0.7160     0.7390 C.3   1 <1>  -0.0800 
 23 C       -7.9080    -1.5070    -2.0810 C.3   1 <1>  -0.1600 
 24 C       -8.3730    -1.9500     0.3440 C.3   1 <1>  -0.1600 
 25 C       -7.6210     0.3270    -0.3930 C.3   1 <1>  -0.1600 
 26 H       -0.1740    -0.8980     1.1980 H     1 <1>   0.4500 
 27 H        0.4040    -2.0800    -0.8130 H     1 <1>   0.0800 
 28 H       -0.5090    -0.9220    -1.7460 H     1 <1>   0.0800 
 29 H       -1.5510     1.0830    -0.5070 H     1 <1>   0.0800 
 30 H       -1.3080     1.2020     1.2170 H     1 <1>   0.0800 
 31 H        0.9680     1.2270     0.8080 H     1 <1>   0.0800 
 32 H        0.9810     0.8340    -0.8860 H     1 <1>   0.0800 
 33 H       -1.5880    -2.8250     0.3440 H     1 <1>   0.0800 
 34 H       -1.8320    -2.9210    -1.3800 H     1 <1>   0.0800 
 35 H       -3.5500     0.4180     0.6280 H     1 <1>   0.0800 
 36 H       -2.7000    -0.7400     1.6160 H     1 <1>   0.0800 
 37 H        2.3370    -1.1820    -0.4120 H     1 <1>   0.0800 
 38 H        2.2340    -0.8550     1.3040 H     1 <1>   0.0800 
 39 H       -3.0990    -0.8580    -1.3960 H     1 <1>   0.0800 
 40 H       -4.0900    -2.5740     0.8080 H     1 <1>   0.4500 
 41 H       -4.0640    -3.0490    -0.7520 H     1 <1>   0.4500 
 42 H        3.4510     1.0360     2.3040 H     1 <1>   0.1500 
 43 H        3.6870     0.2470    -1.9000 H     1 <1>   0.1500 
 44 H        5.3320     2.5800     2.1040 H     1 <1>   0.1500 
 45 H        5.5650     1.7960    -2.0720 H     1 <1>   0.1500 
 46 H       -6.3100    -3.7030     0.0260 H     1 <1>   0.0800 
 47 H       -5.9880    -3.3960    -1.6620 H     1 <1>   0.0800 
 48 H       -5.2330    -1.0950    -2.4240 H     1 <1>   0.0800 
 49 H       -5.0490     0.2020    -1.2650 H     1 <1>   0.0800 
 50 H       -6.0340    -1.8670     1.7330 H     1 <1>   0.0800 
 51 H       -5.5250    -0.2720     1.2540 H     1 <1>   0.0800 
 52 H        6.3920     2.9680    -0.0780 H     1 <1>   0.1500 
 53 H       -8.4100    -3.4230    -1.2290 H     1 <1>   0.0800 
 54 H       -7.1480     0.4660    -2.4930 H     1 <1>   0.0800 
 55 H       -7.9360    -0.2920     1.6490 H     1 <1>   0.0800 
 56 H       -8.9360    -1.2210    -2.2330 H     1 <1>   0.0800 
 57 H       -7.5550    -1.9250    -3.0080 H     1 <1>   0.0800 
 58 H       -8.3500    -2.6810     1.1330 H     1 <1>   0.0800 
 59 H       -9.4030    -1.6640     0.2050 H     1 <1>   0.0800 
 60 H       -8.6460     0.6290    -0.5330 H     1 <1>   0.0800 
 61 H       -7.0650     1.2090    -0.1250 H     1 <1>   0.0800 
@<TRIPOS>BOND
  1   1   2  1   
  2   1   3  1   
  3   1   4  1   
  4   1  26  1   
  5   2   5  1   
  6   2  27  1   
  7   2  28  1   
  8   3   6  1   
  9   3  29  1   
 10   3  30  1   
 11   4   7  1   
 12   4  31  1   
 13   4  32  1   
 14   5   8  1   
 15   5  33  1   
 16   5  34  1   
 17   6   8  1   
 18   6  35  1   
 19   6  36  1   
 20   7   9  1   
 21   7  37  1   
 22   7  38  1   
 23   8  10  1   
 24   8  39  1   
 25   9  11  ar  
 26   9  12  ar  
 27  10  13  1   
 28  10  40  1   
 29  10  41  1   
 30  11  14  ar  
 31  11  42  1   
 32  12  15  ar  
 33  12  43  1   
 34  13  16  1   
 35  13  17  1   
 36  13  18  1   
 37  14  19  ar  
 38  14  44  1   
 39  15  19  ar  
 40  15  45  1   
 41  16  20  1   
 42  16  46  1   
 43  16  47  1   
 44  17  21  1   
 45  17  48  1   
 46  17  49  1   
 47  18  22  1   
 48  18  50  1   
 49  18  51  1   
 50  19  52  1   
 51  20  23  1   
 52  20  24  1   
 53  20  53  1   
 54  21  23  1   
 55  21  25  1   
 56  21  54  1   
 57  22  24  1   
 58  22  25  1   
 59  22  55  1   
 60  23  56  1   
 61  23  57  1   
 62  24  58  1   
 63  24  59  1   
 64  25  60  1   
 65  25  61  1   
@<TRIPOS>SUBSTRUCTURE
  1 ****   6 GROUP 4 **** **** 0

# MOE 2024.06 (io_trps.svl 2023.06)
