@<TRIPOS>MOLECULE
NONAME
36 37 1 0 0 
SMALL
USER_CHARGES


@<TRIPOS>ATOM
  1 BR       1.4320    -0.4280     2.0150 Br    1 <1>  -0.1110 
  2 C        0.5510    -1.9120     1.1640 C.ar  1 <1>   0.1110 
  3 C       -0.6490    -2.3560     1.6830 C.ar  1 <1>  -0.1500 
  4 C        1.1400    -2.4930     0.0580 C.ar  1 <1>  -0.1500 
  5 C       -1.2890    -3.4230     1.0690 C.ar  1 <1>  -0.1430 
  6 C        0.5010    -3.5580    -0.5510 C.ar  1 <1>  -0.1500 
  7 C       -0.7150    -4.0270    -0.0500 C.ar  1 <1>   0.0830 
  8 C       -2.6090    -3.9300     1.6200 C.3   1 <1>   0.4870 
  9 O       -1.3910    -5.0640    -0.6160 O.3   1 <1>  -0.3620 
 10 N       -3.6450    -3.8010     0.5630 N.4   1 <1>  -0.9590 
 11 C       -0.7760    -5.8910    -1.5860 C.3   1 <1>   0.0400 
 12 C       -3.8980    -2.3760     0.1960 C.3   1 <1>   0.3430 
 13 C       -4.8810    -4.5600     0.9010 C.3   1 <1>   0.3430 
 14 C       -4.8560    -2.3110    -0.9900 C.3   1 <1>  -0.1600 
 15 C       -5.8490    -4.5200    -0.2780 C.3   1 <1>  -0.1600 
 16 C       -6.1390    -3.0740    -0.6730 C.3   1 <1>   0.2000 
 17 O       -6.9380    -3.0750    -1.7890 O.3   1 <1>  -0.6800 
 18 H       -1.0550    -1.8650     2.5510 H     1 <1>   0.1500 
 19 H        2.0790    -2.1180    -0.3140 H     1 <1>   0.1500 
 20 H        0.9660    -4.0020    -1.4120 H     1 <1>   0.1500 
 21 H       -2.8920    -3.3690     2.4950 H     1 <1>   0.0800 
 22 H       -2.4920    -4.9660     1.8960 H     1 <1>   0.0800 
 23 H       -3.1970    -4.2520    -0.2550 H     1 <1>   0.4500 
 24 H       -1.4440    -6.7030    -1.8140 H     1 <1>   0.0800 
 25 H        0.1430    -6.2820    -1.1840 H     1 <1>   0.0800 
 26 H       -0.5880    -5.3150    -2.4750 H     1 <1>   0.0800 
 27 H       -2.9720    -1.8890    -0.0670 H     1 <1>   0.0800 
 28 H       -4.3290    -1.8540     1.0350 H     1 <1>   0.0800 
 29 H       -5.3520    -4.1220     1.7670 H     1 <1>   0.0800 
 30 H       -4.6360    -5.5850     1.1290 H     1 <1>   0.0800 
 31 H       -4.3720    -2.7230    -1.8580 H     1 <1>   0.0800 
 32 H       -5.0940    -1.2810    -1.1910 H     1 <1>   0.0800 
 33 H       -6.7680    -5.0010     0.0080 H     1 <1>   0.0800 
 34 H       -5.4250    -5.0620    -1.1040 H     1 <1>   0.0800 
 35 H       -6.6860    -2.5750     0.1110 H     1 <1>   0.0800 
 36 H       -6.5020    -3.5020    -2.5510 H     1 <1>   0.4000 
@<TRIPOS>BOND
  1   1   2  1   
  2   2   3  ar  
  3   2   4  ar  
  4   3   5  ar  
  5   3  18  1   
  6   4   6  ar  
  7   4  19  1   
  8   5   7  ar  
  9   5   8  1   
 10   6   7  ar  
 11   6  20  1   
 12   7   9  1   
 13   8  10  1   
 14   8  21  1   
 15   8  22  1   
 16   9  11  1   
 17  10  12  1   
 18  10  13  1   
 19  10  23  1   
 20  11  24  1   
 21  11  25  1   
 22  11  26  1   
 23  12  14  1   
 24  12  27  1   
 25  12  28  1   
 26  13  15  1   
 27  13  29  1   
 28  13  30  1   
 29  14  16  1   
 30  14  31  1   
 31  14  32  1   
 32  15  16  1   
 33  15  33  1   
 34  15  34  1   
 35  16  17  1   
 36  16  35  1   
 37  17  36  1   
@<TRIPOS>SUBSTRUCTURE
  1 ****   5 GROUP 4 **** **** 0

# MOE 2024.06 (io_trps.svl 2023.06)
