@<TRIPOS>MOLECULE
NONAME
49 53 1 0 0 
SMALL
USER_CHARGES


@<TRIPOS>ATOM
  1 O        0.5080    -0.9700     0.5480 O.3   1 <1>  -0.5600 
  2 C       -0.3510    -1.3550     1.5890 C.3   1 <1>   0.2000 
  3 C       -0.0690    -0.8830    -0.7210 C.3   1 <1>   0.2000 
  4 C       -1.4330    -2.3810     1.1500 C.3   1 <1>   0.2090 
  5 C       -0.9520    -0.0870     2.1980 C.3   1 <1>  -0.2400 
  6 C       -0.5300    -2.2820    -1.1970 C.3   1 <1>   0.2090 
  7 C        0.9810    -0.2720    -1.6460 C.3   1 <1>  -0.2400 
  8 N       -1.0550    -3.1420    -0.0830 N.pl3 1 <1>  -0.8380 
  9 C       -0.6810    -4.4400     0.0120 C.2   1 <1>   0.4790 
 10 N       -1.6240    -5.4000    -0.2270 N.pl3 1 <1>  -0.6290 
 11 C        0.6040    -4.8550     0.3480 C.2   1 <1>  -0.1380 
 12 C       -1.3090    -6.7240    -0.1230 C.cat 1 <1>   0.7910 
 13 C       -2.9730    -5.3230    -0.6060 C.ar  1 <1>   0.3090 
 14 C        0.9340    -6.1890     0.4510 C.2   1 <1>  -0.1380 
 15 C        1.8110    -3.9920     0.6590 C.3   1 <1>  -0.0220 
 16 N       -2.4100    -7.4660    -0.4020 N.pl3 1 <1>  -0.7000 
 17 C       -0.0260    -7.1570     0.2180 C.2   1 <1>   0.0740 
 18 C       -3.4490    -6.6190    -0.7060 C.ar  1 <1>   0.3090 
 19 C       -3.8270    -4.2570    -0.8790 C.ar  1 <1>  -0.1090 
 20 C        2.3870    -6.3780     0.8310 C.3   1 <1>  -0.0220 
 21 C        2.9880    -4.9780     0.6410 C.3   1 <1>  -0.1600 
 22 C        0.2130    -8.5550     0.3030 C.1   1 <1>   0.4920 
 23 C       -4.7660    -6.8870    -1.0630 C.ar  1 <1>  -0.1090 
 24 C       -5.1380    -4.5140    -1.2360 C.ar  1 <1>  -0.1500 
 25 N        0.3110    -9.6880     0.3470 N.1   1 <1>  -0.5570 
 26 C       -5.6070    -5.8250    -1.3270 C.ar  1 <1>  -0.1500 
 27 H        0.2720    -1.8180     2.3330 H     1 <1>   0.0800 
 28 H       -0.9150    -0.2200    -0.6630 H     1 <1>   0.0800 
 29 H       -2.3530    -1.8580     0.9570 H     1 <1>   0.0800 
 30 H       -1.6220    -3.0610     1.9620 H     1 <1>   0.0800 
 31 H       -1.5840     0.4200     1.4930 H     1 <1>   0.0800 
 32 H       -0.1620     0.5760     2.5050 H     1 <1>   0.0800 
 33 H       -1.5370    -0.3360     3.0650 H     1 <1>   0.0800 
 34 H        0.2960    -2.7820    -1.6720 H     1 <1>   0.0800 
 35 H       -1.2950    -2.1590    -1.9420 H     1 <1>   0.0800 
 36 H        1.8560    -0.8950    -1.6850 H     1 <1>   0.0800 
 37 H        1.2580     0.7020    -1.2860 H     1 <1>   0.0800 
 38 H        0.5840    -0.1670    -2.6400 H     1 <1>   0.0800 
 39 H        1.7040    -3.5580     1.6380 H     1 <1>   0.0800 
 40 H        1.9540    -3.2070    -0.0620 H     1 <1>   0.0800 
 41 H       -2.4620    -8.4890    -0.4010 H     1 <1>   0.4500 
 42 H       -3.4730    -3.2460    -0.8160 H     1 <1>   0.1500 
 43 H        2.8830    -7.1020     0.2060 H     1 <1>   0.0800 
 44 H        2.4610    -6.6800     1.8620 H     1 <1>   0.0800 
 45 H        3.7150    -4.7460     1.4000 H     1 <1>   0.0800 
 46 H        3.4660    -4.9300    -0.3220 H     1 <1>   0.0800 
 47 H       -5.1160    -7.9020    -1.1320 H     1 <1>   0.1500 
 48 H       -5.8100    -3.6980    -1.4490 H     1 <1>   0.1500 
 49 H       -6.6340    -6.0010    -1.6070 H     1 <1>   0.1500 
@<TRIPOS>BOND
  1   1   2  1   
  2   1   3  1   
  3   2   4  1   
  4   2   5  1   
  5   2  27  1   
  6   3   6  1   
  7   3   7  1   
  8   3  28  1   
  9   4   8  1   
 10   4  29  1   
 11   4  30  1   
 12   5  31  1   
 13   5  32  1   
 14   5  33  1   
 15   6   8  1   
 16   6  34  1   
 17   6  35  1   
 18   7  36  1   
 19   7  37  1   
 20   7  38  1   
 21   8   9  1   
 22   9  10  1   
 23   9  11  2   
 24  10  12  ar  
 25  10  13  1   
 26  11  14  1   
 27  11  15  1   
 28  12  16  ar  
 29  12  17  1   
 30  13  18  ar  
 31  13  19  ar  
 32  14  17  2   
 33  14  20  1   
 34  15  21  1   
 35  15  39  1   
 36  15  40  1   
 37  16  18  1   
 38  16  41  1   
 39  17  22  1   
 40  18  23  ar  
 41  19  24  ar  
 42  19  42  1   
 43  20  21  1   
 44  20  43  1   
 45  20  44  1   
 46  21  45  1   
 47  21  46  1   
 48  22  25  3   
 49  23  26  ar  
 50  23  47  1   
 51  24  26  ar  
 52  24  48  1   
 53  26  49  1   
@<TRIPOS>SUBSTRUCTURE
  1 ****   9 GROUP 4 **** **** 0

# MOE 2024.06 (io_trps.svl 2023.06)
