@<TRIPOS>MOLECULE
NONAME
43 45 1 0 0 
SMALL
USER_CHARGES


@<TRIPOS>ATOM
  1 O       -0.2150    -0.4110     0.5310 O.2   1 <1>  -0.5700 
  2 C       -0.1020    -1.6070     0.3030 C.2   1 <1>   0.7670 
  3 N       -1.2660    -2.3260     0.3140 N.2   1 <1>  -0.6610 
  4 C        1.1580    -2.2440     0.0690 C.2   1 <1>  -0.1240 
  5 C       -1.2000    -3.5950     0.1850 C.2   1 <1>   0.4390 
  6 C        1.1870    -3.6070     0.0030 C.2   1 <1>   0.0720 
  7 C        2.4860    -1.4610    -0.0650 C.3   1 <1>   0.1380 
  8 N       -0.0220    -4.2550     0.0440 N.pl3 1 <1>  -0.5500 
  9 C       -2.4520    -4.4640     0.1840 C.3   1 <1>  -0.0990 
 10 C        2.4080    -4.3790    -0.0950 C.ar  1 <1>   0.0280 
 11 C        3.4870    -2.2760    -0.9220 C.3   1 <1>  -0.0160 
 12 C        3.0630    -1.2440     1.3420 C.3   1 <1>  -0.2400 
 13 C        2.3510    -0.0910    -0.7610 C.3   1 <1>  -0.2400 
 14 C       -3.7750    -3.6900     0.3290 C.3   1 <1>  -0.1600 
 15 C        3.5670    -3.7430    -0.5310 C.ar  1 <1>  -0.1440 
 16 C        2.4950    -5.7270     0.2560 C.ar  1 <1>  -0.1500 
 17 C       -4.9830    -4.6350     0.3170 C.3   1 <1>  -0.1600 
 18 C        4.7650    -4.4310    -0.6250 C.ar  1 <1>  -0.1500 
 19 C        3.6890    -6.4170     0.1600 C.ar  1 <1>  -0.1500 
 20 C       -6.2920    -3.8530     0.4620 C.3   1 <1>  -0.2400 
 21 C        4.8280    -5.7690    -0.2810 C.ar  1 <1>  -0.1500 
 22 H       -0.0410    -5.2680    -0.0690 H     1 <1>   0.4000 
 23 H       -2.3720    -5.1660     0.9940 H     1 <1>   0.0800 
 24 H       -2.4750    -5.0160    -0.7370 H     1 <1>   0.0800 
 25 H        4.4640    -1.8290    -0.8630 H     1 <1>   0.0800 
 26 H        3.1780    -2.2380    -1.9520 H     1 <1>   0.0800 
 27 H        3.2250    -2.1860     1.8340 H     1 <1>   0.0800 
 28 H        2.3780    -0.6660     1.9380 H     1 <1>   0.0800 
 29 H        3.9990    -0.7170     1.2950 H     1 <1>   0.0800 
 30 H        1.7780    -0.1840    -1.6660 H     1 <1>   0.0800 
 31 H        3.3180     0.3090    -1.0080 H     1 <1>   0.0800 
 32 H        1.8690     0.6290    -0.1250 H     1 <1>   0.0800 
 33 H       -3.8630    -2.9820    -0.4790 H     1 <1>   0.0800 
 34 H       -3.7620    -3.1340     1.2520 H     1 <1>   0.0800 
 35 H        1.6300    -6.2480     0.6190 H     1 <1>   0.1500 
 36 H       -4.9020    -5.3390     1.1280 H     1 <1>   0.0800 
 37 H       -5.0030    -5.1870    -0.6070 H     1 <1>   0.0800 
 38 H        5.6550    -3.9320    -0.9680 H     1 <1>   0.1500 
 39 H        3.7380    -7.4570     0.4340 H     1 <1>   0.1500 
 40 H       -6.3030    -3.3080     1.3890 H     1 <1>   0.0800 
 41 H       -7.1280    -4.5290     0.4510 H     1 <1>   0.0800 
 42 H       -6.4050    -3.1560    -0.3500 H     1 <1>   0.0800 
 43 H        5.7590    -6.3030    -0.3560 H     1 <1>   0.1500 
@<TRIPOS>BOND
  1   1   2  2   
  2   2   3  1   
  3   2   4  1   
  4   3   5  2   
  5   4   6  2   
  6   4   7  1   
  7   5   8  1   
  8   5   9  1   
  9   6   8  1   
 10   6  10  1   
 11   7  11  1   
 12   7  12  1   
 13   7  13  1   
 14   8  22  1   
 15   9  14  1   
 16   9  23  1   
 17   9  24  1   
 18  10  15  ar  
 19  10  16  ar  
 20  11  15  1   
 21  11  25  1   
 22  11  26  1   
 23  12  27  1   
 24  12  28  1   
 25  12  29  1   
 26  13  30  1   
 27  13  31  1   
 28  13  32  1   
 29  14  17  1   
 30  14  33  1   
 31  14  34  1   
 32  15  18  ar  
 33  16  19  ar  
 34  16  35  1   
 35  17  20  1   
 36  17  36  1   
 37  17  37  1   
 38  18  21  ar  
 39  18  38  1   
 40  19  21  ar  
 41  19  39  1   
 42  20  40  1   
 43  20  41  1   
 44  20  42  1   
 45  21  43  1   
@<TRIPOS>SUBSTRUCTURE
  1 ****   6 GROUP 4 **** **** 0

# MOE 2024.06 (io_trps.svl 2023.06)
