@<TRIPOS>MOLECULE
NONAME
41 41 1 0 0 
SMALL
USER_CHARGES


@<TRIPOS>ATOM
  1 N       -9.6250     1.8410    -1.1330 N.ar  1 <1>  -0.6200 
  2 C       -9.1470     2.7590    -0.2970 C.ar  1 <1>   0.1660 
  3 C      -10.8250     2.0970    -1.6360 C.ar  1 <1>   0.1600 
  4 C       -9.8170     3.9240     0.0470 C.ar  1 <1>  -0.1500 
  5 C       -7.7690     2.4720     0.2900 C.3   1 <1>   0.4870 
  6 C      -11.5700     3.2280    -1.3530 C.ar  1 <1>  -0.1500 
  7 C      -11.0620     4.1740    -0.4900 C.ar  1 <1>  -0.1500 
  8 N       -6.9660     1.7590    -0.7430 N.4   1 <1>  -0.9060 
  9 C       -5.8230     0.9470    -0.3230 C.3   1 <1>   0.5030 
 10 C       -4.8240     1.8800     0.4180 C.3   1 <1>  -0.1600 
 11 C       -5.2850     0.3570    -1.6230 C.3   1 <1>  -0.2400 
 12 C       -6.3720    -0.1810     0.5590 C.3   1 <1>  -0.2400 
 13 C       -3.3450     1.4890     0.7080 C.3   1 <1>   0.0000 
 14 C       -2.7990     2.5040     1.7280 C.3   1 <1>  -0.2400 
 15 C       -3.1870     0.0920     1.3230 C.3   1 <1>  -0.2400 
 16 C       -2.4530     1.5970    -0.5410 C.3   1 <1>  -0.2400 
 17 H      -11.2430     1.3680    -2.3120 H     1 <1>   0.1500 
 18 H       -9.3860     4.6380     0.7280 H     1 <1>   0.1500 
 19 H       -7.8980     1.8460     1.1570 H     1 <1>   0.0800 
 20 H       -7.2850     3.3870     0.5870 H     1 <1>   0.0800 
 21 H      -12.5380     3.3640    -1.8030 H     1 <1>   0.1500 
 22 H      -11.6160     5.0670    -0.2480 H     1 <1>   0.1500 
 23 H       -6.6820     2.4190    -1.4690 H     1 <1>   0.4500 
 24 H       -7.6660     1.1550    -1.2030 H     1 <1>   0.4500 
 25 H       -5.2680     2.1040     1.3720 H     1 <1>   0.0800 
 26 H       -4.7820     2.8090    -0.1220 H     1 <1>   0.0800 
 27 H       -6.0600    -0.1520    -2.1680 H     1 <1>   0.0800 
 28 H       -4.8590     1.1210    -2.2480 H     1 <1>   0.0800 
 29 H       -4.5230    -0.3710    -1.4150 H     1 <1>   0.0800 
 30 H       -6.6570     0.1770     1.5320 H     1 <1>   0.0800 
 31 H       -5.6320    -0.9440     0.7060 H     1 <1>   0.0800 
 32 H       -7.2200    -0.6550     0.0960 H     1 <1>   0.0800 
 33 H       -3.3430     2.4540     2.6550 H     1 <1>   0.0800 
 34 H       -2.8680     3.5080     1.3470 H     1 <1>   0.0800 
 35 H       -1.7640     2.3070     1.9480 H     1 <1>   0.0800 
 36 H       -3.8250    -0.0250     2.1810 H     1 <1>   0.0800 
 37 H       -2.1710    -0.0580     1.6470 H     1 <1>   0.0800 
 38 H       -3.4050    -0.6800     0.6100 H     1 <1>   0.0800 
 39 H       -2.5690     2.5550    -1.0160 H     1 <1>   0.0800 
 40 H       -2.6600     0.8300    -1.2600 H     1 <1>   0.0800 
 41 H       -1.4170     1.4920    -0.2670 H     1 <1>   0.0800 
@<TRIPOS>BOND
  1   1   2  ar  
  2   1   3  ar  
  3   2   4  ar  
  4   2   5  1   
  5   3   6  ar  
  6   3  17  1   
  7   4   7  ar  
  8   4  18  1   
  9   5   8  1   
 10   5  19  1   
 11   5  20  1   
 12   6   7  ar  
 13   6  21  1   
 14   7  22  1   
 15   8   9  1   
 16   8  23  1   
 17   8  24  1   
 18   9  10  1   
 19   9  11  1   
 20   9  12  1   
 21  10  13  1   
 22  10  25  1   
 23  10  26  1   
 24  11  27  1   
 25  11  28  1   
 26  11  29  1   
 27  12  30  1   
 28  12  31  1   
 29  12  32  1   
 30  13  14  1   
 31  13  15  1   
 32  13  16  1   
 33  14  33  1   
 34  14  34  1   
 35  14  35  1   
 36  15  36  1   
 37  15  37  1   
 38  15  38  1   
 39  16  39  1   
 40  16  40  1   
 41  16  41  1   
@<TRIPOS>SUBSTRUCTURE
  1 ****   8 GROUP 4 **** **** 0

# MOE 2024.06 (io_trps.svl 2023.06)
