@<TRIPOS>MOLECULE
NONAME
45 46 1 0 0 
SMALL
USER_CHARGES


@<TRIPOS>ATOM
  1 O       -0.4640    -0.2160    -0.0620 O.2   1 <1>  -0.5700 
  2 C       -1.3650     0.6000     0.0340 C.2   1 <1>   0.4140 
  3 C       -1.2320     1.9590    -0.3280 C.3   1 <1>  -0.7150 
  4 C       -2.6810     0.0840     0.5870 C.3   1 <1>   0.0420 
  5 C       -2.3100     2.8490    -0.1480 C.2   1 <1>   0.4140 
  6 C       -0.0300     2.4410    -0.8850 C.2   1 <1>   0.4140 
  7 C       -2.8310    -1.4090     0.3680 C.2   1 <1>   0.6590 
  8 C       -3.8480     0.8510    -0.0490 C.3   1 <1>   0.0630 
  9 O       -2.2280     4.0620    -0.2010 O.2   1 <1>  -0.5700 
 10 C       -3.6910     2.3470     0.2190 C.3   1 <1>  -0.0990 
 11 O       -0.0020     3.1950    -1.8450 O.2   1 <1>  -0.5700 
 12 C        1.3290     2.0310    -0.3270 C.3   1 <1>  -0.0990 
 13 O       -2.8390    -2.1830     1.2960 O.2   1 <1>  -0.5700 
 14 O       -3.0060    -1.8250    -0.8850 O.3   1 <1>  -0.4300 
 15 C       -5.2130     0.3470     0.4230 C.ar  1 <1>  -0.1440 
 16 C        2.2740     3.2250    -0.1100 C.3   1 <1>  -0.1600 
 17 C       -3.1600    -3.1920    -1.1950 C.3   1 <1>   0.0400 
 18 C       -5.5620     0.3550     1.7660 C.ar  1 <1>  -0.1500 
 19 C       -6.1240    -0.1360    -0.5050 C.ar  1 <1>  -0.1500 
 20 C        3.6070     2.7830     0.5070 C.3   1 <1>  -0.1600 
 21 C       -6.8000    -0.1100     2.1740 C.ar  1 <1>  -0.1500 
 22 C       -7.3630    -0.6010    -0.1000 C.ar  1 <1>  -0.1500 
 23 C        4.5400     3.9780     0.7190 C.3   1 <1>  -0.2400 
 24 C       -7.7020    -0.5880     1.2410 C.ar  1 <1>  -0.1500 
 25 H       -2.6680     0.2570     1.6450 H     1 <1>   0.0800 
 26 H       -3.7770     0.7150    -1.1160 H     1 <1>   0.0800 
 27 H       -4.4180     2.8880    -0.3580 H     1 <1>   0.0800 
 28 H       -3.8560     2.5670     1.2560 H     1 <1>   0.0800 
 29 H        1.7690     1.3300    -1.0100 H     1 <1>   0.0800 
 30 H        1.1840     1.5380     0.6150 H     1 <1>   0.0800 
 31 H        1.7870     3.9360     0.5350 H     1 <1>   0.0800 
 32 H        2.4520     3.7070    -1.0570 H     1 <1>   0.0800 
 33 H       -3.2740    -3.2880    -2.2590 H     1 <1>   0.0800 
 34 H       -4.0340    -3.5640    -0.6880 H     1 <1>   0.0800 
 35 H       -2.2830    -3.7200    -0.8640 H     1 <1>   0.0800 
 36 H       -4.8720     0.7220     2.5060 H     1 <1>   0.1500 
 37 H       -5.8720    -0.1540    -1.5510 H     1 <1>   0.1500 
 38 H        4.0820     2.0690    -0.1440 H     1 <1>   0.0800 
 39 H        3.4220     2.3020     1.4520 H     1 <1>   0.0800 
 40 H       -7.0600    -0.1020     3.2180 H     1 <1>   0.1500 
 41 H       -8.0620    -0.9730    -0.8280 H     1 <1>   0.1500 
 42 H        4.7470     4.4600    -0.2210 H     1 <1>   0.0800 
 43 H        5.4680     3.6500     1.1510 H     1 <1>   0.0800 
 44 H        4.0840     4.6930     1.3810 H     1 <1>   0.0800 
 45 H       -8.6640    -0.9510     1.5580 H     1 <1>   0.1500 
@<TRIPOS>BOND
  1   1   2  2   
  2   2   3  1   
  3   2   4  1   
  4   3   5  1   
  5   3   6  1   
  6   4   7  1   
  7   4   8  1   
  8   4  25  1   
  9   5   9  2   
 10   5  10  1   
 11   6  11  2   
 12   6  12  1   
 13   7  13  2   
 14   7  14  1   
 15   8  10  1   
 16   8  15  1   
 17   8  26  1   
 18  10  27  1   
 19  10  28  1   
 20  12  16  1   
 21  12  29  1   
 22  12  30  1   
 23  14  17  1   
 24  15  18  ar  
 25  15  19  ar  
 26  16  20  1   
 27  16  31  1   
 28  16  32  1   
 29  17  33  1   
 30  17  34  1   
 31  17  35  1   
 32  18  21  ar  
 33  18  36  1   
 34  19  22  ar  
 35  19  37  1   
 36  20  23  1   
 37  20  38  1   
 38  20  39  1   
 39  21  24  ar  
 40  21  40  1   
 41  22  24  ar  
 42  22  41  1   
 43  23  42  1   
 44  23  43  1   
 45  23  44  1   
 46  24  45  1   
@<TRIPOS>SUBSTRUCTURE
  1 ****   4 GROUP 4 **** **** 0

# MOE 2024.06 (io_trps.svl 2023.06)
