@<TRIPOS>MOLECULE
NONAME
28 28 1 0 0 
SMALL
USER_CHARGES


@<TRIPOS>ATOM
  1 O       -0.6610     0.5280    -0.4010 O.2   1 <1>  -0.5700 
  2 C       -0.6530     1.7620    -0.4060 C.2   1 <1>   0.6160 
  3 N        0.5270     2.4230    -0.0590 N.am  1 <1>  -0.2980 
  4 C       -1.7840     2.5770    -0.7510 C.2   1 <1>   0.0910 
  5 N        0.6770     3.7840    -0.0420 N.2   1 <1>  -0.5120 
  6 C        1.7280     1.6340     0.3040 C.3   1 <1>   0.0600 
  7 O       -2.9900     2.0480    -1.1420 O.3   1 <1>  -0.3570 
  8 C       -1.6250     3.9420    -0.7140 C.2   1 <1>   0.0910 
  9 C       -0.3620     4.4830    -0.3620 C.2   1 <1>   0.3760 
 10 C       -3.4430     0.8030    -0.6550 C.3   1 <1>   0.1200 
 11 O       -2.5840     4.8660    -0.9980 O.3   1 <1>  -0.3570 
 12 C       -4.9530     0.7390    -0.8620 C.3   1 <1>  -0.2400 
 13 C       -3.9230     4.7650    -0.5510 C.3   1 <1>   0.1200 
 14 C       -3.9720     4.6990     0.9800 C.3   1 <1>  -0.2400 
 15 H        2.0110     1.0100    -0.5250 H     1 <1>   0.0800 
 16 H        1.5070     1.0150     1.1550 H     1 <1>   0.0800 
 17 H        2.5430     2.2930     0.5460 H     1 <1>   0.0800 
 18 H       -0.2760     5.5550    -0.3610 H     1 <1>   0.0600 
 19 H       -2.9500     0.0220    -1.2080 H     1 <1>   0.0800 
 20 H       -3.1970     0.7260     0.3900 H     1 <1>   0.0800 
 21 H       -5.3250    -0.2070    -0.5110 H     1 <1>   0.0800 
 22 H       -5.1870     0.8330    -1.9070 H     1 <1>   0.0800 
 23 H       -5.4380     1.5240    -0.3100 H     1 <1>   0.0800 
 24 H       -4.4220     5.6570    -0.8900 H     1 <1>   0.0800 
 25 H       -4.4010     3.9250    -1.0230 H     1 <1>   0.0800 
 26 H       -5.0420     4.8040     1.0060 H     1 <1>   0.0800 
 27 H       -3.9540     4.7300     2.0540 H     1 <1>   0.0800 
 28 H       -3.7700     3.6440     1.0140 H     1 <1>   0.0800 
@<TRIPOS>BOND
  1   1   2  2   
  2   2   3  am  
  3   2   4  1   
  4   3   5  1   
  5   3   6  1   
  6   4   7  1   
  7   4   8  2   
  8   5   9  2   
  9   6  15  1   
 10   6  16  1   
 11   6  17  1   
 12   7  10  1   
 13   8   9  1   
 14   8  11  1   
 15   9  18  1   
 16  10  12  1   
 17  10  19  1   
 18  10  20  1   
 19  11  13  1   
 20  12  21  1   
 21  12  22  1   
 22  12  23  1   
 23  13  14  1   
 24  13  24  1   
 25  13  25  1   
 26  14  26  1   
 27  14  27  1   
 28  14  28  1   
@<TRIPOS>SUBSTRUCTURE
  1 ****   4 GROUP 4 **** **** 0

# MOE 2024.06 (io_trps.svl 2023.06)
