@<TRIPOS>MOLECULE
NONAME
32 35 1 0 0 
SMALL
USER_CHARGES


@<TRIPOS>ATOM
  1 O       -0.2320     0.3780     0.7620 O.2   1 <1>  -0.5700 
  2 C       -0.6420     1.4730     0.4740 C.2   1 <1>   0.5690 
  3 N        0.0870     2.5340    -0.0400 N.am  1 <1>  -0.2370 
  4 C       -2.0650     1.9480     0.6540 C.3   1 <1>  -0.0190 
  5 C        1.4970     2.6250    -0.0910 C.ar  1 <1>   0.1170 
  6 C       -0.8010     3.4930    -0.4900 C.2   1 <1>   0.5690 
  7 C       -3.5400     1.4810     0.8990 C.3   1 <1>   0.4180 
  8 C       -2.1490     2.8500    -0.5670 C.3   1 <1>  -0.0190 
  9 C        2.1510     3.7870     0.3070 C.ar  1 <1>  -0.1500 
 10 C        2.2660     1.5560    -0.5410 C.ar  1 <1>  -0.1500 
 11 O       -0.5820     4.6340    -0.8050 O.2   1 <1>  -0.5700 
 12 O       -3.9050     2.8550     0.8420 O.3   1 <1>  -0.5600 
 13 C       -4.3800     1.2420    -0.3850 C.2   1 <1>  -0.2880 
 14 C       -3.1910    -0.0110     1.0790 C.3   1 <1>  -0.2400 
 15 C       -3.5800     3.3270    -0.4250 C.3   1 <1>   0.3380 
 16 C        3.5310     3.8800     0.2560 C.ar  1 <1>  -0.1500 
 17 C        3.6460     1.6440    -0.5920 C.ar  1 <1>  -0.1500 
 18 C       -4.4080     2.3260    -1.1520 C.2   1 <1>  -0.2880 
 19 C        4.2800     2.8070    -0.1940 C.ar  1 <1>  -0.1500 
 20 H       -1.8920     2.5460     1.5420 H     1 <1>   0.0800 
 21 H       -2.0950     2.2660    -1.4710 H     1 <1>   0.0800 
 22 H        1.5810     4.6300     0.6560 H     1 <1>   0.1500 
 23 H        1.7860     0.6450    -0.8520 H     1 <1>   0.1500 
 24 H       -4.8830     0.3070    -0.5740 H     1 <1>   0.1500 
 25 H       -2.7240    -0.4480     0.2110 H     1 <1>   0.0800 
 26 H       -4.0780    -0.5790     1.3010 H     1 <1>   0.0800 
 27 H       -2.5370    -0.1520     1.9220 H     1 <1>   0.0800 
 28 H       -3.8140     4.3710    -0.5430 H     1 <1>   0.0800 
 29 H        4.0210     4.7870     0.5650 H     1 <1>   0.1500 
 30 H        4.2260     0.8080    -0.9410 H     1 <1>   0.1500 
 31 H       -4.8740     2.5500    -2.0950 H     1 <1>   0.1500 
 32 H        5.3540     2.8780    -0.2330 H     1 <1>   0.1500 
@<TRIPOS>BOND
  1   1   2  2   
  2   2   3  am  
  3   2   4  1   
  4   3   5  1   
  5   3   6  am  
  6   4   7  1   
  7   4   8  1   
  8   4  20  1   
  9   5   9  ar  
 10   5  10  ar  
 11   6   8  1   
 12   6  11  2   
 13   7  12  1   
 14   7  13  1   
 15   7  14  1   
 16   8  15  1   
 17   8  21  1   
 18   9  16  ar  
 19   9  22  1   
 20  10  17  ar  
 21  10  23  1   
 22  12  15  1   
 23  13  18  2   
 24  13  24  1   
 25  14  25  1   
 26  14  26  1   
 27  14  27  1   
 28  15  18  1   
 29  15  28  1   
 30  16  19  ar  
 31  16  29  1   
 32  17  19  ar  
 33  17  30  1   
 34  18  31  1   
 35  19  32  1   
@<TRIPOS>SUBSTRUCTURE
  1 ****   3 GROUP 4 **** **** 0

# MOE 2024.06 (io_trps.svl 2023.06)
