@<TRIPOS>MOLECULE
NONAME
60 62 1 0 0 
SMALL
USER_CHARGES


@<TRIPOS>ATOM
  1 O        1.1780    -0.0230    -0.6560 O.2   1 <1>  -0.5700 
  2 C        0.8610     0.6650     0.2940 C.2   1 <1>   0.5440 
  3 N        1.2360     0.2860     1.5590 N.am  1 <1>  -0.5390 
  4 C        0.0960     1.8780     0.1020 C.ar  1 <1>   0.0860 
  5 C        1.4330    -1.0240     2.0480 C.2   1 <1>   0.1230 
  6 C        0.4530     2.8080    -0.8730 C.ar  1 <1>  -0.1500 
  7 C       -1.0360     2.1490     0.8720 C.ar  1 <1>  -0.1500 
  8 C        2.7590    -1.4110     2.5260 C.2   1 <1>   0.6160 
  9 C        0.3600    -1.8580     2.1440 C.2   1 <1>  -0.1780 
 10 C       -0.2800     3.9660    -1.0630 C.ar  1 <1>  -0.1500 
 11 C       -1.7750     3.3010     0.6830 C.ar  1 <1>  -0.1500 
 12 O        2.8770    -2.2390     3.4070 O.2   1 <1>  -0.5700 
 13 N        3.9300    -0.8870     2.0690 N.am  1 <1>  -0.7300 
 14 C       -0.9940    -1.5460     1.7930 C.ar  1 <1>   0.0280 
 15 C       -1.3960     4.2150    -0.2840 C.ar  1 <1>  -0.1500 
 16 C        4.2210    -0.4910     0.6840 C.3   1 <1>   0.2200 
 17 C       -1.3940    -1.4870     0.4610 C.ar  1 <1>  -0.1500 
 18 C       -1.9290    -1.2370     2.7780 C.ar  1 <1>  -0.1500 
 19 C        5.4090    -1.3110     0.1730 C.3   1 <1>  -0.1600 
 20 C        4.5300     1.0090     0.6370 C.3   1 <1>  -0.1600 
 21 C       -2.6640    -1.0550     0.1070 C.ar  1 <1>   0.0830 
 22 C       -3.2060    -0.8260     2.4430 C.ar  1 <1>  -0.1500 
 23 C        5.7960    -0.8850    -1.2520 C.3   1 <1>  -0.1600 
 24 C        4.9060     1.4440    -0.7870 C.3   1 <1>  -0.1600 
 25 O       -3.0530    -0.9200    -1.1910 O.3   1 <1>  -0.3620 
 26 C       -3.5710    -0.7160     1.1080 C.ar  1 <1>   0.0830 
 27 C        6.0860     0.6210    -1.3220 C.3   1 <1>  -0.1600 
 28 C       -2.0830    -0.7350    -2.2010 C.3   1 <1>   0.0400 
 29 O       -4.8070    -0.2730     0.7640 O.3   1 <1>  -0.2320 
 30 C       -5.3120     0.8950     1.1470 C.2   1 <1>   0.6590 
 31 O       -4.7250     1.6800     1.8460 O.2   1 <1>  -0.5700 
 32 C       -6.6990     1.1940     0.6370 C.3   1 <1>  -0.1790 
 33 H        1.2090     1.0200     2.2660 H     1 <1>   0.3700 
 34 H        1.3140     2.6130    -1.4880 H     1 <1>   0.1500 
 35 H       -1.3560     1.4430     1.6200 H     1 <1>   0.1500 
 36 H        0.4990    -2.8460     2.5460 H     1 <1>   0.1500 
 37 H        0.0140     4.6740    -1.8200 H     1 <1>   0.1500 
 38 H       -2.6510     3.4800     1.2860 H     1 <1>   0.1500 
 39 H        4.7480    -1.2110     2.5830 H     1 <1>   0.3700 
 40 H       -1.9710     5.1130    -0.4310 H     1 <1>   0.1500 
 41 H        3.3720    -0.7060     0.0600 H     1 <1>   0.0800 
 42 H       -0.6780    -1.7700    -0.2870 H     1 <1>   0.1500 
 43 H       -1.6430    -1.3060     3.8130 H     1 <1>   0.1500 
 44 H        6.2550    -1.1680     0.8220 H     1 <1>   0.0800 
 45 H        5.1480    -2.3550     0.1710 H     1 <1>   0.0800 
 46 H        3.6710     1.5660     0.9610 H     1 <1>   0.0800 
 47 H        5.3480     1.2280     1.3010 H     1 <1>   0.0800 
 48 H       -3.9140    -0.5780     3.2140 H     1 <1>   0.1500 
 49 H        6.6640    -1.4350    -1.5720 H     1 <1>   0.0800 
 50 H        4.9880    -1.1220    -1.9240 H     1 <1>   0.0800 
 51 H        4.0550     1.3100    -1.4340 H     1 <1>   0.0800 
 52 H        5.1620     2.4900    -0.7900 H     1 <1>   0.0800 
 53 H        6.2870     0.9020    -2.3420 H     1 <1>   0.0800 
 54 H        6.9660     0.8420    -0.7420 H     1 <1>   0.0800 
 55 H       -2.5910    -0.4570    -3.1060 H     1 <1>   0.0800 
 56 H       -1.5510    -1.6570    -2.3510 H     1 <1>   0.0800 
 57 H       -1.4100     0.0510    -1.9030 H     1 <1>   0.0800 
 58 H       -7.3810     0.4430     0.9880 H     1 <1>   0.0800 
 59 H       -6.6920     1.1960    -0.4370 H     1 <1>   0.0800 
 60 H       -7.0180     2.1570     0.9900 H     1 <1>   0.0800 
@<TRIPOS>BOND
  1   1   2  2   
  2   2   3  am  
  3   2   4  1   
  4   3   5  1   
  5   3  33  1   
  6   4   6  ar  
  7   4   7  ar  
  8   5   8  1   
  9   5   9  2   
 10   6  10  ar  
 11   6  34  1   
 12   7  11  ar  
 13   7  35  1   
 14   8  12  2   
 15   8  13  am  
 16   9  14  1   
 17   9  36  1   
 18  10  15  ar  
 19  10  37  1   
 20  11  15  ar  
 21  11  38  1   
 22  13  16  1   
 23  13  39  1   
 24  14  17  ar  
 25  14  18  ar  
 26  15  40  1   
 27  16  19  1   
 28  16  20  1   
 29  16  41  1   
 30  17  21  ar  
 31  17  42  1   
 32  18  22  ar  
 33  18  43  1   
 34  19  23  1   
 35  19  44  1   
 36  19  45  1   
 37  20  24  1   
 38  20  46  1   
 39  20  47  1   
 40  21  25  1   
 41  21  26  ar  
 42  22  26  ar  
 43  22  48  1   
 44  23  27  1   
 45  23  49  1   
 46  23  50  1   
 47  24  27  1   
 48  24  51  1   
 49  24  52  1   
 50  25  28  1   
 51  26  29  1   
 52  27  53  1   
 53  27  54  1   
 54  28  55  1   
 55  28  56  1   
 56  28  57  1   
 57  29  30  1   
 58  30  31  2   
 59  30  32  1   
 60  32  58  1   
 61  32  59  1   
 62  32  60  1   
@<TRIPOS>SUBSTRUCTURE
  1 ****   2 GROUP 4 **** **** 0

# MOE 2024.06 (io_trps.svl 2023.06)
