@<TRIPOS>MOLECULE
NONAME
35 35 1 0 0 
SMALL
USER_CHARGES


@<TRIPOS>ATOM
  1 CL      -1.0610     0.5800     2.6830 Cl    1 <1>  -0.1770 
  2 C       -1.9770     0.9260     1.2340 C.ar  1 <1>   0.1770 
  3 C       -1.5320     1.8790     0.3270 C.ar  1 <1>   0.0820 
  4 C       -3.1520     0.2230     1.0280 C.ar  1 <1>  -0.1500 
  5 O       -0.3890     2.5670     0.5690 O.3   1 <1>  -0.3630 
  6 C       -2.3170     2.1210    -0.7970 C.ar  1 <1>   0.1770 
  7 C       -3.9240     0.4700    -0.1010 C.ar  1 <1>  -0.1440 
  8 C        0.7390     2.3140    -0.2410 C.3   1 <1>   0.2000 
  9 CL      -1.8650     3.3350    -1.9720 Cl    1 <1>  -0.1770 
 10 C       -3.4940     1.4240    -1.0160 C.ar  1 <1>  -0.1500 
 11 C       -5.2190    -0.2850    -0.3260 C.3   1 <1>   0.4870 
 12 C        1.4980     1.1200     0.3370 C.3   1 <1>  -0.2400 
 13 C        1.5950     3.5780    -0.2320 C.3   1 <1>  -0.2400 
 14 N       -6.2970     0.5040     0.3000 N.4   1 <1>  -0.9060 
 15 C       -7.6310    -0.1000     0.1840 C.3   1 <1>   0.4810 
 16 C       -8.5880     0.9140     0.7560 C.2   1 <1>  -0.2880 
 17 C       -9.4590     1.6380     0.0450 C.2   1 <1>  -0.3000 
 18 H       -3.4390    -0.5100     1.7630 H     1 <1>   0.1500 
 19 H        0.4160     2.1010    -1.2450 H     1 <1>   0.0800 
 20 H       -4.0560     1.6480    -1.9070 H     1 <1>   0.1500 
 21 H       -5.1550    -1.2640     0.1240 H     1 <1>   0.0800 
 22 H       -5.3990    -0.4000    -1.3840 H     1 <1>   0.0800 
 23 H        1.7780     1.3130     1.3570 H     1 <1>   0.0800 
 24 H        2.3910     0.9420    -0.2350 H     1 <1>   0.0800 
 25 H        0.8920     0.2340     0.2950 H     1 <1>   0.0800 
 26 H        1.9060     3.8130     0.7700 H     1 <1>   0.0800 
 27 H        1.0320     4.4020    -0.6330 H     1 <1>   0.0800 
 28 H        2.4690     3.4360    -0.8400 H     1 <1>   0.0800 
 29 H       -6.3350     1.4370    -0.1270 H     1 <1>   0.4500 
 30 H       -6.0780     0.6630     1.2890 H     1 <1>   0.4500 
 31 H       -7.6910    -1.0290     0.7290 H     1 <1>   0.0800 
 32 H       -7.8710    -0.2820    -0.8530 H     1 <1>   0.0800 
 33 H       -8.5140     1.0060     1.8280 H     1 <1>   0.1500 
 34 H      -10.1370     2.3550     0.4830 H     1 <1>   0.1500 
 35 H       -9.5880     1.5890    -1.0240 H     1 <1>   0.1500 
@<TRIPOS>BOND
  1   1   2  1   
  2   2   3  ar  
  3   2   4  ar  
  4   3   5  1   
  5   3   6  ar  
  6   4   7  ar  
  7   4  18  1   
  8   5   8  1   
  9   6   9  1   
 10   6  10  ar  
 11   7  10  ar  
 12   7  11  1   
 13   8  12  1   
 14   8  13  1   
 15   8  19  1   
 16  10  20  1   
 17  11  14  1   
 18  11  21  1   
 19  11  22  1   
 20  12  23  1   
 21  12  24  1   
 22  12  25  1   
 23  13  26  1   
 24  13  27  1   
 25  13  28  1   
 26  14  15  1   
 27  14  29  1   
 28  14  30  1   
 29  15  16  1   
 30  15  31  1   
 31  15  32  1   
 32  16  17  2   
 33  16  33  1   
 34  17  34  1   
 35  17  35  1   
@<TRIPOS>SUBSTRUCTURE
  1 ****   7 GROUP 4 **** **** 0

# MOE 2024.06 (io_trps.svl 2023.06)
