@<TRIPOS>MOLECULE
NONAME
39 40 1 0 0 
SMALL
USER_CHARGES


@<TRIPOS>ATOM
  1 N       -1.3170     4.2230     0.1150 N.ar  1 <1>  -0.2100 
  2 C       -2.0410     3.6930    -0.8700 C.ar  1 <1>   0.2110 
  3 C       -1.7210     5.3960     0.7050 C.ar  1 <1>   0.2110 
  4 C       -0.0680     3.5670     0.5890 C.3   1 <1>   0.3280 
  5 C       -3.2230     4.2880    -1.3400 C.ar  1 <1>   0.0000 
  6 C       -2.8590     6.0260     0.2970 C.ar  1 <1>  -0.1500 
  7 C        1.1580     4.2190    -0.0630 C.3   1 <1>  -0.1600 
  8 C       -3.6500     5.4940    -0.7410 C.ar  1 <1>   0.0000 
  9 C       -4.0030     3.7400    -2.3830 C.ar  1 <1>  -0.1500 
 10 C        2.4600     3.5490     0.4010 C.3   1 <1>  -0.1600 
 11 C       -4.8310     6.1040    -1.1990 C.ar  1 <1>  -0.1500 
 12 C       -5.1470     4.3560    -2.8080 C.ar  1 <1>  -0.1500 
 13 C        3.6800     4.2070    -0.2550 C.3   1 <1>  -0.1600 
 14 C       -5.5660     5.5490    -2.2110 C.ar  1 <1>  -0.1500 
 15 C        4.9810     3.5390     0.2060 C.3   1 <1>  -0.1600 
 16 C        6.2010     4.1950    -0.4490 C.3   1 <1>  -0.1600 
 17 C        7.4990     3.5280     0.0130 C.3   1 <1>  -0.2400 
 18 H       -1.7200     2.7750    -1.3340 H     1 <1>   0.1500 
 19 H       -1.1170     5.8060     1.4990 H     1 <1>   0.1500 
 20 H       -0.0940     2.5190     0.3420 H     1 <1>   0.0800 
 21 H       -0.0040     3.6500     1.6610 H     1 <1>   0.0800 
 22 H       -3.1760     6.9450     0.7600 H     1 <1>   0.1500 
 23 H        1.1950     5.2640     0.1940 H     1 <1>   0.0800 
 24 H        1.0850     4.1330    -1.1340 H     1 <1>   0.0800 
 25 H       -3.6890     2.8220    -2.8490 H     1 <1>   0.1500 
 26 H        2.4460     2.5020     0.1440 H     1 <1>   0.0800 
 27 H        2.5530     3.6290     1.4720 H     1 <1>   0.0800 
 28 H       -5.1570     7.0230    -0.7420 H     1 <1>   0.1500 
 29 H       -5.7410     3.9360    -3.6030 H     1 <1>   0.1500 
 30 H        3.7110     5.2530     0.0000 H     1 <1>   0.0800 
 31 H        3.6030     4.1270    -1.3270 H     1 <1>   0.0800 
 32 H       -6.4710     6.0190    -2.5600 H     1 <1>   0.1500 
 33 H        4.9610     2.4930    -0.0500 H     1 <1>   0.0800 
 34 H        5.0680     3.6190     1.2770 H     1 <1>   0.0800 
 35 H        6.2330     5.2410    -0.1940 H     1 <1>   0.0800 
 36 H        6.1260     4.1160    -1.5200 H     1 <1>   0.0800 
 37 H        7.6090     3.6150     1.0790 H     1 <1>   0.0800 
 38 H        8.3440     4.0010    -0.4570 H     1 <1>   0.0800 
 39 H        7.5020     2.4850    -0.2520 H     1 <1>   0.0800 
@<TRIPOS>BOND
  1   1   2  ar  
  2   1   3  ar  
  3   1   4  1   
  4   2   5  ar  
  5   2  18  1   
  6   3   6  ar  
  7   3  19  1   
  8   4   7  1   
  9   4  20  1   
 10   4  21  1   
 11   5   8  ar  
 12   5   9  ar  
 13   6   8  ar  
 14   6  22  1   
 15   7  10  1   
 16   7  23  1   
 17   7  24  1   
 18   8  11  ar  
 19   9  12  ar  
 20   9  25  1   
 21  10  13  1   
 22  10  26  1   
 23  10  27  1   
 24  11  14  ar  
 25  11  28  1   
 26  12  14  ar  
 27  12  29  1   
 28  13  15  1   
 29  13  30  1   
 30  13  31  1   
 31  14  32  1   
 32  15  16  1   
 33  15  33  1   
 34  15  34  1   
 35  16  17  1   
 36  16  35  1   
 37  16  36  1   
 38  17  37  1   
 39  17  38  1   
 40  17  39  1   
@<TRIPOS>SUBSTRUCTURE
  1 ****   1 GROUP 4 **** **** 0

# MOE 2024.06 (io_trps.svl 2023.06)
