@<TRIPOS>MOLECULE
NONAME
39 40 1 0 0 
SMALL
USER_CHARGES


@<TRIPOS>ATOM
  1 CL       0.0700     0.0290     0.7540 Cl    1 <1>  -0.1770 
  2 C       -0.6070    -1.5330     0.3520 C.ar  1 <1>   0.1770 
  3 C        0.2080    -2.5770    -0.0970 C.ar  1 <1>   0.0530 
  4 C       -1.9720    -1.6840     0.5160 C.ar  1 <1>  -0.1500 
  5 C        1.6350    -2.4520    -0.2930 C.2   1 <1>   0.0870 
  6 C       -0.4220    -3.7930    -0.3620 C.ar  1 <1>  -0.1500 
  7 C       -2.5680    -2.9010     0.2370 C.ar  1 <1>  -0.1500 
  8 O        2.4260    -3.4790    -0.0070 O.3   1 <1>  -0.2800 
  9 C        2.4060    -1.4330    -0.7580 C.2   1 <1>  -0.1500 
 10 C       -1.7870    -3.9560    -0.2000 C.ar  1 <1>  -0.1500 
 11 C        3.6740    -3.1460    -0.2640 C.2   1 <1>  -0.0400 
 12 C        3.7270    -1.8830    -0.7380 C.2   1 <1>  -0.1500 
 13 C        4.7600    -4.1720     0.0000 C.3   1 <1>   0.2900 
 14 N        6.0880    -3.5480    -0.0970 N.3   1 <1>  -0.9000 
 15 C        7.1680    -4.4640     0.2670 C.3   1 <1>   0.1100 
 16 C        8.5220    -3.8360    -0.1070 C.3   1 <1>   0.3430 
 17 N        9.6860    -4.7390     0.1850 N.4   1 <1>  -0.9590 
 18 C       10.9670    -3.9780     0.0550 C.3   1 <1>   0.2630 
 19 C        9.7060    -5.9340    -0.7190 C.3   1 <1>   0.2630 
 20 H       -2.5610    -0.8540     0.8620 H     1 <1>   0.1500 
 21 H        0.1710    -4.6220    -0.7050 H     1 <1>   0.1500 
 22 H       -3.6300    -3.0270     0.3620 H     1 <1>   0.1500 
 23 H        2.0900    -0.4610    -1.0900 H     1 <1>   0.1500 
 24 H       -2.2430    -4.9070    -0.4160 H     1 <1>   0.1500 
 25 H        4.5870    -1.3160    -1.0470 H     1 <1>   0.1500 
 26 H        4.6710    -4.9710    -0.7160 H     1 <1>   0.0800 
 27 H        4.6150    -4.5750     0.9890 H     1 <1>   0.0800 
 28 H        6.0620    -2.7370     0.5380 H     1 <1>   0.3600 
 29 H        7.0360    -5.3830    -0.2760 H     1 <1>   0.0800 
 30 H        7.1270    -4.6660     1.3250 H     1 <1>   0.0800 
 31 H        8.6320    -2.9200     0.4490 H     1 <1>   0.0800 
 32 H        8.5090    -3.5910    -1.1560 H     1 <1>   0.0800 
 33 H        9.6060    -5.0630     1.1610 H     1 <1>   0.4500 
 34 H       11.0870    -3.6140    -0.9530 H     1 <1>   0.0800 
 35 H       11.8060    -4.6110     0.2950 H     1 <1>   0.0800 
 36 H       10.9720    -3.1350     0.7280 H     1 <1>   0.0800 
 37 H        9.7640    -5.6240    -1.7490 H     1 <1>   0.0800 
 38 H        8.8130    -6.5240    -0.5870 H     1 <1>   0.0800 
 39 H       10.5590    -6.5560    -0.4980 H     1 <1>   0.0800 
@<TRIPOS>BOND
  1   1   2  1   
  2   2   3  ar  
  3   2   4  ar  
  4   3   5  1   
  5   3   6  ar  
  6   4   7  ar  
  7   4  20  1   
  8   5   8  1   
  9   5   9  2   
 10   6  10  ar  
 11   6  21  1   
 12   7  10  ar  
 13   7  22  1   
 14   8  11  1   
 15   9  12  1   
 16   9  23  1   
 17  10  24  1   
 18  11  12  2   
 19  11  13  1   
 20  12  25  1   
 21  13  14  1   
 22  13  26  1   
 23  13  27  1   
 24  14  15  1   
 25  14  28  1   
 26  15  16  1   
 27  15  29  1   
 28  15  30  1   
 29  16  17  1   
 30  16  31  1   
 31  16  32  1   
 32  17  18  1   
 33  17  19  1   
 34  17  33  1   
 35  18  34  1   
 36  18  35  1   
 37  18  36  1   
 38  19  37  1   
 39  19  38  1   
 40  19  39  1   
@<TRIPOS>SUBSTRUCTURE
  1 ****  11 GROUP 4 **** **** 0

# MOE 2024.06 (io_trps.svl 2023.06)
