@<TRIPOS>MOLECULE
NONAME
44 45 1 0 0 
SMALL
USER_CHARGES


@<TRIPOS>ATOM
  1 S        0.7600    -0.0110     0.3350 S.o2  1 <1>   1.4470 
  2 O        0.2480     1.3370     0.4060 O.2   1 <1>  -0.6500 
  3 O        1.8700    -0.4170     1.1670 O.2   1 <1>  -0.6500 
  4 N        1.2510    -0.1630    -1.2630 N.am  1 <1>  -0.9140 
  5 C       -0.5910    -1.2160     0.4630 C.ar  1 <1>  -0.0090 
  6 C        2.6030     0.3340    -1.5030 C.3   1 <1>   0.1160 
  7 C       -1.8650    -0.9180     0.0060 C.ar  1 <1>  -0.1500 
  8 C       -0.3790    -2.4800     0.9950 C.ar  1 <1>  -0.1500 
  9 C       -2.9330    -1.8190     0.0540 C.ar  1 <1>   0.0860 
 10 C       -1.4040    -3.4020     1.0690 C.ar  1 <1>  -0.1500 
 11 C       -2.6790    -3.0890     0.6040 C.ar  1 <1>   0.0830 
 12 C       -4.2250    -1.3910    -0.4670 C.2   1 <1>   0.5440 
 13 O       -3.6850    -3.9980     0.6660 O.3   1 <1>  -0.3630 
 14 O       -4.2910    -0.4660    -1.2550 O.2   1 <1>  -0.5700 
 15 N       -5.3880    -1.9910    -0.0870 N.am  1 <1>  -0.7300 
 16 C       -3.5010    -5.3310     1.0950 C.3   1 <1>   0.0400 
 17 C       -6.7410    -1.6700    -0.5650 C.3   1 <1>   0.2200 
 18 C       -7.6590    -1.4750     0.6460 C.3   1 <1>  -0.1600 
 19 C       -7.2330    -2.8120    -1.4590 C.3   1 <1>  -0.1600 
 20 C       -9.1130    -1.2450     0.2090 C.3   1 <1>  -0.1600 
 21 C       -8.6870    -2.5860    -1.9000 C.3   1 <1>  -0.1600 
 22 C       -9.6090    -2.3870    -0.6890 C.3   1 <1>  -0.1600 
 23 H        0.6070     0.4460    -1.7670 H     1 <1>   0.4200 
 24 H        3.3180    -0.2670    -0.9660 H     1 <1>   0.0800 
 25 H        2.6900     1.3570    -1.1750 H     1 <1>   0.0800 
 26 H        2.8300     0.2800    -2.5540 H     1 <1>   0.0800 
 27 H       -2.0410     0.0620    -0.4070 H     1 <1>   0.1500 
 28 H        0.6040    -2.7420     1.3550 H     1 <1>   0.1500 
 29 H       -1.1820    -4.3620     1.4940 H     1 <1>   0.1500 
 30 H       -5.3030    -2.8520     0.4590 H     1 <1>   0.3700 
 31 H       -4.4400    -5.8460     0.9990 H     1 <1>   0.0800 
 32 H       -3.1900    -5.3290     2.1250 H     1 <1>   0.0800 
 33 H       -2.7640    -5.8020     0.4690 H     1 <1>   0.0800 
 34 H       -6.7180    -0.7570    -1.1380 H     1 <1>   0.0800 
 35 H       -7.3190    -0.6270     1.2140 H     1 <1>   0.0800 
 36 H       -7.6160    -2.3470     1.2740 H     1 <1>   0.0800 
 37 H       -7.1700    -3.7420    -0.9220 H     1 <1>   0.0800 
 38 H       -6.6030    -2.8750    -2.3280 H     1 <1>   0.0800 
 39 H       -9.1790    -0.3150    -0.3290 H     1 <1>   0.0800 
 40 H       -9.7430    -1.1690     1.0780 H     1 <1>   0.0800 
 41 H       -9.0240    -3.4280    -2.4780 H     1 <1>   0.0800 
 42 H       -8.7340    -1.7140    -2.5300 H     1 <1>   0.0800 
 43 H      -10.6070    -2.1690    -1.0290 H     1 <1>   0.0800 
 44 H       -9.6480    -3.2990    -0.1180 H     1 <1>   0.0800 
@<TRIPOS>BOND
  1   1   2  2   
  2   1   3  2   
  3   1   4  am  
  4   1   5  1   
  5   4   6  1   
  6   4  23  1   
  7   5   7  ar  
  8   5   8  ar  
  9   6  24  1   
 10   6  25  1   
 11   6  26  1   
 12   7   9  ar  
 13   7  27  1   
 14   8  10  ar  
 15   8  28  1   
 16   9  11  ar  
 17   9  12  1   
 18  10  11  ar  
 19  10  29  1   
 20  11  13  1   
 21  12  14  2   
 22  12  15  am  
 23  13  16  1   
 24  15  17  1   
 25  15  30  1   
 26  16  31  1   
 27  16  32  1   
 28  16  33  1   
 29  17  18  1   
 30  17  19  1   
 31  17  34  1   
 32  18  20  1   
 33  18  35  1   
 34  18  36  1   
 35  19  21  1   
 36  19  37  1   
 37  19  38  1   
 38  20  22  1   
 39  20  39  1   
 40  20  40  1   
 41  21  22  1   
 42  21  41  1   
 43  21  42  1   
 44  22  43  1   
 45  22  44  1   
@<TRIPOS>SUBSTRUCTURE
  1 ****   9 GROUP 4 **** **** 0

# MOE 2024.06 (io_trps.svl 2023.06)
