@<TRIPOS>MOLECULE
NONAME
51 55 1 0 0 
SMALL
USER_CHARGES


@<TRIPOS>ATOM
  1 S        0.2630     0.0710    -2.6130 S.o2  1 <1>   1.3180 
  2 O        0.4530     1.2800    -3.3870 O.2   1 <1>  -0.6500 
  3 O       -0.1840    -1.1370    -3.2760 O.2   1 <1>  -0.6500 
  4 C        1.7950    -0.2870    -1.7160 C.ar  1 <1>  -0.0090 
  5 C       -0.8640     0.4340    -1.2430 C.ar  1 <1>  -0.0090 
  6 C        2.5860     0.7420    -1.2200 C.ar  1 <1>  -0.1500 
  7 C        2.2030    -1.5880    -1.4740 C.ar  1 <1>  -0.1500 
  8 C       -0.9460     1.7140    -0.7020 C.ar  1 <1>  -0.1500 
  9 C       -1.6540    -0.5640    -0.6770 C.ar  1 <1>  -0.1500 
 10 C        3.7580     0.5400    -0.4930 C.ar  1 <1>  -0.1430 
 11 C        3.3580    -1.8400    -0.7640 C.ar  1 <1>  -0.1500 
 12 C       -1.7830     1.9910     0.3650 C.ar  1 <1>  -0.1500 
 13 C       -2.4960    -0.2990     0.3900 C.ar  1 <1>  -0.1500 
 14 C        4.1280    -0.7960    -0.2760 C.ar  1 <1>   0.0830 
 15 C        4.5110     1.8200    -0.0100 C.3   1 <1>   0.1440 
 16 C       -2.5560     0.9830     0.9080 C.ar  1 <1>   0.0830 
 17 O        5.2280    -1.1580     0.4000 O.3   1 <1>  -0.5320 
 18 C        4.9120     2.6770    -1.2400 C.3   1 <1>  -0.1600 
 19 C        5.8100     1.5760     0.8040 C.3   1 <1>  -0.1600 
 20 C        3.5710     2.6600     0.8950 C.3   1 <1>  -0.1600 
 21 O       -3.3640     1.2620     1.9400 O.3   1 <1>  -0.5320 
 22 C        5.5690     4.0060    -0.8190 C.3   1 <1>  -0.0800 
 23 C        6.4850     2.8890     1.2390 C.3   1 <1>  -0.0800 
 24 C        4.2260     3.9890     1.3190 C.3   1 <1>  -0.0800 
 25 C        6.8430     3.7090    -0.0120 C.3   1 <1>  -0.1600 
 26 C        4.5850     4.8010     0.0600 C.3   1 <1>  -0.1600 
 27 C        5.5080     3.6920     2.1140 C.3   1 <1>  -0.1600 
 28 H        2.2540     1.7430    -1.4260 H     1 <1>   0.1500 
 29 H        1.6160    -2.4120    -1.8470 H     1 <1>   0.1500 
 30 H       -0.3510     2.5080    -1.1220 H     1 <1>   0.1500 
 31 H       -1.6120    -1.5630    -1.0790 H     1 <1>   0.1500 
 32 H        3.6540    -2.8590    -0.5920 H     1 <1>   0.1500 
 33 H       -1.8410     2.9830     0.7770 H     1 <1>   0.1500 
 34 H       -3.0980    -1.0860     0.8070 H     1 <1>   0.1500 
 35 H        5.3550    -2.1200     0.4510 H     1 <1>   0.4500 
 36 H        5.5940     2.1160    -1.8540 H     1 <1>   0.0800 
 37 H        4.0560     2.9060    -1.8460 H     1 <1>   0.0800 
 38 H        6.5080     1.0150     0.2090 H     1 <1>   0.0800 
 39 H        5.5810     1.0010     1.6830 H     1 <1>   0.0800 
 40 H        3.3180     2.0870     1.7700 H     1 <1>   0.0800 
 41 H        2.6530     2.8900     0.3890 H     1 <1>   0.0800 
 42 H       -3.8850     0.4980     2.2460 H     1 <1>   0.4500 
 43 H        5.8210     4.5800    -1.6940 H     1 <1>   0.0800 
 44 H        7.3790     2.6710     1.7980 H     1 <1>   0.0800 
 45 H        3.5430     4.5520     1.9320 H     1 <1>   0.0800 
 46 H        7.3170     4.6300     0.2780 H     1 <1>   0.0800 
 47 H        7.5410     3.1600    -0.6200 H     1 <1>   0.0800 
 48 H        3.6930     5.0220    -0.4990 H     1 <1>   0.0800 
 49 H        5.0310     5.7380     0.3470 H     1 <1>   0.0800 
 50 H        5.2660     3.1300     3.0000 H     1 <1>   0.0800 
 51 H        5.9680     4.6130     2.4250 H     1 <1>   0.0800 
@<TRIPOS>BOND
  1   1   2  2   
  2   1   3  2   
  3   1   4  1   
  4   1   5  1   
  5   4   6  ar  
  6   4   7  ar  
  7   5   8  ar  
  8   5   9  ar  
  9   6  10  ar  
 10   6  28  1   
 11   7  11  ar  
 12   7  29  1   
 13   8  12  ar  
 14   8  30  1   
 15   9  13  ar  
 16   9  31  1   
 17  10  14  ar  
 18  10  15  1   
 19  11  14  ar  
 20  11  32  1   
 21  12  16  ar  
 22  12  33  1   
 23  13  16  ar  
 24  13  34  1   
 25  14  17  1   
 26  15  18  1   
 27  15  19  1   
 28  15  20  1   
 29  16  21  1   
 30  17  35  1   
 31  18  22  1   
 32  18  36  1   
 33  18  37  1   
 34  19  23  1   
 35  19  38  1   
 36  19  39  1   
 37  20  24  1   
 38  20  40  1   
 39  20  41  1   
 40  21  42  1   
 41  22  25  1   
 42  22  26  1   
 43  22  43  1   
 44  23  25  1   
 45  23  27  1   
 46  23  44  1   
 47  24  26  1   
 48  24  27  1   
 49  24  45  1   
 50  25  46  1   
 51  25  47  1   
 52  26  48  1   
 53  26  49  1   
 54  27  50  1   
 55  27  51  1   
@<TRIPOS>SUBSTRUCTURE
  1 ****   6 GROUP 4 **** **** 0

# MOE 2024.06 (io_trps.svl 2023.06)
