@<TRIPOS>MOLECULE
NONAME
37 38 1 0 0 
SMALL
USER_CHARGES


@<TRIPOS>ATOM
  1 O       -0.3220     1.1140    -2.4380 O.2   1 <1>  -0.5700 
  2 C       -0.1390     1.8090    -1.4600 C.2   1 <1>   0.6900 
  3 N       -1.2010     2.2490    -0.7080 N.am  1 <1>  -0.6600 
  4 N        1.1560     2.1430    -1.2250 N.am  1 <1>  -0.4900 
  5 C       -1.1500     3.4280     0.2020 C.3   1 <1>   0.1400 
  6 C       -2.5140     1.5490    -0.7590 C.3   1 <1>   0.1400 
  7 C        1.8730     2.2870    -0.0650 C.2   1 <1>   0.5440 
  8 C       -2.2650     4.4160    -0.1500 C.3   1 <1>  -0.1600 
  9 C       -3.6230     2.5370    -1.1290 C.3   1 <1>  -0.1600 
 10 O        1.3490     2.0680     1.0070 O.2   1 <1>  -0.5700 
 11 C        3.2710     2.6710    -0.1390 C.ar  1 <1>   0.0860 
 12 C       -3.6470     3.7390    -0.1690 C.3   1 <1>  -0.0190 
 13 C        4.1760     2.2600     0.8400 C.ar  1 <1>  -0.1500 
 14 C        3.7700     3.4590    -1.1810 C.ar  1 <1>  -0.1500 
 15 C       -4.7490     4.7270    -0.5420 C.2   1 <1>   0.5690 
 16 C        5.5140     2.6040     0.7800 C.ar  1 <1>  -0.1500 
 17 C        5.1070     3.8060    -1.2460 C.ar  1 <1>  -0.1500 
 18 O       -4.6970     5.3460    -1.5740 O.2   1 <1>  -0.5700 
 19 N       -5.7900     4.9090     0.2900 N.am  1 <1>  -0.8000 
 20 C        5.9830     3.3770    -0.2660 C.ar  1 <1>  -0.1500 
 21 H        1.7100     1.9560    -2.0520 H     1 <1>   0.3700 
 22 H       -0.2060     3.9330     0.1150 H     1 <1>   0.0800 
 23 H       -1.2560     3.0880     1.2180 H     1 <1>   0.0800 
 24 H       -2.7120     1.1180     0.2060 H     1 <1>   0.0800 
 25 H       -2.4900     0.7490    -1.4790 H     1 <1>   0.0800 
 26 H       -2.0570     4.8420    -1.1170 H     1 <1>   0.0800 
 27 H       -2.2650     5.2200     0.5650 H     1 <1>   0.0800 
 28 H       -4.5710     2.0310    -1.1030 H     1 <1>   0.0800 
 29 H       -3.4620     2.8780    -2.1380 H     1 <1>   0.0800 
 30 H       -3.8490     3.3710     0.8210 H     1 <1>   0.0800 
 31 H        3.8200     1.6600     1.6610 H     1 <1>   0.1500 
 32 H        3.1070     3.8180    -1.9490 H     1 <1>   0.1500 
 33 H        6.1910     2.2710     1.5490 H     1 <1>   0.1500 
 34 H        5.4700     4.4130    -2.0580 H     1 <1>   0.1500 
 35 H       -6.5180     5.5730     0.0260 H     1 <1>   0.3700 
 36 H       -5.9110     4.4250     1.1780 H     1 <1>   0.3700 
 37 H        7.0250     3.6450    -0.3150 H     1 <1>   0.1500 
@<TRIPOS>BOND
  1   1   2  2   
  2   2   3  am  
  3   2   4  am  
  4   3   5  1   
  5   3   6  1   
  6   4   7  am  
  7   4  21  1   
  8   5   8  1   
  9   5  22  1   
 10   5  23  1   
 11   6   9  1   
 12   6  24  1   
 13   6  25  1   
 14   7  10  2   
 15   7  11  1   
 16   8  12  1   
 17   8  26  1   
 18   8  27  1   
 19   9  12  1   
 20   9  28  1   
 21   9  29  1   
 22  11  13  ar  
 23  11  14  ar  
 24  12  15  1   
 25  12  30  1   
 26  13  16  ar  
 27  13  31  1   
 28  14  17  ar  
 29  14  32  1   
 30  15  18  2   
 31  15  19  am  
 32  16  20  ar  
 33  16  33  1   
 34  17  20  ar  
 35  17  34  1   
 36  19  35  1   
 37  19  36  1   
 38  20  37  1   
@<TRIPOS>SUBSTRUCTURE
  1 ****   5 GROUP 4 **** **** 0

# MOE 2024.06 (io_trps.svl 2023.06)
