@<TRIPOS>MOLECULE
NONAME
47 50 1 0 0 
SMALL
USER_CHARGES


@<TRIPOS>ATOM
  1 O        0.9900     1.9310     0.7540 O.3   1 <1>  -0.5600 
  2 C        0.3150     0.7670     0.3710 C.3   1 <1>   0.1200 
  3 C        0.4890     3.1090     0.1910 C.3   1 <1>   0.1200 
  4 C       -1.1660     0.8450     0.7870 C.3   1 <1>   0.3430 
  5 C       -0.9830     3.3140     0.5950 C.3   1 <1>   0.3430 
  6 N       -1.8090     2.1020     0.2780 N.4   1 <1>  -0.9590 
  7 C       -3.2380     2.2400     0.6950 C.3   1 <1>   0.3430 
  8 C       -4.1550     1.3680    -0.1970 C.3   1 <1>   0.2000 
  9 O       -3.6100     1.3300    -1.4860 O.3   1 <1>  -0.6800 
 10 C       -5.6330     1.8460    -0.2460 C.3   1 <1>   0.0000 
 11 C       -6.4850     0.8450    -1.0730 C.3   1 <1>  -0.1600 
 12 C       -5.7800     3.2530    -0.8870 C.3   1 <1>  -0.1600 
 13 C       -6.2250     1.9000     1.1870 C.3   1 <1>  -0.1600 
 14 C       -7.9630     1.2730    -1.1090 C.3   1 <1>  -0.0800 
 15 C       -7.2570     3.6870    -0.9210 C.3   1 <1>  -0.0800 
 16 C       -7.7020     2.3340     1.1600 C.3   1 <1>  -0.0800 
 17 C       -8.0680     2.6710    -1.7450 C.3   1 <1>  -0.1600 
 18 C       -8.5110     1.3250     0.3270 C.3   1 <1>  -0.1600 
 19 C       -7.8090     3.7270     0.5150 C.3   1 <1>  -0.1600 
 20 H        0.7940    -0.0650     0.8570 H     1 <1>   0.0800 
 21 H        0.4130     0.6430    -0.6940 H     1 <1>   0.0800 
 22 H        0.5940     3.0550    -0.8790 H     1 <1>   0.0800 
 23 H        1.0900     3.9260     0.5520 H     1 <1>   0.0800 
 24 H       -1.2180     0.8180     1.8630 H     1 <1>   0.0800 
 25 H       -1.6890    -0.0160     0.4040 H     1 <1>   0.0800 
 26 H       -1.3780     4.1740     0.0810 H     1 <1>   0.0800 
 27 H       -1.0190     3.5120     1.6540 H     1 <1>   0.0800 
 28 H       -1.8810     2.0030    -0.7530 H     1 <1>   0.4500 
 29 H       -3.5400     3.2660     0.5800 H     1 <1>   0.0800 
 30 H       -3.3650     1.9770     1.7320 H     1 <1>   0.0800 
 31 H       -4.1380     0.3590     0.1810 H     1 <1>   0.0800 
 32 H       -4.2660     0.9480    -2.1090 H     1 <1>   0.4000 
 33 H       -6.4170    -0.1410    -0.6470 H     1 <1>   0.0800 
 34 H       -6.1290     0.7880    -2.0860 H     1 <1>   0.0800 
 35 H       -5.3980     3.2480    -1.8930 H     1 <1>   0.0800 
 36 H       -5.2250     3.9870    -0.3330 H     1 <1>   0.0800 
 37 H       -6.1560     0.9320     1.6530 H     1 <1>   0.0800 
 38 H       -5.6850     2.5990     1.8000 H     1 <1>   0.0800 
 39 H       -8.5340     0.5680    -1.6890 H     1 <1>   0.0800 
 40 H       -7.3420     4.6630    -1.3690 H     1 <1>   0.0800 
 41 H       -8.0930     2.3680     2.1630 H     1 <1>   0.0800 
 42 H       -7.7020     2.6430    -2.7570 H     1 <1>   0.0800 
 43 H       -9.1000     2.9750    -1.7830 H     1 <1>   0.0800 
 44 H       -8.4570     0.3490     0.7760 H     1 <1>   0.0800 
 45 H       -9.5480     1.6170     0.3090 H     1 <1>   0.0800 
 46 H       -8.8390     4.0400     0.4990 H     1 <1>   0.0800 
 47 H       -7.2630     4.4470     1.0990 H     1 <1>   0.0800 
@<TRIPOS>BOND
  1   1   2  1   
  2   1   3  1   
  3   2   4  1   
  4   2  20  1   
  5   2  21  1   
  6   3   5  1   
  7   3  22  1   
  8   3  23  1   
  9   4   6  1   
 10   4  24  1   
 11   4  25  1   
 12   5   6  1   
 13   5  26  1   
 14   5  27  1   
 15   6   7  1   
 16   6  28  1   
 17   7   8  1   
 18   7  29  1   
 19   7  30  1   
 20   8   9  1   
 21   8  10  1   
 22   8  31  1   
 23   9  32  1   
 24  10  11  1   
 25  10  12  1   
 26  10  13  1   
 27  11  14  1   
 28  11  33  1   
 29  11  34  1   
 30  12  15  1   
 31  12  35  1   
 32  12  36  1   
 33  13  16  1   
 34  13  37  1   
 35  13  38  1   
 36  14  17  1   
 37  14  18  1   
 38  14  39  1   
 39  15  17  1   
 40  15  19  1   
 41  15  40  1   
 42  16  18  1   
 43  16  19  1   
 44  16  41  1   
 45  17  42  1   
 46  17  43  1   
 47  18  44  1   
 48  18  45  1   
 49  19  46  1   
 50  19  47  1   
@<TRIPOS>SUBSTRUCTURE
  1 ****   8 GROUP 4 **** **** 0

# MOE 2024.06 (io_trps.svl 2023.06)
