@<TRIPOS>MOLECULE
NONAME
43 44 1 0 0 
SMALL
USER_CHARGES


@<TRIPOS>ATOM
  1 O        0.2500    -0.5690    -0.8390 O.2   1 <1>  -0.5700 
  2 C        1.4220    -0.4900    -0.6130 C.2   1 <1>   0.4480 
  3 C        2.4160    -1.3940    -1.3380 C.3   1 <1>  -0.0190 
  4 C        1.9860     0.5410     0.3760 C.3   1 <1>  -0.0190 
  5 C        2.5220    -2.7650    -0.6330 C.3   1 <1>   0.2000 
  6 C        3.7610    -0.6470    -1.4790 C.3   1 <1>  -0.1600 
  7 C        3.3420     0.0940     0.9560 C.3   1 <1>  -0.1600 
  8 C        1.0090     0.8430     1.5250 C.3   1 <1>  -0.2400 
  9 O        3.5200    -3.5120    -1.2350 O.3   1 <1>  -0.6800 
 10 C        1.2210    -3.5900    -0.6930 C.3   1 <1>  -0.1600 
 11 C        4.3890    -0.2710    -0.1210 C.3   1 <1>  -0.0800 
 12 C        1.3160    -5.0060    -0.0850 C.3   1 <1>  -0.0800 
 13 C        5.3910     0.8740    -0.3200 C.3   1 <1>  -0.2400 
 14 C       -0.0200    -5.7540    -0.2640 C.3   1 <1>  -0.0990 
 15 C        1.7130    -4.9790     1.4060 C.3   1 <1>  -0.0990 
 16 C       -0.0210    -7.1000     0.4400 C.2   1 <1>   0.5690 
 17 C        1.6180    -6.3500     2.0530 C.2   1 <1>   0.5690 
 18 O       -0.7210    -7.9910     0.0440 O.2   1 <1>  -0.5700 
 19 N        0.7710    -7.2670     1.5270 N.am  1 <1>  -0.4900 
 20 O        2.2800    -6.6050     3.0220 O.2   1 <1>  -0.5700 
 21 H        2.0240    -1.5640    -2.3260 H     1 <1>   0.0800 
 22 H        2.1400     1.4530    -0.1740 H     1 <1>   0.0800 
 23 H        2.8090    -2.6250     0.3940 H     1 <1>   0.0800 
 24 H        4.4590    -1.2230    -2.0610 H     1 <1>   0.0800 
 25 H        3.5710     0.2530    -2.0400 H     1 <1>   0.0800 
 26 H        3.7290     0.8650     1.6000 H     1 <1>   0.0800 
 27 H        3.1770    -0.7660     1.5800 H     1 <1>   0.0800 
 28 H        0.7970    -0.0500     2.0870 H     1 <1>   0.0800 
 29 H        0.0810     1.2220     1.1310 H     1 <1>   0.0800 
 30 H        1.4200     1.5840     2.1890 H     1 <1>   0.0800 
 31 H        4.3680    -3.0300    -1.2100 H     1 <1>   0.4000 
 32 H        0.4450    -3.0520    -0.1780 H     1 <1>   0.0800 
 33 H        0.9180    -3.6680    -1.7230 H     1 <1>   0.0800 
 34 H        4.9450    -1.1200     0.2430 H     1 <1>   0.0800 
 35 H        2.0700    -5.5610    -0.6210 H     1 <1>   0.0800 
 36 H        4.8880     1.7700    -0.6420 H     1 <1>   0.0800 
 37 H        6.1240     0.6070    -1.0610 H     1 <1>   0.0800 
 38 H        5.9080     1.0840     0.6000 H     1 <1>   0.0800 
 39 H       -0.2120    -5.9120    -1.3100 H     1 <1>   0.0800 
 40 H       -0.8290    -5.1710     0.1360 H     1 <1>   0.0800 
 41 H        1.0710    -4.3100     1.9490 H     1 <1>   0.0800 
 42 H        2.7250    -4.6320     1.5100 H     1 <1>   0.0800 
 43 H        0.7410    -8.1760     1.9800 H     1 <1>   0.3700 
@<TRIPOS>BOND
  1   1   2  2   
  2   2   3  1   
  3   2   4  1   
  4   3   5  1   
  5   3   6  1   
  6   3  21  1   
  7   4   7  1   
  8   4   8  1   
  9   4  22  1   
 10   5   9  1   
 11   5  10  1   
 12   5  23  1   
 13   6  11  1   
 14   6  24  1   
 15   6  25  1   
 16   7  11  1   
 17   7  26  1   
 18   7  27  1   
 19   8  28  1   
 20   8  29  1   
 21   8  30  1   
 22   9  31  1   
 23  10  12  1   
 24  10  32  1   
 25  10  33  1   
 26  11  13  1   
 27  11  34  1   
 28  12  14  1   
 29  12  15  1   
 30  12  35  1   
 31  13  36  1   
 32  13  37  1   
 33  13  38  1   
 34  14  16  1   
 35  14  39  1   
 36  14  40  1   
 37  15  17  1   
 38  15  41  1   
 39  15  42  1   
 40  16  18  2   
 41  16  19  am  
 42  17  19  am  
 43  17  20  2   
 44  19  43  1   
@<TRIPOS>SUBSTRUCTURE
  1 ****   5 GROUP 4 **** **** 0

# MOE 2024.06 (io_trps.svl 2023.06)
