@<TRIPOS>MOLECULE
NONAME
47 49 1 0 0 
SMALL
USER_CHARGES


@<TRIPOS>ATOM
  1 CL       1.6160    -0.0800     2.8150 Cl    1 <1>  -0.1770 
  2 C        2.0790    -0.6120     1.2130 C.ar  1 <1>   0.1770 
  3 C        1.2640    -1.4800     0.4960 C.ar  1 <1>   0.0820 
  4 C        3.2710    -0.1460     0.6920 C.ar  1 <1>  -0.1500 
  5 O        0.1040    -1.9000     1.0670 O.3   1 <1>  -0.3630 
  6 C        1.6780    -1.8740    -0.7730 C.ar  1 <1>  -0.1500 
  7 C        3.6940    -0.5400    -0.5710 C.ar  1 <1>  -0.0090 
  8 C       -0.8050    -2.7320     0.3810 C.3   1 <1>   0.0400 
  9 C        2.8750    -1.4060    -1.2900 C.ar  1 <1>  -0.1500 
 10 S        5.2600     0.0670    -1.2570 S.o2  1 <1>   1.4470 
 11 O        5.6860    -0.7920    -2.3420 O.2   1 <1>  -0.6500 
 12 O        5.1520     1.4910    -1.4800 O.2   1 <1>  -0.6500 
 13 N        6.3470    -0.1580     0.0220 N.am  1 <1>  -0.8490 
 14 C        7.6030     0.5760    -0.2240 C.3   1 <1>   0.1960 
 15 C        6.6660    -1.5840     0.2370 C.3   1 <1>   0.1960 
 16 C        8.6210     0.4430     0.9270 C.3   1 <1>   0.2090 
 17 C        7.6190    -1.8120     1.4280 C.3   1 <1>   0.2090 
 18 N        8.8500    -0.9680     1.3660 N.pl3 1 <1>  -0.8380 
 19 C       10.0550    -1.5880     1.0010 C.ar  1 <1>   0.1000 
 20 C       10.3780    -1.9940    -0.3070 C.ar  1 <1>   0.0830 
 21 C       10.9790    -1.8120     2.0120 C.ar  1 <1>  -0.1500 
 22 O        9.4640    -1.7730    -1.2990 O.3   1 <1>  -0.3630 
 23 C       11.6040    -2.6030    -0.5580 C.ar  1 <1>  -0.1500 
 24 C       12.1950    -2.4180     1.7560 C.ar  1 <1>  -0.1500 
 25 C        9.6880    -2.1830    -2.6290 C.3   1 <1>   0.0400 
 26 C       12.5080    -2.8140     0.4700 C.ar  1 <1>  -0.1500 
 27 H        3.8750     0.5280     1.2750 H     1 <1>   0.1500 
 28 H        1.0850    -2.5420    -1.3700 H     1 <1>   0.1500 
 29 H       -1.6480    -2.9050     1.0250 H     1 <1>   0.0800 
 30 H       -0.3230    -3.6660     0.1520 H     1 <1>   0.0800 
 31 H       -1.1280    -2.2330    -0.5160 H     1 <1>   0.0800 
 32 H        3.1820    -1.7200    -2.2750 H     1 <1>   0.1500 
 33 H        7.3860     1.6220    -0.3530 H     1 <1>   0.0800 
 34 H        8.0550     0.2300    -1.1370 H     1 <1>   0.0800 
 35 H        7.1140    -2.0010    -0.6480 H     1 <1>   0.0800 
 36 H        5.7590    -2.1310     0.4260 H     1 <1>   0.0800 
 37 H        8.2630     1.0070     1.7700 H     1 <1>   0.0800 
 38 H        9.5570     0.8750     0.6190 H     1 <1>   0.0800 
 39 H        7.9020    -2.8490     1.4590 H     1 <1>   0.0800 
 40 H        7.0960    -1.5870     2.3400 H     1 <1>   0.0800 
 41 H       10.7300    -1.5010     3.0100 H     1 <1>   0.1500 
 42 H       11.8800    -2.9220    -1.5440 H     1 <1>   0.1500 
 43 H       12.8940    -2.5800     2.5580 H     1 <1>   0.1500 
 44 H        8.8220    -1.9170    -3.2080 H     1 <1>   0.0800 
 45 H        9.8250    -3.2500    -2.6470 H     1 <1>   0.0800 
 46 H       10.5540    -1.6740    -3.0100 H     1 <1>   0.0800 
 47 H       13.4540    -3.2860     0.2680 H     1 <1>   0.1500 
@<TRIPOS>BOND
  1   1   2  1   
  2   2   3  ar  
  3   2   4  ar  
  4   3   5  1   
  5   3   6  ar  
  6   4   7  ar  
  7   4  27  1   
  8   5   8  1   
  9   6   9  ar  
 10   6  28  1   
 11   7   9  ar  
 12   7  10  1   
 13   8  29  1   
 14   8  30  1   
 15   8  31  1   
 16   9  32  1   
 17  10  11  2   
 18  10  12  2   
 19  10  13  am  
 20  13  14  1   
 21  13  15  1   
 22  14  16  1   
 23  14  33  1   
 24  14  34  1   
 25  15  17  1   
 26  15  35  1   
 27  15  36  1   
 28  16  18  1   
 29  16  37  1   
 30  16  38  1   
 31  17  18  1   
 32  17  39  1   
 33  17  40  1   
 34  18  19  1   
 35  19  20  ar  
 36  19  21  ar  
 37  20  22  1   
 38  20  23  ar  
 39  21  24  ar  
 40  21  41  1   
 41  22  25  1   
 42  23  26  ar  
 43  23  42  1   
 44  24  26  ar  
 45  24  43  1   
 46  25  44  1   
 47  25  45  1   
 48  25  46  1   
 49  26  47  1   
@<TRIPOS>SUBSTRUCTURE
  1 ****  15 GROUP 4 **** **** 0

# MOE 2024.06 (io_trps.svl 2023.06)
