@<TRIPOS>MOLECULE
NONAME
42 43 1 0 0 
SMALL
USER_CHARGES


@<TRIPOS>ATOM
  1 O       -8.5850     2.6270     1.3170 O.3   1 <1>  -0.3630 
  2 C       -9.8930     2.3170     1.0870 C.ar  1 <1>   0.0830 
  3 C       -7.8540     3.4020     0.3990 C.3   1 <1>   0.1200 
  4 C      -10.8240     3.1340     0.4230 C.ar  1 <1>   0.0830 
  5 C      -10.2930     1.0830     1.5720 C.ar  1 <1>  -0.1500 
  6 C       -6.3690     3.1130     0.6140 C.3   1 <1>  -0.1600 
  7 O      -10.4530     4.3720    -0.0210 O.3   1 <1>  -0.3630 
  8 C      -12.1240     2.6630     0.2450 C.ar  1 <1>  -0.1500 
  9 C      -11.5880     0.6350     1.3950 C.ar  1 <1>  -0.1500 
 10 C       -5.5110     3.9390    -0.3500 C.3   1 <1>   0.0960 
 11 C      -11.4070     5.3340    -0.4150 C.3   1 <1>   0.0400 
 12 C      -12.5100     1.4220     0.7270 C.ar  1 <1>  -0.1430 
 13 N       -4.0800     3.6430    -0.1490 N.pl3 1 <1>   0.0480 
 14 C      -13.9340     0.9270     0.5240 C.3   1 <1>  -0.0170 
 15 C       -3.2030     4.2860     0.6550 C.2   1 <1>   0.0360 
 16 C       -3.3550     2.6730    -0.7350 C.2   1 <1>  -0.3020 
 17 C      -14.0580     0.1830    -0.8110 C.3   1 <1>  -0.1600 
 18 N       -2.0030     3.8030     0.6200 N.2   1 <1>  -0.5650 
 19 C       -2.0970     2.7860    -0.2560 C.2   1 <1>   0.0770 
 20 C      -15.4850    -0.3260    -1.0410 C.3   1 <1>  -0.2400 
 21 H       -8.0740     4.4390     0.5870 H     1 <1>   0.0800 
 22 H       -8.1600     3.1320    -0.5970 H     1 <1>   0.0800 
 23 H       -9.5770     0.4710     2.0900 H     1 <1>   0.1500 
 24 H       -6.1900     2.0650     0.4450 H     1 <1>   0.0800 
 25 H       -6.1080     3.3590     1.6280 H     1 <1>   0.0800 
 26 H      -12.8570     3.2500    -0.2720 H     1 <1>   0.1500 
 27 H      -11.8730    -0.3300     1.7770 H     1 <1>   0.1500 
 28 H       -5.6730     4.9890    -0.1850 H     1 <1>   0.0800 
 29 H       -5.7690     3.7080    -1.3680 H     1 <1>   0.0800 
 30 H      -10.8920     6.2610    -0.5950 H     1 <1>   0.0800 
 31 H      -12.1220     5.4620     0.3780 H     1 <1>   0.0800 
 32 H      -11.8860     5.0030    -1.3190 H     1 <1>   0.0800 
 33 H      -14.6110     1.7630     0.5400 H     1 <1>   0.0800 
 34 H      -14.2060     0.2720     1.3320 H     1 <1>   0.0800 
 35 H       -3.4970     5.1220     1.2650 H     1 <1>   0.1500 
 36 H       -3.7600     1.9720    -1.4420 H     1 <1>   0.1500 
 37 H      -13.3760    -0.6490    -0.8180 H     1 <1>   0.0800 
 38 H      -13.7810     0.8440    -1.6140 H     1 <1>   0.0800 
 39 H       -1.2400     2.1790    -0.4990 H     1 <1>   0.1500 
 40 H      -15.7720    -1.0080    -0.2590 H     1 <1>   0.0800 
 41 H      -15.5420    -0.8440    -1.9820 H     1 <1>   0.0800 
 42 H      -16.1800     0.4940    -1.0600 H     1 <1>   0.0800 
@<TRIPOS>BOND
  1   1   2  1   
  2   1   3  1   
  3   2   4  ar  
  4   2   5  ar  
  5   3   6  1   
  6   3  21  1   
  7   3  22  1   
  8   4   7  1   
  9   4   8  ar  
 10   5   9  ar  
 11   5  23  1   
 12   6  10  1   
 13   6  24  1   
 14   6  25  1   
 15   7  11  1   
 16   8  12  ar  
 17   8  26  1   
 18   9  12  ar  
 19   9  27  1   
 20  10  13  1   
 21  10  28  1   
 22  10  29  1   
 23  11  30  1   
 24  11  31  1   
 25  11  32  1   
 26  12  14  1   
 27  13  15  1   
 28  13  16  1   
 29  14  17  1   
 30  14  33  1   
 31  14  34  1   
 32  15  18  2   
 33  15  35  1   
 34  16  19  2   
 35  16  36  1   
 36  17  20  1   
 37  17  37  1   
 38  17  38  1   
 39  18  19  1   
 40  19  39  1   
 41  20  40  1   
 42  20  41  1   
 43  20  42  1   
@<TRIPOS>SUBSTRUCTURE
  1 ****   1 GROUP 4 **** **** 0

# MOE 2024.06 (io_trps.svl 2023.06)
