@<TRIPOS>MOLECULE
NONAME
37 37 1 0 0 
SMALL
USER_CHARGES


@<TRIPOS>ATOM
  1 O       -0.6370     0.6960     1.5300 O.2   1 <1>  -0.5700 
  2 C       -0.5260     1.5590     0.6840 C.2   1 <1>   0.6340 
  3 O        0.6850     1.8010     0.1700 O.3   1 <1>  -0.4300 
  4 C       -1.6320     2.3700     0.2000 C.ar  1 <1>   0.0860 
  5 C        1.8290     1.0780     0.5800 C.3   1 <1>   0.0400 
  6 C       -2.9230     1.8720    -0.0450 C.ar  1 <1>  -0.1440 
  7 C       -1.4010     3.7290    -0.0260 C.ar  1 <1>  -0.1500 
  8 C       -3.9520     2.7300    -0.4510 C.ar  1 <1>   0.1170 
  9 C       -3.2020     0.3720     0.1210 C.3   1 <1>  -0.0970 
 10 C       -2.4040     4.5740    -0.4500 C.ar  1 <1>  -0.1500 
 11 N       -5.2590     2.2430    -0.6210 N.am  1 <1>  -0.5470 
 12 C       -3.6720     4.0760    -0.6530 C.ar  1 <1>  -0.1500 
 13 C       -6.2800     2.6590    -1.4300 C.2   1 <1>   0.5690 
 14 O       -6.1940     3.5750    -2.2090 O.2   1 <1>  -0.5700 
 15 C       -7.5910     1.9010    -1.3430 C.3   1 <1>  -0.0990 
 16 C       -8.3230     2.1490    -0.0130 C.3   1 <1>  -0.1600 
 17 C       -9.6460     1.3760     0.0470 C.3   1 <1>  -0.1600 
 18 C      -10.3680     1.6260     1.3740 C.3   1 <1>  -0.2400 
 19 H        2.6790     1.4440     0.0340 H     1 <1>   0.0800 
 20 H        1.6740     0.0340     0.3700 H     1 <1>   0.0800 
 21 H        1.9740     1.2260     1.6370 H     1 <1>   0.0800 
 22 H       -0.4160     4.1320     0.1390 H     1 <1>   0.1500 
 23 H       -2.3480    -0.2100    -0.1750 H     1 <1>   0.0800 
 24 H       -4.0190     0.0380    -0.4900 H     1 <1>   0.0800 
 25 H       -3.4200     0.1530     1.1520 H     1 <1>   0.0800 
 26 H       -2.2030     5.6190    -0.6180 H     1 <1>   0.1500 
 27 H       -5.4700     1.4230    -0.0590 H     1 <1>   0.3700 
 28 H       -4.4510     4.7470    -0.9680 H     1 <1>   0.1500 
 29 H       -7.3930     0.8520    -1.4670 H     1 <1>   0.0800 
 30 H       -8.2180     2.2150    -2.1590 H     1 <1>   0.0800 
 31 H       -8.5190     3.2040     0.0870 H     1 <1>   0.0800 
 32 H       -7.6970     1.8490     0.8100 H     1 <1>   0.0800 
 33 H       -9.4590     0.3210    -0.0600 H     1 <1>   0.0800 
 34 H      -10.2840     1.6860    -0.7640 H     1 <1>   0.0800 
 35 H       -9.7600     1.3040     2.2010 H     1 <1>   0.0800 
 36 H      -11.2940     1.0790     1.3980 H     1 <1>   0.0800 
 37 H      -10.5870     2.6730     1.4920 H     1 <1>   0.0800 
@<TRIPOS>BOND
  1   1   2  2   
  2   2   3  1   
  3   2   4  1   
  4   3   5  1   
  5   4   6  ar  
  6   4   7  ar  
  7   5  19  1   
  8   5  20  1   
  9   5  21  1   
 10   6   8  ar  
 11   6   9  1   
 12   7  10  ar  
 13   7  22  1   
 14   8  11  1   
 15   8  12  ar  
 16   9  23  1   
 17   9  24  1   
 18   9  25  1   
 19  10  12  ar  
 20  10  26  1   
 21  11  13  am  
 22  11  27  1   
 23  12  28  1   
 24  13  14  2   
 25  13  15  1   
 26  15  16  1   
 27  15  29  1   
 28  15  30  1   
 29  16  17  1   
 30  16  31  1   
 31  16  32  1   
 32  17  18  1   
 33  17  33  1   
 34  17  34  1   
 35  18  35  1   
 36  18  36  1   
 37  18  37  1   
@<TRIPOS>SUBSTRUCTURE
  1 ****   8 GROUP 4 **** **** 0

# MOE 2024.06 (io_trps.svl 2023.06)
