@<TRIPOS>MOLECULE
NONAME
47 49 1 0 0 
SMALL
USER_CHARGES


@<TRIPOS>ATOM
  1 F       -1.5840     1.2420     1.3260 F     1 <1>  -0.1900 
  2 C       -1.0810     2.1790     0.5660 C.ar  1 <1>   0.1900 
  3 C       -1.7480     2.5510    -0.5970 C.ar  1 <1>  -0.1440 
  4 C        0.1090     2.7580     0.9620 C.ar  1 <1>  -0.1500 
  5 C       -1.1850     3.5410    -1.3950 C.ar  1 <1>  -0.1500 
  6 C       -3.0570     1.8840    -0.9950 C.3   1 <1>   0.2540 
  7 C        0.6320     3.7400     0.1460 C.ar  1 <1>   0.1900 
  8 C        0.0100     4.1420    -1.0240 C.ar  1 <1>  -0.1500 
  9 N       -4.1710     2.3690    -0.1550 N.3   1 <1>  -0.8100 
 10 F        1.7550     4.3110     0.4880 F     1 <1>  -0.1900 
 11 C       -5.3800     1.5430    -0.3200 C.3   1 <1>   0.1100 
 12 C       -4.4580     3.8060    -0.3380 C.3   1 <1>   0.1100 
 13 C       -6.4910     1.9850     0.6540 C.3   1 <1>   0.3430 
 14 C       -5.5580     4.2770     0.6350 C.3   1 <1>   0.3430 
 15 N       -6.8080     3.4500     0.5120 N.4   1 <1>  -0.9590 
 16 C       -7.8450     3.8950     1.4660 C.3   1 <1>   0.4810 
 17 C       -9.1580     3.3250     0.9880 C.2   1 <1>  -0.2880 
 18 C      -10.1080     4.0250     0.3450 C.2   1 <1>  -0.1780 
 19 C      -11.3810     3.5420    -0.1430 C.ar  1 <1>   0.0280 
 20 C      -12.0800     4.2720    -1.1010 C.ar  1 <1>  -0.1500 
 21 C      -11.9550     2.3550     0.3100 C.ar  1 <1>  -0.1500 
 22 C      -13.2950     3.8340    -1.5960 C.ar  1 <1>  -0.1500 
 23 C      -13.1690     1.9110    -0.1810 C.ar  1 <1>  -0.1500 
 24 C      -13.8420     2.6490    -1.1370 C.ar  1 <1>  -0.1500 
 25 H        0.6070     2.4570     1.8650 H     1 <1>   0.1500 
 26 H       -1.6670     3.8490    -2.3070 H     1 <1>   0.1500 
 27 H       -2.9480     0.8200    -0.8670 H     1 <1>   0.0800 
 28 H       -3.2700     2.0700    -2.0340 H     1 <1>   0.0800 
 29 H        0.4590     4.9090    -1.6300 H     1 <1>   0.1500 
 30 H       -5.7370     1.6040    -1.3340 H     1 <1>   0.0800 
 31 H       -5.1360     0.5140    -0.1150 H     1 <1>   0.0800 
 32 H       -3.5690     4.3790    -0.1390 H     1 <1>   0.0800 
 33 H       -4.7580     3.9990    -1.3540 H     1 <1>   0.0800 
 34 H       -6.1580     1.7810     1.6580 H     1 <1>   0.0800 
 35 H       -7.3740     1.3970     0.4680 H     1 <1>   0.0800 
 36 H       -5.7800     5.3130     0.4410 H     1 <1>   0.0800 
 37 H       -5.1700     4.2020     1.6380 H     1 <1>   0.0800 
 38 H       -7.1980     3.5900    -0.4280 H     1 <1>   0.4500 
 39 H       -7.6220     3.5650     2.4680 H     1 <1>   0.0800 
 40 H       -7.9070     4.9710     1.4610 H     1 <1>   0.0800 
 41 H       -9.2670     2.2800     1.2150 H     1 <1>   0.1500 
 42 H       -9.9550     5.0710     0.1380 H     1 <1>   0.1500 
 43 H      -11.6730     5.1960    -1.4710 H     1 <1>   0.1500 
 44 H      -11.4600     1.7680     1.0590 H     1 <1>   0.1500 
 45 H      -13.8190     4.4130    -2.3370 H     1 <1>   0.1500 
 46 H      -13.5960     0.9910     0.1810 H     1 <1>   0.1500 
 47 H      -14.7870     2.3060    -1.5200 H     1 <1>   0.1500 
@<TRIPOS>BOND
  1   1   2  1   
  2   2   3  ar  
  3   2   4  ar  
  4   3   5  ar  
  5   3   6  1   
  6   4   7  ar  
  7   4  25  1   
  8   5   8  ar  
  9   5  26  1   
 10   6   9  1   
 11   6  27  1   
 12   6  28  1   
 13   7   8  ar  
 14   7  10  1   
 15   8  29  1   
 16   9  11  1   
 17   9  12  1   
 18  11  13  1   
 19  11  30  1   
 20  11  31  1   
 21  12  14  1   
 22  12  32  1   
 23  12  33  1   
 24  13  15  1   
 25  13  34  1   
 26  13  35  1   
 27  14  15  1   
 28  14  36  1   
 29  14  37  1   
 30  15  16  1   
 31  15  38  1   
 32  16  17  1   
 33  16  39  1   
 34  16  40  1   
 35  17  18  2   
 36  17  41  1   
 37  18  19  1   
 38  18  42  1   
 39  19  20  ar  
 40  19  21  ar  
 41  20  22  ar  
 42  20  43  1   
 43  21  23  ar  
 44  21  44  1   
 45  22  24  ar  
 46  22  45  1   
 47  23  24  ar  
 48  23  46  1   
 49  24  47  1   
@<TRIPOS>SUBSTRUCTURE
  1 ****  15 GROUP 4 **** **** 0

# MOE 2024.06 (io_trps.svl 2023.06)
