@<TRIPOS>MOLECULE
NONAME
29 30 1 0 0 
SMALL
USER_CHARGES


@<TRIPOS>ATOM
  1 F       -0.0920    -0.5640    -0.3670 F     1 <1>  -0.3400 
  2 C        0.5330    -1.6600     0.0460 C.3   1 <1>   1.1640 
  3 F       -0.0340    -2.0020     1.1950 F     1 <1>  -0.3400 
  4 F        0.2170    -2.6140    -0.8230 F     1 <1>  -0.3400 
  5 C        2.0520    -1.4700     0.1900 C.ar  1 <1>  -0.1440 
  6 C        2.9200    -2.5500     0.0680 C.ar  1 <1>  -0.1500 
  7 C        2.5970    -0.2170     0.4550 C.ar  1 <1>  -0.1500 
  8 C        4.2870    -2.3800     0.2000 C.ar  1 <1>  -0.1500 
  9 C        3.9630    -0.0510     0.5870 C.ar  1 <1>  -0.1500 
 10 C        4.8330    -1.1290     0.4580 C.ar  1 <1>   0.1170 
 11 N        6.2250    -1.0160     0.5900 N.am  1 <1>  -0.5470 
 12 C        7.0600     0.0650     0.4740 C.2   1 <1>   0.5770 
 13 O        6.6740     1.1770     0.2110 O.2   1 <1>  -0.5700 
 14 C        8.5480    -0.1660     0.7030 C.3   1 <1>   0.0530 
 15 C        9.5050     0.6980    -0.1660 C.3   1 <1>   0.0000 
 16 C        9.1470    -1.4030    -0.0230 C.3   1 <1>   0.0000 
 17 C       10.4200    -0.5500    -0.2580 C.3   1 <1>   0.0000 
 18 H        2.5340    -3.5370    -0.1320 H     1 <1>   0.1500 
 19 H        1.9590     0.6450     0.5620 H     1 <1>   0.1500 
 20 H        4.9340    -3.2310     0.0970 H     1 <1>   0.1500 
 21 H        4.3490     0.9300     0.7960 H     1 <1>   0.1500 
 22 H        6.7010    -1.8990     0.7640 H     1 <1>   0.3700 
 23 H        8.8200    -0.1420     1.7450 H     1 <1>   0.0000 
 24 H        9.9470     1.5240     0.3630 H     1 <1>   0.0000 
 25 H        9.0880     0.9700    -1.1210 H     1 <1>   0.0000 
 26 H        8.6390    -1.6440    -0.9430 H     1 <1>   0.0000 
 27 H        9.3030    -2.2520     0.6180 H     1 <1>   0.0000 
 28 H       11.1200    -0.6150     0.5580 H     1 <1>   0.0000 
 29 H       10.8680    -0.6920    -1.2250 H     1 <1>   0.0000 
@<TRIPOS>BOND
  1   1   2  1   
  2   2   3  1   
  3   2   4  1   
  4   2   5  1   
  5   5   6  ar  
  6   5   7  ar  
  7   6   8  ar  
  8   6  18  1   
  9   7   9  ar  
 10   7  19  1   
 11   8  10  ar  
 12   8  20  1   
 13   9  10  ar  
 14   9  21  1   
 15  10  11  1   
 16  11  12  am  
 17  11  22  1   
 18  12  13  2   
 19  12  14  1   
 20  14  15  1   
 21  14  16  1   
 22  14  23  1   
 23  15  17  1   
 24  15  24  1   
 25  15  25  1   
 26  16  17  1   
 27  16  26  1   
 28  16  27  1   
 29  17  28  1   
 30  17  29  1   
@<TRIPOS>SUBSTRUCTURE
  1 ****  10 GROUP 4 **** **** 0

# MOE 2024.06 (io_trps.svl 2023.06)
