@<TRIPOS>MOLECULE
NONAME
42 44 1 0 0 
SMALL
USER_CHARGES


@<TRIPOS>ATOM
  1 CL       0.5100     0.5910     0.8020 Cl    1 <1>  -0.1770 
  2 C        1.8960    -0.4370     0.5810 C.ar  1 <1>   0.1770 
  3 C        3.0900     0.1110     0.1900 C.ar  1 <1>  -0.1500 
  4 C        1.7670    -1.8020     0.8060 C.ar  1 <1>  -0.1500 
  5 C        4.2050    -0.7120     0.0130 C.ar  1 <1>   0.3610 
  6 C        2.8570    -2.6200     0.6320 C.ar  1 <1>  -0.1500 
  7 N        5.4260    -0.1820    -0.3710 N.ar  1 <1>  -0.1790 
  8 C        4.1020    -2.1000     0.2300 C.ar  1 <1>   0.0000 
  9 C        6.5510    -0.8870    -0.5540 C.ar  1 <1>   0.4610 
 10 C        5.2720    -2.8900     0.0210 C.ar  1 <1>  -0.1430 
 11 N        7.7090    -0.2570    -0.9050 N.pl3 1 <1>  -0.8380 
 12 C        6.4350    -2.2910    -0.3600 C.ar  1 <1>  -0.1500 
 13 C        5.2140    -4.4020     0.2120 C.3   1 <1>  -0.0970 
 14 C        9.0250    -1.0020    -1.0580 C.3   1 <1>   0.2090 
 15 C        7.7770     1.1580    -1.4030 C.3   1 <1>   0.2090 
 16 C       10.2950    -0.1980    -0.6940 C.3   1 <1>   0.3430 
 17 C        8.1870     2.1030    -0.2680 C.3   1 <1>  -0.1600 
 18 N       10.0970     0.6880     0.5020 N.4   1 <1>  -0.9590 
 19 C        9.6710     2.0580     0.1050 C.3   1 <1>   0.3430 
 20 C       11.3440     0.7520     1.3310 C.3   1 <1>   0.2630 
 21 H        3.1430     1.1720     0.0270 H     1 <1>   0.1500 
 22 H        0.8120    -2.1960     1.1130 H     1 <1>   0.1500 
 23 H        2.7440    -3.6760     0.8100 H     1 <1>   0.1500 
 24 H        5.4690     0.8190    -0.5140 H     1 <1>   0.4570 
 25 H        7.2910    -2.9120    -0.5350 H     1 <1>   0.1500 
 26 H        4.9400    -4.6410     1.2240 H     1 <1>   0.0800 
 27 H        6.1660    -4.8620     0.0090 H     1 <1>   0.0800 
 28 H        4.4890    -4.8350    -0.4560 H     1 <1>   0.0800 
 29 H        9.1170    -1.3540    -2.0720 H     1 <1>   0.0800 
 30 H        9.0340    -1.8670    -0.4200 H     1 <1>   0.0800 
 31 H        6.8200     1.4620    -1.7950 H     1 <1>   0.0800 
 32 H        8.4720     1.2340    -2.2240 H     1 <1>   0.0800 
 33 H       10.5960     0.3960    -1.5410 H     1 <1>   0.0800 
 34 H       11.0900    -0.9010    -0.5020 H     1 <1>   0.0800 
 35 H        7.5860     1.9260     0.6060 H     1 <1>   0.0800 
 36 H        7.9780     3.1090    -0.5880 H     1 <1>   0.0800 
 37 H        9.3400     0.2780     1.0710 H     1 <1>   0.4500 
 38 H        9.8350     2.7380     0.9270 H     1 <1>   0.0800 
 39 H       10.2700     2.4010    -0.7240 H     1 <1>   0.0800 
 40 H       12.1540     1.1790     0.7610 H     1 <1>   0.0800 
 41 H       11.6330    -0.2350     1.6530 H     1 <1>   0.0800 
 42 H       11.1820     1.3610     2.2060 H     1 <1>   0.0800 
@<TRIPOS>BOND
  1   1   2  1   
  2   2   3  ar  
  3   2   4  ar  
  4   3   5  ar  
  5   3  21  1   
  6   4   6  ar  
  7   4  22  1   
  8   5   7  ar  
  9   5   8  ar  
 10   6   8  ar  
 11   6  23  1   
 12   7   9  ar  
 13   7  24  1   
 14   8  10  ar  
 15   9  11  1   
 16   9  12  ar  
 17  10  12  ar  
 18  10  13  1   
 19  11  14  1   
 20  11  15  1   
 21  12  25  1   
 22  13  26  1   
 23  13  27  1   
 24  13  28  1   
 25  14  16  1   
 26  14  29  1   
 27  14  30  1   
 28  15  17  1   
 29  15  31  1   
 30  15  32  1   
 31  16  18  1   
 32  16  33  1   
 33  16  34  1   
 34  17  19  1   
 35  17  35  1   
 36  17  36  1   
 37  18  19  1   
 38  18  20  1   
 39  18  37  1   
 40  19  38  1   
 41  19  39  1   
 42  20  40  1   
 43  20  41  1   
 44  20  42  1   
@<TRIPOS>SUBSTRUCTURE
  1 ****   9 GROUP 4 **** **** 0

# MOE 2024.06 (io_trps.svl 2023.06)
