@<TRIPOS>MOLECULE
NONAME
47 48 1 0 0 
SMALL
USER_CHARGES


@<TRIPOS>ATOM
  1 CL       0.6260     1.1070    -3.0900 Cl    1 <1>  -0.1770 
  2 C        0.0020     2.1260    -1.8160 C.ar  1 <1>   0.1770 
  3 C       -1.1980     2.7830    -2.0000 C.ar  1 <1>  -0.1500 
  4 C        0.7240     2.2550    -0.6460 C.ar  1 <1>  -0.1500 
  5 C       -1.7030     3.5940    -0.9910 C.ar  1 <1>   0.1170 
  6 C        0.2340     3.0620     0.3660 C.ar  1 <1>  -0.1500 
  7 N       -2.9170     4.2970    -1.0990 N.am  1 <1>  -0.5470 
  8 C       -0.9760     3.7330     0.1990 C.ar  1 <1>   0.0830 
  9 C       -3.9580     4.2280    -1.9860 C.2   1 <1>   0.5690 
 10 O       -1.5120     4.5430     1.1630 O.3   1 <1>  -0.3630 
 11 O       -3.9490     3.5370    -2.9750 O.2   1 <1>  -0.5700 
 12 C       -5.2080     5.0640    -1.6820 C.3   1 <1>   0.1710 
 13 C       -0.7780     4.8730     2.3250 C.3   1 <1>   0.0400 
 14 N       -6.2710     4.3430    -0.9190 N.3   1 <1>  -0.8100 
 15 C       -5.8210     3.7970     0.3870 C.3   1 <1>   0.1100 
 16 C       -7.5090     5.1400    -0.7710 C.3   1 <1>   0.1100 
 17 C       -6.9530     3.0460     1.1320 C.3   1 <1>   0.3430 
 18 C       -8.6510     4.3200    -0.1190 C.3   1 <1>   0.3430 
 19 N       -8.1830     2.9480     0.2810 N.4   1 <1>  -0.9590 
 20 C       -9.2290     2.0760     0.8740 C.3   1 <1>   0.3430 
 21 C      -10.2820     1.7140    -0.1750 C.3   1 <1>  -0.1600 
 22 C      -11.2990     0.7160     0.3910 C.3   1 <1>  -0.2400 
 23 H       -1.7190     2.6540    -2.9300 H     1 <1>   0.1500 
 24 H        1.6560     1.7290    -0.5350 H     1 <1>   0.1500 
 25 H        0.8080     3.1490     1.2690 H     1 <1>   0.1500 
 26 H       -3.0400     4.9300    -0.3090 H     1 <1>   0.3700 
 27 H       -5.6130     5.3770    -2.6280 H     1 <1>   0.0800 
 28 H       -4.9140     5.9500    -1.1460 H     1 <1>   0.0800 
 29 H       -1.3580     5.5690     2.9040 H     1 <1>   0.0800 
 30 H        0.1520     5.3290     2.0340 H     1 <1>   0.0800 
 31 H       -0.6060     3.9780     2.8970 H     1 <1>   0.0800 
 32 H       -5.4480     4.5900     1.0130 H     1 <1>   0.0800 
 33 H       -5.0120     3.1030     0.2250 H     1 <1>   0.0800 
 34 H       -7.8370     5.4750    -1.7410 H     1 <1>   0.0800 
 35 H       -7.3130     6.0150    -0.1750 H     1 <1>   0.0800 
 36 H       -7.1800     3.5660     2.0480 H     1 <1>   0.0800 
 37 H       -6.6030     2.0600     1.3910 H     1 <1>   0.0800 
 38 H       -9.4600     4.2380    -0.8250 H     1 <1>   0.0800 
 39 H       -9.0220     4.8500     0.7420 H     1 <1>   0.0800 
 40 H       -7.8360     2.5350    -0.6010 H     1 <1>   0.4500 
 41 H       -9.6980     2.5720     1.7090 H     1 <1>   0.0800 
 42 H       -8.7760     1.1660     1.2340 H     1 <1>   0.0800 
 43 H       -9.8050     1.2680    -1.0310 H     1 <1>   0.0800 
 44 H      -10.8140     2.5930    -0.4930 H     1 <1>   0.0800 
 45 H      -10.8140    -0.1960     0.6950 H     1 <1>   0.0800 
 46 H      -12.0310     0.4710    -0.3610 H     1 <1>   0.0800 
 47 H      -11.8160     1.1330     1.2380 H     1 <1>   0.0800 
@<TRIPOS>BOND
  1   1   2  1   
  2   2   3  ar  
  3   2   4  ar  
  4   3   5  ar  
  5   3  23  1   
  6   4   6  ar  
  7   4  24  1   
  8   5   7  1   
  9   5   8  ar  
 10   6   8  ar  
 11   6  25  1   
 12   7   9  am  
 13   7  26  1   
 14   8  10  1   
 15   9  11  2   
 16   9  12  1   
 17  10  13  1   
 18  12  14  1   
 19  12  27  1   
 20  12  28  1   
 21  13  29  1   
 22  13  30  1   
 23  13  31  1   
 24  14  15  1   
 25  14  16  1   
 26  15  17  1   
 27  15  32  1   
 28  15  33  1   
 29  16  18  1   
 30  16  34  1   
 31  16  35  1   
 32  17  19  1   
 33  17  36  1   
 34  17  37  1   
 35  18  19  1   
 36  18  38  1   
 37  18  39  1   
 38  19  20  1   
 39  19  40  1   
 40  20  21  1   
 41  20  41  1   
 42  20  42  1   
 43  21  22  1   
 44  21  43  1   
 45  21  44  1   
 46  22  45  1   
 47  22  46  1   
 48  22  47  1   
@<TRIPOS>SUBSTRUCTURE
  1 ****   9 GROUP 4 **** **** 0

# MOE 2024.06 (io_trps.svl 2023.06)
