@<TRIPOS>MOLECULE
NONAME
41 41 1 0 0 
SMALL
USER_CHARGES


@<TRIPOS>ATOM
  1 O       -1.8380     0.7510    -2.6900 O.2   1 <1>  -0.5700 
  2 C       -1.1020     1.2920    -1.9150 C.2   1 <1>   0.6590 
  3 O       -1.1370     2.6120    -1.7880 O.3   1 <1>  -0.4300 
  4 C       -0.0720     0.4780    -1.1610 C.3   1 <1>  -0.1790 
  5 C       -1.1470     3.3800    -0.6040 C.3   1 <1>   0.4800 
  6 C        0.2280     3.3350    -0.0010 C.1   1 <1>  -0.2000 
  7 C       -2.2260     2.7970     0.3470 C.3   1 <1>  -0.1600 
  8 C       -1.4910     4.8170    -1.0810 C.3   1 <1>  -0.1600 
  9 C        1.3240     3.3370     0.4630 C.1   1 <1>  -0.2000 
 10 C       -2.5000     3.5860     1.6400 C.3   1 <1>  -0.2400 
 11 C       -0.9900     6.0010    -0.2250 C.3   1 <1>  -0.2400 
 12 C        2.7050     3.4090     1.0080 C.3   1 <1>   0.5430 
 13 N        3.2210     4.7710     0.7300 N.4   1 <1>  -0.9590 
 14 C        3.3960     5.0590    -0.7150 C.3   1 <1>   0.3430 
 15 C        4.5200     5.0700     1.3750 C.3   1 <1>   0.3430 
 16 C        4.3230     6.2650    -0.7450 C.3   1 <1>  -0.1600 
 17 C        5.0540     6.2690     0.6020 C.3   1 <1>  -0.1600 
 18 H       -0.1140    -0.5420    -1.4980 H     1 <1>   0.0800 
 19 H        0.9080     0.8630    -1.3630 H     1 <1>   0.0800 
 20 H       -0.2630     0.4950    -0.1070 H     1 <1>   0.0800 
 21 H       -1.9400     1.8060     0.6430 H     1 <1>   0.0800 
 22 H       -3.1520     2.7170    -0.1960 H     1 <1>   0.0800 
 23 H       -2.5590     4.8950    -1.1810 H     1 <1>   0.0800 
 24 H       -1.0770     4.9530    -2.0650 H     1 <1>   0.0800 
 25 H       -1.5900     3.7680     2.1830 H     1 <1>   0.0800 
 26 H       -3.1630     3.0220     2.2720 H     1 <1>   0.0800 
 27 H       -2.9780     4.5240     1.4210 H     1 <1>   0.0800 
 28 H       -1.3050     5.9180     0.7980 H     1 <1>   0.0800 
 29 H       -1.3880     6.9200    -0.6210 H     1 <1>   0.0800 
 30 H        0.0820     6.0680    -0.2540 H     1 <1>   0.0800 
 31 H        3.3290     2.6650     0.5400 H     1 <1>   0.0800 
 32 H        2.6820     3.2280     2.0710 H     1 <1>   0.0800 
 33 H        2.5220     5.4350     1.0860 H     1 <1>   0.4500 
 34 H        2.4530     5.2630    -1.2000 H     1 <1>   0.0800 
 35 H        3.8740     4.2240    -1.2010 H     1 <1>   0.0800 
 36 H        5.1930     4.2360     1.2500 H     1 <1>   0.0800 
 37 H        4.4080     5.2900     2.4250 H     1 <1>   0.0800 
 38 H        3.7450     7.1660    -0.8610 H     1 <1>   0.0800 
 39 H        5.0080     6.1920    -1.5730 H     1 <1>   0.0800 
 40 H        6.1200     6.1900     0.4780 H     1 <1>   0.0800 
 41 H        4.8410     7.1760     1.1420 H     1 <1>   0.0800 
@<TRIPOS>BOND
  1   1   2  2   
  2   2   3  1   
  3   2   4  1   
  4   3   5  1   
  5   4  18  1   
  6   4  19  1   
  7   4  20  1   
  8   5   6  1   
  9   5   7  1   
 10   5   8  1   
 11   6   9  3   
 12   7  10  1   
 13   7  21  1   
 14   7  22  1   
 15   8  11  1   
 16   8  23  1   
 17   8  24  1   
 18   9  12  1   
 19  10  25  1   
 20  10  26  1   
 21  10  27  1   
 22  11  28  1   
 23  11  29  1   
 24  11  30  1   
 25  12  13  1   
 26  12  31  1   
 27  12  32  1   
 28  13  14  1   
 29  13  15  1   
 30  13  33  1   
 31  14  16  1   
 32  14  34  1   
 33  14  35  1   
 34  15  17  1   
 35  15  36  1   
 36  15  37  1   
 37  16  17  1   
 38  16  38  1   
 39  16  39  1   
 40  17  40  1   
 41  17  41  1   
@<TRIPOS>SUBSTRUCTURE
  1 ****   6 GROUP 4 **** **** 0

# MOE 2024.06 (io_trps.svl 2023.06)
