@<TRIPOS>MOLECULE
NONAME
33 34 1 0 0 
SMALL
USER_CHARGES


@<TRIPOS>ATOM
  1 CL      -1.0730     0.6120     2.2010 Cl    1 <1>  -0.1770 
  2 C       -0.5650     1.9470     1.1970 C.ar  1 <1>   0.1770 
  3 C        0.5590     2.6660     1.5430 C.ar  1 <1>  -0.1500 
  4 C       -1.2980     2.2570     0.0680 C.ar  1 <1>  -0.1500 
  5 C        0.9940     3.7320     0.7560 C.ar  1 <1>   0.0860 
  6 C       -0.8920     3.3200    -0.7170 C.ar  1 <1>  -0.1500 
  7 C        0.2300     4.0640    -0.3780 C.ar  1 <1>   0.0830 
  8 C        2.2110     4.4120     1.1370 C.2   1 <1>   0.5440 
  9 O        0.5200     5.0920    -1.2100 O.3   1 <1>  -0.3630 
 10 O        2.1870     5.1510     2.1040 O.2   1 <1>  -0.5700 
 11 N        3.3950     4.2390     0.4480 N.am  1 <1>  -0.6600 
 12 C        0.8880     6.3570    -0.6990 C.3   1 <1>   0.0400 
 13 C        4.6670     4.8800     0.8860 C.3   1 <1>   0.1400 
 14 C        3.5270     3.3950    -0.7740 C.3   1 <1>   0.1400 
 15 C        5.7270     3.8030     1.1370 C.3   1 <1>  -0.1600 
 16 C        4.5760     2.3040    -0.5350 C.3   1 <1>  -0.1600 
 17 C        5.9200     2.8980    -0.0890 C.3   1 <1>  -0.1600 
 18 H        1.1100     2.4000     2.4270 H     1 <1>   0.1500 
 19 H       -2.1680     1.6780    -0.1850 H     1 <1>   0.1500 
 20 H       -1.4480     3.5850    -1.6000 H     1 <1>   0.1500 
 21 H        0.5930     7.1050    -1.4120 H     1 <1>   0.0800 
 22 H        1.9550     6.3870    -0.5670 H     1 <1>   0.0800 
 23 H        0.3860     6.5260     0.2380 H     1 <1>   0.0800 
 24 H        4.5190     5.4530     1.7850 H     1 <1>   0.0800 
 25 H        5.0020     5.5520     0.1150 H     1 <1>   0.0800 
 26 H        3.8320     4.0210    -1.5950 H     1 <1>   0.0800 
 27 H        2.5910     2.9380    -1.0380 H     1 <1>   0.0800 
 28 H        5.4210     3.2110     1.9820 H     1 <1>   0.0800 
 29 H        6.6600     4.2750     1.3890 H     1 <1>   0.0800 
 30 H        4.7130     1.7390    -1.4400 H     1 <1>   0.0800 
 31 H        4.2090     1.6300     0.2200 H     1 <1>   0.0800 
 32 H        6.6080     2.1060     0.1480 H     1 <1>   0.0800 
 33 H        6.3400     3.4750    -0.8950 H     1 <1>   0.0800 
@<TRIPOS>BOND
  1   1   2  1   
  2   2   3  ar  
  3   2   4  ar  
  4   3   5  ar  
  5   3  18  1   
  6   4   6  ar  
  7   4  19  1   
  8   5   7  ar  
  9   5   8  1   
 10   6   7  ar  
 11   6  20  1   
 12   7   9  1   
 13   8  10  2   
 14   8  11  am  
 15   9  12  1   
 16  11  13  1   
 17  11  14  1   
 18  12  21  1   
 19  12  22  1   
 20  12  23  1   
 21  13  15  1   
 22  13  24  1   
 23  13  25  1   
 24  14  16  1   
 25  14  26  1   
 26  14  27  1   
 27  15  17  1   
 28  15  28  1   
 29  15  29  1   
 30  16  17  1   
 31  16  30  1   
 32  16  31  1   
 33  17  32  1   
 34  17  33  1   
@<TRIPOS>SUBSTRUCTURE
  1 ****   5 GROUP 4 **** **** 0

# MOE 2024.06 (io_trps.svl 2023.06)
