@<TRIPOS>MOLECULE
NONAME
35 37 1 0 0 
SMALL
USER_CHARGES


@<TRIPOS>ATOM
  1 CL      -0.2150    -0.4090    -0.8170 Cl    1 <1>  -0.1770 
  2 C       -1.9100    -0.2210    -0.4490 C.ar  1 <1>   0.1770 
  3 C       -2.8130    -1.1630    -0.9020 C.ar  1 <1>  -0.1500 
  4 C       -2.3300     0.8670     0.2900 C.ar  1 <1>  -0.1500 
  5 C       -4.1560    -1.0080    -0.6060 C.ar  1 <1>  -0.1500 
  6 C       -3.6760     1.0110     0.5790 C.ar  1 <1>  -0.1500 
  7 C       -4.6200     0.0800     0.1390 C.ar  1 <1>   0.0530 
  8 C       -6.0260     0.2370     0.4430 C.2   1 <1>   0.0870 
  9 O       -6.9010    -0.6830     0.0530 O.3   1 <1>  -0.2800 
 10 C       -6.6980     1.2170     1.1050 C.2   1 <1>  -0.1500 
 11 C       -8.1070    -0.3210     0.4400 C.2   1 <1>  -0.0400 
 12 C       -8.0460     0.8530     1.1030 C.2   1 <1>  -0.1500 
 13 C       -9.2820    -1.2290     0.1060 C.3   1 <1>   0.2900 
 14 N      -10.5760    -0.5360     0.2550 N.3   1 <1>  -0.8100 
 15 C      -10.7860     0.4470    -0.8290 C.3   1 <1>   0.1100 
 16 C      -11.6930    -1.4990     0.2640 C.3   1 <1>   0.1100 
 17 C      -12.1690     1.1140    -0.7100 C.3   1 <1>   0.1200 
 18 C      -13.0480    -0.7730     0.3520 C.3   1 <1>   0.1200 
 19 O      -13.1790     0.1460    -0.6950 O.3   1 <1>  -0.5600 
 20 H       -2.4670    -2.0040    -1.4750 H     1 <1>   0.1500 
 21 H       -1.6090     1.5880     0.6320 H     1 <1>   0.1500 
 22 H       -4.8600    -1.7420    -0.9590 H     1 <1>   0.1500 
 23 H       -3.9970     1.8590     1.1560 H     1 <1>   0.1500 
 24 H       -6.3060     2.1090     1.5550 H     1 <1>   0.1500 
 25 H       -8.8580     1.4020     1.5460 H     1 <1>   0.1500 
 26 H       -9.2440    -2.0730     0.7720 H     1 <1>   0.0800 
 27 H       -9.1770    -1.5920    -0.9020 H     1 <1>   0.0800 
 28 H      -10.7170    -0.0370    -1.7880 H     1 <1>   0.0800 
 29 H      -10.0280     1.2090    -0.7840 H     1 <1>   0.0800 
 30 H      -11.5930    -2.1550     1.1120 H     1 <1>   0.0800 
 31 H      -11.6760    -2.0960    -0.6310 H     1 <1>   0.0800 
 32 H      -12.3450     1.7600    -1.5510 H     1 <1>   0.0800 
 33 H      -12.2310     1.6930     0.1950 H     1 <1>   0.0800 
 34 H      -13.1340    -0.2460     1.2860 H     1 <1>   0.0800 
 35 H      -13.8560    -1.4780     0.2730 H     1 <1>   0.0800 
@<TRIPOS>BOND
  1   1   2  1   
  2   2   3  ar  
  3   2   4  ar  
  4   3   5  ar  
  5   3  20  1   
  6   4   6  ar  
  7   4  21  1   
  8   5   7  ar  
  9   5  22  1   
 10   6   7  ar  
 11   6  23  1   
 12   7   8  1   
 13   8   9  1   
 14   8  10  2   
 15   9  11  1   
 16  10  12  1   
 17  10  24  1   
 18  11  12  2   
 19  11  13  1   
 20  12  25  1   
 21  13  14  1   
 22  13  26  1   
 23  13  27  1   
 24  14  15  1   
 25  14  16  1   
 26  15  17  1   
 27  15  28  1   
 28  15  29  1   
 29  16  18  1   
 30  16  30  1   
 31  16  31  1   
 32  17  19  1   
 33  17  32  1   
 34  17  33  1   
 35  18  19  1   
 36  18  34  1   
 37  18  35  1   
@<TRIPOS>SUBSTRUCTURE
  1 ****   9 GROUP 4 **** **** 0

# MOE 2024.06 (io_trps.svl 2023.06)
