@<TRIPOS>MOLECULE
NONAME
43 45 1 0 0 
SMALL
USER_CHARGES


@<TRIPOS>ATOM
  1 CL      -2.4840     1.6100     3.3370 Cl    1 <1>  -0.1770 
  2 C       -2.7540     1.6040     1.6150 C.ar  1 <1>   0.1770 
  3 C       -3.8250     0.8930     1.1060 C.ar  1 <1>  -0.1500 
  4 C       -1.9000     2.3080     0.7890 C.ar  1 <1>  -0.1500 
  5 C       -4.0560     0.8890    -0.2630 C.ar  1 <1>  -0.1440 
  6 C       -2.1230     2.2980    -0.5770 C.ar  1 <1>  -0.1500 
  7 C       -3.1950     1.5910    -1.0990 C.ar  1 <1>  -0.1500 
  8 C       -5.2360     0.1300    -0.8410 C.3   1 <1>   0.4870 
  9 N       -6.4870     0.8500    -0.4870 N.4   1 <1>  -0.9590 
 10 C       -7.6990     0.0750    -0.8650 C.3   1 <1>   0.4860 
 11 C       -6.5510     2.2280    -1.0640 C.3   1 <1>   0.3430 
 12 C       -8.9490     0.8240    -0.4350 C.ar  1 <1>  -0.1430 
 13 C       -7.6810     3.0200    -0.4010 C.3   1 <1>  -0.0170 
 14 C       -8.9520     2.1970    -0.2300 C.ar  1 <1>  -0.1430 
 15 C      -10.1210     0.1120    -0.2530 C.ar  1 <1>  -0.1500 
 16 C      -10.1230     2.8320     0.1520 C.ar  1 <1>  -0.1500 
 17 C      -11.2990     0.7310     0.1280 C.ar  1 <1>   0.0830 
 18 C      -11.3070     2.1210     0.3370 C.ar  1 <1>   0.0830 
 19 O      -12.3490    -0.1320     0.2580 O.3   1 <1>  -0.3630 
 20 O      -12.4540     2.7560     0.7170 O.3   1 <1>  -0.3620 
 21 C      -13.6610     0.2730     0.5800 C.3   1 <1>   0.0400 
 22 C      -12.5290     4.1510     0.9240 C.3   1 <1>   0.0400 
 23 H       -4.4530     0.3550     1.7940 H     1 <1>   0.1500 
 24 H       -1.0720     2.8520     1.2110 H     1 <1>   0.1500 
 25 H       -1.4580     2.8390    -1.2310 H     1 <1>   0.1500 
 26 H       -3.3410     1.5950    -2.1670 H     1 <1>   0.1500 
 27 H       -5.2510    -0.8660    -0.4290 H     1 <1>   0.0800 
 28 H       -5.1370     0.0560    -1.9110 H     1 <1>   0.0800 
 29 H       -6.5140     0.9570     0.5340 H     1 <1>   0.4500 
 30 H       -7.6850    -0.8910    -0.3860 H     1 <1>   0.0800 
 31 H       -7.7280    -0.0720    -1.9320 H     1 <1>   0.0800 
 32 H       -6.7330     2.1670    -2.1250 H     1 <1>   0.0800 
 33 H       -5.6200     2.7480    -0.9070 H     1 <1>   0.0800 
 34 H       -7.8900     3.8920    -0.9960 H     1 <1>   0.0800 
 35 H       -7.3520     3.3610     0.5650 H     1 <1>   0.0800 
 36 H      -10.1500    -0.9530    -0.4070 H     1 <1>   0.1500 
 37 H      -10.0950     3.8940     0.3070 H     1 <1>   0.1500 
 38 H      -14.2900    -0.5980     0.5830 H     1 <1>   0.0800 
 39 H      -14.0040     0.9690    -0.1650 H     1 <1>   0.0800 
 40 H      -13.6570     0.7240     1.5560 H     1 <1>   0.0800 
 41 H      -13.5380     4.3910     1.2060 H     1 <1>   0.0800 
 42 H      -12.2770     4.6550     0.0090 H     1 <1>   0.0800 
 43 H      -11.8560     4.4240     1.7180 H     1 <1>   0.0800 
@<TRIPOS>BOND
  1   1   2  1   
  2   2   3  ar  
  3   2   4  ar  
  4   3   5  ar  
  5   3  23  1   
  6   4   6  ar  
  7   4  24  1   
  8   5   7  ar  
  9   5   8  1   
 10   6   7  ar  
 11   6  25  1   
 12   7  26  1   
 13   8   9  1   
 14   8  27  1   
 15   8  28  1   
 16   9  10  1   
 17   9  11  1   
 18   9  29  1   
 19  10  12  1   
 20  10  30  1   
 21  10  31  1   
 22  11  13  1   
 23  11  32  1   
 24  11  33  1   
 25  12  14  ar  
 26  12  15  ar  
 27  13  14  1   
 28  13  34  1   
 29  13  35  1   
 30  14  16  ar  
 31  15  17  ar  
 32  15  36  1   
 33  16  18  ar  
 34  16  37  1   
 35  17  18  ar  
 36  17  19  1   
 37  18  20  1   
 38  19  21  1   
 39  20  22  1   
 40  21  38  1   
 41  21  39  1   
 42  21  40  1   
 43  22  41  1   
 44  22  42  1   
 45  22  43  1   
@<TRIPOS>SUBSTRUCTURE
  1 ****   9 GROUP 4 **** **** 0

# MOE 2024.06 (io_trps.svl 2023.06)
