@<TRIPOS>MOLECULE
NONAME
34 34 1 0 0 
SMALL
USER_CHARGES


@<TRIPOS>ATOM
  1 O        0.2240     1.5440     1.7490 O.2   1 <1>  -0.5700 
  2 C        0.0880     1.9640     0.6140 C.2   1 <1>   0.7150 
  3 N        1.1470     1.8800    -0.2460 N.am  1 <1>  -0.7300 
  4 C       -1.1570     2.5440     0.1540 C.2   1 <1>   0.0550 
  5 C        2.4710     1.2820     0.0530 C.3   1 <1>   0.2200 
  6 O       -2.2200     2.6230     0.9510 O.3   1 <1>  -0.2800 
  7 C       -1.4940     3.0810    -1.0550 C.2   1 <1>  -0.1500 
  8 C        3.5560     2.3830    -0.1080 C.3   1 <1>  -0.0800 
  9 C        2.7200     0.0170    -0.8280 C.3   1 <1>  -0.0800 
 10 C       -3.2090     3.1840     0.2940 C.2   1 <1>  -0.0100 
 11 C       -2.8240     3.4940    -0.9610 C.2   1 <1>  -0.1500 
 12 C        4.9720     1.8880     0.2360 C.3   1 <1>  -0.2400 
 13 C        3.2610     3.6140     0.7720 C.3   1 <1>  -0.2400 
 14 C        1.4690    -0.5670    -1.5160 C.3   1 <1>  -0.2400 
 15 C        3.3490    -1.1090     0.0120 C.3   1 <1>  -0.2400 
 16 H        1.0280     2.1990    -1.2030 H     1 <1>   0.3700 
 17 H        2.4700     0.9740     1.0860 H     1 <1>   0.0800 
 18 H       -0.8820     3.1830    -1.9320 H     1 <1>   0.1500 
 19 H        3.5650     2.7010    -1.1360 H     1 <1>   0.0800 
 20 H        3.4170     0.2740    -1.6080 H     1 <1>   0.0800 
 21 H       -4.1510     3.3260     0.7940 H     1 <1>   0.1500 
 22 H       -3.3980     3.9600    -1.7420 H     1 <1>   0.1500 
 23 H        5.0030     1.5060     1.2410 H     1 <1>   0.0800 
 24 H        5.6800     2.6950     0.1570 H     1 <1>   0.0800 
 25 H        5.2880     1.1160    -0.4410 H     1 <1>   0.0800 
 26 H        3.1820     3.3240     1.8060 H     1 <1>   0.0800 
 27 H        2.3410     4.0870     0.4820 H     1 <1>   0.0800 
 28 H        4.0460     4.3440     0.6790 H     1 <1>   0.0800 
 29 H        0.7180    -0.8150    -0.7860 H     1 <1>   0.0800 
 30 H        1.7220    -1.4610    -2.0580 H     1 <1>   0.0800 
 31 H        1.0540     0.1330    -2.2190 H     1 <1>   0.0800 
 32 H        2.6600    -1.4350     0.7730 H     1 <1>   0.0800 
 33 H        4.2510    -0.7820     0.4940 H     1 <1>   0.0800 
 34 H        3.5920    -1.9520    -0.6100 H     1 <1>   0.0800 
@<TRIPOS>BOND
  1   1   2  2   
  2   2   3  am  
  3   2   4  1   
  4   3   5  1   
  5   3  16  1   
  6   4   6  1   
  7   4   7  2   
  8   5   8  1   
  9   5   9  1   
 10   5  17  1   
 11   6  10  1   
 12   7  11  1   
 13   7  18  1   
 14   8  12  1   
 15   8  13  1   
 16   8  19  1   
 17   9  14  1   
 18   9  15  1   
 19   9  20  1   
 20  10  11  2   
 21  10  21  1   
 22  11  22  1   
 23  12  23  1   
 24  12  24  1   
 25  12  25  1   
 26  13  26  1   
 27  13  27  1   
 28  13  28  1   
 29  14  29  1   
 30  14  30  1   
 31  14  31  1   
 32  15  32  1   
 33  15  33  1   
 34  15  34  1   
@<TRIPOS>SUBSTRUCTURE
  1 ****   3 GROUP 4 **** **** 0

# MOE 2024.06 (io_trps.svl 2023.06)
