@<TRIPOS>MOLECULE
NONAME
41 42 1 0 0 
SMALL
USER_CHARGES


@<TRIPOS>ATOM
  1 O       -1.2530     2.4400     1.4760 O.2   1 <1>  -0.5700 
  2 C       -1.2380     2.5350     0.2630 C.2   1 <1>   0.6900 
  3 N       -2.4220     2.7070    -0.3970 N.am  1 <1>  -0.6600 
  4 N       -0.1090     2.4050    -0.4800 N.am  1 <1>  -0.5470 
  5 C       -2.9030     1.5850    -1.2500 C.3   1 <1>   0.1400 
  6 C       -3.5240     3.4100     0.3210 C.3   1 <1>   0.1400 
  7 C        1.2130     2.0210    -0.1950 C.ar  1 <1>   0.1170 
  8 C       -3.6970     0.5780    -0.3900 C.3   1 <1>   0.3430 
  9 C       -4.3100     2.4070     1.1880 C.3   1 <1>   0.3430 
 10 C        2.0610     1.7530    -1.2750 C.ar  1 <1>   0.0820 
 11 C        1.7130     1.9010     1.0960 C.ar  1 <1>  -0.1500 
 12 N       -4.8170     1.2340     0.3820 N.4   1 <1>  -0.9590 
 13 O        1.5330     1.8860    -2.5320 O.3   1 <1>  -0.3620 
 14 C        3.3780     1.3700    -1.0460 C.ar  1 <1>  -0.1500 
 15 C        3.0240     1.5170     1.3240 C.ar  1 <1>  -0.1430 
 16 C       -5.4920     0.2440     1.2740 C.3   1 <1>   0.2630 
 17 C        2.3390     1.7220    -3.6790 C.3   1 <1>   0.0400 
 18 C        3.8540     1.2530     0.2490 C.ar  1 <1>  -0.1500 
 19 C        3.5520     1.3930     2.7420 C.3   1 <1>  -0.0970 
 20 H       -0.2390     2.6050    -1.4710 H     1 <1>   0.3700 
 21 H       -2.0660     1.0790    -1.7030 H     1 <1>   0.0800 
 22 H       -3.5220     1.9700    -2.0410 H     1 <1>   0.0800 
 23 H       -4.1760     3.8860    -0.3900 H     1 <1>   0.0800 
 24 H       -3.1080     4.1770     0.9530 H     1 <1>   0.0800 
 25 H       -3.0090     0.1160     0.3010 H     1 <1>   0.0800 
 26 H       -4.0930    -0.1960    -1.0260 H     1 <1>   0.0800 
 27 H       -5.1350     2.9170     1.6590 H     1 <1>   0.0800 
 28 H       -3.6520     2.0550     1.9660 H     1 <1>   0.0800 
 29 H        1.0800     2.1130     1.9370 H     1 <1>   0.1500 
 30 H       -5.5010     1.5940    -0.2980 H     1 <1>   0.4500 
 31 H        4.0520     1.1560    -1.8530 H     1 <1>   0.1500 
 32 H       -4.7920    -0.1430     1.9980 H     1 <1>   0.0800 
 33 H       -5.8800    -0.5790     0.6960 H     1 <1>   0.0800 
 34 H       -6.3100     0.7090     1.8000 H     1 <1>   0.0800 
 35 H        1.7310     1.9080    -4.5460 H     1 <1>   0.0800 
 36 H        2.7110     0.7130    -3.7050 H     1 <1>   0.0800 
 37 H        3.1470     2.4310    -3.6430 H     1 <1>   0.0800 
 38 H        4.8750     0.9570     0.4160 H     1 <1>   0.1500 
 39 H        4.0520     2.3020     3.0250 H     1 <1>   0.0800 
 40 H        4.2470     0.5760     2.8130 H     1 <1>   0.0800 
 41 H        2.7460     1.2130     3.4320 H     1 <1>   0.0800 
@<TRIPOS>BOND
  1   1   2  2   
  2   2   3  am  
  3   2   4  am  
  4   3   5  1   
  5   3   6  1   
  6   4   7  1   
  7   4  20  1   
  8   5   8  1   
  9   5  21  1   
 10   5  22  1   
 11   6   9  1   
 12   6  23  1   
 13   6  24  1   
 14   7  10  ar  
 15   7  11  ar  
 16   8  12  1   
 17   8  25  1   
 18   8  26  1   
 19   9  12  1   
 20   9  27  1   
 21   9  28  1   
 22  10  13  1   
 23  10  14  ar  
 24  11  15  ar  
 25  11  29  1   
 26  12  16  1   
 27  12  30  1   
 28  13  17  1   
 29  14  18  ar  
 30  14  31  1   
 31  15  18  ar  
 32  15  19  1   
 33  16  32  1   
 34  16  33  1   
 35  16  34  1   
 36  17  35  1   
 37  17  36  1   
 38  17  37  1   
 39  18  38  1   
 40  19  39  1   
 41  19  40  1   
 42  19  41  1   
@<TRIPOS>SUBSTRUCTURE
  1 ****   4 GROUP 4 **** **** 0

# MOE 2024.06 (io_trps.svl 2023.06)
