@<TRIPOS>MOLECULE
NONAME
26 26 1 0 0 
SMALL
USER_CHARGES


@<TRIPOS>ATOM
  1 S        1.2330    -3.3140    -0.8730 S.3   1 <1>  -0.2860 
  2 C       -0.3560    -2.8910    -0.1780 C.2   1 <1>   0.5340 
  3 C        2.4060    -2.4320     0.2460 C.3   1 <1>   0.2080 
  4 O       -1.4230    -3.3420    -0.7430 O.3   1 <1>  -0.2800 
  5 N       -0.5690    -2.1710     0.8540 N.2   1 <1>  -0.3380 
  6 C        3.8320    -2.6900    -0.2270 C.2   1 <1>  -0.2760 
  7 C       -2.3630    -2.8500     0.0050 C.2   1 <1>   0.2980 
  8 N       -1.9000    -2.1440     0.9760 N.2   1 <1>  -0.3380 
  9 C        4.6100    -1.7320    -0.7400 C.2   1 <1>  -0.3000 
 10 C        4.3060    -4.1260    -0.0580 C.3   1 <1>  -0.1020 
 11 C       -3.8310    -3.1620    -0.3200 C.3   1 <1>   0.3700 
 12 N       -4.7320    -2.1120     0.1330 N.3   1 <1>  -0.9900 
 13 C       -4.2720    -4.4590     0.3520 C.3   1 <1>  -0.2400 
 14 H        2.2440    -2.7980     1.2450 H     1 <1>   0.0800 
 15 H        2.1570    -1.3860     0.1970 H     1 <1>   0.0800 
 16 H        5.6200    -1.8910    -1.0780 H     1 <1>   0.1500 
 17 H        4.3060    -0.7080    -0.8710 H     1 <1>   0.1500 
 18 H        3.7060    -4.7950    -0.6510 H     1 <1>   0.0800 
 19 H        4.2400    -4.4220     0.9730 H     1 <1>   0.0800 
 20 H        5.3290    -4.2260    -0.3740 H     1 <1>   0.0800 
 21 H       -3.9330    -3.2630    -1.3870 H     1 <1>   0.0800 
 22 H       -4.3800    -1.7790     1.0390 H     1 <1>   0.3600 
 23 H       -5.6600    -2.5150     0.2920 H     1 <1>   0.3600 
 24 H       -4.1850    -4.3760     1.4210 H     1 <1>   0.0800 
 25 H       -3.6420    -5.2660     0.0240 H     1 <1>   0.0800 
 26 H       -5.2870    -4.6940     0.0870 H     1 <1>   0.0800 
@<TRIPOS>BOND
  1   1   2  1   
  2   1   3  1   
  3   2   4  1   
  4   2   5  2   
  5   3   6  1   
  6   3  14  1   
  7   3  15  1   
  8   4   7  1   
  9   5   8  1   
 10   6   9  2   
 11   6  10  1   
 12   7   8  2   
 13   7  11  1   
 14   9  16  1   
 15   9  17  1   
 16  10  18  1   
 17  10  19  1   
 18  10  20  1   
 19  11  12  1   
 20  11  13  1   
 21  11  21  1   
 22  12  22  1   
 23  12  23  1   
 24  13  24  1   
 25  13  25  1   
 26  13  26  1   
@<TRIPOS>SUBSTRUCTURE
  1 ****   2 GROUP 4 **** **** 0

# MOE 2024.06 (io_trps.svl 2023.06)
