@<TRIPOS>MOLECULE
NONAME
54 56 1 0 0 
SMALL
USER_CHARGES


@<TRIPOS>ATOM
  1 O       -0.0200    -0.9160     0.9490 O.2   1 <1>  -0.5700 
  2 C       -0.8190    -1.8000     0.7190 C.2   1 <1>   0.6900 
  3 N       -0.4580    -2.8680    -0.0950 N.am  1 <1>  -0.4200 
  4 N       -2.0940    -1.7370     1.2640 N.am  1 <1>  -0.4360 
  5 C       -1.3710    -3.8590    -0.4290 C.2   1 <1>   0.7030 
  6 C        0.9320    -2.9140    -0.6480 C.3   1 <1>   0.0600 
  7 C       -2.9950    -2.7300     0.9270 C.2   1 <1>   0.4260 
  8 C       -2.4900    -0.6130     2.1640 C.3   1 <1>   0.0600 
  9 O       -1.0520    -4.7770    -1.1670 O.2   1 <1>  -0.5700 
 10 C       -2.6970    -3.7720     0.1140 C.2   1 <1>   0.2770 
 11 N       -4.2880    -2.8520     1.3140 N.pl3 1 <1>  -0.7000 
 12 N       -3.8610    -4.5450     0.0130 N.pl3 1 <1>  -0.7640 
 13 C       -4.7890    -3.9490     0.7580 C.cat 1 <1>   0.6560 
 14 C       -3.9600    -5.7880    -0.7990 C.3   1 <1>   0.3540 
 15 C       -6.2410    -4.3930     0.9880 C.3   1 <1>   0.2540 
 16 C       -3.4170    -6.9640     0.0100 C.3   1 <1>  -0.1600 
 17 N       -7.1740    -3.2470     1.1960 N.3   1 <1>  -0.8100 
 18 C       -3.4920    -8.2570    -0.7990 C.3   1 <1>   0.1200 
 19 C       -7.3700    -2.4280    -0.0280 C.3   1 <1>   0.1100 
 20 C       -8.5100    -3.7330     1.6230 C.3   1 <1>   0.1100 
 21 O       -3.1140    -9.2930     0.0270 O.3   1 <1>  -0.6800 
 22 C       -8.1530    -3.1440    -1.1630 C.3   1 <1>   0.2000 
 23 C       -9.3560    -4.3750     0.4860 C.3   1 <1>   0.2000 
 24 O       -8.6780    -4.3710    -0.7420 O.3   1 <1>  -0.5600 
 25 C       -7.2700    -3.4450    -2.3730 C.3   1 <1>  -0.2400 
 26 C      -10.7240    -3.7100     0.3040 C.3   1 <1>  -0.2400 
 27 H        1.6380    -2.5750     0.0920 H     1 <1>   0.0800 
 28 H        0.9990    -2.2720    -1.5090 H     1 <1>   0.0800 
 29 H        1.2040    -3.9150    -0.9360 H     1 <1>   0.0800 
 30 H       -1.6200    -0.1530     2.6020 H     1 <1>   0.0800 
 31 H       -3.1130    -0.9750     2.9620 H     1 <1>   0.0800 
 32 H       -3.0240     0.1320     1.6000 H     1 <1>   0.0800 
 33 H       -4.8500    -2.2310     1.9030 H     1 <1>   0.4500 
 34 H       -3.3960    -5.6740    -1.7110 H     1 <1>   0.0800 
 35 H       -4.9870    -5.9740    -1.0690 H     1 <1>   0.0800 
 36 H       -6.2500    -5.0110     1.8670 H     1 <1>   0.0800 
 37 H       -6.5620    -5.0010     0.1640 H     1 <1>   0.0800 
 38 H       -4.0030    -7.0780     0.9050 H     1 <1>   0.0800 
 39 H       -2.3910    -6.7760     0.2720 H     1 <1>   0.0800 
 40 H       -2.8340    -8.2400    -1.6520 H     1 <1>   0.0800 
 41 H       -4.5000    -8.4550    -1.1260 H     1 <1>   0.0800 
 42 H       -6.4260    -2.0730    -0.4000 H     1 <1>   0.0800 
 43 H       -7.9300    -1.5490     0.2440 H     1 <1>   0.0800 
 44 H       -9.0580    -2.8990     2.0290 H     1 <1>   0.0800 
 45 H       -8.4060    -4.4390     2.4290 H     1 <1>   0.0800 
 46 H       -2.1530    -9.2740     0.2070 H     1 <1>   0.4000 
 47 H       -8.9720    -2.5230    -1.4840 H     1 <1>   0.0800 
 48 H       -9.5240    -5.4100     0.7320 H     1 <1>   0.0800 
 49 H       -6.4480    -4.0780    -2.0990 H     1 <1>   0.0800 
 50 H       -6.8830    -2.5300    -2.7840 H     1 <1>   0.0800 
 51 H       -7.8550    -3.9320    -3.1340 H     1 <1>   0.0800 
 52 H      -10.6250    -2.6550     0.1230 H     1 <1>   0.0800 
 53 H      -11.3130    -3.8430     1.1930 H     1 <1>   0.0800 
 54 H      -11.2470    -4.1670    -0.5170 H     1 <1>   0.0800 
@<TRIPOS>BOND
  1   1   2  2   
  2   2   3  am  
  3   2   4  am  
  4   3   5  am  
  5   3   6  1   
  6   4   7  1   
  7   4   8  1   
  8   5   9  2   
  9   5  10  1   
 10   6  27  1   
 11   6  28  1   
 12   6  29  1   
 13   7  10  2   
 14   7  11  1   
 15   8  30  1   
 16   8  31  1   
 17   8  32  1   
 18  10  12  1   
 19  11  13  ar  
 20  11  33  1   
 21  12  13  ar  
 22  12  14  1   
 23  13  15  1   
 24  14  16  1   
 25  14  34  1   
 26  14  35  1   
 27  15  17  1   
 28  15  36  1   
 29  15  37  1   
 30  16  18  1   
 31  16  38  1   
 32  16  39  1   
 33  17  19  1   
 34  17  20  1   
 35  18  21  1   
 36  18  40  1   
 37  18  41  1   
 38  19  22  1   
 39  19  42  1   
 40  19  43  1   
 41  20  23  1   
 42  20  44  1   
 43  20  45  1   
 44  21  46  1   
 45  22  24  1   
 46  22  25  1   
 47  22  47  1   
 48  23  24  1   
 49  23  26  1   
 50  23  48  1   
 51  25  49  1   
 52  25  50  1   
 53  25  51  1   
 54  26  52  1   
 55  26  53  1   
 56  26  54  1   
@<TRIPOS>SUBSTRUCTURE
  1 ****  13 GROUP 4 **** **** 0

# MOE 2024.06 (io_trps.svl 2023.06)
