@<TRIPOS>MOLECULE
NONAME
35 36 1 0 0 
SMALL
USER_CHARGES


@<TRIPOS>ATOM
  1 S       -0.0080    -0.0790     0.1310 S.o2  1 <1>   1.3330 
  2 O       -0.2890     0.1550     1.5290 O.2   1 <1>  -0.6500 
  3 O       -0.7820     0.6020    -0.8810 O.2   1 <1>  -0.6500 
  4 N        1.6240     0.2820    -0.1220 N.am  1 <1>  -0.8490 
  5 C       -0.0710    -1.8260    -0.2100 C.3   1 <1>  -0.1350 
  6 C        2.4360    -0.0330     1.0550 C.3   1 <1>   0.3340 
  7 C        1.8430     1.6540    -0.5890 C.3   1 <1>   0.1160 
  8 C        3.8590    -0.3430     0.6320 C.2   1 <1>  -0.1240 
  9 C        4.1010    -1.6550     0.1130 C.2   1 <1>   0.6160 
 10 C        4.8700     0.5580     0.7350 C.2   1 <1>  -0.1780 
 11 O        3.2560    -2.5330     0.0500 O.2   1 <1>  -0.5700 
 12 N        5.3640    -1.9520    -0.3030 N.am  1 <1>  -0.5470 
 13 C        6.1950     0.2240     0.3080 C.ar  1 <1>   0.0280 
 14 C        6.4250    -1.0560    -0.2210 C.ar  1 <1>   0.1170 
 15 C        7.2640     1.1180     0.3920 C.ar  1 <1>  -0.1500 
 16 C        7.7010    -1.4070    -0.6510 C.ar  1 <1>  -0.1500 
 17 C        8.5270     0.7630    -0.0350 C.ar  1 <1>  -0.1440 
 18 C        8.7410    -0.5070    -0.5590 C.ar  1 <1>  -0.1500 
 19 C        9.6880     1.7360     0.0560 C.3   1 <1>  -0.0970 
 20 H       -1.0760    -2.1850    -0.1110 H     1 <1>   0.0800 
 21 H        0.5580    -2.3650     0.4690 H     1 <1>   0.0800 
 22 H        0.2670    -2.0160    -1.2100 H     1 <1>   0.0800 
 23 H        2.0420    -0.8950     1.5680 H     1 <1>   0.0800 
 24 H        2.4130     0.7910     1.7480 H     1 <1>   0.0800 
 25 H        1.3130     1.8160    -1.5130 H     1 <1>   0.0800 
 26 H        2.8890     1.8270    -0.7750 H     1 <1>   0.0800 
 27 H        1.4860     2.3610     0.1410 H     1 <1>   0.0800 
 28 H        4.7140     1.5470     1.1290 H     1 <1>   0.1500 
 29 H        5.4930    -2.8920    -0.6710 H     1 <1>   0.3700 
 30 H        7.0890     2.0970     0.7980 H     1 <1>   0.1500 
 31 H        7.8740    -2.3870    -1.0560 H     1 <1>   0.1500 
 32 H        9.7250    -0.7880    -0.8940 H     1 <1>   0.1500 
 33 H        9.3770     2.6690     0.4900 H     1 <1>   0.0800 
 34 H       10.0800     1.9300    -0.9260 H     1 <1>   0.0800 
 35 H       10.4690     1.3190     0.6660 H     1 <1>   0.0800 
@<TRIPOS>BOND
  1   1   2  2   
  2   1   3  2   
  3   1   4  am  
  4   1   5  1   
  5   4   6  1   
  6   4   7  1   
  7   5  20  1   
  8   5  21  1   
  9   5  22  1   
 10   6   8  1   
 11   6  23  1   
 12   6  24  1   
 13   7  25  1   
 14   7  26  1   
 15   7  27  1   
 16   8   9  1   
 17   8  10  2   
 18   9  11  2   
 19   9  12  am  
 20  10  13  1   
 21  10  28  1   
 22  12  14  1   
 23  12  29  1   
 24  13  14  ar  
 25  13  15  ar  
 26  14  16  ar  
 27  15  17  ar  
 28  15  30  1   
 29  16  18  ar  
 30  16  31  1   
 31  17  18  ar  
 32  17  19  1   
 33  18  32  1   
 34  19  33  1   
 35  19  34  1   
 36  19  35  1   
@<TRIPOS>SUBSTRUCTURE
  1 ****   8 GROUP 4 **** **** 0

# MOE 2024.06 (io_trps.svl 2023.06)
