@<TRIPOS>MOLECULE
NONAME
47 49 1 0 0 
SMALL
USER_CHARGES


@<TRIPOS>ATOM
  1 F       -1.8940     0.4540    -0.5200 F     1 <1>  -0.1900 
  2 C       -2.6080     0.4940     0.5740 C.ar  1 <1>   0.1900 
  3 C       -3.0080    -0.6930     1.1720 C.ar  1 <1>  -0.1440 
  4 C       -2.9450     1.7340     1.0830 C.ar  1 <1>  -0.1500 
  5 C       -3.7800    -0.6100     2.3220 C.ar  1 <1>  -0.1500 
  6 C       -2.6230    -2.0490     0.6000 C.3   1 <1>   0.2540 
  7 C       -3.7140     1.7960     2.2320 C.ar  1 <1>  -0.1500 
  8 C       -4.1290     0.6250     2.8480 C.ar  1 <1>  -0.1500 
  9 N       -3.7900    -2.6970    -0.0320 N.3   1 <1>  -0.8100 
 10 C       -4.2980    -1.9120    -1.1880 C.3   1 <1>   0.1100 
 11 C       -3.4760    -4.0850    -0.4450 C.3   1 <1>   0.1100 
 12 C       -5.4930    -2.5990    -1.8940 C.3   1 <1>   0.3430 
 13 C       -4.6910    -4.7950    -1.0920 C.3   1 <1>   0.3430 
 14 N       -5.8680    -3.8680    -1.1960 N.4   1 <1>  -0.9590 
 15 C       -7.1070    -4.5070    -1.7080 C.3   1 <1>   0.4860 
 16 C       -7.4430    -5.6950    -0.8270 C.ar  1 <1>  -0.1430 
 17 C       -7.2490    -6.9860    -1.2960 C.ar  1 <1>  -0.1500 
 18 C       -7.9360    -5.5020     0.4570 C.ar  1 <1>  -0.1500 
 19 C       -7.5310    -8.0690    -0.4830 C.ar  1 <1>  -0.1500 
 20 C       -8.2180    -6.5860     1.2690 C.ar  1 <1>  -0.1500 
 21 C       -8.0130    -7.8800     0.8010 C.ar  1 <1>   0.0830 
 22 O       -8.2580    -8.9960     1.5290 O.3   1 <1>  -0.3620 
 23 C       -8.8070    -8.9250     2.8270 C.3   1 <1>   0.0400 
 24 H       -2.6110     2.6300     0.5900 H     1 <1>   0.1500 
 25 H       -4.1120    -1.5100     2.8110 H     1 <1>   0.1500 
 26 H       -2.2670    -2.6670     1.4080 H     1 <1>   0.0800 
 27 H       -1.8210    -1.9500    -0.1120 H     1 <1>   0.0800 
 28 H       -3.9870     2.7510     2.6490 H     1 <1>   0.1500 
 29 H       -4.7270     0.6760     3.7420 H     1 <1>   0.1500 
 30 H       -3.5070    -1.7530    -1.9020 H     1 <1>   0.0800 
 31 H       -4.6230    -0.9430    -0.8500 H     1 <1>   0.0800 
 32 H       -3.1650    -4.6540     0.4150 H     1 <1>   0.0800 
 33 H       -2.6560    -4.0830    -1.1440 H     1 <1>   0.0800 
 34 H       -5.2270    -2.8040    -2.9180 H     1 <1>   0.0800 
 35 H       -6.3280    -1.9180    -1.9010 H     1 <1>   0.0800 
 36 H       -4.9510    -5.6510    -0.4890 H     1 <1>   0.0800 
 37 H       -4.4150    -5.1560    -2.0690 H     1 <1>   0.0800 
 38 H       -6.0220    -3.5840    -0.2170 H     1 <1>   0.4500 
 39 H       -6.9630    -4.8350    -2.7240 H     1 <1>   0.0800 
 40 H       -7.9240    -3.8050    -1.6870 H     1 <1>   0.0800 
 41 H       -6.8800    -7.1690    -2.2910 H     1 <1>   0.1500 
 42 H       -8.1070    -4.5100     0.8410 H     1 <1>   0.1500 
 43 H       -7.3840    -9.0750    -0.8380 H     1 <1>   0.1500 
 44 H       -8.5970    -6.4100     2.2590 H     1 <1>   0.1500 
 45 H       -8.9340    -9.9290     3.1900 H     1 <1>   0.0800 
 46 H       -9.7620    -8.4330     2.7760 H     1 <1>   0.0800 
 47 H       -8.1280    -8.3890     3.4660 H     1 <1>   0.0800 
@<TRIPOS>BOND
  1   1   2  1   
  2   2   3  ar  
  3   2   4  ar  
  4   3   5  ar  
  5   3   6  1   
  6   4   7  ar  
  7   4  24  1   
  8   5   8  ar  
  9   5  25  1   
 10   6   9  1   
 11   6  26  1   
 12   6  27  1   
 13   7   8  ar  
 14   7  28  1   
 15   8  29  1   
 16   9  10  1   
 17   9  11  1   
 18  10  12  1   
 19  10  30  1   
 20  10  31  1   
 21  11  13  1   
 22  11  32  1   
 23  11  33  1   
 24  12  14  1   
 25  12  34  1   
 26  12  35  1   
 27  13  14  1   
 28  13  36  1   
 29  13  37  1   
 30  14  15  1   
 31  14  38  1   
 32  15  16  1   
 33  15  39  1   
 34  15  40  1   
 35  16  17  ar  
 36  16  18  ar  
 37  17  19  ar  
 38  17  41  1   
 39  18  20  ar  
 40  18  42  1   
 41  19  21  ar  
 42  19  43  1   
 43  20  21  ar  
 44  20  44  1   
 45  21  22  1   
 46  22  23  1   
 47  23  45  1   
 48  23  46  1   
 49  23  47  1   
@<TRIPOS>SUBSTRUCTURE
  1 ****  14 GROUP 4 **** **** 0

# MOE 2024.06 (io_trps.svl 2023.06)
