@<TRIPOS>MOLECULE
Structure1680
37 37 1 0 0 
SMALL
USER_CHARGES


@<TRIPOS>ATOM
  1 BR       0.3760     1.1880     2.7810 Br    1 <1>  -0.1110 
  2 C       -0.7250     1.7080     1.2850 C.ar  1 <1>   0.1110 
  3 C       -0.1870     2.4070     0.2120 C.ar  1 <1>  -0.1440 
  4 C       -2.0570     1.3410     1.3430 C.ar  1 <1>  -0.1500 
  5 C       -1.0460     2.7290    -0.8330 C.ar  1 <1>  -0.1500 
  6 C        1.2910     2.8050     0.1590 C.3   1 <1>   0.3640 
  7 C       -2.8930     1.6750     0.2920 C.ar  1 <1>  -0.1500 
  8 C       -2.3840     2.3680    -0.7940 C.ar  1 <1>  -0.1500 
  9 N        1.4360     4.1730    -0.3510 N.am  1 <1>  -0.7300 
 10 C        2.0410     1.8570    -0.7640 C.3   1 <1>  -0.2660 
 11 C        1.1540     5.2820     0.3560 C.2   1 <1>   0.7800 
 12 C        3.4830     2.2490    -0.8370 C.2   1 <1>   0.9060 
 13 O        0.5130     5.2620     1.3880 O.2   1 <1>  -0.5700 
 14 O        1.6320     6.4180    -0.1480 O.3   1 <1>  -0.4300 
 15 O        3.7790     3.2330    -1.5250 O.co2 1 <1>  -0.9000 
 16 O        4.3080     1.5980    -0.1970 O.co2 1 <1>  -0.9000 
 17 C        1.5300     7.7100     0.4080 C.3   1 <1>   0.2800 
 18 C        2.2270     7.7560     1.7720 C.3   1 <1>  -0.2400 
 19 C        0.0600     8.1390     0.4840 C.3   1 <1>  -0.2400 
 20 C        2.2720     8.6220    -0.5690 C.3   1 <1>  -0.2400 
 21 H       -2.4290     0.8030     2.1960 H     1 <1>   0.1500 
 22 H       -0.6670     3.2690    -1.6840 H     1 <1>   0.1500 
 23 H        1.7370     2.7690     1.1380 H     1 <1>   0.0800 
 24 H       -3.9320     1.3990     0.3180 H     1 <1>   0.1500 
 25 H       -3.0290     2.6310    -1.6140 H     1 <1>   0.1500 
 26 H        2.2500     4.2410    -0.9890 H     1 <1>   0.3700 
 27 H        1.6250     1.8770    -1.7510 H     1 <1>   0.0800 
 28 H        1.9800     0.8560    -0.3830 H     1 <1>   0.0800 
 29 H        1.6890     7.1790     2.5010 H     1 <1>   0.0800 
 30 H        2.2740     8.7690     2.1270 H     1 <1>   0.0800 
 31 H        3.2280     7.3730     1.6900 H     1 <1>   0.0800 
 32 H       -0.0070     9.1710     0.7760 H     1 <1>   0.0800 
 33 H       -0.4120     8.0210    -0.4740 H     1 <1>   0.0800 
 34 H       -0.4750     7.5590     1.2140 H     1 <1>   0.0800 
 35 H        3.2980     8.3120    -0.6570 H     1 <1>   0.0800 
 36 H        2.2510     9.6400    -0.2240 H     1 <1>   0.0800 
 37 H        1.8120     8.5800    -1.5400 H     1 <1>   0.0800 
@<TRIPOS>BOND
  1   1   2  1   
  2   2   3  ar  
  3   2   4  ar  
  4   3   5  ar  
  5   3   6  1   
  6   4   7  ar  
  7   4  21  1   
  8   5   8  ar  
  9   5  22  1   
 10   6   9  1   
 11   6  10  1   
 12   6  23  1   
 13   7   8  ar  
 14   7  24  1   
 15   8  25  1   
 16   9  11  am  
 17   9  26  1   
 18  10  12  1   
 19  10  27  1   
 20  10  28  1   
 21  11  13  2   
 22  11  14  1   
 23  12  15  ar  
 24  12  16  ar  
 25  14  17  1   
 26  17  18  1   
 27  17  19  1   
 28  17  20  1   
 29  18  29  1   
 30  18  30  1   
 31  18  31  1   
 32  19  32  1   
 33  19  33  1   
 34  19  34  1   
 35  20  35  1   
 36  20  36  1   
 37  20  37  1   
@<TRIPOS>SUBSTRUCTURE
  1 ****   9 GROUP 4 **** **** 0

# MOE 2024.06 (io_trps.svl 2023.06)
