@<TRIPOS>MOLECULE
NONAME
40 42 1 0 0 
SMALL
USER_CHARGES


@<TRIPOS>ATOM
  1 S        1.0530     1.5110     0.1780 S.3   1 <1>  -0.3320 
  2 C       -0.6930     1.2340     0.5360 C.ar  1 <1>   0.1020 
  3 C        1.3260     1.1950    -1.6390 C.3   1 <1>   0.2110 
  4 C       -1.1080     1.5070     1.8270 C.ar  1 <1>  -0.1500 
  5 C       -1.5930     0.7690    -0.4120 C.ar  1 <1>  -0.1500 
  6 C        2.8070     0.9150    -1.9150 C.2   1 <1>   0.5690 
  7 C        0.8100     2.4260    -2.3970 C.3   1 <1>  -0.2400 
  8 C       -2.4340     1.3190     2.1770 C.ar  1 <1>  -0.1500 
  9 C       -2.9180     0.5820    -0.0560 C.ar  1 <1>  -0.1500 
 10 O        3.1000     0.2680    -2.8920 O.2   1 <1>  -0.5700 
 11 N        3.7520     1.4030    -1.0690 N.am  1 <1>  -0.7300 
 12 C       -3.3370     0.8570     1.2350 C.ar  1 <1>  -0.1500 
 13 C        5.2040     1.1880    -1.1750 C.3   1 <1>   0.2200 
 14 C        5.7670     0.3560    -0.0020 C.3   1 <1>  -0.0800 
 15 C        5.9670     2.5160    -1.0510 C.3   1 <1>  -0.1600 
 16 C        7.2220     0.7990    -0.0110 C.3   1 <1>  -0.1600 
 17 C        5.3110     0.9270     1.3570 C.3   1 <1>  -0.1600 
 18 C        6.9010     2.2770     0.1480 C.3   1 <1>  -0.0800 
 19 C        6.0550     2.2720     1.4320 C.3   1 <1>  -0.1600 
 20 H        0.7690     0.3140    -1.8950 H     1 <1>   0.0800 
 21 H       -0.3980     1.8650     2.5510 H     1 <1>   0.1500 
 22 H       -1.2920     0.5480    -1.4160 H     1 <1>   0.1500 
 23 H        1.3800     3.2950    -2.1190 H     1 <1>   0.0800 
 24 H       -0.2270     2.6040    -2.1780 H     1 <1>   0.0800 
 25 H        0.9180     2.2700    -3.4550 H     1 <1>   0.0800 
 26 H       -2.7610     1.5310     3.1810 H     1 <1>   0.1500 
 27 H       -3.6250     0.2230    -0.7840 H     1 <1>   0.1500 
 28 H        3.4460     1.8730    -0.2150 H     1 <1>   0.3700 
 29 H       -4.3680     0.7110     1.5070 H     1 <1>   0.1500 
 30 H        5.4440     0.7110    -2.1120 H     1 <1>   0.0800 
 31 H        5.6190    -0.7030    -0.1170 H     1 <1>   0.0800 
 32 H        5.3180     3.3590    -0.8970 H     1 <1>   0.0800 
 33 H        6.5500     2.6760    -1.9410 H     1 <1>   0.0800 
 34 H        7.7220     0.5780    -0.9400 H     1 <1>   0.0800 
 35 H        7.7870     0.4030     0.8160 H     1 <1>   0.0800 
 36 H        5.6430     0.2800     2.1510 H     1 <1>   0.0800 
 37 H        4.2450     1.0390     1.4370 H     1 <1>   0.0800 
 38 H        7.7530     2.9350     0.1830 H     1 <1>   0.0800 
 39 H        6.6900     2.2960     2.3010 H     1 <1>   0.0800 
 40 H        5.3760     3.1070     1.4680 H     1 <1>   0.0800 
@<TRIPOS>BOND
  1   1   2  1   
  2   1   3  1   
  3   2   4  ar  
  4   2   5  ar  
  5   3   6  1   
  6   3   7  1   
  7   3  20  1   
  8   4   8  ar  
  9   4  21  1   
 10   5   9  ar  
 11   5  22  1   
 12   6  10  2   
 13   6  11  am  
 14   7  23  1   
 15   7  24  1   
 16   7  25  1   
 17   8  12  ar  
 18   8  26  1   
 19   9  12  ar  
 20   9  27  1   
 21  11  13  1   
 22  11  28  1   
 23  12  29  1   
 24  13  14  1   
 25  13  15  1   
 26  13  30  1   
 27  14  16  1   
 28  14  17  1   
 29  14  31  1   
 30  15  18  1   
 31  15  32  1   
 32  15  33  1   
 33  16  18  1   
 34  16  34  1   
 35  16  35  1   
 36  17  19  1   
 37  17  36  1   
 38  17  37  1   
 39  18  19  1   
 40  18  38  1   
 41  19  39  1   
 42  19  40  1   
@<TRIPOS>SUBSTRUCTURE
  1 ****   1 GROUP 4 **** **** 0

# MOE 2024.06 (io_trps.svl 2023.06)
