@<TRIPOS>MOLECULE
NONAME
28 29 1 0 0 
SMALL
USER_CHARGES


@<TRIPOS>ATOM
  1 S        0.0420    -0.2320     0.4760 S.3   1 <1>  -0.4600 
  2 C       -0.8750     0.5900    -0.8460 C.3   1 <1>   0.5940 
  3 C        1.3720     0.9830     0.6450 C.3   1 <1>   0.2110 
  4 N       -0.1170     1.8170    -1.0780 N.am  1 <1>  -0.7300 
  5 C       -2.3000     0.8760    -0.3860 C.ar  1 <1>  -0.1440 
  6 C        0.9760     2.0770    -0.3360 C.2   1 <1>   0.5690 
  7 C        2.6920     0.2750     0.3200 C.3   1 <1>  -0.2400 
  8 C       -2.5590     1.7710     0.6460 C.ar  1 <1>  -0.1500 
  9 C       -3.3660     0.2380    -1.0050 C.ar  1 <1>  -0.1500 
 10 O        1.5810     3.1150    -0.4280 O.2   1 <1>  -0.5700 
 11 C       -3.8590     2.0230     1.0440 C.ar  1 <1>  -0.1500 
 12 C       -4.6680     0.4880    -0.6070 C.ar  1 <1>  -0.1500 
 13 C       -4.9220     1.3880     0.4240 C.ar  1 <1>   0.0820 
 14 O       -6.1640     1.6910     0.8750 O.3   1 <1>  -0.3630 
 15 C       -7.3120     1.0750     0.3360 C.3   1 <1>   0.0400 
 16 H       -0.8480    -0.0530    -1.7100 H     1 <1>   0.0800 
 17 H        1.3520     1.3530     1.6540 H     1 <1>   0.0800 
 18 H       -0.5270     2.5380    -1.6700 H     1 <1>   0.3700 
 19 H        2.6660    -0.1250    -0.6780 H     1 <1>   0.0800 
 20 H        2.8640    -0.5240     1.0180 H     1 <1>   0.0800 
 21 H        3.5040     0.9760     0.3880 H     1 <1>   0.0800 
 22 H       -1.7490     2.2740     1.1450 H     1 <1>   0.1500 
 23 H       -3.1910    -0.4630    -1.8030 H     1 <1>   0.1500 
 24 H       -4.0590     2.7150     1.8420 H     1 <1>   0.1500 
 25 H       -5.4680    -0.0230    -1.1070 H     1 <1>   0.1500 
 26 H       -8.1720     1.4600     0.8550 H     1 <1>   0.0800 
 27 H       -7.2410     0.0120     0.4870 H     1 <1>   0.0800 
 28 H       -7.3790     1.3140    -0.7100 H     1 <1>   0.0800 
@<TRIPOS>BOND
  1   1   2  1   
  2   1   3  1   
  3   2   4  1   
  4   2   5  1   
  5   2  16  1   
  6   3   6  1   
  7   3   7  1   
  8   3  17  1   
  9   4   6  am  
 10   4  18  1   
 11   5   8  ar  
 12   5   9  ar  
 13   6  10  2   
 14   7  19  1   
 15   7  20  1   
 16   7  21  1   
 17   8  11  ar  
 18   8  22  1   
 19   9  12  ar  
 20   9  23  1   
 21  11  13  ar  
 22  11  24  1   
 23  12  13  ar  
 24  12  25  1   
 25  13  14  1   
 26  14  15  1   
 27  15  26  1   
 28  15  27  1   
 29  15  28  1   
@<TRIPOS>SUBSTRUCTURE
  1 ****   5 GROUP 4 **** **** 0

# MOE 2024.06 (io_trps.svl 2023.06)
