@<TRIPOS>MOLECULE
NONAME
43 45 1 0 0 
SMALL
USER_CHARGES


@<TRIPOS>ATOM
  1 S       -0.1520    -0.7530     1.1050 S.o2  1 <1>   1.4470 
  2 O       -0.6090     0.5260     0.6080 O.2   1 <1>  -0.6500 
  3 O       -0.2910    -1.0650     2.5120 O.2   1 <1>  -0.6500 
  4 N       -1.0040    -1.9490     0.2550 N.am  1 <1>  -0.8490 
  5 C        1.5640    -1.0140     0.5770 C.ar  1 <1>  -0.0090 
  6 C       -2.4540    -1.7070     0.3170 C.3   1 <1>   0.1960 
  7 C       -0.6890    -3.2970     0.7390 C.3   1 <1>   0.1960 
  8 C        2.5550    -1.3600     1.4620 C.ar  1 <1>  -0.1500 
  9 C        1.9130    -0.8760    -0.7780 C.ar  1 <1>  -0.1500 
 10 C       -3.2040    -2.6880    -0.5950 C.3   1 <1>  -0.0190 
 11 C       -1.3550    -4.3460    -0.1580 C.3   1 <1>  -0.1600 
 12 C        3.8870    -1.5810     1.0600 C.ar  1 <1>   0.0000 
 13 C        3.1950    -1.0820    -1.2050 C.ar  1 <1>  -0.1500 
 14 C       -4.6990    -2.4200    -0.5250 C.2   1 <1>   0.5690 
 15 C       -2.8750    -4.1450    -0.2180 C.3   1 <1>  -0.1600 
 16 C        4.2150    -1.4410    -0.3030 C.ar  1 <1>   0.0000 
 17 C        4.9030    -1.9390     1.9690 C.ar  1 <1>  -0.1500 
 18 O       -5.2370    -2.3560     0.5540 O.2   1 <1>  -0.5700 
 19 N       -5.3920    -2.2650    -1.6850 N.am  1 <1>  -0.7300 
 20 C        5.5460    -1.6650    -0.7080 C.ar  1 <1>  -0.1500 
 21 C        6.1870    -2.1510     1.5490 C.ar  1 <1>  -0.1500 
 22 C       -6.8500    -1.9980    -1.7790 C.3   1 <1>   0.0600 
 23 C        6.5130    -2.0120     0.1950 C.ar  1 <1>  -0.1500 
 24 H       -2.6730    -0.7030    -0.0080 H     1 <1>   0.0800 
 25 H       -2.7990    -1.8080     1.3350 H     1 <1>   0.0800 
 26 H       -1.0320    -3.4150     1.7550 H     1 <1>   0.0800 
 27 H        0.3770    -3.4540     0.7240 H     1 <1>   0.0800 
 28 H        2.3210    -1.4700     2.5080 H     1 <1>   0.1500 
 29 H        1.1390    -0.6010    -1.4760 H     1 <1>   0.1500 
 30 H       -2.8740    -2.5080    -1.6010 H     1 <1>   0.0800 
 31 H       -1.1360    -5.3290     0.2210 H     1 <1>   0.0800 
 32 H       -0.9350    -4.2740    -1.1460 H     1 <1>   0.0800 
 33 H        3.4480    -0.9710    -2.2450 H     1 <1>   0.1500 
 34 H       -3.3100    -4.8190    -0.9340 H     1 <1>   0.0800 
 35 H       -3.3000    -4.3650     0.7480 H     1 <1>   0.0800 
 36 H        4.6490    -2.0440     3.0080 H     1 <1>   0.1500 
 37 H       -4.8960    -2.3320    -2.5760 H     1 <1>   0.3700 
 38 H        5.7910    -1.5560    -1.7490 H     1 <1>   0.1500 
 39 H        6.9600    -2.4240     2.2470 H     1 <1>   0.1500 
 40 H       -7.2870    -1.9480    -0.7960 H     1 <1>   0.0800 
 41 H       -7.3300    -2.7880    -2.3310 H     1 <1>   0.0800 
 42 H       -7.0170    -1.0610    -2.2800 H     1 <1>   0.0800 
 43 H        7.5280    -2.1820    -0.1190 H     1 <1>   0.1500 
@<TRIPOS>BOND
  1   1   2  2   
  2   1   3  2   
  3   1   4  am  
  4   1   5  1   
  5   4   6  1   
  6   4   7  1   
  7   5   8  ar  
  8   5   9  ar  
  9   6  10  1   
 10   6  24  1   
 11   6  25  1   
 12   7  11  1   
 13   7  26  1   
 14   7  27  1   
 15   8  12  ar  
 16   8  28  1   
 17   9  13  ar  
 18   9  29  1   
 19  10  14  1   
 20  10  15  1   
 21  10  30  1   
 22  11  15  1   
 23  11  31  1   
 24  11  32  1   
 25  12  16  ar  
 26  12  17  ar  
 27  13  16  ar  
 28  13  33  1   
 29  14  18  2   
 30  14  19  am  
 31  15  34  1   
 32  15  35  1   
 33  16  20  ar  
 34  17  21  ar  
 35  17  36  1   
 36  19  22  1   
 37  19  37  1   
 38  20  23  ar  
 39  20  38  1   
 40  21  23  ar  
 41  21  39  1   
 42  22  40  1   
 43  22  41  1   
 44  22  42  1   
 45  23  43  1   
@<TRIPOS>SUBSTRUCTURE
  1 ****   4 GROUP 4 **** **** 0

# MOE 2024.06 (io_trps.svl 2023.06)
