@<TRIPOS>MOLECULE
NONAME
49 49 1 0 0 
SMALL
USER_CHARGES


@<TRIPOS>ATOM
  1 O        3.1400    -4.3670    -0.0810 O.3   1 <1>  -0.3630 
  2 C        1.9390    -4.9950    -0.0140 C.ar  1 <1>   0.0830 
  3 C        4.3390    -5.0660     0.1320 C.3   1 <1>   0.1200 
  4 C        1.7800    -6.3400     0.2970 C.ar  1 <1>  -0.1500 
  5 C        0.8170    -4.2310    -0.2760 C.ar  1 <1>  -0.1500 
  6 C        5.4830    -4.0630    -0.0410 C.3   1 <1>   0.3430 
  7 C        0.5130    -6.8940     0.3390 C.ar  1 <1>  -0.1500 
  8 C       -0.4460    -4.7930    -0.2310 C.ar  1 <1>  -0.1500 
  9 N        6.8410    -4.6580     0.2100 N.4   1 <1>  -0.9590 
 10 C       -0.6290    -6.1400     0.0770 C.ar  1 <1>  -0.1430 
 11 C        7.8550    -3.5700     0.2650 C.3   1 <1>   0.3430 
 12 C        7.2010    -5.6910    -0.8020 C.3   1 <1>   0.3430 
 13 C       -2.0240    -6.8170     0.1390 C.3   1 <1>   0.1440 
 14 C        9.1180    -4.0800     0.9490 C.3   1 <1>  -0.2400 
 15 C        7.1850    -7.0550    -0.1260 C.3   1 <1>  -0.2400 
 16 C       -3.1730    -5.8190    -0.1810 C.3   1 <1>  -0.1600 
 17 C       -2.2300    -7.3880     1.5550 C.3   1 <1>  -0.2400 
 18 C       -2.0560    -7.9700    -0.8800 C.3   1 <1>  -0.2400 
 19 C       -4.6150    -6.3600    -0.1550 C.3   1 <1>  -0.2400 
 20 H        4.3940    -5.8540    -0.5980 H     1 <1>   0.0800 
 21 H        4.3200    -5.4620     1.1320 H     1 <1>   0.0800 
 22 H        2.6160    -6.9750     0.5100 H     1 <1>   0.1500 
 23 H        0.9330    -3.1900    -0.5160 H     1 <1>   0.1500 
 24 H        5.3180    -3.2540     0.6510 H     1 <1>   0.0800 
 25 H        5.4440    -3.6630    -1.0410 H     1 <1>   0.0800 
 26 H        0.4270    -7.9370     0.5830 H     1 <1>   0.1500 
 27 H       -1.2730    -4.1440    -0.4450 H     1 <1>   0.1500 
 28 H        6.8370    -5.1090     1.1340 H     1 <1>   0.4500 
 29 H        7.4660    -2.7390     0.8330 H     1 <1>   0.0800 
 30 H        8.0840    -3.2200    -0.7300 H     1 <1>   0.0800 
 31 H        8.1870    -5.5020    -1.1970 H     1 <1>   0.0800 
 32 H        6.5030    -5.6750    -1.6250 H     1 <1>   0.0800 
 33 H        8.9010    -4.4290     1.9430 H     1 <1>   0.0800 
 34 H        9.8230    -3.2720     1.0310 H     1 <1>   0.0800 
 35 H        9.5860    -4.8650     0.3840 H     1 <1>   0.0800 
 36 H        7.9100    -7.0950     0.6680 H     1 <1>   0.0800 
 37 H        7.4470    -7.8080    -0.8480 H     1 <1>   0.0800 
 38 H        6.2110    -7.2930     0.2600 H     1 <1>   0.0800 
 39 H       -3.0040    -5.4090    -1.1620 H     1 <1>   0.0800 
 40 H       -3.1250    -5.0070     0.5230 H     1 <1>   0.0800 
 41 H       -2.2350    -6.5900     2.2750 H     1 <1>   0.0800 
 42 H       -1.4470    -8.0720     1.8180 H     1 <1>   0.0800 
 43 H       -3.1580    -7.9230     1.6270 H     1 <1>   0.0800 
 44 H       -1.9380    -7.5830    -1.8760 H     1 <1>   0.0800 
 45 H       -2.9820    -8.5110    -0.8280 H     1 <1>   0.0800 
 46 H       -1.2670    -8.6750    -0.6990 H     1 <1>   0.0800 
 47 H       -4.7560    -7.1390    -0.8820 H     1 <1>   0.0800 
 48 H       -5.2980    -5.5630    -0.3950 H     1 <1>   0.0800 
 49 H       -4.8770    -6.7330     0.8180 H     1 <1>   0.0800 
@<TRIPOS>BOND
  1   1   2  1   
  2   1   3  1   
  3   2   4  ar  
  4   2   5  ar  
  5   3   6  1   
  6   3  20  1   
  7   3  21  1   
  8   4   7  ar  
  9   4  22  1   
 10   5   8  ar  
 11   5  23  1   
 12   6   9  1   
 13   6  24  1   
 14   6  25  1   
 15   7  10  ar  
 16   7  26  1   
 17   8  10  ar  
 18   8  27  1   
 19   9  11  1   
 20   9  12  1   
 21   9  28  1   
 22  10  13  1   
 23  11  14  1   
 24  11  29  1   
 25  11  30  1   
 26  12  15  1   
 27  12  31  1   
 28  12  32  1   
 29  13  16  1   
 30  13  17  1   
 31  13  18  1   
 32  14  33  1   
 33  14  34  1   
 34  14  35  1   
 35  15  36  1   
 36  15  37  1   
 37  15  38  1   
 38  16  19  1   
 39  16  39  1   
 40  16  40  1   
 41  17  41  1   
 42  17  42  1   
 43  17  43  1   
 44  18  44  1   
 45  18  45  1   
 46  18  46  1   
 47  19  47  1   
 48  19  48  1   
 49  19  49  1   
@<TRIPOS>SUBSTRUCTURE
  1 ****   2 GROUP 4 **** **** 0

# MOE 2024.06 (io_trps.svl 2023.06)
