@<TRIPOS>MOLECULE
NONAME
39 40 1 0 0 
SMALL
USER_CHARGES


@<TRIPOS>ATOM
  1 S        0.3400    -1.2290     1.2330 S.3   1 <1>  -0.3710 
  2 C       -0.7140     0.1630     0.8910 C.2   1 <1>   0.6510 
  3 C        1.6460    -0.5390     2.3720 C.3   1 <1>   0.1310 
  4 N       -0.5350     1.2450     1.5320 N.2   1 <1>  -0.6210 
  5 N       -1.6430    -0.0420    -0.0670 N.am  1 <1>  -0.4900 
  6 C        2.9410    -0.3000     1.6070 C.2   1 <1>   0.4230 
  7 C       -1.3020     2.3220     1.1820 C.2   1 <1>   0.0210 
  8 C       -2.4610     0.9830    -0.4320 C.2   1 <1>   0.6160 
  9 O        3.8160    -1.1180     1.7600 O.2   1 <1>  -0.5700 
 10 C        3.0990     0.8430     0.7290 C.ar  1 <1>   0.0860 
 11 O       -1.0280     3.3660     1.7820 O.3   1 <1>  -0.8500 
 12 C       -2.2930     2.2170     0.2010 C.2   1 <1>  -0.1240 
 13 O       -3.2860     0.7010    -1.3170 O.2   1 <1>  -0.5700 
 14 C        2.4170     2.0510     0.8950 C.ar  1 <1>  -0.1500 
 15 C        3.9800     0.7670    -0.3540 C.ar  1 <1>  -0.1500 
 16 C       -3.1470     3.4400    -0.1550 C.3   1 <1>   0.0580 
 17 C        2.5710     3.1020     0.0130 C.ar  1 <1>  -0.1500 
 18 C        4.1520     1.8200    -1.2350 C.ar  1 <1>  -0.1500 
 19 C       -4.6320     3.1890     0.1760 C.3   1 <1>  -0.1600 
 20 C       -2.9220     3.8550    -1.6170 C.3   1 <1>  -0.2400 
 21 C        3.4410     2.9920    -1.0560 C.ar  1 <1>  -0.1500 
 22 C       -5.5090     4.4430     0.0540 C.3   1 <1>  -0.2400 
 23 H        1.8060    -1.2850     3.1280 H     1 <1>   0.0800 
 24 H        1.2840     0.3520     2.8460 H     1 <1>   0.0800 
 25 H       -1.7350    -0.9260    -0.5440 H     1 <1>   0.3700 
 26 H        1.7400     2.2000     1.7190 H     1 <1>   0.1500 
 27 H        4.5360    -0.1420    -0.5050 H     1 <1>   0.1500 
 28 H       -2.8200     4.2620     0.4580 H     1 <1>   0.0800 
 29 H        1.9970     4.0020     0.1700 H     1 <1>   0.1500 
 30 H        4.8350     1.7260    -2.0610 H     1 <1>   0.1500 
 31 H       -4.6860     2.8320     1.1910 H     1 <1>   0.0800 
 32 H       -5.0250     2.4180    -0.4630 H     1 <1>   0.0800 
 33 H       -3.3390     3.1270    -2.2890 H     1 <1>   0.0800 
 34 H       -1.8660     3.9350    -1.8020 H     1 <1>   0.0800 
 35 H       -3.3710     4.8100    -1.8110 H     1 <1>   0.0800 
 36 H        3.5580     3.8140    -1.7400 H     1 <1>   0.1500 
 37 H       -5.1110     5.2340     0.6650 H     1 <1>   0.0800 
 38 H       -6.5080     4.2220     0.3860 H     1 <1>   0.0800 
 39 H       -5.5570     4.7770    -0.9670 H     1 <1>   0.0800 
@<TRIPOS>BOND
  1   1   2  1   
  2   1   3  1   
  3   2   4  2   
  4   2   5  1   
  5   3   6  1   
  6   3  23  1   
  7   3  24  1   
  8   4   7  1   
  9   5   8  am  
 10   5  25  1   
 11   6   9  2   
 12   6  10  1   
 13   7  11  1   
 14   7  12  2   
 15   8  12  1   
 16   8  13  2   
 17  10  14  ar  
 18  10  15  ar  
 19  12  16  1   
 20  14  17  ar  
 21  14  26  1   
 22  15  18  ar  
 23  15  27  1   
 24  16  19  1   
 25  16  20  1   
 26  16  28  1   
 27  17  21  ar  
 28  17  29  1   
 29  18  21  ar  
 30  18  30  1   
 31  19  22  1   
 32  19  31  1   
 33  19  32  1   
 34  20  33  1   
 35  20  34  1   
 36  20  35  1   
 37  21  36  1   
 38  22  37  1   
 39  22  38  1   
 40  22  39  1   
@<TRIPOS>SUBSTRUCTURE
  1 ****   4 GROUP 4 **** **** 0

# MOE 2024.06 (io_trps.svl 2023.06)
