@<TRIPOS>MOLECULE
NONAME
36 37 1 0 0 
SMALL
USER_CHARGES


@<TRIPOS>ATOM
  1 S       -0.2920     0.3040     0.6990 S.o2  1 <1>   1.4470 
  2 O       -1.0970     1.2210    -0.0800 O.2   1 <1>  -0.6500 
  3 O       -0.2540     0.4450     2.1380 O.2   1 <1>  -0.6500 
  4 N       -0.9840    -1.2130     0.5260 N.am  1 <1>  -0.9140 
  5 C        1.3760     0.1340     0.0090 C.ar  1 <1>  -0.0090 
  6 C       -2.4260    -1.2070     0.6180 C.3   1 <1>   0.2760 
  7 C        2.2580     1.2080     0.0780 C.ar  1 <1>   0.0820 
  8 C        1.8160    -1.0410    -0.5900 C.ar  1 <1>  -0.1500 
  9 C       -2.8800    -2.5490     1.1830 C.3   1 <1>  -0.1600 
 10 C       -3.0210    -1.2160    -0.7870 C.3   1 <1>  -0.1600 
 11 O        1.8150     2.3480     0.6600 O.3   1 <1>  -0.3630 
 12 C        3.5450     1.0880    -0.4400 C.ar  1 <1>  -0.1500 
 13 C        3.1030    -1.1950    -1.1090 C.ar  1 <1>  -0.1790 
 14 C       -2.8540    -3.5300     0.0050 C.3   1 <1>  -0.1600 
 15 C       -2.9520    -2.6720    -1.2620 C.3   1 <1>  -0.1600 
 16 C        2.6120     3.5060     0.7610 C.3   1 <1>   0.0400 
 17 C        3.9540    -0.0950    -1.0200 C.ar  1 <1>  -0.1500 
 18 C        3.5390    -2.4480    -1.7110 C.2   1 <1>   0.9790 
 19 O        4.6640    -2.5430    -2.2320 O.co2 1 <1>  -0.9000 
 20 O        2.7940    -3.4440    -1.7060 O.co2 1 <1>  -0.9000 
 21 H       -0.6430    -1.7080     1.3430 H     1 <1>   0.4200 
 22 H       -2.7810    -0.3830     1.2180 H     1 <1>   0.0800 
 23 H        1.1530    -1.8870    -0.6710 H     1 <1>   0.1500 
 24 H       -3.8960    -2.4450     1.5230 H     1 <1>   0.0800 
 25 H       -2.2760    -2.8780     2.0100 H     1 <1>   0.0800 
 26 H       -2.5090    -0.5450    -1.4540 H     1 <1>   0.0800 
 27 H       -4.0510    -0.9150    -0.7240 H     1 <1>   0.0800 
 28 H        4.2450     1.8990    -0.4010 H     1 <1>   0.1500 
 29 H       -3.6610    -4.2390     0.0700 H     1 <1>   0.0800 
 30 H       -1.9180    -4.0640    -0.0020 H     1 <1>   0.0800 
 31 H       -2.0630    -2.8130    -1.8550 H     1 <1>   0.0800 
 32 H       -3.8120    -2.9290    -1.8540 H     1 <1>   0.0800 
 33 H        2.0310     4.2680     1.2480 H     1 <1>   0.0800 
 34 H        2.8830     3.8290    -0.2290 H     1 <1>   0.0800 
 35 H        3.4840     3.2790     1.3480 H     1 <1>   0.0800 
 36 H        4.9520    -0.1880    -1.4190 H     1 <1>   0.1500 
@<TRIPOS>BOND
  1   1   2  2   
  2   1   3  2   
  3   1   4  am  
  4   1   5  1   
  5   4   6  1   
  6   4  21  1   
  7   5   7  ar  
  8   5   8  ar  
  9   6   9  1   
 10   6  10  1   
 11   6  22  1   
 12   7  11  1   
 13   7  12  ar  
 14   8  13  ar  
 15   8  23  1   
 16   9  14  1   
 17   9  24  1   
 18   9  25  1   
 19  10  15  1   
 20  10  26  1   
 21  10  27  1   
 22  11  16  1   
 23  12  17  ar  
 24  12  28  1   
 25  13  17  ar  
 26  13  18  1   
 27  14  15  1   
 28  14  29  1   
 29  14  30  1   
 30  15  31  1   
 31  15  32  1   
 32  16  33  1   
 33  16  34  1   
 34  16  35  1   
 35  17  36  1   
 36  18  19  ar  
 37  18  20  ar  
@<TRIPOS>SUBSTRUCTURE
  1 ****   5 GROUP 4 **** **** 0

# MOE 2024.06 (io_trps.svl 2023.06)
