@<TRIPOS>MOLECULE
NONAME
36 39 1 0 0 
SMALL
USER_CHARGES


@<TRIPOS>ATOM
  1 O       -3.9690    -0.8810    -0.1770 O.3   1 <1>  -0.3630 
  2 C       -5.1450    -0.2020    -0.0600 C.ar  1 <1>   0.0830 
  3 C       -2.7880    -0.1910    -0.5240 C.3   1 <1>   0.1200 
  4 C       -6.3350    -0.9210    -0.0420 C.ar  1 <1>  -0.1440 
  5 C       -5.1560     1.1870     0.0430 C.ar  1 <1>  -0.1440 
  6 C       -2.6660     1.0810     0.3160 C.3   1 <1>  -0.1600 
  7 C       -7.5590    -0.2530     0.0550 C.ar  1 <1>   0.1000 
  8 C       -6.3010    -2.4430    -0.1410 C.3   1 <1>  -0.0160 
  9 C       -6.3670     1.8460     0.1480 C.ar  1 <1>  -0.1500 
 10 C       -3.8650     1.9890     0.0400 C.3   1 <1>  -0.0160 
 11 N       -8.7770    -0.9630     0.0550 N.pl3 1 <1>  -0.8380 
 12 C       -7.5570     1.1420     0.1520 C.ar  1 <1>  -0.1430 
 13 C       -7.5600    -3.0650     0.4640 C.3   1 <1>  -0.1600 
 14 C       -8.8100    -2.4320    -0.1380 C.3   1 <1>   0.2090 
 15 C      -10.0940    -0.2770     0.0870 C.3   1 <1>   0.2090 
 16 C       -8.8660     1.9040     0.2660 C.3   1 <1>  -0.0170 
 17 C       -9.9790     1.1460    -0.4580 C.3   1 <1>  -0.1600 
 18 H       -2.8400     0.0430    -1.5730 H     1 <1>   0.0800 
 19 H       -1.9590    -0.8520    -0.3460 H     1 <1>   0.0800 
 20 H       -1.7530     1.5950     0.0780 H     1 <1>   0.0800 
 21 H       -2.6420     0.8100     1.3570 H     1 <1>   0.0800 
 22 H       -5.4420    -2.8320     0.3760 H     1 <1>   0.0800 
 23 H       -6.2220    -2.7140    -1.1790 H     1 <1>   0.0800 
 24 H       -6.3820     2.9180     0.2280 H     1 <1>   0.1500 
 25 H       -3.9090     2.7660     0.7830 H     1 <1>   0.0800 
 26 H       -3.7530     2.4490    -0.9260 H     1 <1>   0.0800 
 27 H       -7.5660    -2.8980     1.5270 H     1 <1>   0.0800 
 28 H       -7.5670    -4.1250     0.2880 H     1 <1>   0.0800 
 29 H       -8.8610    -2.6440    -1.1930 H     1 <1>   0.0800 
 30 H       -9.6820    -2.8420     0.3410 H     1 <1>   0.0800 
 31 H      -10.4420    -0.2520     1.1050 H     1 <1>   0.0800 
 32 H      -10.8050    -0.8270    -0.5060 H     1 <1>   0.0800 
 33 H       -8.7640     2.8850    -0.1640 H     1 <1>   0.0800 
 34 H       -9.1140     2.0110     1.3070 H     1 <1>   0.0800 
 35 H      -10.9150     1.6570    -0.3340 H     1 <1>   0.0800 
 36 H       -9.7550     1.0970    -1.5090 H     1 <1>   0.0800 
@<TRIPOS>BOND
  1   1   2  1   
  2   1   3  1   
  3   2   4  ar  
  4   2   5  ar  
  5   3   6  1   
  6   3  18  1   
  7   3  19  1   
  8   4   7  ar  
  9   4   8  1   
 10   5   9  ar  
 11   5  10  1   
 12   6  10  1   
 13   6  20  1   
 14   6  21  1   
 15   7  11  1   
 16   7  12  ar  
 17   8  13  1   
 18   8  22  1   
 19   8  23  1   
 20   9  12  ar  
 21   9  24  1   
 22  10  25  1   
 23  10  26  1   
 24  11  14  1   
 25  11  15  1   
 26  12  16  1   
 27  13  14  1   
 28  13  27  1   
 29  13  28  1   
 30  14  29  1   
 31  14  30  1   
 32  15  17  1   
 33  15  31  1   
 34  15  32  1   
 35  16  17  1   
 36  16  33  1   
 37  16  34  1   
 38  17  35  1   
 39  17  36  1   
@<TRIPOS>SUBSTRUCTURE
  1 ****   4 GROUP 4 **** **** 0

# MOE 2024.06 (io_trps.svl 2023.06)
