@<TRIPOS>MOLECULE
NONAME
37 38 1 0 0 
SMALL
USER_CHARGES


@<TRIPOS>ATOM
  1 O        0.1680    -0.8020     1.5130 O.2   1 <1>  -0.5700 
  2 C       -0.0260    -1.4580     0.5100 C.2   1 <1>   0.7160 
  3 N       -1.2390    -1.3980    -0.0980 N.am  1 <1>  -0.7300 
  4 C        1.0020    -2.2950    -0.0470 C.2   1 <1>  -0.0860 
  5 C       -2.4760    -0.9300     0.5350 C.3   1 <1>   0.3640 
  6 C        2.3260    -2.0870    -0.2020 C.2   1 <1>  -0.0400 
  7 C        0.8700    -3.5740    -0.5720 C.2   1 <1>   0.1080 
  8 C       -3.4820    -2.0710     0.4280 C.ar  1 <1>  -0.1440 
  9 C       -2.9690     0.3590    -0.1420 C.3   1 <1>  -0.1600 
 10 O        2.9270    -3.1030    -0.7730 O.3   1 <1>  -0.0190 
 11 C        3.1680    -0.8830     0.1770 C.3   1 <1>  -0.0600 
 12 N        1.9990    -4.0060    -0.9900 N.2   1 <1>  -0.4100 
 13 C       -0.4030    -4.3970    -0.6420 C.3   1 <1>  -0.0590 
 14 C       -3.8790    -2.7380     1.5780 C.ar  1 <1>  -0.1500 
 15 C       -3.9990    -2.4770    -0.7970 C.ar  1 <1>  -0.1500 
 16 C       -2.0070     1.5430     0.0460 C.3   1 <1>  -0.2400 
 17 C       -4.7770    -3.7890     1.5090 C.ar  1 <1>  -0.1500 
 18 C       -4.8970    -3.5280    -0.8680 C.ar  1 <1>  -0.1500 
 19 C       -5.2870    -4.1850     0.2850 C.ar  1 <1>  -0.1500 
 20 H       -1.3870    -1.9440    -0.9420 H     1 <1>   0.3700 
 21 H       -2.2910    -0.7180     1.5750 H     1 <1>   0.0800 
 22 H       -3.9200     0.6190     0.2880 H     1 <1>   0.0800 
 23 H       -3.1240     0.1910    -1.1920 H     1 <1>   0.0800 
 24 H        2.5600    -0.1130     0.6160 H     1 <1>   0.0800 
 25 H        3.6510    -0.4870    -0.6980 H     1 <1>   0.0800 
 26 H        3.9190    -1.1760     0.8870 H     1 <1>   0.0800 
 27 H       -0.9720    -4.2850     0.2630 H     1 <1>   0.0800 
 28 H       -0.1560    -5.4370    -0.7630 H     1 <1>   0.0800 
 29 H       -0.9990    -4.0870    -1.4790 H     1 <1>   0.0800 
 30 H       -3.4880    -2.4460     2.5380 H     1 <1>   0.1500 
 31 H       -3.7100    -1.9810    -1.7060 H     1 <1>   0.1500 
 32 H       -1.8350     1.7250     1.0920 H     1 <1>   0.0800 
 33 H       -2.4250     2.4320    -0.3930 H     1 <1>   0.0800 
 34 H       -1.0610     1.3430    -0.4250 H     1 <1>   0.0800 
 35 H       -5.0790    -4.2990     2.4070 H     1 <1>   0.1500 
 36 H       -5.2950    -3.8340    -1.8200 H     1 <1>   0.1500 
 37 H       -5.9860    -5.0010     0.2320 H     1 <1>   0.1500 
@<TRIPOS>BOND
  1   1   2  2   
  2   2   3  am  
  3   2   4  1   
  4   3   5  1   
  5   3  20  1   
  6   4   6  2   
  7   4   7  1   
  8   5   8  1   
  9   5   9  1   
 10   5  21  1   
 11   6  10  1   
 12   6  11  1   
 13   7  12  2   
 14   7  13  1   
 15   8  14  ar  
 16   8  15  ar  
 17   9  16  1   
 18   9  22  1   
 19   9  23  1   
 20  10  12  1   
 21  11  24  1   
 22  11  25  1   
 23  11  26  1   
 24  13  27  1   
 25  13  28  1   
 26  13  29  1   
 27  14  17  ar  
 28  14  30  1   
 29  15  18  ar  
 30  15  31  1   
 31  16  32  1   
 32  16  33  1   
 33  16  34  1   
 34  17  19  ar  
 35  17  35  1   
 36  18  19  ar  
 37  18  36  1   
 38  19  37  1   
@<TRIPOS>SUBSTRUCTURE
  1 ****   3 GROUP 4 **** **** 0

# MOE 2024.06 (io_trps.svl 2023.06)
