@<TRIPOS>MOLECULE
NONAME
38 39 1 0 0 
SMALL
USER_CHARGES


@<TRIPOS>ATOM
  1 CL      -1.0650     1.3100    -1.8650 Cl    1 <1>  -0.1770 
  2 C       -2.1570     1.1990    -0.5040 C.ar  1 <1>   0.1770 
  3 C       -1.6910     1.3740     0.7880 C.ar  1 <1>   0.1770 
  4 C       -3.4930     0.9350    -0.7380 C.ar  1 <1>  -0.1500 
  5 CL      -0.0010     1.7090     1.0980 Cl    1 <1>  -0.1770 
  6 C       -2.5620     1.2880     1.8590 C.ar  1 <1>  -0.1500 
  7 C       -4.3850     0.8430     0.3280 C.ar  1 <1>   0.1170 
  8 C       -3.9010     1.0240     1.6220 C.ar  1 <1>  -0.1500 
  9 N       -5.7530     0.5820     0.1610 N.am  1 <1>  -0.5470 
 10 C       -6.5080     0.1910    -0.9090 C.2   1 <1>   0.5690 
 11 O       -6.0660    -0.0200    -2.0120 O.2   1 <1>  -0.5700 
 12 C       -8.0030     0.0010    -0.6480 C.3   1 <1>   0.1710 
 13 N       -8.4820     0.6520     0.6170 N.3   1 <1>  -0.8100 
 14 C       -9.7680     0.0710     1.0550 C.3   1 <1>   0.1100 
 15 C       -8.6570     2.1160     0.4240 C.3   1 <1>   0.1100 
 16 C      -10.9370     0.3480     0.0700 C.3   1 <1>   0.2000 
 17 C      -10.0590     2.5460    -0.0920 C.3   1 <1>   0.2000 
 18 O      -10.7210     1.4870    -0.7170 O.3   1 <1>  -0.5600 
 19 C      -12.2840     0.5030     0.7780 C.3   1 <1>  -0.2400 
 20 C       -9.9750     3.6780    -1.1120 C.3   1 <1>  -0.2400 
 21 H       -3.8250     0.8070    -1.7510 H     1 <1>   0.1500 
 22 H       -2.1920     1.4250     2.8600 H     1 <1>   0.1500 
 23 H       -4.5790     0.9550     2.4550 H     1 <1>   0.1500 
 24 H       -6.3500     0.7020     0.9860 H     1 <1>   0.3700 
 25 H       -8.1770    -1.0580    -0.5930 H     1 <1>   0.0800 
 26 H       -8.5510     0.3790    -1.4940 H     1 <1>   0.0800 
 27 H      -10.0170     0.4870     2.0160 H     1 <1>   0.0800 
 28 H       -9.6650    -0.9910     1.1970 H     1 <1>   0.0800 
 29 H       -7.8990     2.4880    -0.2450 H     1 <1>   0.0800 
 30 H       -8.4940     2.6080     1.3670 H     1 <1>   0.0800 
 31 H      -11.0080    -0.4780    -0.6160 H     1 <1>   0.0800 
 32 H      -10.6630     2.8660     0.7390 H     1 <1>   0.0800 
 33 H      -12.2600     1.3190     1.4760 H     1 <1>   0.0800 
 34 H      -12.5220    -0.3980     1.3130 H     1 <1>   0.0800 
 35 H      -13.0570     0.6800     0.0510 H     1 <1>   0.0800 
 36 H       -9.4080     3.3640    -1.9700 H     1 <1>   0.0800 
 37 H       -9.4990     4.5360    -0.6750 H     1 <1>   0.0800 
 38 H      -10.9650     3.9590    -1.4250 H     1 <1>   0.0800 
@<TRIPOS>BOND
  1   1   2  1   
  2   2   3  ar  
  3   2   4  ar  
  4   3   5  1   
  5   3   6  ar  
  6   4   7  ar  
  7   4  21  1   
  8   6   8  ar  
  9   6  22  1   
 10   7   8  ar  
 11   7   9  1   
 12   8  23  1   
 13   9  10  am  
 14   9  24  1   
 15  10  11  2   
 16  10  12  1   
 17  12  13  1   
 18  12  25  1   
 19  12  26  1   
 20  13  14  1   
 21  13  15  1   
 22  14  16  1   
 23  14  27  1   
 24  14  28  1   
 25  15  17  1   
 26  15  29  1   
 27  15  30  1   
 28  16  18  1   
 29  16  19  1   
 30  16  31  1   
 31  17  18  1   
 32  17  20  1   
 33  17  32  1   
 34  19  33  1   
 35  19  34  1   
 36  19  35  1   
 37  20  36  1   
 38  20  37  1   
 39  20  38  1   
@<TRIPOS>SUBSTRUCTURE
  1 ****   9 GROUP 4 **** **** 0

# MOE 2024.06 (io_trps.svl 2023.06)
