@<TRIPOS>MOLECULE
NONAME
45 46 1 0 0 
SMALL
USER_CHARGES


@<TRIPOS>ATOM
  1 O        0.0250    -0.1710    -0.5570 O.3   1 <1>  -0.3630 
  2 C        0.1230    -1.5060    -0.2990 C.ar  1 <1>   0.0830 
  3 C        0.8500     0.7320     0.1480 C.3   1 <1>   0.0400 
  4 C        1.3510    -2.2300    -0.3020 C.ar  1 <1>   0.3100 
  5 C       -1.0650    -2.1320    -0.0420 C.ar  1 <1>  -0.1500 
  6 N        2.4950    -1.5690    -0.6330 N.ar  1 <1>  -0.6200 
  7 C        1.3310    -3.6190     0.0230 C.ar  1 <1>   0.0000 
  8 C       -1.0980    -3.4880     0.2490 C.ar  1 <1>  -0.1500 
  9 C        3.6180    -2.2180    -0.6260 C.ar  1 <1>   0.4100 
 10 C        0.0650    -4.2260     0.2860 C.ar  1 <1>   0.0830 
 11 C        2.5900    -4.2870     0.0510 C.ar  1 <1>  -0.1440 
 12 N        4.7720    -1.5500    -0.9860 N.pl3 1 <1>  -0.8380 
 13 C        3.6990    -3.5710    -0.2760 C.ar  1 <1>  -0.1500 
 14 O        0.0220    -5.5560     0.5710 O.3   1 <1>  -0.3630 
 15 C        2.7890    -5.7510     0.4280 C.3   1 <1>  -0.0970 
 16 C        4.9010    -0.0990    -0.6730 C.3   1 <1>   0.2090 
 17 C        5.4990    -2.0130    -2.1970 C.3   1 <1>   0.1290 
 18 C       -1.1790    -6.2630     0.7940 C.3   1 <1>   0.0400 
 19 C        6.3220     0.2490    -0.2090 C.3   1 <1>  -0.1600 
 20 C        6.7410    -0.5180     1.0550 C.3   1 <1>  -0.1600 
 21 C        8.1360    -0.0960     1.5240 C.3   1 <1>  -0.2400 
 22 H        0.3370     1.6730     0.2150 H     1 <1>   0.0800 
 23 H        1.7690     0.8560    -0.3960 H     1 <1>   0.0800 
 24 H        1.0450     0.3420     1.1320 H     1 <1>   0.0800 
 25 H       -1.9810    -1.5680    -0.0630 H     1 <1>   0.1500 
 26 H       -2.0610    -3.9200     0.4410 H     1 <1>   0.1500 
 27 H        4.6780    -4.0070    -0.2730 H     1 <1>   0.1500 
 28 H        2.4050    -5.9320     1.4160 H     1 <1>   0.0800 
 29 H        3.8300    -6.0190     0.4230 H     1 <1>   0.0800 
 30 H        2.2790    -6.3860    -0.2740 H     1 <1>   0.0800 
 31 H        4.2100     0.1620     0.1110 H     1 <1>   0.0800 
 32 H        4.6420     0.4760    -1.5450 H     1 <1>   0.0800 
 33 H        5.0710    -2.9300    -2.5650 H     1 <1>   0.0800 
 34 H        6.5330    -2.1830    -1.9550 H     1 <1>   0.0800 
 35 H        5.4320    -1.2710    -2.9730 H     1 <1>   0.0800 
 36 H       -0.9300    -7.2930     0.9750 H     1 <1>   0.0800 
 37 H       -1.7990    -6.1850    -0.0810 H     1 <1>   0.0800 
 38 H       -1.6720    -5.8510     1.6570 H     1 <1>   0.0800 
 39 H        6.3550     1.3040    -0.0050 H     1 <1>   0.0800 
 40 H        7.0160     0.0530    -1.0060 H     1 <1>   0.0800 
 41 H        6.7390    -1.5760     0.8540 H     1 <1>   0.0800 
 42 H        6.0270    -0.3330     1.8400 H     1 <1>   0.0800 
 43 H        8.8650    -0.2950     0.7580 H     1 <1>   0.0800 
 44 H        8.4080    -0.6470     2.4060 H     1 <1>   0.0800 
 45 H        8.1540     0.9540     1.7570 H     1 <1>   0.0800 
@<TRIPOS>BOND
  1   1   2  1   
  2   1   3  1   
  3   2   4  ar  
  4   2   5  ar  
  5   3  22  1   
  6   3  23  1   
  7   3  24  1   
  8   4   6  ar  
  9   4   7  ar  
 10   5   8  ar  
 11   5  25  1   
 12   6   9  ar  
 13   7  10  ar  
 14   7  11  ar  
 15   8  10  ar  
 16   8  26  1   
 17   9  12  1   
 18   9  13  ar  
 19  10  14  1   
 20  11  13  ar  
 21  11  15  1   
 22  12  16  1   
 23  12  17  1   
 24  13  27  1   
 25  14  18  1   
 26  15  28  1   
 27  15  29  1   
 28  15  30  1   
 29  16  19  1   
 30  16  31  1   
 31  16  32  1   
 32  17  33  1   
 33  17  34  1   
 34  17  35  1   
 35  18  36  1   
 36  18  37  1   
 37  18  38  1   
 38  19  20  1   
 39  19  39  1   
 40  19  40  1   
 41  20  21  1   
 42  20  41  1   
 43  20  42  1   
 44  21  43  1   
 45  21  44  1   
 46  21  45  1   
@<TRIPOS>SUBSTRUCTURE
  1 ****   6 GROUP 4 **** **** 0

# MOE 2024.06 (io_trps.svl 2023.06)
