@<TRIPOS>MOLECULE
NONAME
38 38 1 0 0 
SMALL
USER_CHARGES


@<TRIPOS>ATOM
  1 O        2.5850    -2.3240    -0.8510 O.2   1 <1>  -0.5700 
  2 C        1.6790    -1.9500    -0.1460 C.2   1 <1>   0.6590 
  3 O        0.8460    -2.7590     0.4980 O.3   1 <1>  -0.4300 
  4 C        1.4260    -0.4810     0.0690 C.3   1 <1>  -0.1790 
  5 C        0.7600    -4.1680     0.4050 C.3   1 <1>   0.4800 
  6 C        2.1230    -4.7670     0.5520 C.1   1 <1>  -0.2000 
  7 C        0.1250    -4.5120    -0.9600 C.3   1 <1>  -0.1600 
  8 C       -0.1190    -4.6070     1.5760 C.3   1 <1>  -0.2400 
  9 C        3.2720    -5.0620     0.4760 C.1   1 <1>  -0.2000 
 10 C       -0.1250    -6.0100    -1.2150 C.3   1 <1>  -0.2400 
 11 C        4.7100    -5.1200     0.1310 C.3   1 <1>   0.5430 
 12 N        5.0400    -3.7490    -0.3090 N.4   1 <1>  -0.9590 
 13 C        6.1140    -3.6380    -1.3150 C.3   1 <1>   0.3430 
 14 C        5.3760    -2.8280     0.7940 C.3   1 <1>   0.3430 
 15 C        6.5480    -2.1790    -1.2410 C.3   1 <1>  -0.1600 
 16 C        6.0120    -1.6390     0.0900 C.3   1 <1>  -0.1600 
 17 H        2.1380     0.1020    -0.4860 H     1 <1>   0.0800 
 18 H        0.4350    -0.2360    -0.2660 H     1 <1>   0.0800 
 19 H        1.5120    -0.2480     1.1130 H     1 <1>   0.0800 
 20 H       -0.8150    -3.9950    -1.0430 H     1 <1>   0.0800 
 21 H        0.7680    -4.1480    -1.7420 H     1 <1>   0.0800 
 22 H        0.3010    -4.2610     2.5040 H     1 <1>   0.0800 
 23 H       -0.1810    -5.6790     1.6190 H     1 <1>   0.0800 
 24 H       -1.1120    -4.2110     1.4680 H     1 <1>   0.0800 
 25 H       -0.8390    -6.4080    -0.5170 H     1 <1>   0.0800 
 26 H        0.7890    -6.5730    -1.1370 H     1 <1>   0.0800 
 27 H       -0.5190    -6.1480    -2.2070 H     1 <1>   0.0800 
 28 H        4.8550    -5.8220    -0.6740 H     1 <1>   0.0800 
 29 H        5.3050    -5.4140     0.9800 H     1 <1>   0.0800 
 30 H        4.1630    -3.3680    -0.7260 H     1 <1>   0.4500 
 31 H        5.7630    -3.8990    -2.3010 H     1 <1>   0.0800 
 32 H        6.9410    -4.2740    -1.0430 H     1 <1>   0.0800 
 33 H        6.0930    -3.2870     1.4540 H     1 <1>   0.0800 
 34 H        4.4970    -2.5420     1.3510 H     1 <1>   0.0800 
 35 H        6.1250    -1.6300    -2.0660 H     1 <1>   0.0800 
 36 H        7.6200    -2.1070    -1.2970 H     1 <1>   0.0800 
 37 H        6.7900    -1.2070     0.6950 H     1 <1>   0.0800 
 38 H        5.2600    -0.8890    -0.0910 H     1 <1>   0.0800 
@<TRIPOS>BOND
  1   1   2  2   
  2   2   3  1   
  3   2   4  1   
  4   3   5  1   
  5   4  17  1   
  6   4  18  1   
  7   4  19  1   
  8   5   6  1   
  9   5   7  1   
 10   5   8  1   
 11   6   9  3   
 12   7  10  1   
 13   7  20  1   
 14   7  21  1   
 15   8  22  1   
 16   8  23  1   
 17   8  24  1   
 18   9  11  1   
 19  10  25  1   
 20  10  26  1   
 21  10  27  1   
 22  11  12  1   
 23  11  28  1   
 24  11  29  1   
 25  12  13  1   
 26  12  14  1   
 27  12  30  1   
 28  13  15  1   
 29  13  31  1   
 30  13  32  1   
 31  14  16  1   
 32  14  33  1   
 33  14  34  1   
 34  15  16  1   
 35  15  35  1   
 36  15  36  1   
 37  16  37  1   
 38  16  38  1   
@<TRIPOS>SUBSTRUCTURE
  1 ****   1 GROUP 4 **** **** 0

# MOE 2024.06 (io_trps.svl 2023.06)
