@<TRIPOS>MOLECULE
NONAME
36 37 1 0 0 
SMALL
USER_CHARGES


@<TRIPOS>ATOM
  1 O       -1.9750    -0.6240     3.0290 O.2   1 <1>  -0.5700 
  2 C       -2.6800    -1.1650     2.2020 C.2   1 <1>   0.7060 
  3 O       -3.5660    -0.4260     1.5380 O.3   1 <1>  -0.2320 
  4 C       -2.6100    -2.5530     1.8990 C.2   1 <1>  -0.1360 
  5 C       -4.4010    -0.9410     0.6070 C.ar  1 <1>   0.0830 
  6 C       -3.4150    -3.1330     0.9800 C.2   1 <1>  -0.1670 
  7 C       -4.3850    -2.3120     0.2850 C.ar  1 <1>   0.0280 
  8 C       -5.2680    -0.0520    -0.0070 C.ar  1 <1>  -0.1500 
  9 C       -3.2600    -4.6250     0.7080 C.3   1 <1>  -0.1020 
 10 C       -5.3250    -2.7350    -0.6780 C.ar  1 <1>   0.0830 
 11 C       -6.1580    -0.4880    -0.9680 C.ar  1 <1>  -0.1440 
 12 O       -5.4210    -4.0370    -1.0250 O.3   1 <1>  -0.3630 
 13 C       -6.1750    -1.8300    -1.2990 C.ar  1 <1>  -0.1500 
 14 C       -7.1050     0.4790    -1.6560 C.3   1 <1>  -0.0970 
 15 C       -6.6580    -4.7150    -0.8460 C.3   1 <1>   0.2610 
 16 C       -7.1170    -4.6550     0.6220 C.2   1 <1>   0.6590 
 17 C       -6.4620    -6.1420    -1.3720 C.3   1 <1>  -0.2400 
 18 O       -6.7880    -5.4750     1.4450 O.2   1 <1>  -0.5700 
 19 O       -7.9170    -3.6380     0.9350 O.3   1 <1>  -0.4300 
 20 C       -8.3690    -3.4280     2.2570 C.3   1 <1>   0.0400 
 21 H       -1.8720    -3.1000     2.4520 H     1 <1>   0.1500 
 22 H       -5.2340     0.9850     0.2760 H     1 <1>   0.1500 
 23 H       -3.0600    -4.7950    -0.3340 H     1 <1>   0.0800 
 24 H       -4.1560    -5.1500     0.9860 H     1 <1>   0.0800 
 25 H       -2.4460    -5.0410     1.2740 H     1 <1>   0.0800 
 26 H       -6.8580    -2.1690    -2.0550 H     1 <1>   0.1500 
 27 H       -6.9520     1.4830    -1.3050 H     1 <1>   0.0800 
 28 H       -8.1230     0.1970    -1.4570 H     1 <1>   0.0800 
 29 H       -6.9400     0.4600    -2.7190 H     1 <1>   0.0800 
 30 H       -7.3970    -4.2250    -1.4520 H     1 <1>   0.0800 
 31 H       -5.7040    -6.6470    -0.8000 H     1 <1>   0.0800 
 32 H       -6.1740    -6.1190    -2.4070 H     1 <1>   0.0800 
 33 H       -7.3800    -6.6950    -1.2810 H     1 <1>   0.0800 
 34 H       -8.9900    -2.5500     2.2690 H     1 <1>   0.0800 
 35 H       -7.5150    -3.2860     2.8960 H     1 <1>   0.0800 
 36 H       -8.9320    -4.2880     2.5740 H     1 <1>   0.0800 
@<TRIPOS>BOND
  1   1   2  2   
  2   2   3  1   
  3   2   4  1   
  4   3   5  1   
  5   4   6  2   
  6   4  21  1   
  7   5   7  ar  
  8   5   8  ar  
  9   6   7  1   
 10   6   9  1   
 11   7  10  ar  
 12   8  11  ar  
 13   8  22  1   
 14   9  23  1   
 15   9  24  1   
 16   9  25  1   
 17  10  12  1   
 18  10  13  ar  
 19  11  13  ar  
 20  11  14  1   
 21  12  15  1   
 22  13  26  1   
 23  14  27  1   
 24  14  28  1   
 25  14  29  1   
 26  15  16  1   
 27  15  17  1   
 28  15  30  1   
 29  16  18  2   
 30  16  19  1   
 31  17  31  1   
 32  17  32  1   
 33  17  33  1   
 34  19  20  1   
 35  20  34  1   
 36  20  35  1   
 37  20  36  1   
@<TRIPOS>SUBSTRUCTURE
  1 ****   7 GROUP 4 **** **** 0

# MOE 2024.06 (io_trps.svl 2023.06)
