@<TRIPOS>MOLECULE
NONAME
44 46 1 0 0 
SMALL
USER_CHARGES


@<TRIPOS>ATOM
  1 S        0.8030    -1.1450    -1.3810 S.3   1 <1>  -0.2860 
  2 C       -0.7710    -0.2970    -1.2320 C.2   1 <1>   0.2420 
  3 C        1.7680    -0.1500    -2.6210 C.3   1 <1>   0.1310 
  4 N       -1.2400     0.5230    -2.1040 N.2   1 <1>  -0.3380 
  5 N       -1.5590    -0.4550    -0.1750 N.pl3 1 <1>   0.0480 
  6 C        2.8270     0.6790    -1.9020 C.2   1 <1>   0.5690 
  7 N       -2.3940     0.9600    -1.6080 N.2   1 <1>  -0.3380 
  8 C       -2.5880     0.3690    -0.4590 C.2   1 <1>   0.1330 
  9 C       -1.3000    -1.2570     1.0400 C.3   1 <1>   0.0160 
 10 O        3.9290     0.1840    -1.8280 O.2   1 <1>  -0.5700 
 11 N        2.5660     1.9180    -1.3560 N.am  1 <1>  -0.6600 
 12 C       -3.7270     0.5900     0.3950 C.ar  1 <1>   0.0530 
 13 C        1.3110     2.6980    -1.5440 C.3   1 <1>   0.1400 
 14 C        3.5850     2.5800    -0.4990 C.3   1 <1>   0.1400 
 15 C       -4.1410     1.8690     0.7350 C.ar  1 <1>  -0.1500 
 16 C       -4.4910    -0.4350     0.9320 C.ar  1 <1>  -0.1500 
 17 C        0.6000     3.0530    -0.2260 C.3   1 <1>  -0.1600 
 18 C        3.4750     2.0530     0.9350 C.3   1 <1>  -0.1600 
 19 C       -5.2250     2.0520     1.5720 C.ar  1 <1>   0.1600 
 20 C       -5.5600    -0.1480     1.7600 C.ar  1 <1>   0.1600 
 21 C        0.8900     2.1450     0.9830 C.3   1 <1>  -0.1600 
 22 C        2.2100     2.4960     1.6890 C.3   1 <1>  -0.1600 
 23 N       -5.9400     1.0720     2.1010 N.ar  1 <1>  -0.6200 
 24 H        1.0910     0.4460    -3.1980 H     1 <1>   0.0800 
 25 H        2.2470    -0.8590    -3.2690 H     1 <1>   0.0800 
 26 H       -0.2480    -1.2540     1.2580 H     1 <1>   0.0800 
 27 H       -1.6260    -2.2680     0.8750 H     1 <1>   0.0800 
 28 H       -1.8290    -0.8360     1.8750 H     1 <1>   0.0800 
 29 H        0.6290     2.1600    -2.1670 H     1 <1>   0.0800 
 30 H        1.5470     3.6080    -2.0690 H     1 <1>   0.0800 
 31 H        3.4530     3.6480    -0.5180 H     1 <1>   0.0800 
 32 H        4.5680     2.3640    -0.8830 H     1 <1>   0.0800 
 33 H       -3.6140     2.7180     0.3410 H     1 <1>   0.1500 
 34 H       -4.2600    -1.4580     0.6990 H     1 <1>   0.1500 
 35 H       -0.4570     3.0290    -0.4240 H     1 <1>   0.0800 
 36 H        0.8340     4.0710     0.0290 H     1 <1>   0.0800 
 37 H        4.3320     2.3990     1.4840 H     1 <1>   0.0800 
 38 H        3.5290     0.9780     0.9140 H     1 <1>   0.0800 
 39 H       -5.5220     3.0570     1.8210 H     1 <1>   0.1500 
 40 H       -6.1370    -0.9620     2.1650 H     1 <1>   0.1500 
 41 H        0.8910     1.1110     0.6890 H     1 <1>   0.0800 
 42 H        0.0920     2.2770     1.6930 H     1 <1>   0.0800 
 43 H        2.2520     3.5570     1.8650 H     1 <1>   0.0800 
 44 H        2.2170     2.0160     2.6520 H     1 <1>   0.0800 
@<TRIPOS>BOND
  1   1   2  1   
  2   1   3  1   
  3   2   4  2   
  4   2   5  1   
  5   3   6  1   
  6   3  24  1   
  7   3  25  1   
  8   4   7  1   
  9   5   8  1   
 10   5   9  1   
 11   6  10  2   
 12   6  11  am  
 13   7   8  2   
 14   8  12  1   
 15   9  26  1   
 16   9  27  1   
 17   9  28  1   
 18  11  13  1   
 19  11  14  1   
 20  12  15  ar  
 21  12  16  ar  
 22  13  17  1   
 23  13  29  1   
 24  13  30  1   
 25  14  18  1   
 26  14  31  1   
 27  14  32  1   
 28  15  19  ar  
 29  15  33  1   
 30  16  20  ar  
 31  16  34  1   
 32  17  21  1   
 33  17  35  1   
 34  17  36  1   
 35  18  22  1   
 36  18  37  1   
 37  18  38  1   
 38  19  23  ar  
 39  19  39  1   
 40  20  23  ar  
 41  20  40  1   
 42  21  22  1   
 43  21  41  1   
 44  21  42  1   
 45  22  43  1   
 46  22  44  1   
@<TRIPOS>SUBSTRUCTURE
  1 ****   2 GROUP 4 **** **** 0

# MOE 2024.06 (io_trps.svl 2023.06)
