@<TRIPOS>MOLECULE
NONAME
40 42 1 0 0 
SMALL
USER_CHARGES


@<TRIPOS>ATOM
  1 S        0.8860    -0.7950    -1.9060 S.3   1 <1>  -0.4600 
  2 C        2.5220    -0.0330    -1.7420 C.3   1 <1>   0.0700 
  3 C        1.1330    -2.4280    -1.1630 C.3   1 <1>   0.0700 
  4 C        2.9710    -0.1270    -0.2780 C.3   1 <1>   0.3430 
  5 C        1.7360    -2.2540     0.2370 C.3   1 <1>   0.3430 
  6 N        3.0650    -1.5510     0.2110 N.4   1 <1>  -0.9590 
  7 C        3.7230    -1.6110     1.5450 C.3   1 <1>   0.4860 
  8 C        5.1520    -1.1270     1.3980 C.ar  1 <1>  -0.1440 
  9 C        6.0780    -1.8920     0.7050 C.ar  1 <1>  -0.1500 
 10 C        5.5420     0.0900     1.9420 C.ar  1 <1>  -0.1500 
 11 C        7.3820    -1.4400     0.5450 C.ar  1 <1>   0.0820 
 12 C        6.8410     0.5420     1.7800 C.ar  1 <1>  -0.1500 
 13 O        8.3100    -2.1540    -0.1400 O.3   1 <1>  -0.1650 
 14 C        7.7580    -0.2190     1.0790 C.ar  1 <1>  -0.1500 
 15 C        8.3020    -3.5090    -0.1300 C.ar  1 <1>   0.0820 
 16 C        8.4660    -4.1830    -1.3300 C.ar  1 <1>  -0.1500 
 17 C        8.1420    -4.2240     1.0520 C.ar  1 <1>  -0.1500 
 18 C        8.4490    -5.5660    -1.3550 C.ar  1 <1>  -0.1500 
 19 C        8.1250    -5.6070     1.0240 C.ar  1 <1>  -0.1500 
 20 C        8.2760    -6.2770    -0.1790 C.ar  1 <1>  -0.1500 
 21 H        2.4230     0.9930    -2.0520 H     1 <1>   0.0800 
 22 H        3.1960    -0.5460    -2.4040 H     1 <1>   0.0800 
 23 H        1.7760    -2.9940    -1.8130 H     1 <1>   0.0800 
 24 H        0.1660    -2.8990    -1.1140 H     1 <1>   0.0800 
 25 H        2.2760     0.4240     0.3350 H     1 <1>   0.0800 
 26 H        3.9350     0.3500    -0.1930 H     1 <1>   0.0800 
 27 H        1.8530    -3.2300     0.6800 H     1 <1>   0.0800 
 28 H        1.0420    -1.6960     0.8450 H     1 <1>   0.0800 
 29 H        3.6890    -2.0480    -0.4380 H     1 <1>   0.4500 
 30 H        3.7310    -2.6250     1.9120 H     1 <1>   0.0800 
 31 H        3.1930    -0.9950     2.2540 H     1 <1>   0.0800 
 32 H        5.8020    -2.8420     0.2800 H     1 <1>   0.1500 
 33 H        4.8490     0.7000     2.4970 H     1 <1>   0.1500 
 34 H        7.1430     1.4870     2.2010 H     1 <1>   0.1500 
 35 H        8.7690     0.1280     0.9470 H     1 <1>   0.1500 
 36 H        8.6080    -3.6240    -2.2380 H     1 <1>   0.1500 
 37 H        8.0410    -3.7020     1.9870 H     1 <1>   0.1500 
 38 H        8.5760    -6.0910    -2.2860 H     1 <1>   0.1500 
 39 H        8.0030    -6.1640     1.9370 H     1 <1>   0.1500 
 40 H        8.2650    -7.3540    -0.1990 H     1 <1>   0.1500 
@<TRIPOS>BOND
  1   1   2  1   
  2   1   3  1   
  3   2   4  1   
  4   2  21  1   
  5   2  22  1   
  6   3   5  1   
  7   3  23  1   
  8   3  24  1   
  9   4   6  1   
 10   4  25  1   
 11   4  26  1   
 12   5   6  1   
 13   5  27  1   
 14   5  28  1   
 15   6   7  1   
 16   6  29  1   
 17   7   8  1   
 18   7  30  1   
 19   7  31  1   
 20   8   9  ar  
 21   8  10  ar  
 22   9  11  ar  
 23   9  32  1   
 24  10  12  ar  
 25  10  33  1   
 26  11  13  1   
 27  11  14  ar  
 28  12  14  ar  
 29  12  34  1   
 30  13  15  1   
 31  14  35  1   
 32  15  16  ar  
 33  15  17  ar  
 34  16  18  ar  
 35  16  36  1   
 36  17  19  ar  
 37  17  37  1   
 38  18  20  ar  
 39  18  38  1   
 40  19  20  ar  
 41  19  39  1   
 42  20  40  1   
@<TRIPOS>SUBSTRUCTURE
  1 ****   9 GROUP 4 **** **** 0

# MOE 2024.06 (io_trps.svl 2023.06)
