@<TRIPOS>MOLECULE
NONAME
50 52 1 0 0 
SMALL
USER_CHARGES


@<TRIPOS>ATOM
  1 O       -3.0170    -3.5700     0.3610 O.3   1 <1>  -0.3630 
  2 C       -4.3750    -3.5960     0.3070 C.ar  1 <1>   0.0830 
  3 C       -2.2400    -3.0920    -0.7160 C.3   1 <1>   0.1200 
  4 C       -5.0540    -4.1290     1.4000 C.ar  1 <1>  -0.1440 
  5 C       -5.0980    -3.1170    -0.7850 C.ar  1 <1>  -0.1500 
  6 C       -0.7610    -3.2170    -0.3320 C.3   1 <1>   0.2000 
  7 C       -6.4390    -4.1770     1.3900 C.ar  1 <1>  -0.1500 
  8 C       -4.2950    -4.6620     2.6080 C.3   1 <1>  -0.0960 
  9 C       -6.4800    -3.1710    -0.7830 C.ar  1 <1>  -0.1500 
 10 O       -0.5660    -2.6260     0.9180 O.3   1 <1>  -0.6800 
 11 C        0.1810    -2.5450    -1.3560 C.3   1 <1>   0.3430 
 12 C       -7.1510    -3.7000     0.3040 C.ar  1 <1>  -0.1500 
 13 N        1.4830    -2.1870    -0.7140 N.4   1 <1>  -0.9590 
 14 C        2.1890    -1.0470    -1.4010 C.3   1 <1>   0.3430 
 15 C        2.3940    -3.3720    -0.5240 C.3   1 <1>   0.3430 
 16 C        3.5170    -0.6720    -0.7110 C.3   1 <1>   0.2090 
 17 C        3.7190    -2.9920     0.1680 C.3   1 <1>   0.2090 
 18 N        4.3980    -1.8650    -0.5380 N.pl3 1 <1>  -0.8380 
 19 C        5.6510    -1.5690    -0.0470 C.ar  1 <1>   0.4100 
 20 N        5.6960    -1.0940     1.1900 N.ar  1 <1>  -0.6200 
 21 C        6.7750    -1.7740    -0.8400 C.ar  1 <1>  -0.1500 
 22 C        6.9060    -0.8130     1.6490 C.ar  1 <1>   0.1600 
 23 C        8.0250    -1.4770    -0.3490 C.ar  1 <1>  -0.1500 
 24 C        8.0810    -0.9820     0.9380 C.ar  1 <1>  -0.1500 
 25 H       -2.5040    -2.0630    -0.8930 H     1 <1>   0.0800 
 26 H       -2.4630    -3.6860    -1.5850 H     1 <1>   0.0800 
 27 H       -4.6140    -2.6980    -1.6450 H     1 <1>   0.1500 
 28 H       -0.5130    -4.2610    -0.2430 H     1 <1>   0.0800 
 29 H       -6.9750    -4.5870     2.2290 H     1 <1>   0.1500 
 30 H       -3.6170    -5.4370     2.3010 H     1 <1>   0.0800 
 31 H       -4.9690    -5.0690     3.3400 H     1 <1>   0.0800 
 32 H       -3.7340    -3.8670     3.0650 H     1 <1>   0.0800 
 33 H       -7.0360    -2.8000    -1.6260 H     1 <1>   0.1500 
 34 H       -1.3350    -2.8610     1.4910 H     1 <1>   0.4000 
 35 H       -0.2990    -1.6460    -1.7060 H     1 <1>   0.0800 
 36 H        0.3350    -3.1900    -2.2050 H     1 <1>   0.0800 
 37 H       -8.2260    -3.7420     0.3060 H     1 <1>   0.1500 
 38 H        1.2080    -1.8800     0.2390 H     1 <1>   0.4500 
 39 H        1.5510    -0.1790    -1.4200 H     1 <1>   0.0800 
 40 H        2.4100    -1.3210    -2.4190 H     1 <1>   0.0800 
 41 H        2.6300    -3.8040    -1.4820 H     1 <1>   0.0800 
 42 H        1.8980    -4.1230     0.0690 H     1 <1>   0.0800 
 43 H        3.3140    -0.2320     0.2510 H     1 <1>   0.0800 
 44 H        4.0330     0.0640    -1.3030 H     1 <1>   0.0800 
 45 H        4.3750    -3.8460     0.1800 H     1 <1>   0.0800 
 46 H        3.5270    -2.7130     1.1910 H     1 <1>   0.0800 
 47 H        6.6490    -2.1630    -1.8320 H     1 <1>   0.1500 
 48 H        6.9660    -0.4250     2.6520 H     1 <1>   0.1500 
 49 H        8.9150    -1.6240    -0.9370 H     1 <1>   0.1500 
 50 H        9.0260    -0.7290     1.3840 H     1 <1>   0.1500 
@<TRIPOS>BOND
  1   1   2  1   
  2   1   3  1   
  3   2   4  ar  
  4   2   5  ar  
  5   3   6  1   
  6   3  25  1   
  7   3  26  1   
  8   4   7  ar  
  9   4   8  1   
 10   5   9  ar  
 11   5  27  1   
 12   6  10  1   
 13   6  11  1   
 14   6  28  1   
 15   7  12  ar  
 16   7  29  1   
 17   8  30  1   
 18   8  31  1   
 19   8  32  1   
 20   9  12  ar  
 21   9  33  1   
 22  10  34  1   
 23  11  13  1   
 24  11  35  1   
 25  11  36  1   
 26  12  37  1   
 27  13  14  1   
 28  13  15  1   
 29  13  38  1   
 30  14  16  1   
 31  14  39  1   
 32  14  40  1   
 33  15  17  1   
 34  15  41  1   
 35  15  42  1   
 36  16  18  1   
 37  16  43  1   
 38  16  44  1   
 39  17  18  1   
 40  17  45  1   
 41  17  46  1   
 42  18  19  1   
 43  19  20  ar  
 44  19  21  ar  
 45  20  22  ar  
 46  21  23  ar  
 47  21  47  1   
 48  22  24  ar  
 49  22  48  1   
 50  23  24  ar  
 51  23  49  1   
 52  24  50  1   
@<TRIPOS>SUBSTRUCTURE
  1 ****  13 GROUP 4 **** **** 0

# MOE 2024.06 (io_trps.svl 2023.06)
