@<TRIPOS>MOLECULE
NONAME
38 40 1 0 0 
SMALL
USER_CHARGES


@<TRIPOS>ATOM
  1 S       -0.2080    -0.3090     0.5070 S.3   1 <1>  -0.3320 
  2 C        1.5800    -0.2480     0.3930 C.ar  1 <1>   0.4120 
  3 C       -0.7710     1.3990     0.0850 C.3   1 <1>   0.2140 
  4 N        2.0830     0.9330     0.0640 N.ar  1 <1>  -0.6200 
  5 C        2.3140    -1.4020     0.6460 C.ar  1 <1>   0.0730 
  6 C       -2.2890     1.4180     0.0960 C.ar  1 <1>  -0.1440 
  7 C        3.3980     0.9920    -0.0290 C.ar  1 <1>   0.1670 
  8 C        1.6910    -2.6420     0.9970 C.1   1 <1>   0.4840 
  9 C        3.6920    -1.3080     0.5420 C.ar  1 <1>  -0.1500 
 10 C       -2.9820     1.9720     1.1630 C.ar  1 <1>   0.1600 
 11 C       -3.0060     0.8870    -0.9570 C.ar  1 <1>  -0.1500 
 12 C        4.2450    -0.0880     0.1970 C.ar  1 <1>  -0.1440 
 13 C        3.9490     2.3600    -0.3920 C.3   1 <1>  -0.0160 
 14 N        1.2640    -3.6600     1.2800 N.1   1 <1>  -0.5570 
 15 N       -4.3010     2.0470     1.2560 N.ar  1 <1>  -0.6200 
 16 C       -4.3810     0.9520    -0.8760 C.ar  1 <1>  -0.1500 
 17 C        5.7550     0.0390     0.0640 C.3   1 <1>   0.4860 
 18 C        5.4330     2.3250    -0.7550 C.3   1 <1>   0.3430 
 19 C       -4.9680     1.5340     0.2350 C.ar  1 <1>   0.1600 
 20 N        6.1810     1.4610     0.2050 N.4   1 <1>  -0.9590 
 21 C        7.6600     1.6040     0.0290 C.3   1 <1>   0.2630 
 22 H       -0.3840     1.6350    -0.8910 H     1 <1>   0.0800 
 23 H       -0.3530     2.0660     0.8180 H     1 <1>   0.0800 
 24 H        4.3020    -2.1790     0.7270 H     1 <1>   0.1500 
 25 H       -2.4240     2.3780     1.9890 H     1 <1>   0.1500 
 26 H       -2.5180     0.4380    -1.8050 H     1 <1>   0.1500 
 27 H        3.7980     3.0260     0.4390 H     1 <1>   0.0800 
 28 H        3.3970     2.7580    -1.2250 H     1 <1>   0.0800 
 29 H       -4.9940     0.5540    -1.6640 H     1 <1>   0.1500 
 30 H        6.0550    -0.3390    -0.9000 H     1 <1>   0.0800 
 31 H        6.2330    -0.5610     0.8230 H     1 <1>   0.0800 
 32 H        5.8240     3.3300    -0.7410 H     1 <1>   0.0800 
 33 H        5.5440     1.9350    -1.7550 H     1 <1>   0.0800 
 34 H       -6.0420     1.5790     0.2860 H     1 <1>   0.1500 
 35 H        5.9320     1.7590     1.1600 H     1 <1>   0.4500 
 36 H        7.9550     1.2960    -0.9610 H     1 <1>   0.0800 
 37 H        8.1850     0.9980     0.7500 H     1 <1>   0.0800 
 38 H        7.9560     2.6320     0.1700 H     1 <1>   0.0800 
@<TRIPOS>BOND
  1   1   2  1   
  2   1   3  1   
  3   2   4  ar  
  4   2   5  ar  
  5   3   6  1   
  6   3  22  1   
  7   3  23  1   
  8   4   7  ar  
  9   5   8  1   
 10   5   9  ar  
 11   6  10  ar  
 12   6  11  ar  
 13   7  12  ar  
 14   7  13  1   
 15   8  14  3   
 16   9  12  ar  
 17   9  24  1   
 18  10  15  ar  
 19  10  25  1   
 20  11  16  ar  
 21  11  26  1   
 22  12  17  1   
 23  13  18  1   
 24  13  27  1   
 25  13  28  1   
 26  15  19  ar  
 27  16  19  ar  
 28  16  29  1   
 29  17  20  1   
 30  17  30  1   
 31  17  31  1   
 32  18  20  1   
 33  18  32  1   
 34  18  33  1   
 35  19  34  1   
 36  20  21  1   
 37  20  35  1   
 38  21  36  1   
 39  21  37  1   
 40  21  38  1   
@<TRIPOS>SUBSTRUCTURE
  1 ****   2 GROUP 4 **** **** 0

# MOE 2024.06 (io_trps.svl 2023.06)
