@<TRIPOS>MOLECULE
NONAME
47 50 1 0 0 
SMALL
USER_CHARGES


@<TRIPOS>ATOM
  1 BR       1.6890    -0.9750    -2.4590 Br    1 <1>  -0.1110 
  2 C        0.5160    -2.1610    -1.4860 C.ar  1 <1>   0.1110 
  3 C        0.8610    -2.5790    -0.2080 C.ar  1 <1>   0.0820 
  4 C       -0.6500    -2.5570    -2.1090 C.ar  1 <1>  -0.1500 
  5 O        2.0310    -2.1330     0.3200 O.3   1 <1>  -0.3630 
  6 C       -0.0130    -3.4310     0.4610 C.ar  1 <1>  -0.1500 
  7 C       -1.5170    -3.4040    -1.4350 C.ar  1 <1>  -0.1440 
  8 C        2.5040    -2.5740     1.5740 C.3   1 <1>   0.0400 
  9 C       -1.1990    -3.8420    -0.1490 C.ar  1 <1>   0.0820 
 10 C       -2.8060    -3.8500    -2.0990 C.3   1 <1>   0.4870 
 11 O       -2.0960    -4.6640     0.4620 O.3   1 <1>  -0.3630 
 12 N       -3.9460    -3.3850    -1.2770 N.4   1 <1>  -0.9590 
 13 C       -1.8060    -5.2860     1.6990 C.3   1 <1>   0.0400 
 14 C       -5.2270    -4.0450    -1.6430 C.3   1 <1>   0.5230 
 15 C       -4.0510    -1.8870    -1.1880 C.3   1 <1>   0.3430 
 16 C       -6.2920    -3.4930    -0.7240 C.2   1 <1>  -0.3320 
 17 C       -4.9650    -1.4630    -0.0270 C.3   1 <1>   0.0210 
 18 N       -7.5170    -4.0620    -0.4930 N.pl3 1 <1>   0.0330 
 19 C       -6.1860    -2.3550    -0.0030 C.2   1 <1>  -0.1810 
 20 C       -8.1870    -3.2650     0.4010 C.ar  1 <1>  -0.1520 
 21 C       -7.3770    -2.1830     0.7300 C.ar  1 <1>   0.0000 
 22 C       -9.4600    -3.4030     0.9600 C.ar  1 <1>  -0.1500 
 23 C       -7.8390    -1.2200     1.6340 C.ar  1 <1>  -0.1500 
 24 C       -9.9030    -2.4490     1.8470 C.ar  1 <1>  -0.1500 
 25 C       -9.0930    -1.3580     2.1840 C.ar  1 <1>  -0.1500 
 26 H       -0.8550    -2.2010    -3.1040 H     1 <1>   0.1500 
 27 H        0.2320    -3.7650     1.4490 H     1 <1>   0.1500 
 28 H        3.4570    -2.1080     1.7520 H     1 <1>   0.0800 
 29 H        2.6220    -3.6430     1.5480 H     1 <1>   0.0800 
 30 H        1.8070    -2.2770     2.3370 H     1 <1>   0.0800 
 31 H       -2.8100    -4.9270    -2.1570 H     1 <1>   0.0800 
 32 H       -2.8730    -3.4490    -3.0970 H     1 <1>   0.0800 
 33 H       -3.7270    -3.7120    -0.3220 H     1 <1>   0.4500 
 34 H       -1.6950    -4.5310     2.4580 H     1 <1>   0.0800 
 35 H       -0.9030    -5.8640     1.5990 H     1 <1>   0.0800 
 36 H       -2.6250    -5.9360     1.9520 H     1 <1>   0.0800 
 37 H       -5.1420    -5.1120    -1.5100 H     1 <1>   0.0800 
 38 H       -5.4840    -3.8350    -2.6690 H     1 <1>   0.0800 
 39 H       -4.4590    -1.5040    -2.1100 H     1 <1>   0.0800 
 40 H       -3.0770    -1.4490    -1.0420 H     1 <1>   0.0800 
 41 H       -5.2600    -0.4370    -0.1560 H     1 <1>   0.0800 
 42 H       -4.4380    -1.5480     0.9060 H     1 <1>   0.0800 
 43 H       -7.9080    -4.9240    -0.8890 H     1 <1>   0.2700 
 44 H      -10.0800    -4.2420     0.6990 H     1 <1>   0.1500 
 45 H       -7.2120    -0.3860     1.8870 H     1 <1>   0.1500 
 46 H      -10.8790    -2.5320     2.2920 H     1 <1>   0.1500 
 47 H       -9.4640    -0.6270     2.8800 H     1 <1>   0.1500 
@<TRIPOS>BOND
  1   1   2  1   
  2   2   3  ar  
  3   2   4  ar  
  4   3   5  1   
  5   3   6  ar  
  6   4   7  ar  
  7   4  26  1   
  8   5   8  1   
  9   6   9  ar  
 10   6  27  1   
 11   7   9  ar  
 12   7  10  1   
 13   8  28  1   
 14   8  29  1   
 15   8  30  1   
 16   9  11  1   
 17  10  12  1   
 18  10  31  1   
 19  10  32  1   
 20  11  13  1   
 21  12  14  1   
 22  12  15  1   
 23  12  33  1   
 24  13  34  1   
 25  13  35  1   
 26  13  36  1   
 27  14  16  1   
 28  14  37  1   
 29  14  38  1   
 30  15  17  1   
 31  15  39  1   
 32  15  40  1   
 33  16  18  1   
 34  16  19  2   
 35  17  19  1   
 36  17  41  1   
 37  17  42  1   
 38  18  20  1   
 39  18  43  1   
 40  19  21  1   
 41  20  21  ar  
 42  20  22  ar  
 43  21  23  ar  
 44  22  24  ar  
 45  22  44  1   
 46  23  25  ar  
 47  23  45  1   
 48  24  25  ar  
 49  24  46  1   
 50  25  47  1   
@<TRIPOS>SUBSTRUCTURE
  1 ****  12 GROUP 4 **** **** 0

# MOE 2024.06 (io_trps.svl 2023.06)
