@<TRIPOS>MOLECULE
NONAME
34 35 1 0 0 
SMALL
USER_CHARGES


@<TRIPOS>ATOM
  1 CL       0.5060    -0.4170    -1.6880 Cl    1 <1>  -0.1770 
  2 C        0.2150    -1.8230    -0.6870 C.ar  1 <1>   0.1770 
  3 C        1.2830    -2.4920    -0.0910 C.ar  1 <1>   0.0830 
  4 C       -1.0900    -2.2410    -0.5120 C.ar  1 <1>  -0.1500 
  5 O        2.5370    -2.0170    -0.3130 O.3   1 <1>  -0.3630 
  6 C        1.0190    -3.6100     0.7010 C.ar  1 <1>  -0.1500 
  7 C       -1.3240    -3.3510     0.2770 C.ar  1 <1>   0.1770 
  8 C        3.6820    -2.6670     0.1900 C.3   1 <1>   0.1200 
  9 C       -0.2870    -4.0370     0.8830 C.ar  1 <1>  -0.1500 
 10 CL      -2.9640    -3.8990     0.5130 Cl    1 <1>  -0.1770 
 11 C        4.9050    -1.8550    -0.2420 C.3   1 <1>   0.1100 
 12 N        6.1670    -2.4780     0.2170 N.3   1 <1>  -0.8100 
 13 C        6.5560    -3.6330    -0.6240 C.3   1 <1>   0.1100 
 14 C        7.2470    -1.4720     0.2840 C.3   1 <1>   0.1100 
 15 C        7.8620    -4.2810    -0.1190 C.3   1 <1>   0.3430 
 16 C        8.5610    -2.0880     0.8050 C.3   1 <1>   0.3430 
 17 N        8.9720    -3.2760    -0.0140 N.4   1 <1>  -0.9060 
 18 H       -1.9020    -1.7160    -0.9770 H     1 <1>   0.1500 
 19 H        1.8090    -4.1560     1.1830 H     1 <1>   0.1500 
 20 H        3.7060    -3.6600    -0.2200 H     1 <1>   0.0800 
 21 H        3.6150    -2.6940     1.2630 H     1 <1>   0.0800 
 22 H       -0.5060    -4.8970     1.4910 H     1 <1>   0.1500 
 23 H        4.8080    -0.8760     0.1960 H     1 <1>   0.0800 
 24 H        4.9110    -1.7480    -1.3140 H     1 <1>   0.0800 
 25 H        6.6780    -3.3200    -1.6470 H     1 <1>   0.0800 
 26 H        5.7770    -4.3760    -0.5980 H     1 <1>   0.0800 
 27 H        6.9510    -0.6820     0.9550 H     1 <1>   0.0800 
 28 H        7.4070    -1.0350    -0.6870 H     1 <1>   0.0800 
 29 H        8.1470    -5.0780    -0.7870 H     1 <1>   0.0800 
 30 H        7.6710    -4.7120     0.8500 H     1 <1>   0.0800 
 31 H        8.4090    -2.3880     1.8290 H     1 <1>   0.0800 
 32 H        9.3370    -1.3400     0.7900 H     1 <1>   0.0800 
 33 H        9.2210    -2.9580    -0.9570 H     1 <1>   0.4500 
 34 H        9.8050    -3.7140     0.3980 H     1 <1>   0.4500 
@<TRIPOS>BOND
  1   1   2  1   
  2   2   3  ar  
  3   2   4  ar  
  4   3   5  1   
  5   3   6  ar  
  6   4   7  ar  
  7   4  18  1   
  8   5   8  1   
  9   6   9  ar  
 10   6  19  1   
 11   7   9  ar  
 12   7  10  1   
 13   8  11  1   
 14   8  20  1   
 15   8  21  1   
 16   9  22  1   
 17  11  12  1   
 18  11  23  1   
 19  11  24  1   
 20  12  13  1   
 21  12  14  1   
 22  13  15  1   
 23  13  25  1   
 24  13  26  1   
 25  14  16  1   
 26  14  27  1   
 27  14  28  1   
 28  15  17  1   
 29  15  29  1   
 30  15  30  1   
 31  16  17  1   
 32  16  31  1   
 33  16  32  1   
 34  17  33  1   
 35  17  34  1   
@<TRIPOS>SUBSTRUCTURE
  1 ****   8 GROUP 4 **** **** 0

# MOE 2024.06 (io_trps.svl 2023.06)
