@<TRIPOS>MOLECULE
NONAME
32 33 1 0 0 
SMALL
USER_CHARGES


@<TRIPOS>ATOM
  1 F        0.7930    -0.2830     0.7870 F     1 <1>  -0.1900 
  2 C        0.7040    -1.5380     0.4200 C.ar  1 <1>   0.1900 
  3 C        1.8620    -2.2570     0.1400 C.ar  1 <1>   0.0820 
  4 C       -0.5570    -2.0950     0.3270 C.ar  1 <1>  -0.1500 
  5 O        3.0670    -1.6320     0.2570 O.3   1 <1>  -0.3630 
  6 C        1.7230    -3.5890    -0.2480 C.ar  1 <1>  -0.1500 
  7 C       -0.6750    -3.4190    -0.0600 C.ar  1 <1>  -0.1500 
  8 C        4.2750    -2.3030    -0.0110 C.3   1 <1>   0.1200 
  9 C        0.4620    -4.1600    -0.3450 C.ar  1 <1>  -0.1500 
 10 C        5.4190    -1.3150     0.2190 C.3   1 <1>  -0.1600 
 11 C        6.7820    -1.9670    -0.0490 C.3   1 <1>  -0.1600 
 12 C        7.9260    -0.9720     0.1840 C.3   1 <1>   0.0960 
 13 N        9.2260    -1.6190    -0.0710 N.pl3 1 <1>   0.0480 
 14 C       10.0300    -2.2450     0.8170 C.2   1 <1>   0.0360 
 15 C        9.8700    -1.7270    -1.2470 C.2   1 <1>  -0.3020 
 16 N       11.1120    -2.7300     0.2990 N.2   1 <1>  -0.5650 
 17 C       11.0130    -2.4040    -1.0030 C.2   1 <1>   0.0770 
 18 H       -1.4240    -1.5010     0.5520 H     1 <1>   0.1500 
 19 H        2.5780    -4.1970    -0.4770 H     1 <1>   0.1500 
 20 H       -1.6480    -3.8730    -0.1390 H     1 <1>   0.1500 
 21 H        4.2580    -2.6380    -1.0340 H     1 <1>   0.0800 
 22 H        4.3540    -3.1420     0.6580 H     1 <1>   0.0800 
 23 H        0.3640    -5.1890    -0.6450 H     1 <1>   0.1500 
 24 H        5.3770    -0.9680     1.2370 H     1 <1>   0.0800 
 25 H        5.2860    -0.4720    -0.4380 H     1 <1>   0.0800 
 26 H        6.8180    -2.3150    -1.0680 H     1 <1>   0.0800 
 27 H        6.9080    -2.8130     0.6060 H     1 <1>   0.0800 
 28 H        7.9100    -0.6180     1.2000 H     1 <1>   0.0800 
 29 H        7.8260    -0.1280    -0.4750 H     1 <1>   0.0800 
 30 H        9.7760    -2.3240     1.8590 H     1 <1>   0.1500 
 31 H        9.4930    -1.3280    -2.1710 H     1 <1>   0.1500 
 32 H       11.7830    -2.6780    -1.7050 H     1 <1>   0.1500 
@<TRIPOS>BOND
  1   1   2  1   
  2   2   3  ar  
  3   2   4  ar  
  4   3   5  1   
  5   3   6  ar  
  6   4   7  ar  
  7   4  18  1   
  8   5   8  1   
  9   6   9  ar  
 10   6  19  1   
 11   7   9  ar  
 12   7  20  1   
 13   8  10  1   
 14   8  21  1   
 15   8  22  1   
 16   9  23  1   
 17  10  11  1   
 18  10  24  1   
 19  10  25  1   
 20  11  12  1   
 21  11  26  1   
 22  11  27  1   
 23  12  13  1   
 24  12  28  1   
 25  12  29  1   
 26  13  14  1   
 27  13  15  1   
 28  14  16  2   
 29  14  30  1   
 30  15  17  2   
 31  15  31  1   
 32  16  17  1   
 33  17  32  1   
@<TRIPOS>SUBSTRUCTURE
  1 ****   8 GROUP 4 **** **** 0

# MOE 2024.06 (io_trps.svl 2023.06)
