@<TRIPOS>MOLECULE
NONAME
40 42 1 0 0 
SMALL
USER_CHARGES


@<TRIPOS>ATOM
  1 CL      -0.5300    -1.8780     2.5740 Cl    1 <1>  -0.1770 
  2 C       -1.5570    -1.8090     1.1520 C.ar  1 <1>   0.1770 
  3 C       -1.1560    -2.4080    -0.0490 C.ar  1 <1>   0.1000 
  4 C       -2.7630    -1.1450     1.2670 C.ar  1 <1>  -0.1500 
  5 N        0.0520    -3.0940    -0.2310 N.pl3 1 <1>  -0.8380 
  6 C       -2.0210    -2.3120    -1.1320 C.ar  1 <1>  -0.1500 
  7 C       -3.6060    -1.0650     0.1710 C.ar  1 <1>  -0.1500 
  8 C        0.1830    -4.4000     0.4830 C.3   1 <1>   0.2090 
  9 C        1.2910    -2.2590    -0.2210 C.3   1 <1>   0.2090 
 10 C       -3.2320    -1.6500    -1.0270 C.ar  1 <1>  -0.1500 
 11 C        1.4040    -5.1910    -0.0320 C.3   1 <1>   0.3430 
 12 C        2.5030    -3.0660    -0.7300 C.3   1 <1>   0.3430 
 13 N        2.6720    -4.3770     0.0030 N.4   1 <1>  -0.9590 
 14 C        3.8430    -5.1490    -0.4900 C.3   1 <1>   0.4860 
 15 C        5.1040    -4.3430    -0.2500 C.ar  1 <1>  -0.1430 
 16 C        5.5230    -4.0600     1.0400 C.ar  1 <1>   0.1900 
 17 C        5.8710    -3.8680    -1.3050 C.ar  1 <1>  -0.1500 
 18 F        4.8060    -4.4910     2.0450 F     1 <1>  -0.1900 
 19 C        6.6630    -3.3280     1.3110 C.ar  1 <1>  -0.1500 
 20 C        7.0170    -3.1290    -1.0540 C.ar  1 <1>  -0.1500 
 21 C        7.4140    -2.8590     0.2470 C.ar  1 <1>  -0.1500 
 22 H       -3.0410    -0.6960     2.2030 H     1 <1>   0.1500 
 23 H       -1.7380    -2.7630    -2.0660 H     1 <1>   0.1500 
 24 H       -4.5490    -0.5500     0.2500 H     1 <1>   0.1500 
 25 H       -0.7110    -4.9800     0.3250 H     1 <1>   0.0800 
 26 H        0.2830    -4.2340     1.5410 H     1 <1>   0.0800 
 27 H        1.4890    -1.9040     0.7750 H     1 <1>   0.0800 
 28 H        1.1440    -1.4000    -0.8530 H     1 <1>   0.0800 
 29 H       -3.8860    -1.5880    -1.8800 H     1 <1>   0.1500 
 30 H        1.1980    -5.4950    -1.0450 H     1 <1>   0.0800 
 31 H        1.5200    -6.0800     0.5650 H     1 <1>   0.0800 
 32 H        3.3920    -2.4660    -0.6200 H     1 <1>   0.0800 
 33 H        2.3600    -3.2560    -1.7800 H     1 <1>   0.0800 
 34 H        2.8750    -4.1480     0.9870 H     1 <1>   0.4500 
 35 H        3.7350    -5.3590    -1.5420 H     1 <1>   0.0800 
 36 H        3.9190    -6.0840     0.0410 H     1 <1>   0.0800 
 37 H        5.5950    -4.0650    -2.3280 H     1 <1>   0.1500 
 38 H        6.9570    -3.1300     2.3270 H     1 <1>   0.1500 
 39 H        7.6120    -2.7620    -1.8750 H     1 <1>   0.1500 
 40 H        8.3080    -2.2860     0.4300 H     1 <1>   0.1500 
@<TRIPOS>BOND
  1   1   2  1   
  2   2   3  ar  
  3   2   4  ar  
  4   3   5  1   
  5   3   6  ar  
  6   4   7  ar  
  7   4  22  1   
  8   5   8  1   
  9   5   9  1   
 10   6  10  ar  
 11   6  23  1   
 12   7  10  ar  
 13   7  24  1   
 14   8  11  1   
 15   8  25  1   
 16   8  26  1   
 17   9  12  1   
 18   9  27  1   
 19   9  28  1   
 20  10  29  1   
 21  11  13  1   
 22  11  30  1   
 23  11  31  1   
 24  12  13  1   
 25  12  32  1   
 26  12  33  1   
 27  13  14  1   
 28  13  34  1   
 29  14  15  1   
 30  14  35  1   
 31  14  36  1   
 32  15  16  ar  
 33  15  17  ar  
 34  16  18  1   
 35  16  19  ar  
 36  17  20  ar  
 37  17  37  1   
 38  19  21  ar  
 39  19  38  1   
 40  20  21  ar  
 41  20  39  1   
 42  21  40  1   
@<TRIPOS>SUBSTRUCTURE
  1 ****  12 GROUP 4 **** **** 0

# MOE 2024.06 (io_trps.svl 2023.06)
