@<TRIPOS>MOLECULE
NONAME
40 41 1 0 0 
SMALL
USER_CHARGES


@<TRIPOS>ATOM
  1 BR      -1.7070     1.9990     2.4570 Br    1 <1>  -0.1110 
  2 C       -0.8810     2.6750     0.8490 C.ar  1 <1>   0.1110 
  3 C       -1.5240     2.5180    -0.3710 C.ar  1 <1>   0.0820 
  4 C        0.3420     3.3120     0.9620 C.ar  1 <1>  -0.1500 
  5 O       -2.7140     1.8770    -0.4540 O.3   1 <1>  -0.3630 
  6 C       -0.8940     3.0240    -1.5000 C.ar  1 <1>   0.1770 
  7 C        0.9560     3.8120    -0.1780 C.ar  1 <1>  -0.1440 
  8 C       -3.8600     2.6910    -0.3640 C.3   1 <1>   0.1200 
  9 CL      -1.6440     2.8660    -3.0740 Cl    1 <1>  -0.1770 
 10 C        0.3310     3.6660    -1.4100 C.ar  1 <1>  -0.1500 
 11 C        2.2980     4.5160    -0.0800 C.3   1 <1>  -0.0960 
 12 C       -5.0900     1.7830    -0.4190 C.3   1 <1>   0.1100 
 13 N       -6.3460     2.5500    -0.2650 N.3   1 <1>  -0.8100 
 14 C       -7.5020     1.7630    -0.7610 C.3   1 <1>   0.1100 
 15 C       -6.5800     2.9670     1.1430 C.3   1 <1>   0.1100 
 16 C       -8.8430     2.5290    -0.6290 C.3   1 <1>   0.3430 
 17 C       -7.9260     3.7120     1.3280 C.3   1 <1>   0.3430 
 18 N       -8.6430     3.8670     0.0200 N.4   1 <1>  -0.9590 
 19 C       -9.8930     4.6750     0.1150 C.3   1 <1>   0.2630 
 20 H        0.8020     3.4130     1.9290 H     1 <1>   0.1500 
 21 H       -3.8580     3.3750    -1.1950 H     1 <1>   0.0800 
 22 H       -3.8110     3.2290     0.5640 H     1 <1>   0.0800 
 23 H        0.7880     4.0470    -2.3060 H     1 <1>   0.1500 
 24 H        2.8610     4.1420     0.7560 H     1 <1>   0.0800 
 25 H        2.1470     5.5730     0.0490 H     1 <1>   0.0800 
 26 H        2.8740     4.3550    -0.9740 H     1 <1>   0.0800 
 27 H       -5.0190     1.0300     0.3480 H     1 <1>   0.0800 
 28 H       -5.0850     1.2930    -1.3780 H     1 <1>   0.0800 
 29 H       -7.5710     0.8350    -0.2190 H     1 <1>   0.0800 
 30 H       -7.3480     1.5180    -1.7990 H     1 <1>   0.0800 
 31 H       -5.7850     3.6190     1.4640 H     1 <1>   0.0800 
 32 H       -6.5660     2.1040     1.7880 H     1 <1>   0.0800 
 33 H       -9.5320     1.9360    -0.0510 H     1 <1>   0.0800 
 34 H       -9.2660     2.6590    -1.6110 H     1 <1>   0.0800 
 35 H       -7.7310     4.6810     1.7580 H     1 <1>   0.0800 
 36 H       -8.5400     3.1640     2.0230 H     1 <1>   0.0800 
 37 H       -7.9480     4.3310    -0.5880 H     1 <1>   0.4500 
 38 H      -10.6110     4.1810     0.7500 H     1 <1>   0.0800 
 39 H      -10.3280     4.8060    -0.8620 H     1 <1>   0.0800 
 40 H       -9.6780     5.6470     0.5270 H     1 <1>   0.0800 
@<TRIPOS>BOND
  1   1   2  1   
  2   2   3  ar  
  3   2   4  ar  
  4   3   5  1   
  5   3   6  ar  
  6   4   7  ar  
  7   4  20  1   
  8   5   8  1   
  9   6   9  1   
 10   6  10  ar  
 11   7  10  ar  
 12   7  11  1   
 13   8  12  1   
 14   8  21  1   
 15   8  22  1   
 16  10  23  1   
 17  11  24  1   
 18  11  25  1   
 19  11  26  1   
 20  12  13  1   
 21  12  27  1   
 22  12  28  1   
 23  13  14  1   
 24  13  15  1   
 25  14  16  1   
 26  14  29  1   
 27  14  30  1   
 28  15  17  1   
 29  15  31  1   
 30  15  32  1   
 31  16  18  1   
 32  16  33  1   
 33  16  34  1   
 34  17  18  1   
 35  17  35  1   
 36  17  36  1   
 37  18  19  1   
 38  18  37  1   
 39  19  38  1   
 40  19  39  1   
 41  19  40  1   
@<TRIPOS>SUBSTRUCTURE
  1 ****   8 GROUP 4 **** **** 0

# MOE 2024.06 (io_trps.svl 2023.06)
