@<TRIPOS>MOLECULE
NONAME
44 45 1 0 0 
SMALL
USER_CHARGES


@<TRIPOS>ATOM
  1 O        0.2230     0.3970    -2.1080 O.2   1 <1>  -0.5700 
  2 C       -0.0020    -0.5560    -1.4000 C.2   1 <1>   0.5690 
  3 N        0.9090    -1.1430    -0.5700 N.am  1 <1>  -0.5470 
  4 C       -1.3980    -1.1800    -1.3980 C.3   1 <1>   0.1710 
  5 C        2.2520    -0.8910    -0.2430 C.ar  1 <1>   0.1170 
  6 N       -1.7520    -1.8720    -0.1140 N.3   1 <1>  -0.8100 
  7 C        2.8240    -1.5290     0.8650 C.ar  1 <1>  -0.1430 
  8 C        3.0320    -0.0260    -1.0030 C.ar  1 <1>  -0.1500 
  9 C       -1.9410    -0.9130     1.0020 C.3   1 <1>   0.1100 
 10 C       -2.9900    -2.6700    -0.2660 C.3   1 <1>   0.1100 
 11 C        4.1590    -1.2920     1.1910 C.ar  1 <1>  -0.1430 
 12 C        1.9530    -2.4800     1.6940 C.3   1 <1>  -0.0970 
 13 C        4.3510     0.2100    -0.6770 C.ar  1 <1>  -0.1500 
 14 C       -3.2090    -0.0230     0.8840 C.3   1 <1>   0.2000 
 15 C       -4.3160    -1.8650    -0.1540 C.3   1 <1>   0.2000 
 16 C        4.9110    -0.4220     0.4160 C.ar  1 <1>  -0.1500 
 17 C        4.8490    -1.9550     2.3770 C.3   1 <1>  -0.0970 
 18 O       -4.0990    -0.4840    -0.0960 O.3   1 <1>  -0.5600 
 19 C       -2.8750     1.4250     0.5250 C.3   1 <1>  -0.2400 
 20 C       -5.1750    -2.2840     1.0450 C.3   1 <1>  -0.2400 
 21 H        0.4620    -1.8780    -0.0170 H     1 <1>   0.3700 
 22 H       -1.4170    -1.8960    -2.1990 H     1 <1>   0.0800 
 23 H       -2.1200    -0.4200    -1.6330 H     1 <1>   0.0800 
 24 H        2.6130     0.4690    -1.8580 H     1 <1>   0.1500 
 25 H       -1.0700    -0.2900     1.1110 H     1 <1>   0.0800 
 26 H       -2.0220    -1.4750     1.9150 H     1 <1>   0.0800 
 27 H       -2.9900    -3.4340     0.4920 H     1 <1>   0.0800 
 28 H       -2.9740    -3.1880    -1.2090 H     1 <1>   0.0800 
 29 H        1.6540    -3.3170     1.0890 H     1 <1>   0.0800 
 30 H        1.0730    -1.9650     2.0360 H     1 <1>   0.0800 
 31 H        2.4560    -2.8640     2.5590 H     1 <1>   0.0800 
 32 H        4.9400     0.8830    -1.2740 H     1 <1>   0.1500 
 33 H       -3.7290    -0.0250     1.8260 H     1 <1>   0.0800 
 34 H       -4.8910    -2.0390    -1.0470 H     1 <1>   0.0800 
 35 H        5.9410    -0.2280     0.6560 H     1 <1>   0.1500 
 36 H        4.3660    -1.6640     3.2920 H     1 <1>   0.0800 
 37 H        5.8820    -1.6650     2.4380 H     1 <1>   0.0800 
 38 H        4.8090    -3.0240     2.2760 H     1 <1>   0.0800 
 39 H       -2.3590     1.4770    -0.4150 H     1 <1>   0.0800 
 40 H       -2.2470     1.8570     1.2830 H     1 <1>   0.0800 
 41 H       -3.7800     2.0020     0.4630 H     1 <1>   0.0800 
 42 H       -4.6260    -2.1990     1.9650 H     1 <1>   0.0800 
 43 H       -5.4810    -3.3080     0.9310 H     1 <1>   0.0800 
 44 H       -6.0570    -1.6710     1.0940 H     1 <1>   0.0800 
@<TRIPOS>BOND
  1   1   2  2   
  2   2   3  am  
  3   2   4  1   
  4   3   5  1   
  5   3  21  1   
  6   4   6  1   
  7   4  22  1   
  8   4  23  1   
  9   5   7  ar  
 10   5   8  ar  
 11   6   9  1   
 12   6  10  1   
 13   7  11  ar  
 14   7  12  1   
 15   8  13  ar  
 16   8  24  1   
 17   9  14  1   
 18   9  25  1   
 19   9  26  1   
 20  10  15  1   
 21  10  27  1   
 22  10  28  1   
 23  11  16  ar  
 24  11  17  1   
 25  12  29  1   
 26  12  30  1   
 27  12  31  1   
 28  13  16  ar  
 29  13  32  1   
 30  14  18  1   
 31  14  19  1   
 32  14  33  1   
 33  15  18  1   
 34  15  20  1   
 35  15  34  1   
 36  16  35  1   
 37  17  36  1   
 38  17  37  1   
 39  17  38  1   
 40  19  39  1   
 41  19  40  1   
 42  19  41  1   
 43  20  42  1   
 44  20  43  1   
 45  20  44  1   
@<TRIPOS>SUBSTRUCTURE
  1 ****   3 GROUP 4 **** **** 0

# MOE 2024.06 (io_trps.svl 2023.06)
