@<TRIPOS>MOLECULE
NONAME
50 52 1 0 0 
SMALL
USER_CHARGES


@<TRIPOS>ATOM
  1 CL      -4.8220    -1.0930    -1.6030 Cl    1 <1>  -0.1770 
  2 C       -4.6350     0.6140    -1.3030 C.ar  1 <1>   0.1770 
  3 C       -5.2770     1.5200    -2.1250 C.ar  1 <1>  -0.1500 
  4 C       -3.8510     1.0360    -0.2470 C.ar  1 <1>  -0.1500 
  5 C       -5.1410     2.8750    -1.8770 C.ar  1 <1>  -0.1500 
  6 C       -3.7170     2.3930     0.0000 C.ar  1 <1>  -0.1500 
  7 C       -4.3690     3.3170    -0.8080 C.ar  1 <1>  -0.1430 
  8 C       -4.2660     4.8030    -0.5120 C.3   1 <1>   0.4870 
  9 N       -5.5700     5.2190     0.0540 N.4   1 <1>  -0.9590 
 10 C       -5.8630     6.6890     0.0600 C.3   1 <1>   0.3430 
 11 C       -5.8960     4.6030     1.3830 C.3   1 <1>   0.3430 
 12 C       -7.3510     6.9350     0.4360 C.3   1 <1>   0.1100 
 13 C       -7.3700     4.8880     1.7560 C.3   1 <1>   0.1100 
 14 N       -8.0710     5.6630     0.6950 N.3   1 <1>  -0.8100 
 15 C       -9.5140     5.8740     1.0400 C.3   1 <1>   0.1710 
 16 C      -10.3220     4.5720     1.1060 C.2   1 <1>   0.5690 
 17 O      -11.1540     4.4310     1.9680 O.2   1 <1>  -0.5700 
 18 N      -10.0270     3.5990     0.2080 N.am  1 <1>  -0.7300 
 19 C      -10.5600     2.2290     0.1930 C.3   1 <1>   0.2200 
 20 C       -9.5190     1.2970     0.8020 C.3   1 <1>  -0.1600 
 21 C      -10.6360     1.7580    -1.2540 C.3   1 <1>  -0.1600 
 22 C       -8.4840     1.0540    -0.3020 C.3   1 <1>  -0.1600 
 23 C       -9.2150     1.3110    -1.6270 C.3   1 <1>  -0.1600 
 24 H       -5.8730     1.1600    -2.9460 H     1 <1>   0.1500 
 25 H       -3.3550     0.3060     0.3700 H     1 <1>   0.1500 
 26 H       -5.6420     3.5720    -2.5280 H     1 <1>   0.1500 
 27 H       -3.1020     2.7110     0.8250 H     1 <1>   0.1500 
 28 H       -4.0670     5.3370    -1.4270 H     1 <1>   0.0800 
 29 H       -3.4690     4.9980     0.1870 H     1 <1>   0.0800 
 30 H       -6.3080     4.8300    -0.5510 H     1 <1>   0.4500 
 31 H       -5.6760     7.1090    -0.9150 H     1 <1>   0.0800 
 32 H       -5.2250     7.1940     0.7660 H     1 <1>   0.0800 
 33 H       -5.2470     4.9950     2.1480 H     1 <1>   0.0800 
 34 H       -5.7520     3.5360     1.3410 H     1 <1>   0.0800 
 35 H       -7.8330     7.4600    -0.3710 H     1 <1>   0.0800 
 36 H       -7.3980     7.5690     1.3070 H     1 <1>   0.0800 
 37 H       -7.4040     5.4270     2.6890 H     1 <1>   0.0800 
 38 H       -7.8670     3.9460     1.9150 H     1 <1>   0.0800 
 39 H       -9.9730     6.4980     0.2950 H     1 <1>   0.0800 
 40 H       -9.5960     6.3750     1.9890 H     1 <1>   0.0800 
 41 H       -9.2700     3.7710    -0.4510 H     1 <1>   0.3700 
 42 H      -11.5100     2.1840     0.7010 H     1 <1>   0.0800 
 43 H      -10.0010     0.3650     1.0410 H     1 <1>   0.0800 
 44 H       -9.0910     1.6980     1.7030 H     1 <1>   0.0800 
 45 H      -11.0230     2.5170    -1.9120 H     1 <1>   0.0800 
 46 H      -11.2910     0.9050    -1.2960 H     1 <1>   0.0800 
 47 H       -8.0950     0.0510    -0.2530 H     1 <1>   0.0800 
 48 H       -7.6680     1.7480    -0.1970 H     1 <1>   0.0800 
 49 H       -8.7140     2.0880    -2.1780 H     1 <1>   0.0800 
 50 H       -9.2460     0.4210    -2.2330 H     1 <1>   0.0800 
@<TRIPOS>BOND
  1   1   2  1   
  2   2   3  ar  
  3   2   4  ar  
  4   3   5  ar  
  5   3  24  1   
  6   4   6  ar  
  7   4  25  1   
  8   5   7  ar  
  9   5  26  1   
 10   6   7  ar  
 11   6  27  1   
 12   7   8  1   
 13   8   9  1   
 14   8  28  1   
 15   8  29  1   
 16   9  10  1   
 17   9  11  1   
 18   9  30  1   
 19  10  12  1   
 20  10  31  1   
 21  10  32  1   
 22  11  13  1   
 23  11  33  1   
 24  11  34  1   
 25  12  14  1   
 26  12  35  1   
 27  12  36  1   
 28  13  14  1   
 29  13  37  1   
 30  13  38  1   
 31  14  15  1   
 32  15  16  1   
 33  15  39  1   
 34  15  40  1   
 35  16  17  2   
 36  16  18  am  
 37  18  19  1   
 38  18  41  1   
 39  19  20  1   
 40  19  21  1   
 41  19  42  1   
 42  20  22  1   
 43  20  43  1   
 44  20  44  1   
 45  21  23  1   
 46  21  45  1   
 47  21  46  1   
 48  22  23  1   
 49  22  47  1   
 50  22  48  1   
 51  23  49  1   
 52  23  50  1   
@<TRIPOS>SUBSTRUCTURE
  1 ****  11 GROUP 4 **** **** 0

# MOE 2024.06 (io_trps.svl 2023.06)
