@<TRIPOS>MOLECULE
NONAME
52 54 1 0 0 
SMALL
USER_CHARGES


@<TRIPOS>ATOM
  1 O        0.1740     0.4180     0.4460 O.2   1 <1>  -0.5700 
  2 C        0.6060    -0.5030     1.1120 C.2   1 <1>   0.6900 
  3 N        1.9240    -0.5270     1.4860 N.am  1 <1>  -0.6600 
  4 N       -0.2110    -1.5150     1.5330 N.am  1 <1>  -0.5470 
  5 C        2.7120    -1.7900     1.6480 C.3   1 <1>   0.1400 
  6 C        2.7780     0.6950     1.3570 C.3   1 <1>   0.1400 
  7 C       -1.5210    -1.8500     1.1850 C.ar  1 <1>   0.1170 
  8 C        3.7400    -1.9430     0.5150 C.3   1 <1>   0.1400 
  9 C        3.8050     0.5380     0.2250 C.3   1 <1>   0.1400 
 10 C       -2.2750    -2.6270     2.0560 C.ar  1 <1>  -0.1500 
 11 C       -2.1150    -1.4590    -0.0110 C.ar  1 <1>  -0.1500 
 12 N        4.5960    -0.7230     0.3970 N.am  1 <1>  -0.6600 
 13 C       -3.5710    -2.9930     1.7470 C.ar  1 <1>  -0.1500 
 14 C       -3.4120    -1.8240    -0.3180 C.ar  1 <1>  -0.1500 
 15 C        5.9720    -0.8010     0.3980 C.2   1 <1>   0.5690 
 16 C       -4.1820    -2.6030     0.5520 C.ar  1 <1>   0.0860 
 17 O        6.5200    -1.8720     0.5540 O.2   1 <1>  -0.5700 
 18 C        6.8510     0.4670     0.2270 C.3   1 <1>   0.2610 
 19 C       -5.5430    -2.9940     0.2440 C.2   1 <1>   0.6340 
 20 O        6.5830     1.1170    -0.9880 O.3   1 <1>  -0.5600 
 21 C        8.3600     0.2270     0.1530 C.3   1 <1>  -0.1600 
 22 O       -6.2260    -3.6710     0.9870 O.2   1 <1>  -0.5700 
 23 O       -6.0700    -2.5900    -0.9170 O.3   1 <1>  -0.4300 
 24 C        7.3510     0.5540    -2.0040 C.3   1 <1>   0.1200 
 25 C        8.6080     0.0060    -1.3320 C.3   1 <1>  -0.1600 
 26 C       -7.3870    -2.9270    -1.2890 C.3   1 <1>   0.1200 
 27 C       -7.6660    -2.3110    -2.6560 C.3   1 <1>  -0.2400 
 28 H        0.1820    -2.0170     2.3200 H     1 <1>   0.3700 
 29 H        2.0650    -2.6480     1.6410 H     1 <1>   0.0800 
 30 H        3.2280    -1.7670     2.5910 H     1 <1>   0.0800 
 31 H        3.2960     0.8600     2.2850 H     1 <1>   0.0800 
 32 H        2.1690     1.5620     1.1660 H     1 <1>   0.0800 
 33 H        3.2230    -2.0980    -0.4150 H     1 <1>   0.0800 
 34 H        4.3420    -2.8150     0.7040 H     1 <1>   0.0800 
 35 H        4.4410     1.4030     0.2150 H     1 <1>   0.0800 
 36 H        3.2860     0.5030    -0.7180 H     1 <1>   0.0800 
 37 H       -1.8460    -2.9470     2.9890 H     1 <1>   0.1500 
 38 H       -1.5580    -0.8620    -0.7110 H     1 <1>   0.1500 
 39 H       -4.1330    -3.5930     2.4440 H     1 <1>   0.1500 
 40 H       -3.8360    -1.4980    -1.2510 H     1 <1>   0.1500 
 41 H        6.6240     1.1480     1.0260 H     1 <1>   0.0800 
 42 H        8.6850    -0.6000     0.7590 H     1 <1>   0.0800 
 43 H        8.8680     1.1160     0.4810 H     1 <1>   0.0800 
 44 H        7.5740     1.3170    -2.7300 H     1 <1>   0.0800 
 45 H        6.7780    -0.2360    -2.4600 H     1 <1>   0.0800 
 46 H        8.7060    -1.0430    -1.5530 H     1 <1>   0.0800 
 47 H        9.4890     0.5210    -1.6690 H     1 <1>   0.0800 
 48 H       -8.0620    -2.5390    -0.5440 H     1 <1>   0.0800 
 49 H       -7.4670    -4.0010    -1.3240 H     1 <1>   0.0800 
 50 H       -7.5710    -1.2410    -2.6060 H     1 <1>   0.0800 
 51 H       -8.6660    -2.5530    -2.9660 H     1 <1>   0.0800 
 52 H       -6.9770    -2.7010    -3.3850 H     1 <1>   0.0800 
@<TRIPOS>BOND
  1   1   2  2   
  2   2   3  am  
  3   2   4  am  
  4   3   5  1   
  5   3   6  1   
  6   4   7  1   
  7   4  28  1   
  8   5   8  1   
  9   5  29  1   
 10   5  30  1   
 11   6   9  1   
 12   6  31  1   
 13   6  32  1   
 14   7  10  ar  
 15   7  11  ar  
 16   8  12  1   
 17   8  33  1   
 18   8  34  1   
 19   9  12  1   
 20   9  35  1   
 21   9  36  1   
 22  10  13  ar  
 23  10  37  1   
 24  11  14  ar  
 25  11  38  1   
 26  12  15  am  
 27  13  16  ar  
 28  13  39  1   
 29  14  16  ar  
 30  14  40  1   
 31  15  17  2   
 32  15  18  1   
 33  16  19  1   
 34  18  20  1   
 35  18  21  1   
 36  18  41  1   
 37  19  22  2   
 38  19  23  1   
 39  20  24  1   
 40  21  25  1   
 41  21  42  1   
 42  21  43  1   
 43  23  26  1   
 44  24  25  1   
 45  24  44  1   
 46  24  45  1   
 47  25  46  1   
 48  25  47  1   
 49  26  27  1   
 50  26  48  1   
 51  26  49  1   
 52  27  50  1   
 53  27  51  1   
 54  27  52  1   
@<TRIPOS>SUBSTRUCTURE
  1 ****   2 GROUP 4 **** **** 0

# MOE 2024.06 (io_trps.svl 2023.06)
