@<TRIPOS>MOLECULE
NONAME
50 52 1 0 0 
SMALL
USER_CHARGES


@<TRIPOS>ATOM
  1 S        0.3980     0.0570     0.6030 S.3   1 <1>  -0.2860 
  2 C       -1.2460    -0.6620     0.6060 C.2   1 <1>   0.2420 
  3 C        1.3680    -1.1450     1.6410 C.3   1 <1>   0.1310 
  4 N       -1.5110    -1.7810     1.1760 N.2   1 <1>  -0.3380 
  5 N       -2.2970    -0.0940     0.0220 N.pl3 1 <1>   0.0480 
  6 C        2.8310    -0.7460     1.7120 C.2   1 <1>   0.5690 
  7 N       -2.8080    -1.9880     0.9730 N.2   1 <1>  -0.3380 
  8 C       -3.2890    -0.9810     0.2850 C.2   1 <1>   0.1330 
  9 C       -2.3290     1.1840    -0.7280 C.3   1 <1>   0.0160 
 10 O        3.4470    -1.0050     2.7170 O.2   1 <1>  -0.5700 
 11 N        3.3880    -0.1170     0.6360 N.am  1 <1>  -0.5470 
 12 C       -4.6800    -0.8590    -0.1200 C.ar  1 <1>   0.3630 
 13 C        4.6720     0.4340     0.5150 C.ar  1 <1>   0.1170 
 14 N       -5.1220     0.3050    -0.6190 N.ar  1 <1>  -0.6200 
 15 C       -5.5370    -1.9540     0.0200 C.ar  1 <1>  -0.1500 
 16 C        4.8230     1.8240     0.5480 C.ar  1 <1>  -0.1430 
 17 C        5.7960    -0.3770     0.3270 C.ar  1 <1>  -0.1430 
 18 C       -6.3950     0.3690    -0.9680 C.ar  1 <1>   0.1600 
 19 C       -6.8610    -1.8770    -0.3480 C.ar  1 <1>  -0.1500 
 20 C        6.0790     2.3840     0.3880 C.ar  1 <1>  -0.1500 
 21 C        3.6380     2.7630     0.7640 C.3   1 <1>  -0.0170 
 22 C        7.0430     0.2070     0.1720 C.ar  1 <1>  -0.1500 
 23 C        5.7090    -1.9000     0.2700 C.3   1 <1>  -0.0170 
 24 C       -7.2950    -0.6740    -0.8570 C.ar  1 <1>  -0.1500 
 25 C        7.1870     1.5810     0.2010 C.ar  1 <1>  -0.1500 
 26 C        2.9370     3.0770    -0.5610 C.3   1 <1>  -0.2400 
 27 C        5.3160    -2.3730    -1.1310 C.3   1 <1>  -0.2400 
 28 H        1.2640    -2.1150     1.1940 H     1 <1>   0.0800 
 29 H        0.9290    -1.1450     2.6220 H     1 <1>   0.0800 
 30 H       -1.3390     1.5840    -0.8390 H     1 <1>   0.0800 
 31 H       -2.9400     1.8910    -0.1960 H     1 <1>   0.0800 
 32 H       -2.7510     1.0130    -1.7020 H     1 <1>   0.0800 
 33 H        2.7310     0.1740    -0.0860 H     1 <1>   0.3700 
 34 H       -5.1560    -2.8750     0.4230 H     1 <1>   0.1500 
 35 H       -6.7450     1.3070    -1.3660 H     1 <1>   0.1500 
 36 H       -7.5260    -2.7180    -0.2420 H     1 <1>   0.1500 
 37 H        6.2040     3.4520     0.4100 H     1 <1>   0.1500 
 38 H        3.9840     3.6810     1.2050 H     1 <1>   0.0800 
 39 H        2.9390     2.3300     1.4580 H     1 <1>   0.0800 
 40 H        7.9140    -0.4070     0.0240 H     1 <1>   0.1500 
 41 H        5.0010    -2.2640     0.9920 H     1 <1>   0.0800 
 42 H        6.6620    -2.3260     0.5320 H     1 <1>   0.0800 
 43 H       -8.3170    -0.5440    -1.1630 H     1 <1>   0.1500 
 44 H        8.1600     2.0230     0.0790 H     1 <1>   0.1500 
 45 H        3.6290     3.5390    -1.2430 H     1 <1>   0.0800 
 46 H        2.1160     3.7500    -0.3930 H     1 <1>   0.0800 
 47 H        2.5600     2.1770    -1.0120 H     1 <1>   0.0800 
 48 H        4.3520    -1.9810    -1.3990 H     1 <1>   0.0800 
 49 H        5.2740    -3.4470    -1.1610 H     1 <1>   0.0800 
 50 H        6.0390    -2.0330    -1.8520 H     1 <1>   0.0800 
@<TRIPOS>BOND
  1   1   2  1   
  2   1   3  1   
  3   2   4  2   
  4   2   5  1   
  5   3   6  1   
  6   3  28  1   
  7   3  29  1   
  8   4   7  1   
  9   5   8  1   
 10   5   9  1   
 11   6  10  2   
 12   6  11  am  
 13   7   8  2   
 14   8  12  1   
 15   9  30  1   
 16   9  31  1   
 17   9  32  1   
 18  11  13  1   
 19  11  33  1   
 20  12  14  ar  
 21  12  15  ar  
 22  13  16  ar  
 23  13  17  ar  
 24  14  18  ar  
 25  15  19  ar  
 26  15  34  1   
 27  16  20  ar  
 28  16  21  1   
 29  17  22  ar  
 30  17  23  1   
 31  18  24  ar  
 32  18  35  1   
 33  19  24  ar  
 34  19  36  1   
 35  20  25  ar  
 36  20  37  1   
 37  21  26  1   
 38  21  38  1   
 39  21  39  1   
 40  22  25  ar  
 41  22  40  1   
 42  23  27  1   
 43  23  41  1   
 44  23  42  1   
 45  24  43  1   
 46  25  44  1   
 47  26  45  1   
 48  26  46  1   
 49  26  47  1   
 50  27  48  1   
 51  27  49  1   
 52  27  50  1   
@<TRIPOS>SUBSTRUCTURE
  1 ****   1 GROUP 4 **** **** 0

# MOE 2024.06 (io_trps.svl 2023.06)
