@<TRIPOS>MOLECULE
NONAME
37 40 1 0 0 
SMALL
USER_CHARGES


@<TRIPOS>ATOM
  1 O       -0.9230     0.2140    -0.9620 O.2   1 <1>  -0.5700 
  2 C       -1.3630    -0.4430    -0.0500 C.2   1 <1>   0.6300 
  3 N       -0.9530    -1.7070     0.2620 N.am  1 <1>  -0.5470 
  4 C       -2.4050     0.1660     0.8750 C.3   1 <1>  -0.1000 
  5 C       -0.0480    -2.5910    -0.3460 C.ar  1 <1>   0.1170 
  6 C       -3.6900    -0.5080     1.2710 C.3   1 <1>  -0.1950 
  7 C       -3.7140     0.7830     0.4770 C.3   1 <1>  -0.1950 
  8 C       -0.1290    -3.9570    -0.0600 C.ar  1 <1>  -0.1430 
  9 C        0.9420    -2.1510    -1.2210 C.ar  1 <1>  -0.1500 
 10 C       -4.7050    -1.4020     0.5220 C.3   1 <1>   0.0150 
 11 C       -4.7320     0.5020    -0.6460 C.3   1 <1>   0.0150 
 12 C        0.7630    -4.8410    -0.6460 C.ar  1 <1>  -0.1500 
 13 C       -1.1880    -4.5070     0.8890 C.3   1 <1>  -0.0970 
 14 C        1.8270    -3.0380    -1.8030 C.ar  1 <1>  -0.1500 
 15 C       -5.7320    -0.3600     0.1080 C.3   1 <1>  -0.1600 
 16 C       -4.1800    -1.8320    -0.8580 C.3   1 <1>  -0.1600 
 17 C       -4.1780    -0.5140    -1.6560 C.3   1 <1>  -0.1600 
 18 C        1.7380    -4.3870    -1.5160 C.ar  1 <1>  -0.1500 
 19 H       -1.4760    -2.1130     1.0320 H     1 <1>   0.3700 
 20 H       -1.8860     0.6900     1.6560 H     1 <1>   0.1000 
 21 H       -3.9470    -0.4370     2.3140 H     1 <1>   0.1000 
 22 H       -3.9750     1.6830     1.0070 H     1 <1>   0.1000 
 23 H        1.0300    -1.1060    -1.4520 H     1 <1>   0.1500 
 24 H       -5.1030    -2.2070     1.1150 H     1 <1>   0.0800 
 25 H       -5.1450     1.3890    -1.0930 H     1 <1>   0.0800 
 26 H        0.7070    -5.8940    -0.4320 H     1 <1>   0.1500 
 27 H       -1.0460    -4.1030     1.8750 H     1 <1>   0.0800 
 28 H       -1.1290    -5.5780     0.9530 H     1 <1>   0.0800 
 29 H       -2.1710    -4.2480     0.5370 H     1 <1>   0.0800 
 30 H        2.5830    -2.6770    -2.4780 H     1 <1>   0.1500 
 31 H       -6.1710     0.1510     0.9490 H     1 <1>   0.0800 
 32 H       -6.5050    -0.7580    -0.5280 H     1 <1>   0.0800 
 33 H       -4.8670    -2.5270    -1.3100 H     1 <1>   0.0800 
 34 H       -3.2150    -2.2960    -0.8190 H     1 <1>   0.0800 
 35 H       -3.2040    -0.2370    -2.0140 H     1 <1>   0.0800 
 36 H       -4.8400    -0.5940    -2.5010 H     1 <1>   0.0800 
 37 H        2.4260    -5.0810    -1.9670 H     1 <1>   0.1500 
@<TRIPOS>BOND
  1   1   2  2   
  2   2   3  am  
  3   2   4  1   
  4   3   5  1   
  5   3  19  1   
  6   4   6  1   
  7   4   7  1   
  8   4  20  1   
  9   5   8  ar  
 10   5   9  ar  
 11   6   7  1   
 12   6  10  1   
 13   6  21  1   
 14   7  11  1   
 15   7  22  1   
 16   8  12  ar  
 17   8  13  1   
 18   9  14  ar  
 19   9  23  1   
 20  10  15  1   
 21  10  16  1   
 22  10  24  1   
 23  11  15  1   
 24  11  17  1   
 25  11  25  1   
 26  12  18  ar  
 27  12  26  1   
 28  13  27  1   
 29  13  28  1   
 30  13  29  1   
 31  14  18  ar  
 32  14  30  1   
 33  15  31  1   
 34  15  32  1   
 35  16  17  1   
 36  16  33  1   
 37  16  34  1   
 38  17  35  1   
 39  17  36  1   
 40  18  37  1   
@<TRIPOS>SUBSTRUCTURE
  1 ****   3 GROUP 4 **** **** 0

# MOE 2024.06 (io_trps.svl 2023.06)
