@<TRIPOS>MOLECULE
NONAME
47 49 1 0 0 
SMALL
USER_CHARGES


@<TRIPOS>ATOM
  1 S       -1.3060    -0.3780     2.0570 S.3   1 <1>  -0.2860 
  2 C       -1.3170    -0.9590     0.3550 C.2   1 <1>   0.2420 
  3 C        0.4940    -0.3810     2.5170 C.3   1 <1>   0.1310 
  4 N       -0.4140    -1.7040    -0.1500 N.2   1 <1>  -0.3380 
  5 N       -2.2700    -0.6610    -0.5180 N.pl3 1 <1>   0.5930 
  6 C        1.2680     0.5840     1.6200 C.2   1 <1>   0.5690 
  7 N       -0.8050    -1.8900    -1.4070 N.2   1 <1>   0.0000 
  8 N       -1.9110    -1.2750    -1.6440 N.2   1 <1>  -0.4180 
  9 C       -3.4280     0.1500    -0.3580 C.ar  1 <1>  -0.0230 
 10 O        0.9260     1.7450     1.6550 O.2   1 <1>  -0.5700 
 11 N        2.3160     0.1810     0.8240 N.am  1 <1>  -0.6600 
 12 C       -4.6770    -0.4380    -0.1460 C.ar  1 <1>  -0.1430 
 13 C       -3.3240     1.5430    -0.4040 C.ar  1 <1>  -0.1430 
 14 C        2.7650    -1.2390     0.6490 C.3   1 <1>   0.1400 
 15 C        3.0250     1.2050    -0.0080 C.3   1 <1>   0.1400 
 16 C       -5.7960     0.3610     0.0170 C.ar  1 <1>  -0.1500 
 17 C       -4.8400    -1.9530    -0.0870 C.3   1 <1>  -0.0970 
 18 C       -4.4570     2.3220    -0.2360 C.ar  1 <1>  -0.1500 
 19 C       -1.9850     2.2380    -0.6300 C.3   1 <1>  -0.0970 
 20 C        3.2410    -1.4780    -0.7870 C.3   1 <1>  -0.1600 
 21 C        4.4380     0.7420    -0.3780 C.3   1 <1>  -0.1600 
 22 C       -5.6940     1.7400    -0.0270 C.ar  1 <1>  -0.1430 
 23 C        4.4280    -0.5770    -1.1680 C.3   1 <1>  -0.1600 
 24 C       -6.9270     2.6060     0.1570 C.3   1 <1>  -0.0970 
 25 H        0.8360    -1.3930     2.4570 H     1 <1>   0.0800 
 26 H        0.5480    -0.0440     3.5340 H     1 <1>   0.0800 
 27 H        1.9660    -1.9260     0.8550 H     1 <1>   0.0800 
 28 H        3.5710    -1.4390     1.3350 H     1 <1>   0.0800 
 29 H        3.0860     2.1340     0.5350 H     1 <1>   0.0800 
 30 H        2.4520     1.3790    -0.9030 H     1 <1>   0.0800 
 31 H       -6.7590    -0.0890     0.1810 H     1 <1>   0.1500 
 32 H       -4.2320    -2.3630     0.7000 H     1 <1>   0.0800 
 33 H       -4.5440    -2.3930    -1.0240 H     1 <1>   0.0800 
 34 H       -5.8620    -2.2250     0.1030 H     1 <1>   0.0800 
 35 H       -4.3780     3.3950    -0.2640 H     1 <1>   0.1500 
 36 H       -1.4700     1.8080    -1.4710 H     1 <1>   0.0800 
 37 H       -1.3660     2.1450     0.2450 H     1 <1>   0.0800 
 38 H       -2.1240     3.2850    -0.8290 H     1 <1>   0.0800 
 39 H        2.4120    -1.2870    -1.4480 H     1 <1>   0.0800 
 40 H        3.5170    -2.5100    -0.9100 H     1 <1>   0.0800 
 41 H        5.0000     0.6180     0.5310 H     1 <1>   0.0800 
 42 H        4.9270     1.5050    -0.9570 H     1 <1>   0.0800 
 43 H        4.3750    -0.3680    -2.2230 H     1 <1>   0.0800 
 44 H        5.3530    -1.0960    -0.9850 H     1 <1>   0.0800 
 45 H       -7.8000     2.0990    -0.2110 H     1 <1>   0.0800 
 46 H       -6.8210     3.5310    -0.3820 H     1 <1>   0.0800 
 47 H       -7.0640     2.8250     1.2000 H     1 <1>   0.0800 
@<TRIPOS>BOND
  1   1   2  1   
  2   1   3  1   
  3   2   4  2   
  4   2   5  1   
  5   3   6  1   
  6   3  25  1   
  7   3  26  1   
  8   4   7  1   
  9   5   8  1   
 10   5   9  1   
 11   6  10  2   
 12   6  11  am  
 13   7   8  2   
 14   9  12  ar  
 15   9  13  ar  
 16  11  14  1   
 17  11  15  1   
 18  12  16  ar  
 19  12  17  1   
 20  13  18  ar  
 21  13  19  1   
 22  14  20  1   
 23  14  27  1   
 24  14  28  1   
 25  15  21  1   
 26  15  29  1   
 27  15  30  1   
 28  16  22  ar  
 29  16  31  1   
 30  17  32  1   
 31  17  33  1   
 32  17  34  1   
 33  18  22  ar  
 34  18  35  1   
 35  19  36  1   
 36  19  37  1   
 37  19  38  1   
 38  20  23  1   
 39  20  39  1   
 40  20  40  1   
 41  21  23  1   
 42  21  41  1   
 43  21  42  1   
 44  22  24  1   
 45  23  43  1   
 46  23  44  1   
 47  24  45  1   
 48  24  46  1   
 49  24  47  1   
@<TRIPOS>SUBSTRUCTURE
  1 ****   2 GROUP 4 **** **** 0

# MOE 2024.06 (io_trps.svl 2023.06)
