@<TRIPOS>MOLECULE
NONAME
47 49 1 0 0 
SMALL
USER_CHARGES


@<TRIPOS>ATOM
  1 S        0.0380     0.2310    -0.3300 S.o2  1 <1>   1.3330 
  2 O        0.2760     1.3020    -1.2730 O.2   1 <1>  -0.6500 
  3 O        0.3030    -1.1360    -0.7210 O.2   1 <1>  -0.6500 
  4 N       -1.5830     0.3390     0.1590 N.am  1 <1>  -0.8490 
  5 C        0.9320     0.5600     1.1960 C.3   1 <1>  -0.0550 
  6 C       -2.4500    -0.5430    -0.6290 C.3   1 <1>   0.1960 
  7 C       -2.0720     1.7220     0.1590 C.3   1 <1>   0.1960 
  8 C        2.4640     0.5260     1.0570 C.3   1 <1>  -0.2400 
  9 C       -3.8760    -0.5360    -0.0690 C.3   1 <1>  -0.1600 
 10 C       -3.4760     1.7920     0.7620 C.3   1 <1>  -0.1600 
 11 C       -4.4520     0.8870    -0.0080 C.3   1 <1>  -0.0190 
 12 C       -5.8520     0.8990     0.6080 C.2   1 <1>   0.5690 
 13 O       -5.9740     0.6360     1.7790 O.2   1 <1>  -0.5700 
 14 N       -6.8990     1.2190    -0.2140 N.am  1 <1>  -0.5470 
 15 C       -8.2800     1.3050     0.0260 C.ar  1 <1>   0.1170 
 16 C       -9.0610     2.0110    -0.8860 C.ar  1 <1>  -0.1500 
 17 C       -8.9080     0.7080     1.1200 C.ar  1 <1>  -0.1500 
 18 C      -10.4260     2.1100    -0.6950 C.ar  1 <1>  -0.1440 
 19 C      -10.2760     0.8120     1.3060 C.ar  1 <1>  -0.1500 
 20 C      -11.0270     1.5190     0.3870 C.ar  1 <1>  -0.1440 
 21 C      -11.4360     2.8250    -1.5580 C.3   1 <1>  -0.0170 
 22 C      -12.5150     1.7600     0.3900 C.3   1 <1>  -0.0170 
 23 C      -12.7870     2.3290    -1.0130 C.3   1 <1>  -0.1600 
 24 H        0.6390    -0.1690     1.9270 H     1 <1>   0.0800 
 25 H        0.6460     1.5230     1.5690 H     1 <1>   0.0800 
 26 H       -2.0780    -1.5540    -0.5870 H     1 <1>   0.0800 
 27 H       -2.4490    -0.2290    -1.6600 H     1 <1>   0.0800 
 28 H       -2.0890     2.1050    -0.8490 H     1 <1>   0.0800 
 29 H       -1.4110     2.3420     0.7400 H     1 <1>   0.0800 
 30 H        2.7820    -0.4430     0.7120 H     1 <1>   0.0800 
 31 H        2.9300     0.7280     2.0050 H     1 <1>   0.0800 
 32 H        2.7880     1.2660     0.3450 H     1 <1>   0.0800 
 33 H       -3.8600    -0.9640     0.9190 H     1 <1>   0.0800 
 34 H       -4.5020    -1.1580    -0.6830 H     1 <1>   0.0800 
 35 H       -3.8270     2.8080     0.7370 H     1 <1>   0.0800 
 36 H       -3.4280     1.4870     1.7940 H     1 <1>   0.0800 
 37 H       -4.5210     1.2600    -1.0140 H     1 <1>   0.0800 
 38 H       -6.6370     1.4680    -1.1630 H     1 <1>   0.3700 
 39 H       -8.6100     2.4830    -1.7370 H     1 <1>   0.1500 
 40 H       -8.3310     0.1520     1.8350 H     1 <1>   0.1500 
 41 H      -10.7470     0.3480     2.1550 H     1 <1>   0.1500 
 42 H      -11.3150     2.5800    -2.5980 H     1 <1>   0.0800 
 43 H      -11.3380     3.8870    -1.4170 H     1 <1>   0.0800 
 44 H      -12.7580     2.4830     1.1490 H     1 <1>   0.0800 
 45 H      -13.0630     0.8500     0.5620 H     1 <1>   0.0800 
 46 H      -13.1420     1.5330    -1.6450 H     1 <1>   0.0800 
 47 H      -13.5220     3.1130    -0.9910 H     1 <1>   0.0800 
@<TRIPOS>BOND
  1   1   2  2   
  2   1   3  2   
  3   1   4  am  
  4   1   5  1   
  5   4   6  1   
  6   4   7  1   
  7   5   8  1   
  8   5  24  1   
  9   5  25  1   
 10   6   9  1   
 11   6  26  1   
 12   6  27  1   
 13   7  10  1   
 14   7  28  1   
 15   7  29  1   
 16   8  30  1   
 17   8  31  1   
 18   8  32  1   
 19   9  11  1   
 20   9  33  1   
 21   9  34  1   
 22  10  11  1   
 23  10  35  1   
 24  10  36  1   
 25  11  12  1   
 26  11  37  1   
 27  12  13  2   
 28  12  14  am  
 29  14  15  1   
 30  14  38  1   
 31  15  16  ar  
 32  15  17  ar  
 33  16  18  ar  
 34  16  39  1   
 35  17  19  ar  
 36  17  40  1   
 37  18  20  ar  
 38  18  21  1   
 39  19  20  ar  
 40  19  41  1   
 41  20  22  1   
 42  21  23  1   
 43  21  42  1   
 44  21  43  1   
 45  22  23  1   
 46  22  44  1   
 47  22  45  1   
 48  23  46  1   
 49  23  47  1   
@<TRIPOS>SUBSTRUCTURE
  1 ****  12 GROUP 4 **** **** 0

# MOE 2024.06 (io_trps.svl 2023.06)
