@<TRIPOS>MOLECULE
NONAME
36 37 1 0 0 
SMALL
USER_CHARGES


@<TRIPOS>ATOM
  1 BR      -0.3190     0.4630    -1.1220 Br    1 <1>  -0.1110 
  2 C       -1.6770    -0.8610    -0.8010 C.ar  1 <1>   0.1110 
  3 C       -3.0030    -0.4820    -0.8320 C.ar  1 <1>  -0.1500 
  4 C       -1.2950    -2.1630    -0.5460 C.ar  1 <1>  -0.1500 
  5 C       -3.9700    -1.4430    -0.6000 C.ar  1 <1>  -0.1500 
  6 C       -2.2770    -3.1100    -0.3150 C.ar  1 <1>  -0.1500 
  7 C       -3.6400    -2.7790    -0.3370 C.ar  1 <1>   0.0860 
  8 C       -4.6840    -3.7530    -0.1030 C.2   1 <1>   0.3030 
  9 N       -5.9330    -3.5150    -0.0430 N.2   1 <1>  -0.5120 
 10 C       -4.3610    -5.2180     0.0980 C.3   1 <1>  -0.0990 
 11 N       -6.6380    -4.6700     0.2030 N.am  1 <1>  -0.2980 
 12 C       -5.7480    -5.8620     0.2280 C.3   1 <1>   0.5800 
 13 C       -7.9830    -4.7580     0.5120 C.2   1 <1>   0.5690 
 14 O       -5.8410    -6.3970     1.5190 O.3   1 <1>  -0.6800 
 15 C       -6.0290    -6.9080    -0.9310 C.3   1 <1>   1.0200 
 16 O       -8.4570    -5.7840     0.9470 O.2   1 <1>  -0.5700 
 17 C       -8.8860    -3.5260     0.3430 C.3   1 <1>  -0.0190 
 18 F       -6.0600    -6.3410    -2.1370 F     1 <1>  -0.3400 
 19 F       -5.0810    -7.8410    -1.0080 F     1 <1>  -0.3400 
 20 F       -7.1720    -7.5770    -0.8170 F     1 <1>  -0.3400 
 21 C       -9.0020    -2.7450     1.6610 C.3   1 <1>  -0.2400 
 22 C      -10.2890    -3.8910    -0.1730 C.3   1 <1>  -0.2400 
 23 H       -3.2690     0.5410    -1.0330 H     1 <1>   0.1500 
 24 H       -0.2510    -2.4220    -0.5280 H     1 <1>   0.1500 
 25 H       -5.0070    -1.1530    -0.6220 H     1 <1>   0.1500 
 26 H       -1.9650    -4.1190    -0.1140 H     1 <1>   0.1500 
 27 H       -3.7740    -5.3610     0.9870 H     1 <1>   0.0800 
 28 H       -3.8240    -5.5920    -0.7550 H     1 <1>   0.0800 
 29 H       -6.8030    -6.4980     1.7130 H     1 <1>   0.4000 
 30 H       -8.4370    -2.8790    -0.3900 H     1 <1>   0.0800 
 31 H       -9.4530    -3.3590     2.4210 H     1 <1>   0.0800 
 32 H       -9.6010    -1.8620     1.5260 H     1 <1>   0.0800 
 33 H       -8.0240    -2.4460     1.9980 H     1 <1>   0.0800 
 34 H      -10.8010    -4.5150     0.5390 H     1 <1>   0.0800 
 35 H      -10.2120    -4.4280    -1.1020 H     1 <1>   0.0800 
 36 H      -10.8730    -3.0030    -0.3380 H     1 <1>   0.0800 
@<TRIPOS>BOND
  1   1   2  1   
  2   2   3  ar  
  3   2   4  ar  
  4   3   5  ar  
  5   3  23  1   
  6   4   6  ar  
  7   4  24  1   
  8   5   7  ar  
  9   5  25  1   
 10   6   7  ar  
 11   6  26  1   
 12   7   8  1   
 13   8   9  2   
 14   8  10  1   
 15   9  11  1   
 16  10  12  1   
 17  10  27  1   
 18  10  28  1   
 19  11  12  1   
 20  11  13  am  
 21  12  14  1   
 22  12  15  1   
 23  13  16  2   
 24  13  17  1   
 25  14  29  1   
 26  15  18  1   
 27  15  19  1   
 28  15  20  1   
 29  17  21  1   
 30  17  22  1   
 31  17  30  1   
 32  21  31  1   
 33  21  32  1   
 34  21  33  1   
 35  22  34  1   
 36  22  35  1   
 37  22  36  1   
@<TRIPOS>SUBSTRUCTURE
  1 ****   8 GROUP 4 **** **** 0

# MOE 2024.06 (io_trps.svl 2023.06)
