@<TRIPOS>MOLECULE
NONAME
51 53 1 0 0 
SMALL
USER_CHARGES


@<TRIPOS>ATOM
  1 O       -1.7860     0.8380     0.7940 O.3   1 <1>  -0.3630 
  2 C       -1.1080     1.4650    -0.2160 C.ar  1 <1>   0.0830 
  3 C       -1.1370    -0.1270     1.6000 C.3   1 <1>   0.0400 
  4 C        0.2300     1.8830    -0.1260 C.ar  1 <1>   0.0830 
  5 C       -1.8280     1.7030    -1.3830 C.ar  1 <1>  -0.1440 
  6 O        0.9080     1.7170     1.0460 O.3   1 <1>  -0.3620 
  7 C        0.8270     2.4840    -1.2310 C.ar  1 <1>  -0.1500 
  8 C       -1.2170     2.3080    -2.4700 C.ar  1 <1>  -0.1500 
  9 C       -3.2910     1.3120    -1.4690 C.3   1 <1>   0.4860 
 10 C        2.2540     2.1140     1.2030 C.3   1 <1>   0.0400 
 11 C        0.1080     2.6910    -2.3940 C.ar  1 <1>  -0.1500 
 12 N       -4.0270     2.0330    -0.4020 N.4   1 <1>  -0.9590 
 13 C       -5.4360     1.5430    -0.2180 C.3   1 <1>   0.3430 
 14 C       -3.9650     3.5310    -0.5610 C.3   1 <1>   0.3430 
 15 C       -6.1590     2.2530     0.9460 C.3   1 <1>   0.2090 
 16 C       -4.6620     4.2760     0.5960 C.3   1 <1>   0.2090 
 17 N       -6.0280     3.7360     0.8600 N.pl3 1 <1>  -0.8380 
 18 C       -7.1200     4.4600     0.3840 C.ar  1 <1>   0.1000 
 19 C       -7.9340     5.1820     1.2580 C.ar  1 <1>  -0.1430 
 20 C       -7.4150     4.4710    -0.9760 C.ar  1 <1>  -0.1500 
 21 C       -9.0160     5.8930     0.7640 C.ar  1 <1>  -0.1500 
 22 C       -7.6470     5.1990     2.7530 C.3   1 <1>  -0.0970 
 23 C       -8.4950     5.1820    -1.4630 C.ar  1 <1>  -0.1500 
 24 C       -9.2980     5.8950    -0.5910 C.ar  1 <1>  -0.1500 
 25 H       -0.6290     0.3740     2.4060 H     1 <1>   0.0800 
 26 H       -0.4350    -0.6800     1.0000 H     1 <1>   0.0800 
 27 H       -1.8790    -0.7920     2.0020 H     1 <1>   0.0800 
 28 H        1.8510     2.8050    -1.2110 H     1 <1>   0.1500 
 29 H       -1.7560     2.4860    -3.3860 H     1 <1>   0.1500 
 30 H       -3.3770     0.2480    -1.3220 H     1 <1>   0.0800 
 31 H       -3.6910     1.5630    -2.4370 H     1 <1>   0.0800 
 32 H        2.5590     1.8740     2.2060 H     1 <1>   0.0800 
 33 H        2.3280     3.1760     1.0460 H     1 <1>   0.0800 
 34 H        2.8640     1.5750     0.5000 H     1 <1>   0.0800 
 35 H        0.5870     3.1550    -3.2420 H     1 <1>   0.1500 
 36 H       -3.4880     1.8080     0.4550 H     1 <1>   0.4500 
 37 H       -5.4360     0.4820    -0.0330 H     1 <1>   0.0800 
 38 H       -5.9990     1.7230    -1.1180 H     1 <1>   0.0800 
 39 H       -4.4460     3.8150    -1.4820 H     1 <1>   0.0800 
 40 H       -2.9380     3.8530    -0.6120 H     1 <1>   0.0800 
 41 H       -5.7500     1.9200     1.8840 H     1 <1>   0.0800 
 42 H       -7.2030     1.9860     0.9350 H     1 <1>   0.0800 
 43 H       -4.7310     5.3240     0.3560 H     1 <1>   0.0800 
 44 H       -4.0700     4.1860     1.4900 H     1 <1>   0.0800 
 45 H       -6.8000     3.9230    -1.6590 H     1 <1>   0.1500 
 46 H       -9.6490     6.4510     1.4310 H     1 <1>   0.1500 
 47 H       -7.7040     4.2000     3.1450 H     1 <1>   0.0800 
 48 H       -8.3520     5.8160     3.2790 H     1 <1>   0.0800 
 49 H       -6.6580     5.5820     2.9280 H     1 <1>   0.0800 
 50 H       -8.7170     5.1860    -2.5160 H     1 <1>   0.1500 
 51 H      -10.1420     6.4510    -0.9640 H     1 <1>   0.1500 
@<TRIPOS>BOND
  1   1   2  1   
  2   1   3  1   
  3   2   4  ar  
  4   2   5  ar  
  5   3  25  1   
  6   3  26  1   
  7   3  27  1   
  8   4   6  1   
  9   4   7  ar  
 10   5   8  ar  
 11   5   9  1   
 12   6  10  1   
 13   7  11  ar  
 14   7  28  1   
 15   8  11  ar  
 16   8  29  1   
 17   9  12  1   
 18   9  30  1   
 19   9  31  1   
 20  10  32  1   
 21  10  33  1   
 22  10  34  1   
 23  11  35  1   
 24  12  13  1   
 25  12  14  1   
 26  12  36  1   
 27  13  15  1   
 28  13  37  1   
 29  13  38  1   
 30  14  16  1   
 31  14  39  1   
 32  14  40  1   
 33  15  17  1   
 34  15  41  1   
 35  15  42  1   
 36  16  17  1   
 37  16  43  1   
 38  16  44  1   
 39  17  18  1   
 40  18  19  ar  
 41  18  20  ar  
 42  19  21  ar  
 43  19  22  1   
 44  20  23  ar  
 45  20  45  1   
 46  21  24  ar  
 47  21  46  1   
 48  22  47  1   
 49  22  48  1   
 50  22  49  1   
 51  23  24  ar  
 52  23  50  1   
 53  24  51  1   
@<TRIPOS>SUBSTRUCTURE
  1 ****  14 GROUP 4 **** **** 0

# MOE 2024.06 (io_trps.svl 2023.06)
