@<TRIPOS>MOLECULE
NONAME
46 48 1 0 0 
SMALL
USER_CHARGES


@<TRIPOS>ATOM
  1 O        0.7750    -3.3150    -1.8620 O.2   1 <1>  -0.5700 
  2 C        0.1350    -2.4970    -1.2480 C.2   1 <1>   0.5690 
  3 N        0.6810    -1.3620    -0.7120 N.am  1 <1>  -0.5470 
  4 C       -1.3510    -2.7480    -1.0460 C.3   1 <1>   0.0440 
  5 C        1.9910    -0.8680    -0.7420 C.ar  1 <1>   0.1170 
  6 C       -1.9890    -1.7450    -0.0890 C.ar  1 <1>  -0.1430 
  7 C        2.8850    -1.1750    -1.7610 C.ar  1 <1>  -0.1500 
  8 C        2.4170    -0.0260     0.2760 C.ar  1 <1>  -0.1500 
  9 C       -1.9760    -1.9790     1.2780 C.ar  1 <1>  -0.1500 
 10 C       -2.5620    -0.5790    -0.5750 C.ar  1 <1>  -0.1500 
 11 C        4.1720    -0.6720    -1.7550 C.ar  1 <1>  -0.1500 
 12 C        3.7050     0.4810     0.2900 C.ar  1 <1>  -0.1500 
 13 C       -2.5250    -1.0550     2.1500 C.ar  1 <1>  -0.1500 
 14 C       -3.1100     0.3450     0.2970 C.ar  1 <1>  -0.1500 
 15 C        4.5950     0.1520    -0.7220 C.ar  1 <1>  -0.1430 
 16 C       -3.0910     0.1080     1.6600 C.ar  1 <1>  -0.1500 
 17 C        6.0170     0.6780    -0.6990 C.3   1 <1>   0.4860 
 18 N        6.8000    -0.1310     0.2740 N.4   1 <1>  -0.9590 
 19 C        8.1610     0.4540     0.5240 C.3   1 <1>   0.3430 
 20 C        6.9040    -1.5720    -0.1540 C.3   1 <1>   0.3430 
 21 C        9.0040    -0.4520     1.4440 C.3   1 <1>   0.1200 
 22 C        7.8130    -2.3790     0.7930 C.3   1 <1>   0.1200 
 23 O        9.0550    -1.7500     0.9270 O.3   1 <1>  -0.5600 
 24 H        0.0150    -0.8180    -0.1550 H     1 <1>   0.3700 
 25 H       -1.4800    -3.7450    -0.6670 H     1 <1>   0.0800 
 26 H       -1.8350    -2.7020    -2.0040 H     1 <1>   0.0800 
 27 H        2.5710    -1.8110    -2.5700 H     1 <1>   0.1500 
 28 H        1.7330     0.2320     1.0660 H     1 <1>   0.1500 
 29 H       -1.5380    -2.8810     1.6720 H     1 <1>   0.1500 
 30 H       -2.5830    -0.3810    -1.6340 H     1 <1>   0.1500 
 31 H        4.8300    -0.9320    -2.5670 H     1 <1>   0.1500 
 32 H        3.9950     1.1330     1.0970 H     1 <1>   0.1500 
 33 H       -2.5130    -1.2420     3.2100 H     1 <1>   0.1500 
 34 H       -3.5530     1.2490    -0.0850 H     1 <1>   0.1500 
 35 H       -3.5180     0.8260     2.3380 H     1 <1>   0.1500 
 36 H        6.0070     1.7140    -0.4020 H     1 <1>   0.0800 
 37 H        6.4530     0.6070    -1.6830 H     1 <1>   0.0800 
 38 H        6.2700    -0.1240     1.1540 H     1 <1>   0.4500 
 39 H        8.0710     1.4290     0.9730 H     1 <1>   0.0800 
 40 H        8.6880     0.5650    -0.4100 H     1 <1>   0.0800 
 41 H        7.3160    -1.6290    -1.1480 H     1 <1>   0.0800 
 42 H        5.9240    -2.0230    -0.1760 H     1 <1>   0.0800 
 43 H        8.5950    -0.4890     2.4390 H     1 <1>   0.0800 
 44 H       10.0140    -0.0850     1.5020 H     1 <1>   0.0800 
 45 H        7.9860    -3.3630     0.3900 H     1 <1>   0.0800 
 46 H        7.3670    -2.4840     1.7670 H     1 <1>   0.0800 
@<TRIPOS>BOND
  1   1   2  2   
  2   2   3  am  
  3   2   4  1   
  4   3   5  1   
  5   3  24  1   
  6   4   6  1   
  7   4  25  1   
  8   4  26  1   
  9   5   7  ar  
 10   5   8  ar  
 11   6   9  ar  
 12   6  10  ar  
 13   7  11  ar  
 14   7  27  1   
 15   8  12  ar  
 16   8  28  1   
 17   9  13  ar  
 18   9  29  1   
 19  10  14  ar  
 20  10  30  1   
 21  11  15  ar  
 22  11  31  1   
 23  12  15  ar  
 24  12  32  1   
 25  13  16  ar  
 26  13  33  1   
 27  14  16  ar  
 28  14  34  1   
 29  15  17  1   
 30  16  35  1   
 31  17  18  1   
 32  17  36  1   
 33  17  37  1   
 34  18  19  1   
 35  18  20  1   
 36  18  38  1   
 37  19  21  1   
 38  19  39  1   
 39  19  40  1   
 40  20  22  1   
 41  20  41  1   
 42  20  42  1   
 43  21  23  1   
 44  21  43  1   
 45  21  44  1   
 46  22  23  1   
 47  22  45  1   
 48  22  46  1   
@<TRIPOS>SUBSTRUCTURE
  1 ****   5 GROUP 4 **** **** 0

# MOE 2024.06 (io_trps.svl 2023.06)
