@<TRIPOS>MOLECULE
NONAME
49 50 1 0 0 
SMALL
USER_CHARGES


@<TRIPOS>ATOM
  1 O        0.9200    -0.2500     1.2970 O.2   1 <1>  -0.5700 
  2 C        1.8820    -0.3550     0.5600 C.2   1 <1>   0.5440 
  3 N        2.0010    -1.4850    -0.2020 N.am  1 <1>  -0.7300 
  4 C        2.8750     0.7000     0.4780 C.ar  1 <1>   0.0860 
  5 C        1.0730    -2.6390    -0.1810 C.3   1 <1>   0.1400 
  6 C        4.2060     0.4420     0.1410 C.ar  1 <1>  -0.1500 
  7 C        2.5380     2.0290     0.7360 C.ar  1 <1>  -0.1500 
  8 C        1.8580    -3.9610    -0.2030 C.3   1 <1>  -0.0800 
  9 C        5.1390     1.4580     0.0530 C.ar  1 <1>  -0.1500 
 10 C        3.4680     3.0460     0.6500 C.ar  1 <1>  -0.1500 
 11 C        2.7140    -4.1130    -1.4720 C.3   1 <1>  -0.2400 
 12 C        0.8890    -5.1450    -0.0960 C.3   1 <1>  -0.2400 
 13 C        4.7890     2.7800     0.3010 C.ar  1 <1>   0.1170 
 14 N        5.7810     3.7600     0.1990 N.am  1 <1>  -0.5470 
 15 C        5.7510     5.1300     0.2310 C.2   1 <1>   0.5690 
 16 O        4.7430     5.7790     0.3540 O.2   1 <1>  -0.5700 
 17 C        7.0680     5.8780     0.0970 C.3   1 <1>   0.0440 
 18 C        8.2630     4.9420    -0.0690 C.ar  1 <1>  -0.1430 
 19 C        8.9500     4.4800     1.0440 C.ar  1 <1>  -0.1500 
 20 C        8.6520     4.5240    -1.3320 C.ar  1 <1>  -0.1500 
 21 C       10.0110     3.6040     0.9000 C.ar  1 <1>  -0.1500 
 22 C        9.7120     3.6470    -1.4780 C.ar  1 <1>  -0.1500 
 23 C       10.3970     3.1800    -0.3690 C.ar  1 <1>   0.0830 
 24 O       11.4200     2.3210    -0.6000 O.3   1 <1>  -0.3620 
 25 C       12.2300     1.8440     0.4520 C.3   1 <1>   0.0400 
 26 H        2.7220    -1.5260    -0.9210 H     1 <1>   0.3700 
 27 H        0.4200    -2.5820    -1.0350 H     1 <1>   0.0800 
 28 H        0.4650    -2.5970     0.7080 H     1 <1>   0.0800 
 29 H        4.5170    -0.5700    -0.0450 H     1 <1>   0.1500 
 30 H        1.5220     2.2610     1.0100 H     1 <1>   0.1500 
 31 H        2.5030    -3.9830     0.6600 H     1 <1>   0.0800 
 32 H        6.1540     1.2210    -0.2100 H     1 <1>   0.1500 
 33 H        3.1570     4.0530     0.8590 H     1 <1>   0.1500 
 34 H        2.0990    -4.0470    -2.3530 H     1 <1>   0.0800 
 35 H        3.2090    -5.0680    -1.4720 H     1 <1>   0.0800 
 36 H        3.4700    -3.3510    -1.5180 H     1 <1>   0.0800 
 37 H        0.2200    -5.1680    -0.9390 H     1 <1>   0.0800 
 38 H        0.3040    -5.0690     0.8040 H     1 <1>   0.0800 
 39 H        1.4320    -6.0730    -0.0650 H     1 <1>   0.0800 
 40 H        6.7260     3.3940     0.0580 H     1 <1>   0.3700 
 41 H        7.2000     6.4900     0.9700 H     1 <1>   0.0800 
 42 H        6.9990     6.5360    -0.7500 H     1 <1>   0.0800 
 43 H        8.6610     4.7990     2.0320 H     1 <1>   0.1500 
 44 H        8.1350     4.8750    -2.2090 H     1 <1>   0.1500 
 45 H       10.5220     3.2630     1.7800 H     1 <1>   0.1500 
 46 H       10.0190     3.3200    -2.4550 H     1 <1>   0.1500 
 47 H       12.9870     1.2080     0.0280 H     1 <1>   0.0800 
 48 H       11.6200     1.2800     1.1340 H     1 <1>   0.0800 
 49 H       12.6910     2.6810     0.9460 H     1 <1>   0.0800 
@<TRIPOS>BOND
  1   1   2  2   
  2   2   3  am  
  3   2   4  1   
  4   3   5  1   
  5   3  26  1   
  6   4   6  ar  
  7   4   7  ar  
  8   5   8  1   
  9   5  27  1   
 10   5  28  1   
 11   6   9  ar  
 12   6  29  1   
 13   7  10  ar  
 14   7  30  1   
 15   8  11  1   
 16   8  12  1   
 17   8  31  1   
 18   9  13  ar  
 19   9  32  1   
 20  10  13  ar  
 21  10  33  1   
 22  11  34  1   
 23  11  35  1   
 24  11  36  1   
 25  12  37  1   
 26  12  38  1   
 27  12  39  1   
 28  13  14  1   
 29  14  15  am  
 30  14  40  1   
 31  15  16  2   
 32  15  17  1   
 33  17  18  1   
 34  17  41  1   
 35  17  42  1   
 36  18  19  ar  
 37  18  20  ar  
 38  19  21  ar  
 39  19  43  1   
 40  20  22  ar  
 41  20  44  1   
 42  21  23  ar  
 43  21  45  1   
 44  22  23  ar  
 45  22  46  1   
 46  23  24  1   
 47  24  25  1   
 48  25  47  1   
 49  25  48  1   
 50  25  49  1   
@<TRIPOS>SUBSTRUCTURE
  1 ****   9 GROUP 4 **** **** 0

# MOE 2024.06 (io_trps.svl 2023.06)
