@<TRIPOS>MOLECULE
NONAME
41 43 1 0 0 
SMALL
USER_CHARGES


@<TRIPOS>ATOM
  1 O       -1.3320     0.1270     0.8770 O.3   1 <1>  -0.3630 
  2 C       -2.2590    -0.5150     0.1390 C.ar  1 <1>   0.0830 
  3 C       -1.6150    -0.1570     2.2440 C.3   1 <1>   0.4000 
  4 C       -2.4380    -0.5690    -1.2450 C.ar  1 <1>   0.0830 
  5 C       -3.1070    -1.1870     0.9730 C.ar  1 <1>   0.0830 
  6 O       -2.7590    -1.0000     2.2500 O.3   1 <1>  -0.3630 
  7 O       -1.6640     0.0550    -2.1760 O.3   1 <1>  -0.3630 
  8 C       -3.5000    -1.3240    -1.7300 C.ar  1 <1>  -0.1500 
  9 C       -4.1640    -1.9390     0.5000 C.ar  1 <1>  -0.1500 
 10 C       -0.5660     0.8510    -1.7940 C.3   1 <1>   0.0400 
 11 C       -4.3600    -2.0100    -0.8750 C.ar  1 <1>  -0.1430 
 12 C       -5.5120    -2.8280    -1.4320 C.3   1 <1>   0.3530 
 13 N       -6.7680    -2.1570    -1.0550 N.pl3 1 <1>  -0.8690 
 14 C       -7.6950    -2.9330    -0.3590 C.ar  1 <1>   0.1000 
 15 C       -8.0280    -2.6350     0.9660 C.ar  1 <1>   0.0830 
 16 C       -8.3040    -4.0230    -0.9660 C.ar  1 <1>  -0.1500 
 17 O       -7.4670    -1.5690     1.5910 O.3   1 <1>  -0.3630 
 18 C       -8.9190    -3.4290     1.6650 C.ar  1 <1>  -0.1500 
 19 C       -9.2040    -4.8190    -0.2730 C.ar  1 <1>  -0.1430 
 20 C       -8.1490    -0.3490     1.4100 C.3   1 <1>   0.0400 
 21 C       -9.5070    -4.5200     1.0460 C.ar  1 <1>  -0.1500 
 22 C       -9.8610    -6.0080    -0.9500 C.3   1 <1>  -0.0970 
 23 H       -1.8380     0.7580     2.7640 H     1 <1>   0.0800 
 24 H       -0.7820    -0.6750     2.6850 H     1 <1>   0.0800 
 25 H       -3.6470    -1.3650    -2.7940 H     1 <1>   0.1500 
 26 H       -4.8150    -2.4490     1.1890 H     1 <1>   0.1500 
 27 H       -0.1080     1.2420    -2.6840 H     1 <1>   0.0800 
 28 H        0.1370     0.2400    -1.2560 H     1 <1>   0.0800 
 29 H       -0.9190     1.6590    -1.1780 H     1 <1>   0.0800 
 30 H       -5.4800    -3.8250    -1.0260 H     1 <1>   0.0800 
 31 H       -5.4510    -2.8910    -2.5050 H     1 <1>   0.0800 
 32 H       -6.5020    -1.3510    -0.4760 H     1 <1>   0.4000 
 33 H       -8.0670    -4.2380    -1.9910 H     1 <1>   0.1500 
 34 H       -9.1480    -3.1930     2.6880 H     1 <1>   0.1500 
 35 H       -7.5960     0.4240     1.9120 H     1 <1>   0.0800 
 36 H       -9.1330    -0.4360     1.8330 H     1 <1>   0.0800 
 37 H       -8.2130    -0.1360     0.3570 H     1 <1>   0.0800 
 38 H      -10.2010    -5.1310     1.5950 H     1 <1>   0.1500 
 39 H       -9.3100    -6.3000    -1.8260 H     1 <1>   0.0800 
 40 H      -10.8630    -5.7520    -1.2410 H     1 <1>   0.0800 
 41 H       -9.8970    -6.8450    -0.2770 H     1 <1>   0.0800 
@<TRIPOS>BOND
  1   1   2  1   
  2   1   3  1   
  3   2   4  ar  
  4   2   5  ar  
  5   3   6  1   
  6   3  23  1   
  7   3  24  1   
  8   4   7  1   
  9   4   8  ar  
 10   5   6  1   
 11   5   9  ar  
 12   7  10  1   
 13   8  11  ar  
 14   8  25  1   
 15   9  11  ar  
 16   9  26  1   
 17  10  27  1   
 18  10  28  1   
 19  10  29  1   
 20  11  12  1   
 21  12  13  1   
 22  12  30  1   
 23  12  31  1   
 24  13  14  1   
 25  13  32  1   
 26  14  15  ar  
 27  14  16  ar  
 28  15  17  1   
 29  15  18  ar  
 30  16  19  ar  
 31  16  33  1   
 32  17  20  1   
 33  18  21  ar  
 34  18  34  1   
 35  19  21  ar  
 36  19  22  1   
 37  20  35  1   
 38  20  36  1   
 39  20  37  1   
 40  21  38  1   
 41  22  39  1   
 42  22  40  1   
 43  22  41  1   
@<TRIPOS>SUBSTRUCTURE
  1 ****   9 GROUP 4 **** **** 0

# MOE 2024.06 (io_trps.svl 2023.06)
