@<TRIPOS>MOLECULE
NONAME
25 24 1 0 0 
SMALL
USER_CHARGES


@<TRIPOS>ATOM
  1 S        0.1290    -0.1920    -0.1970 S.3   1 <1>  -0.4600 
  2 C        1.4080     1.0010     0.4040 C.3   1 <1>   0.0440 
  3 C       -1.4030     0.7720    -0.0440 C.3   1 <1>   0.0700 
  4 C        1.0960     2.4390    -0.0750 C.2   1 <1>   0.9060 
  5 C        2.7830     0.4110     0.0130 C.3   1 <1>  -0.2660 
  6 C       -2.6180    -0.1400    -0.2830 C.3   1 <1>  -0.0800 
  7 O        0.4400     3.1860     0.6720 O.co2 1 <1>  -0.9000 
  8 O        1.3830     2.8080    -1.2250 O.co2 1 <1>  -0.9000 
  9 C        3.9060     0.8060     0.9430 C.2   1 <1>   0.9060 
 10 C       -3.8880     0.7100    -0.4120 C.3   1 <1>  -0.2400 
 11 C       -2.7940    -1.1630     0.8480 C.3   1 <1>  -0.2400 
 12 O        3.7310     0.7410     2.1670 O.co2 1 <1>  -0.9000 
 13 O        5.0150     1.0710     0.4630 O.co2 1 <1>  -0.9000 
 14 H        1.3120     0.9950     1.4730 H     1 <1>   0.0800 
 15 H       -1.3460     1.5530    -0.7830 H     1 <1>   0.0800 
 16 H       -1.4120     1.2110     0.9380 H     1 <1>   0.0800 
 17 H        3.0360     0.7170    -0.9830 H     1 <1>   0.0800 
 18 H        2.7370    -0.6590     0.0410 H     1 <1>   0.0800 
 19 H       -2.4640    -0.6640    -1.2120 H     1 <1>   0.0800 
 20 H       -4.0650     1.2590     0.4960 H     1 <1>   0.0800 
 21 H       -4.7400     0.0850    -0.6130 H     1 <1>   0.0800 
 22 H       -3.7810     1.4110    -1.2200 H     1 <1>   0.0800 
 23 H       -2.9150    -0.6620     1.7920 H     1 <1>   0.0800 
 24 H       -1.9300    -1.8020     0.9110 H     1 <1>   0.0800 
 25 H       -3.6560    -1.7800     0.6670 H     1 <1>   0.0800 
@<TRIPOS>BOND
  1   1   2  1   
  2   1   3  1   
  3   2   4  1   
  4   2   5  1   
  5   2  14  1   
  6   3   6  1   
  7   3  15  1   
  8   3  16  1   
  9   4   7  ar  
 10   4   8  ar  
 11   5   9  1   
 12   5  17  1   
 13   5  18  1   
 14   6  10  1   
 15   6  11  1   
 16   6  19  1   
 17   9  12  ar  
 18   9  13  ar  
 19  10  20  1   
 20  10  21  1   
 21  10  22  1   
 22  11  23  1   
 23  11  24  1   
 24  11  25  1   
@<TRIPOS>SUBSTRUCTURE
  1 ****   2 GROUP 4 **** **** 0

# MOE 2024.06 (io_trps.svl 2023.06)
