@<TRIPOS>MOLECULE
NONAME
39 41 1 0 0 
SMALL
USER_CHARGES


@<TRIPOS>ATOM
  1 O        0.3110    -0.0180     0.1260 O.2   1 <1>  -0.5700 
  2 C        0.0520     1.1510     0.3470 C.2   1 <1>   0.7150 
  3 N        1.0270     2.0500     0.7220 N.am  1 <1>  -0.6600 
  4 C       -1.2870     1.6420     0.2270 C.2   1 <1>  -0.2370 
  5 C        0.6560     3.4120     1.2410 C.3   1 <1>   0.1400 
  6 C        2.4530     1.6590     0.8400 C.3   1 <1>   0.1400 
  7 N       -2.4100     0.9000    -0.0170 N.pl3 1 <1>   0.0330 
  8 C       -1.6440     2.9460     0.3280 C.2   1 <1>  -0.1810 
  9 C       -0.5990     4.0150     0.5670 C.3   1 <1>   0.0210 
 10 C        3.2230     2.1560    -0.3850 C.3   1 <1>  -0.1600 
 11 C       -3.4910     1.7460    -0.0670 C.ar  1 <1>  -0.1520 
 12 C       -3.0350     3.0460     0.1460 C.ar  1 <1>   0.0000 
 13 C        4.7050     1.7690    -0.3060 C.3   1 <1>  -0.1600 
 14 C       -4.8480     1.4830    -0.2870 C.ar  1 <1>  -0.1440 
 15 C       -3.9460     4.1090     0.1400 C.ar  1 <1>  -0.1500 
 16 C        5.4700     2.2660    -1.5350 C.3   1 <1>  -0.2400 
 17 C       -5.7280     2.5420    -0.2870 C.ar  1 <1>  -0.1500 
 18 C       -5.3210     0.0580    -0.5160 C.3   1 <1>  -0.0970 
 19 C       -5.2780     3.8520    -0.0750 C.ar  1 <1>  -0.1500 
 20 H        1.4830     4.0890     1.1110 H     1 <1>   0.0800 
 21 H        0.4660     3.3200     2.2960 H     1 <1>   0.0800 
 22 H        2.5360     0.5870     0.9070 H     1 <1>   0.0800 
 23 H        2.8690     2.0790     1.7400 H     1 <1>   0.0800 
 24 H       -2.4200    -0.1150    -0.1520 H     1 <1>   0.2700 
 25 H       -0.3230     4.4480    -0.3770 H     1 <1>   0.0800 
 26 H       -1.0020     4.7930     1.1890 H     1 <1>   0.0800 
 27 H        3.1370     3.2260    -0.4550 H     1 <1>   0.0800 
 28 H        2.7870     1.7190    -1.2670 H     1 <1>   0.0800 
 29 H        4.7940     0.6970    -0.2440 H     1 <1>   0.0800 
 30 H        5.1450     2.1930     0.5810 H     1 <1>   0.0800 
 31 H       -3.5870     5.1070     0.3030 H     1 <1>   0.1500 
 32 H        5.0580     1.8370    -2.4320 H     1 <1>   0.0800 
 33 H        6.5050     1.9820    -1.4650 H     1 <1>   0.0800 
 34 H        5.4140     3.3390    -1.6060 H     1 <1>   0.0800 
 35 H       -6.7780     2.3810    -0.4520 H     1 <1>   0.1500 
 36 H       -4.8410    -0.3500    -1.3870 H     1 <1>   0.0800 
 37 H       -6.3850     0.0290    -0.6670 H     1 <1>   0.0800 
 38 H       -5.0800    -0.5490     0.3370 H     1 <1>   0.0800 
 39 H       -5.9930     4.6560    -0.0830 H     1 <1>   0.1500 
@<TRIPOS>BOND
  1   1   2  2   
  2   2   3  am  
  3   2   4  1   
  4   3   5  1   
  5   3   6  1   
  6   4   7  1   
  7   4   8  2   
  8   5   9  1   
  9   5  20  1   
 10   5  21  1   
 11   6  10  1   
 12   6  22  1   
 13   6  23  1   
 14   7  11  1   
 15   7  24  1   
 16   8   9  1   
 17   8  12  1   
 18   9  25  1   
 19   9  26  1   
 20  10  13  1   
 21  10  27  1   
 22  10  28  1   
 23  11  12  ar  
 24  11  14  ar  
 25  12  15  ar  
 26  13  16  1   
 27  13  29  1   
 28  13  30  1   
 29  14  17  ar  
 30  14  18  1   
 31  15  19  ar  
 32  15  31  1   
 33  16  32  1   
 34  16  33  1   
 35  16  34  1   
 36  17  19  ar  
 37  17  35  1   
 38  18  36  1   
 39  18  37  1   
 40  18  38  1   
 41  19  39  1   
@<TRIPOS>SUBSTRUCTURE
  1 ****   4 GROUP 4 **** **** 0

# MOE 2024.06 (io_trps.svl 2023.06)
