@<TRIPOS>MOLECULE
NONAME
39 40 1 0 0 
SMALL
USER_CHARGES


@<TRIPOS>ATOM
  1 O       -0.8280    -0.0960     0.9560 O.3   1 <1>  -0.5600 
  2 C       -0.6150     1.2730     0.7400 C.3   1 <1>   0.1200 
  3 C       -1.3510    -0.7780    -0.1520 C.3   1 <1>   0.1200 
  4 C       -1.9130     1.9800     0.2800 C.3   1 <1>   0.3430 
  5 C       -2.7150    -0.1860    -0.5770 C.3   1 <1>   0.3430 
  6 N       -3.0730     1.0270     0.2400 N.4   1 <1>  -0.9590 
  7 C       -4.3400     1.6910    -0.1680 C.3   1 <1>   0.3430 
  8 C       -5.5430     0.8020     0.1530 C.3   1 <1>  -0.1600 
  9 C       -6.8510     1.5370    -0.1750 C.3   1 <1>  -0.1600 
 10 C       -8.0820     0.6860     0.1450 C.3   1 <1>   0.1200 
 11 O       -9.2160     1.4400    -0.2010 O.3   1 <1>  -0.3630 
 12 C      -10.4700     0.9510    -0.0330 C.ar  1 <1>   0.0820 
 13 C      -11.5160     1.7760    -0.4130 C.ar  1 <1>  -0.1500 
 14 C      -10.7490    -0.3100     0.4900 C.ar  1 <1>  -0.1500 
 15 C      -12.8280     1.3560    -0.2770 C.ar  1 <1>  -0.1500 
 16 C      -12.0610    -0.7280     0.6260 C.ar  1 <1>  -0.1500 
 17 C      -13.1000     0.1030     0.2430 C.ar  1 <1>  -0.1500 
 18 H        0.1640     1.3900     0.0050 H     1 <1>   0.0800 
 19 H       -0.2690     1.6990     1.6650 H     1 <1>   0.0800 
 20 H       -1.4640    -1.8130     0.1210 H     1 <1>   0.0800 
 21 H       -0.6400    -0.7200    -0.9590 H     1 <1>   0.0800 
 22 H       -1.7510     2.4040    -0.6970 H     1 <1>   0.0800 
 23 H       -2.1240     2.7940     0.9550 H     1 <1>   0.0800 
 24 H       -3.4720    -0.9440    -0.4610 H     1 <1>   0.0800 
 25 H       -2.6730     0.0720    -1.6230 H     1 <1>   0.0800 
 26 H       -3.1620     0.6820     1.2080 H     1 <1>   0.4500 
 27 H       -4.3190     1.9140    -1.2230 H     1 <1>   0.0800 
 28 H       -4.4460     2.6210     0.3680 H     1 <1>   0.0800 
 29 H       -5.5380     0.5520     1.2000 H     1 <1>   0.0800 
 30 H       -5.5030    -0.1040    -0.4250 H     1 <1>   0.0800 
 31 H       -6.8740     1.7880    -1.2220 H     1 <1>   0.0800 
 32 H       -6.9110     2.4480     0.3970 H     1 <1>   0.0800 
 33 H       -8.1340     0.4590     1.1960 H     1 <1>   0.0800 
 34 H       -8.0900    -0.2200    -0.4370 H     1 <1>   0.0800 
 35 H      -11.2960     2.7480    -0.8160 H     1 <1>   0.1500 
 36 H       -9.9660    -0.9760     0.7960 H     1 <1>   0.1500 
 37 H      -13.6340     2.0040    -0.5750 H     1 <1>   0.1500 
 38 H      -12.2770    -1.7020     1.0300 H     1 <1>   0.1500 
 39 H      -14.1200    -0.2250     0.3500 H     1 <1>   0.1500 
@<TRIPOS>BOND
  1   1   2  1   
  2   1   3  1   
  3   2   4  1   
  4   2  18  1   
  5   2  19  1   
  6   3   5  1   
  7   3  20  1   
  8   3  21  1   
  9   4   6  1   
 10   4  22  1   
 11   4  23  1   
 12   5   6  1   
 13   5  24  1   
 14   5  25  1   
 15   6   7  1   
 16   6  26  1   
 17   7   8  1   
 18   7  27  1   
 19   7  28  1   
 20   8   9  1   
 21   8  29  1   
 22   8  30  1   
 23   9  10  1   
 24   9  31  1   
 25   9  32  1   
 26  10  11  1   
 27  10  33  1   
 28  10  34  1   
 29  11  12  1   
 30  12  13  ar  
 31  12  14  ar  
 32  13  15  ar  
 33  13  35  1   
 34  14  16  ar  
 35  14  36  1   
 36  15  17  ar  
 37  15  37  1   
 38  16  17  ar  
 39  16  38  1   
 40  17  39  1   
@<TRIPOS>SUBSTRUCTURE
  1 ****   9 GROUP 4 **** **** 0

# MOE 2024.06 (io_trps.svl 2023.06)
