@<TRIPOS>MOLECULE
NONAME
29 29 1 0 0 
SMALL
USER_CHARGES


@<TRIPOS>ATOM
  1 S        0.1260     0.2420    -0.7210 S.o2  1 <1>   1.4470 
  2 O        0.7060    -1.0670    -0.9190 O.2   1 <1>  -0.6500 
  3 O        0.3040     1.2780    -1.7130 O.2   1 <1>  -0.6500 
  4 N        0.8310     0.7830     0.7060 N.am  1 <1>  -0.9140 
  5 C       -1.6280     0.0970    -0.2840 C.ar  1 <1>  -0.0090 
  6 C        2.0360     1.5830     0.5500 C.3   1 <1>   0.1960 
  7 C       -2.3510     1.2050     0.1420 C.ar  1 <1>  -0.1500 
  8 C       -2.2950    -1.1200    -0.3600 C.ar  1 <1>  -0.1500 
  9 C        3.2220     0.7140     0.1170 C.3   1 <1>  -0.1600 
 10 C       -3.6890     1.1040     0.4810 C.ar  1 <1>  -0.1500 
 11 C       -3.6340    -1.2290    -0.0230 C.ar  1 <1>  -0.1500 
 12 C        4.5230     1.5240     0.0930 C.3   1 <1>  -0.2400 
 13 C       -4.3380    -0.1160     0.4020 C.ar  1 <1>  -0.1430 
 14 C       -5.8060    -0.2300     0.7710 C.3   1 <1>  -0.0970 
 15 H        1.0910    -0.0760     1.1850 H     1 <1>   0.4200 
 16 H        2.2650     2.0350     1.5010 H     1 <1>   0.0800 
 17 H        1.8710     2.3800    -0.1570 H     1 <1>   0.0800 
 18 H       -1.8570     2.1590     0.2070 H     1 <1>   0.1500 
 19 H       -1.7620    -1.9970    -0.6890 H     1 <1>   0.1500 
 20 H        3.0470     0.3220    -0.8710 H     1 <1>   0.0800 
 21 H        3.3370    -0.1110     0.7980 H     1 <1>   0.0800 
 22 H       -4.2220     1.9810     0.8060 H     1 <1>   0.1500 
 23 H       -4.1240    -2.1840    -0.0940 H     1 <1>   0.1500 
 24 H        4.4420     2.3450    -0.5980 H     1 <1>   0.0800 
 25 H        5.3390     0.8970    -0.2190 H     1 <1>   0.0800 
 26 H        4.7460     1.9130     1.0710 H     1 <1>   0.0800 
 27 H       -6.0610     0.4890     1.5290 H     1 <1>   0.0800 
 28 H       -6.0240    -1.2120     1.1500 H     1 <1>   0.0800 
 29 H       -6.4140    -0.0490    -0.0970 H     1 <1>   0.0800 
@<TRIPOS>BOND
  1   1   2  2   
  2   1   3  2   
  3   1   4  am  
  4   1   5  1   
  5   4   6  1   
  6   4  15  1   
  7   5   7  ar  
  8   5   8  ar  
  9   6   9  1   
 10   6  16  1   
 11   6  17  1   
 12   7  10  ar  
 13   7  18  1   
 14   8  11  ar  
 15   8  19  1   
 16   9  12  1   
 17   9  20  1   
 18   9  21  1   
 19  10  13  ar  
 20  10  22  1   
 21  11  13  ar  
 22  11  23  1   
 23  12  24  1   
 24  12  25  1   
 25  12  26  1   
 26  13  14  1   
 27  14  27  1   
 28  14  28  1   
 29  14  29  1   
@<TRIPOS>SUBSTRUCTURE
  1 ****   5 GROUP 4 **** **** 0

# MOE 2024.06 (io_trps.svl 2023.06)
