@<TRIPOS>MOLECULE
NONAME
50 51 1 0 0 
SMALL
USER_CHARGES


@<TRIPOS>ATOM
  1 O       -5.7810     1.5910    -1.6170 O.2   1 <1>  -0.5700 
  2 C       -5.6670     2.0840    -0.5260 C.2   1 <1>   0.6590 
  3 O       -4.6010     1.8990     0.2370 O.3   1 <1>  -0.4300 
  4 C       -6.7640     2.9670     0.0590 C.3   1 <1>  -0.0190 
  5 C       -3.5200     1.1020    -0.1910 C.3   1 <1>   0.1200 
  6 C       -8.0650     2.1670     0.2590 C.3   1 <1>  -0.1600 
  7 C       -7.0240     4.1930    -0.8370 C.3   1 <1>  -0.1600 
  8 C       -2.4680     1.0980     0.9130 C.3   1 <1>  -0.2400 
  9 C       -9.2190     3.0520     0.7280 C.3   1 <1>   0.3430 
 10 C       -8.2010     5.0290    -0.3390 C.3   1 <1>   0.3430 
 11 N       -9.4170     4.1720    -0.2410 N.4   1 <1>  -0.9590 
 12 C      -10.6170     4.9960     0.0790 C.3   1 <1>   0.3430 
 13 C      -11.8940     4.2100    -0.2080 C.3   1 <1>  -0.1600 
 14 C      -13.1290     5.0860     0.0020 C.3   1 <1>   0.1200 
 15 O      -14.2510     4.2860    -0.2670 O.3   1 <1>  -0.3630 
 16 C      -15.5100     4.7810    -0.1640 C.ar  1 <1>   0.0820 
 17 C      -15.8020     6.0910     0.2060 C.ar  1 <1>  -0.1500 
 18 C      -16.5480     3.9090    -0.4490 C.ar  1 <1>  -0.1500 
 19 C      -17.1190     6.5100     0.2850 C.ar  1 <1>  -0.1500 
 20 C      -17.8630     4.3320    -0.3690 C.ar  1 <1>  -0.1500 
 21 C      -18.1550     5.6360    -0.0020 C.ar  1 <1>  -0.1440 
 22 C      -19.5970     6.1010     0.0880 C.3   1 <1>  -0.0970 
 23 H       -6.4270     3.3140     1.0210 H     1 <1>   0.0800 
 24 H       -3.1250     1.5220    -1.1010 H     1 <1>   0.0800 
 25 H       -3.8840     0.1060    -0.3830 H     1 <1>   0.0800 
 26 H       -7.8980     1.3930     0.9870 H     1 <1>   0.0800 
 27 H       -8.3450     1.6820    -0.6620 H     1 <1>   0.0800 
 28 H       -7.2180     3.8770    -1.8480 H     1 <1>   0.0800 
 29 H       -6.1410     4.8080    -0.8610 H     1 <1>   0.0800 
 30 H       -2.1200     2.0980     1.0990 H     1 <1>   0.0800 
 31 H       -1.6300     0.4960     0.6110 H     1 <1>   0.0800 
 32 H       -2.8780     0.6840     1.8160 H     1 <1>   0.0800 
 33 H       -8.9980     3.4480     1.7060 H     1 <1>   0.0800 
 34 H      -10.1130     2.4540     0.7990 H     1 <1>   0.0800 
 35 H       -8.3750     5.8430    -1.0260 H     1 <1>   0.0800 
 36 H       -7.9670     5.4450     0.6280 H     1 <1>   0.0800 
 37 H       -9.5640     3.7480    -1.1690 H     1 <1>   0.4500 
 38 H      -10.6150     5.8840    -0.5330 H     1 <1>   0.0800 
 39 H      -10.5940     5.3000     1.1130 H     1 <1>   0.0800 
 40 H      -11.9710     3.3660     0.4520 H     1 <1>   0.0800 
 41 H      -11.8910     3.8700    -1.2290 H     1 <1>   0.0800 
 42 H      -13.1400     5.9200    -0.6800 H     1 <1>   0.0800 
 43 H      -13.1980     5.4300     1.0200 H     1 <1>   0.0800 
 44 H      -15.0300     6.7980     0.4360 H     1 <1>   0.1500 
 45 H      -16.3220     2.8980    -0.7340 H     1 <1>   0.1500 
 46 H      -17.3370     7.5240     0.5740 H     1 <1>   0.1500 
 47 H      -18.6570     3.6420    -0.5930 H     1 <1>   0.1500 
 48 H      -19.6700     7.1490    -0.1390 H     1 <1>   0.0800 
 49 H      -19.9710     5.9320     1.0810 H     1 <1>   0.0800 
 50 H      -20.2100     5.5600    -0.6110 H     1 <1>   0.0800 
@<TRIPOS>BOND
  1   1   2  2   
  2   2   3  1   
  3   2   4  1   
  4   3   5  1   
  5   4   6  1   
  6   4   7  1   
  7   4  23  1   
  8   5   8  1   
  9   5  24  1   
 10   5  25  1   
 11   6   9  1   
 12   6  26  1   
 13   6  27  1   
 14   7  10  1   
 15   7  28  1   
 16   7  29  1   
 17   8  30  1   
 18   8  31  1   
 19   8  32  1   
 20   9  11  1   
 21   9  33  1   
 22   9  34  1   
 23  10  11  1   
 24  10  35  1   
 25  10  36  1   
 26  11  12  1   
 27  11  37  1   
 28  12  13  1   
 29  12  38  1   
 30  12  39  1   
 31  13  14  1   
 32  13  40  1   
 33  13  41  1   
 34  14  15  1   
 35  14  42  1   
 36  14  43  1   
 37  15  16  1   
 38  16  17  ar  
 39  16  18  ar  
 40  17  19  ar  
 41  17  44  1   
 42  18  20  ar  
 43  18  45  1   
 44  19  21  ar  
 45  19  46  1   
 46  20  21  ar  
 47  20  47  1   
 48  21  22  1   
 49  22  48  1   
 50  22  49  1   
 51  22  50  1   
@<TRIPOS>SUBSTRUCTURE
  1 ****  13 GROUP 4 **** **** 0

# MOE 2024.06 (io_trps.svl 2023.06)
