@<TRIPOS>MOLECULE
NONAME
30 30 1 0 0 
SMALL
USER_CHARGES


@<TRIPOS>ATOM
  1 CL      -1.7490    -1.4410    -2.2940 Cl    1 <1>  -0.1770 
  2 C       -0.8750    -2.3770    -1.1070 C.ar  1 <1>   0.1770 
  3 C        0.1000    -1.7610    -0.3440 C.ar  1 <1>  -0.1500 
  4 C       -1.1750    -3.7170    -0.9490 C.ar  1 <1>  -0.1500 
  5 C        0.8020    -2.4960     0.6000 C.ar  1 <1>  -0.1440 
  6 C       -0.4780    -4.4560    -0.0090 C.ar  1 <1>  -0.1500 
  7 C        0.5140    -3.8510     0.7540 C.ar  1 <1>   0.0830 
  8 C        1.8730    -1.8210     1.4430 C.3   1 <1>  -0.0960 
  9 O        1.2100    -4.5730     1.6640 O.3   1 <1>  -0.3630 
 10 C        1.9540    -5.6870     1.2110 C.3   1 <1>   0.1200 
 11 C        3.1450    -5.2070     0.3750 C.3   1 <1>   0.1960 
 12 N        3.9320    -6.3440    -0.0940 N.am  1 <1>  -0.9140 
 13 S        5.2120    -5.8810    -1.0670 S.o2  1 <1>   1.3330 
 14 O        5.7040    -4.6090    -0.5980 O.2   1 <1>  -0.6500 
 15 O        4.7000    -6.0390    -2.4050 O.2   1 <1>  -0.6500 
 16 C        6.4270    -7.1370    -0.7360 C.3   1 <1>  -0.1350 
 17 H        0.3010    -0.7160    -0.4950 H     1 <1>   0.1500 
 18 H       -1.9430    -4.1670    -1.5510 H     1 <1>   0.1500 
 19 H       -0.7130    -5.4950     0.1340 H     1 <1>   0.1500 
 20 H        1.8270    -0.7510     1.3430 H     1 <1>   0.0800 
 21 H        2.8480    -2.1530     1.1330 H     1 <1>   0.0800 
 22 H        1.7370    -2.0700     2.4810 H     1 <1>   0.0800 
 23 H        1.3120    -6.3310     0.6400 H     1 <1>   0.0800 
 24 H        2.3060    -6.2110     2.0810 H     1 <1>   0.0800 
 25 H        3.7630    -4.5730     0.9900 H     1 <1>   0.0800 
 26 H        2.7960    -4.6380    -0.4710 H     1 <1>   0.0800 
 27 H        3.3420    -6.8690    -0.7410 H     1 <1>   0.4200 
 28 H        6.7040    -7.1170     0.2990 H     1 <1>   0.0800 
 29 H        7.3030    -6.9650    -1.3310 H     1 <1>   0.0800 
 30 H        6.0350    -8.1060    -0.9720 H     1 <1>   0.0800 
@<TRIPOS>BOND
  1   1   2  1   
  2   2   3  ar  
  3   2   4  ar  
  4   3   5  ar  
  5   3  17  1   
  6   4   6  ar  
  7   4  18  1   
  8   5   7  ar  
  9   5   8  1   
 10   6   7  ar  
 11   6  19  1   
 12   7   9  1   
 13   8  20  1   
 14   8  21  1   
 15   8  22  1   
 16   9  10  1   
 17  10  11  1   
 18  10  23  1   
 19  10  24  1   
 20  11  12  1   
 21  11  25  1   
 22  11  26  1   
 23  12  13  am  
 24  12  27  1   
 25  13  14  2   
 26  13  15  2   
 27  13  16  1   
 28  16  28  1   
 29  16  29  1   
 30  16  30  1   
@<TRIPOS>SUBSTRUCTURE
  1 ****  11 GROUP 4 **** **** 0

# MOE 2024.06 (io_trps.svl 2023.06)
