@<TRIPOS>MOLECULE
NONAME
36 37 1 0 0 
SMALL
USER_CHARGES


@<TRIPOS>ATOM
  1 S        0.5090    -0.5680     1.5550 S.o2  1 <1>   1.4470 
  2 O        1.4570    -1.2700     2.3950 O.2   1 <1>  -0.6500 
  3 O        0.2990     0.8500     1.7450 O.2   1 <1>  -0.6500 
  4 N        1.0310    -0.7750    -0.0410 N.am  1 <1>  -0.8490 
  5 C       -1.0940    -1.4160     1.5560 C.ar  1 <1>  -0.0090 
  6 C        1.9860     0.2680    -0.4600 C.3   1 <1>   0.1960 
  7 C        1.5680    -2.1120    -0.3210 C.3   1 <1>   0.1960 
  8 C       -2.0580    -1.1020     0.6070 C.ar  1 <1>  -0.1500 
  9 C       -1.3980    -2.3930     2.4960 C.ar  1 <1>  -0.1500 
 10 C        2.8410    -0.1280    -1.6860 C.3   1 <1>   0.1200 
 11 C        1.8940    -2.2870    -1.8230 C.3   1 <1>   0.1200 
 12 C       -3.2950    -1.7310     0.5700 C.ar  1 <1>   0.1990 
 13 C       -2.6250    -3.0340     2.4820 C.ar  1 <1>  -0.1500 
 14 O        2.1900    -1.0790    -2.4770 O.3   1 <1>  -0.5600 
 15 N       -4.1950    -1.3620    -0.4220 N.am  1 <1>  -0.7570 
 16 C       -3.5650    -2.7050     1.5260 C.ar  1 <1>  -0.1500 
 17 S       -5.7980    -1.8950    -0.7270 S.o2  1 <1>   1.3330 
 18 O       -6.4640    -2.0810     0.5360 O.2   1 <1>  -0.6500 
 19 O       -6.2920    -0.9690    -1.7130 O.2   1 <1>  -0.6500 
 20 C       -5.5250    -3.4690    -1.5110 C.3   1 <1>  -0.1350 
 21 H        2.6530     0.5070     0.3520 H     1 <1>   0.0800 
 22 H        1.4340     1.1630    -0.6920 H     1 <1>   0.0800 
 23 H        0.8600    -2.8670    -0.0250 H     1 <1>   0.0800 
 24 H        2.4670    -2.2680     0.2530 H     1 <1>   0.0800 
 25 H       -1.8310    -0.3460    -0.1240 H     1 <1>   0.1500 
 26 H       -0.6700    -2.6530     3.2480 H     1 <1>   0.1500 
 27 H        3.7820    -0.5420    -1.3690 H     1 <1>   0.0800 
 28 H        3.0390     0.7360    -2.2960 H     1 <1>   0.0800 
 29 H        1.0480    -2.7170    -2.3290 H     1 <1>   0.0800 
 30 H        2.7320    -2.9500    -1.9450 H     1 <1>   0.0800 
 31 H       -2.8470    -3.7860     3.2210 H     1 <1>   0.1500 
 32 H       -4.0070    -0.5240    -0.9650 H     1 <1>   0.4200 
 33 H       -4.5130    -3.2090     1.5400 H     1 <1>   0.1500 
 34 H       -5.0240    -4.1370    -0.8390 H     1 <1>   0.0800 
 35 H       -4.9240    -3.3450    -2.3900 H     1 <1>   0.0800 
 36 H       -6.4630    -3.9040    -1.7940 H     1 <1>   0.0800 
@<TRIPOS>BOND
  1   1   2  2   
  2   1   3  2   
  3   1   4  am  
  4   1   5  1   
  5   4   6  1   
  6   4   7  1   
  7   5   8  ar  
  8   5   9  ar  
  9   6  10  1   
 10   6  21  1   
 11   6  22  1   
 12   7  11  1   
 13   7  23  1   
 14   7  24  1   
 15   8  12  ar  
 16   8  25  1   
 17   9  13  ar  
 18   9  26  1   
 19  10  14  1   
 20  10  27  1   
 21  10  28  1   
 22  11  14  1   
 23  11  29  1   
 24  11  30  1   
 25  12  15  1   
 26  12  16  ar  
 27  13  16  ar  
 28  13  31  1   
 29  15  17  am  
 30  15  32  1   
 31  16  33  1   
 32  17  18  2   
 33  17  19  2   
 34  17  20  1   
 35  20  34  1   
 36  20  35  1   
 37  20  36  1   
@<TRIPOS>SUBSTRUCTURE
  1 ****   8 GROUP 4 **** **** 0

# MOE 2024.06 (io_trps.svl 2023.06)
