@<TRIPOS>MOLECULE
NONAME
41 43 1 0 0 
SMALL
USER_CHARGES


@<TRIPOS>ATOM
  1 O       -0.2010     0.0920     1.1000 O.2   1 <1>  -0.5700 
  2 C        0.9060     0.4810     0.7990 C.2   1 <1>   0.6900 
  3 N        1.1250     1.7660     0.3550 N.am  1 <1>  -0.4770 
  4 N        1.9280    -0.3950     0.9380 N.am  1 <1>  -0.7300 
  5 C        0.1250     2.6640    -0.0230 C.ar  1 <1>   0.1170 
  6 C        2.2800     2.5580     0.8430 C.3   1 <1>   0.2200 
  7 C        2.8260    -0.7840    -0.1760 C.3   1 <1>   0.0600 
  8 C        0.3770     3.9350     0.4420 C.ar  1 <1>  -0.1430 
  9 C       -1.0010     2.4170    -0.7900 C.ar  1 <1>  -0.1500 
 10 C        1.6340     3.8980     1.2770 C.3   1 <1>   0.0640 
 11 C        3.2690     2.6850    -0.3370 C.3   1 <1>  -0.1600 
 12 C       -0.4730     4.9870     0.1500 C.ar  1 <1>  -0.1500 
 13 C       -1.8550     3.4640    -1.0950 C.ar  1 <1>  -0.1500 
 14 C        2.5220     5.1330     1.1030 C.3   1 <1>   0.3430 
 15 C        4.0960     3.9650    -0.3380 C.3   1 <1>   0.3430 
 16 C       -1.5950     4.7480    -0.6320 C.ar  1 <1>  -0.1440 
 17 N        3.1810     5.1290    -0.2330 N.4   1 <1>  -0.9590 
 18 C       -2.5530     5.8760    -0.9710 C.3   1 <1>  -0.0970 
 19 C        3.8890     6.4160    -0.5040 C.3   1 <1>   0.2630 
 20 H        1.6350    -1.1980     1.5000 H     1 <1>   0.3700 
 21 H        2.7480     2.0790     1.6860 H     1 <1>   0.0800 
 22 H        2.6460    -0.1630    -1.0370 H     1 <1>   0.0800 
 23 H        2.6400    -1.8090    -0.4470 H     1 <1>   0.0800 
 24 H        3.8530    -0.6840     0.1310 H     1 <1>   0.0800 
 25 H       -1.2040     1.4190    -1.1360 H     1 <1>   0.1500 
 26 H        1.3400     3.8260     2.3100 H     1 <1>   0.0800 
 27 H        2.7350     2.6440    -1.2710 H     1 <1>   0.0800 
 28 H        3.9420     1.8470    -0.3170 H     1 <1>   0.0800 
 29 H       -0.2890     5.9760     0.5280 H     1 <1>   0.1500 
 30 H       -2.7310     3.2720    -1.6900 H     1 <1>   0.1500 
 31 H        3.2730     5.1420     1.8750 H     1 <1>   0.0800 
 32 H        1.9160     6.0170     1.2140 H     1 <1>   0.0800 
 33 H        4.6640     4.0200    -1.2540 H     1 <1>   0.0800 
 34 H        4.7870     3.9610     0.4910 H     1 <1>   0.0800 
 35 H        2.4300     5.0040    -0.9360 H     1 <1>   0.4500 
 36 H       -2.0730     6.8320    -0.8740 H     1 <1>   0.0800 
 37 H       -3.3990     5.8440    -0.3080 H     1 <1>   0.0800 
 38 H       -2.9050     5.7740    -1.9830 H     1 <1>   0.0800 
 39 H        4.6730     6.5750     0.2200 H     1 <1>   0.0800 
 40 H        3.1970     7.2420    -0.4500 H     1 <1>   0.0800 
 41 H        4.3270     6.4020    -1.4890 H     1 <1>   0.0800 
@<TRIPOS>BOND
  1   1   2  2   
  2   2   3  am  
  3   2   4  am  
  4   3   5  1   
  5   3   6  1   
  6   4   7  1   
  7   4  20  1   
  8   5   8  ar  
  9   5   9  ar  
 10   6  10  1   
 11   6  11  1   
 12   6  21  1   
 13   7  22  1   
 14   7  23  1   
 15   7  24  1   
 16   8  10  1   
 17   8  12  ar  
 18   9  13  ar  
 19   9  25  1   
 20  10  14  1   
 21  10  26  1   
 22  11  15  1   
 23  11  27  1   
 24  11  28  1   
 25  12  16  ar  
 26  12  29  1   
 27  13  16  ar  
 28  13  30  1   
 29  14  17  1   
 30  14  31  1   
 31  14  32  1   
 32  15  17  1   
 33  15  33  1   
 34  15  34  1   
 35  16  18  1   
 36  17  19  1   
 37  17  35  1   
 38  18  36  1   
 39  18  37  1   
 40  18  38  1   
 41  19  39  1   
 42  19  40  1   
 43  19  41  1   
@<TRIPOS>SUBSTRUCTURE
  1 ****   5 GROUP 4 **** **** 0

# MOE 2024.06 (io_trps.svl 2023.06)
