@<TRIPOS>MOLECULE
NONAME
50 52 1 0 0 
SMALL
USER_CHARGES


@<TRIPOS>ATOM
  1 O      -14.7640     1.8380     0.0510 O.3   1 <1>  -0.5600 
  2 C      -15.9940     2.3000     0.5210 C.3   1 <1>   0.2640 
  3 C      -13.6480     2.4540     0.6130 C.3   1 <1>   0.1200 
  4 C      -17.0910     1.4800    -0.1360 C.ar  1 <1>  -0.1440 
  5 C      -12.3960     1.8130    -0.0050 C.3   1 <1>   0.2000 
  6 C      -17.4310     1.7070    -1.4610 C.ar  1 <1>  -0.1500 
  7 C      -17.7640     0.5010     0.5790 C.ar  1 <1>  -0.1500 
  8 O      -12.5590     0.4280     0.0130 O.3   1 <1>  -0.6800 
  9 C      -11.0910     2.1740     0.7360 C.3   1 <1>   0.3430 
 10 C      -18.4350     0.9680    -2.0630 C.ar  1 <1>  -0.1500 
 11 C      -18.7680    -0.2390    -0.0220 C.ar  1 <1>  -0.1500 
 12 N      -10.0470     1.1320     0.4930 N.4   1 <1>  -0.9590 
 13 C      -19.1050    -0.0050    -1.3430 C.ar  1 <1>  -0.1500 
 14 C       -9.0100     1.0610     1.5830 C.3   1 <1>   0.3430 
 15 C       -9.4180     1.2330    -0.8730 C.3   1 <1>   0.3430 
 16 C       -7.9560    -0.0370     1.3260 C.3   1 <1>   0.2090 
 17 C       -8.3660     0.1330    -1.1210 C.3   1 <1>   0.2090 
 18 N       -7.3470     0.0980    -0.0300 N.pl3 1 <1>  -0.8380 
 19 C       -6.3020    -0.7690    -0.2650 C.ar  1 <1>   0.4100 
 20 N       -6.6070    -2.0590    -0.2940 N.ar  1 <1>  -0.6200 
 21 C       -5.0170    -0.2720    -0.4550 C.ar  1 <1>  -0.1500 
 22 C       -5.5940    -2.8800    -0.5200 C.ar  1 <1>   0.1600 
 23 C       -3.9740    -1.1380    -0.6890 C.ar  1 <1>  -0.1500 
 24 C       -4.2830    -2.4830    -0.7200 C.ar  1 <1>  -0.1500 
 25 H      -16.0990     3.3400     0.2610 H     1 <1>   0.0800 
 26 H      -16.0270     2.1870     1.5910 H     1 <1>   0.0800 
 27 H      -13.6690     2.2970     1.6790 H     1 <1>   0.0800 
 28 H      -13.6850     3.5080     0.3990 H     1 <1>   0.0800 
 29 H      -12.3260     2.1170    -1.0350 H     1 <1>   0.0800 
 30 H      -16.9120     2.4580    -2.0300 H     1 <1>   0.1500 
 31 H      -17.5110     0.3060     1.6070 H     1 <1>   0.1500 
 32 H      -13.5120     0.2510    -0.1930 H     1 <1>   0.4000 
 33 H      -11.3100     2.2150     1.7900 H     1 <1>   0.0800 
 34 H      -10.7430     3.1470     0.4320 H     1 <1>   0.0800 
 35 H      -18.6940     1.1490    -3.0920 H     1 <1>   0.1500 
 36 H      -19.2880    -0.9970     0.5380 H     1 <1>   0.1500 
 37 H      -10.5900     0.2460     0.4900 H     1 <1>   0.4500 
 38 H      -19.8840    -0.5800    -1.8110 H     1 <1>   0.1500 
 39 H       -9.4860     0.8710     2.5300 H     1 <1>   0.0800 
 40 H       -8.4960     2.0050     1.6520 H     1 <1>   0.0800 
 41 H       -8.9320     2.1890    -0.9770 H     1 <1>   0.0800 
 42 H      -10.1800     1.1600    -1.6310 H     1 <1>   0.0800 
 43 H       -8.4140    -1.0070     1.4200 H     1 <1>   0.0800 
 44 H       -7.1800     0.0320     2.0700 H     1 <1>   0.0800 
 45 H       -7.8720     0.3160    -2.0600 H     1 <1>   0.0800 
 46 H       -8.8540    -0.8250    -1.1900 H     1 <1>   0.0800 
 47 H       -4.8570     0.7880    -0.4160 H     1 <1>   0.1500 
 48 H       -5.8200    -3.9320    -0.5470 H     1 <1>   0.1500 
 49 H       -2.9670    -0.7870    -0.8400 H     1 <1>   0.1500 
 50 H       -3.5160    -3.2140    -0.8990 H     1 <1>   0.1500 
@<TRIPOS>BOND
  1   1   2  1   
  2   1   3  1   
  3   2   4  1   
  4   2  25  1   
  5   2  26  1   
  6   3   5  1   
  7   3  27  1   
  8   3  28  1   
  9   4   6  ar  
 10   4   7  ar  
 11   5   8  1   
 12   5   9  1   
 13   5  29  1   
 14   6  10  ar  
 15   6  30  1   
 16   7  11  ar  
 17   7  31  1   
 18   8  32  1   
 19   9  12  1   
 20   9  33  1   
 21   9  34  1   
 22  10  13  ar  
 23  10  35  1   
 24  11  13  ar  
 25  11  36  1   
 26  12  14  1   
 27  12  15  1   
 28  12  37  1   
 29  13  38  1   
 30  14  16  1   
 31  14  39  1   
 32  14  40  1   
 33  15  17  1   
 34  15  41  1   
 35  15  42  1   
 36  16  18  1   
 37  16  43  1   
 38  16  44  1   
 39  17  18  1   
 40  17  45  1   
 41  17  46  1   
 42  18  19  1   
 43  19  20  ar  
 44  19  21  ar  
 45  20  22  ar  
 46  21  23  ar  
 47  21  47  1   
 48  22  24  ar  
 49  22  48  1   
 50  23  24  ar  
 51  23  49  1   
 52  24  50  1   
@<TRIPOS>SUBSTRUCTURE
  1 ****   8 GROUP 4 **** **** 0

# MOE 2024.06 (io_trps.svl 2023.06)
