@<TRIPOS>MOLECULE
NONAME
44 45 1 0 0 
SMALL
USER_CHARGES


@<TRIPOS>ATOM
  1 O       -1.3390    -0.5480     0.3290 O.2   1 <1>  -0.5700 
  2 C       -0.7600    -1.0960     1.2450 C.2   1 <1>   0.6900 
  3 N        0.5630    -1.4060     1.1930 N.am  1 <1>  -0.5470 
  4 N       -1.4660    -1.4620     2.3450 N.am  1 <1>  -0.7300 
  5 C        1.5140    -1.1540     0.1930 C.ar  1 <1>   0.1170 
  6 C       -2.8630    -1.0310     2.6570 C.3   1 <1>   0.1400 
  7 C        2.5910    -2.0200     0.0620 C.ar  1 <1>  -0.1500 
  8 C        1.4370    -0.0600    -0.6650 C.ar  1 <1>  -0.1500 
  9 C       -3.9230    -1.8720     1.9130 C.3   1 <1>   0.3430 
 10 C        3.5640    -1.8180    -0.9010 C.ar  1 <1>   0.0830 
 11 C        2.4020     0.1510    -1.6330 C.ar  1 <1>  -0.1500 
 12 N       -3.8390    -1.6890     0.4350 N.4   1 <1>  -0.9590 
 13 O        4.5730    -2.7250    -0.9460 O.3   1 <1>  -0.3630 
 14 C        3.4660    -0.7240    -1.7560 C.ar  1 <1>  -0.1500 
 15 C       -4.6220    -0.5190    -0.0520 C.3   1 <1>   0.3430 
 16 C       -4.1310    -2.9360    -0.3190 C.3   1 <1>   0.3430 
 17 C        5.6120    -2.6150    -1.8940 C.3   1 <1>   0.0400 
 18 C       -4.3140    -0.2750    -1.5310 C.3   1 <1>  -0.1600 
 19 C       -3.8080    -2.7260    -1.8000 C.3   1 <1>  -0.1600 
 20 C       -4.5660    -1.5260    -2.3820 C.3   1 <1>  -0.1600 
 21 H        0.9000    -1.9950     1.9480 H     1 <1>   0.3700 
 22 H       -0.9260    -1.7840     3.1510 H     1 <1>   0.3700 
 23 H       -2.9820     0.0100     2.4060 H     1 <1>   0.0800 
 24 H       -3.0230    -1.1290     3.7170 H     1 <1>   0.0800 
 25 H        2.6850    -2.8710     0.7090 H     1 <1>   0.1500 
 26 H        0.6240     0.6360    -0.5780 H     1 <1>   0.1500 
 27 H       -4.9080    -1.6000     2.2550 H     1 <1>   0.0800 
 28 H       -3.7610    -2.9070     2.1620 H     1 <1>   0.0800 
 29 H        2.3260     1.0000    -2.2900 H     1 <1>   0.1500 
 30 H       -2.8450    -1.4420     0.2330 H     1 <1>   0.4500 
 31 H        4.2020    -0.5390    -2.5160 H     1 <1>   0.1500 
 32 H       -4.3600     0.3610     0.5120 H     1 <1>   0.0800 
 33 H       -5.6760    -0.7070     0.0710 H     1 <1>   0.0800 
 34 H       -5.1720    -3.1950    -0.2090 H     1 <1>   0.0800 
 35 H       -3.5330    -3.7470     0.0630 H     1 <1>   0.0800 
 36 H        6.2890    -3.4360    -1.7430 H     1 <1>   0.0800 
 37 H        6.1280    -1.6830    -1.7400 H     1 <1>   0.0800 
 38 H        5.1910    -2.6650    -2.8820 H     1 <1>   0.0800 
 39 H       -3.2870     0.0330    -1.6290 H     1 <1>   0.0800 
 40 H       -4.9270     0.5330    -1.8900 H     1 <1>   0.0800 
 41 H       -4.0680    -3.6140    -2.3480 H     1 <1>   0.0800 
 42 H       -2.7470    -2.5760    -1.9110 H     1 <1>   0.0800 
 43 H       -4.2440    -1.3480    -3.3950 H     1 <1>   0.0800 
 44 H       -5.6210    -1.7410    -2.4060 H     1 <1>   0.0800 
@<TRIPOS>BOND
  1   1   2  2   
  2   2   3  am  
  3   2   4  am  
  4   3   5  1   
  5   3  21  1   
  6   4   6  1   
  7   4  22  1   
  8   5   7  ar  
  9   5   8  ar  
 10   6   9  1   
 11   6  23  1   
 12   6  24  1   
 13   7  10  ar  
 14   7  25  1   
 15   8  11  ar  
 16   8  26  1   
 17   9  12  1   
 18   9  27  1   
 19   9  28  1   
 20  10  13  1   
 21  10  14  ar  
 22  11  14  ar  
 23  11  29  1   
 24  12  15  1   
 25  12  16  1   
 26  12  30  1   
 27  13  17  1   
 28  14  31  1   
 29  15  18  1   
 30  15  32  1   
 31  15  33  1   
 32  16  19  1   
 33  16  34  1   
 34  16  35  1   
 35  17  36  1   
 36  17  37  1   
 37  17  38  1   
 38  18  20  1   
 39  18  39  1   
 40  18  40  1   
 41  19  20  1   
 42  19  41  1   
 43  19  42  1   
 44  20  43  1   
 45  20  44  1   
@<TRIPOS>SUBSTRUCTURE
  1 ****   1 GROUP 4 **** **** 0

# MOE 2024.06 (io_trps.svl 2023.06)
