@<TRIPOS>MOLECULE
NONAME
31 31 1 0 0 
SMALL
USER_CHARGES


@<TRIPOS>ATOM
  1 S       -0.3400     0.4600    -0.8080 S.o2  1 <1>   1.5760 
  2 O       -0.7800     1.5910    -1.5850 O.2   1 <1>  -0.6500 
  3 O       -0.1700    -0.8480    -1.3810 O.2   1 <1>  -0.6500 
  4 N       -1.3200     0.2410     0.5700 N.am  1 <1>  -0.7570 
  5 N        1.0950     0.7760    -0.0170 N.am  1 <1>  -0.9140 
  6 C       -2.7010     0.3490     0.5870 C.ar  1 <1>   0.1990 
  7 C        1.5100     2.1180     0.2960 C.3   1 <1>   0.3560 
  8 C       -3.3600     1.4780     0.1120 C.ar  1 <1>  -0.1500 
  9 C       -3.4600    -0.6900     1.1130 C.ar  1 <1>  -0.1500 
 10 C        0.4320     2.8990     1.0510 C.3   1 <1>  -0.2400 
 11 C        2.7160     1.9460     1.2180 C.3   1 <1>  -0.2400 
 12 C        1.9720     2.8520    -0.9650 C.3   1 <1>  -0.2400 
 13 C       -4.7400     1.5620     0.1490 C.ar  1 <1>  -0.1500 
 14 C       -4.8410    -0.6100     1.1540 C.ar  1 <1>  -0.1500 
 15 C       -5.4830     0.5170     0.6700 C.ar  1 <1>  -0.1500 
 16 H       -0.9360    -0.5530     1.0620 H     1 <1>   0.4200 
 17 H        1.7940     0.3840    -0.6370 H     1 <1>   0.4200 
 18 H       -2.7920     2.2980    -0.2880 H     1 <1>   0.1500 
 19 H       -2.9700    -1.5690     1.4880 H     1 <1>   0.1500 
 20 H        0.0930     2.3430     1.9060 H     1 <1>   0.0800 
 21 H       -0.4070     3.1230     0.4200 H     1 <1>   0.0800 
 22 H        0.8310     3.8360     1.3960 H     1 <1>   0.0800 
 23 H        2.4320     1.4120     2.1080 H     1 <1>   0.0800 
 24 H        3.1020     2.9050     1.5130 H     1 <1>   0.0800 
 25 H        3.5030     1.4060     0.7240 H     1 <1>   0.0800 
 26 H        1.1490     3.0870    -1.6130 H     1 <1>   0.0800 
 27 H        2.6930     2.2700    -1.5080 H     1 <1>   0.0800 
 28 H        2.4320     3.7850    -0.6930 H     1 <1>   0.0800 
 29 H       -5.2350     2.4400    -0.2270 H     1 <1>   0.1500 
 30 H       -5.4170    -1.4230     1.5600 H     1 <1>   0.1500 
 31 H       -6.5570     0.5810     0.6990 H     1 <1>   0.1500 
@<TRIPOS>BOND
  1   1   2  2   
  2   1   3  2   
  3   1   4  am  
  4   1   5  am  
  5   4   6  1   
  6   4  16  1   
  7   5   7  1   
  8   5  17  1   
  9   6   8  ar  
 10   6   9  ar  
 11   7  10  1   
 12   7  11  1   
 13   7  12  1   
 14   8  13  ar  
 15   8  18  1   
 16   9  14  ar  
 17   9  19  1   
 18  10  20  1   
 19  10  21  1   
 20  10  22  1   
 21  11  23  1   
 22  11  24  1   
 23  11  25  1   
 24  12  26  1   
 25  12  27  1   
 26  12  28  1   
 27  13  15  ar  
 28  13  29  1   
 29  14  15  ar  
 30  14  30  1   
 31  15  31  1   
@<TRIPOS>SUBSTRUCTURE
  1 ****   4 GROUP 4 **** **** 0

# MOE 2024.06 (io_trps.svl 2023.06)
