@<TRIPOS>MOLECULE
NONAME
45 48 1 0 0 
SMALL
USER_CHARGES


@<TRIPOS>ATOM
  1 O       -0.9310    -1.4950     1.3560 O.2   1 <1>  -0.5700 
  2 C       -1.3070    -1.9090     0.2820 C.2   1 <1>   0.5690 
  3 N       -2.3600    -1.2860    -0.3680 N.am  1 <1>  -0.6600 
  4 C       -0.5580    -3.1160    -0.3170 C.3   1 <1>   0.2680 
  5 C       -3.1210    -1.8070    -1.5420 C.3   1 <1>   0.1400 
  6 C       -2.8610     0.0340     0.1180 C.3   1 <1>   0.1400 
  7 C       -0.8870    -4.4050     0.4320 C.ar  1 <1>  -0.1440 
  8 C        0.9440    -2.8600    -0.3820 C.ar  1 <1>  -0.1440 
  9 C       -4.6030    -1.9410    -1.1770 C.3   1 <1>  -0.1600 
 10 C       -4.3290    -0.0940     0.5270 C.3   1 <1>  -0.1600 
 11 C        0.1250    -5.1630     1.0110 C.ar  1 <1>   0.0820 
 12 C       -2.2010    -4.8400     0.5430 C.ar  1 <1>  -0.1500 
 13 C        1.8390    -3.7170     0.2480 C.ar  1 <1>   0.0820 
 14 C        1.4350    -1.7650    -1.0800 C.ar  1 <1>  -0.1500 
 15 C       -5.1860    -0.6220    -0.6380 C.3   1 <1>  -0.0190 
 16 O        1.4300    -4.8090     0.9350 O.3   1 <1>  -0.1650 
 17 C       -0.1790    -6.3320     1.6920 C.ar  1 <1>  -0.1500 
 18 C       -2.5020    -6.0090     1.2210 C.ar  1 <1>  -0.1500 
 19 C        3.2020    -3.4760     0.1820 C.ar  1 <1>  -0.1500 
 20 C        2.7980    -1.5270    -1.1470 C.ar  1 <1>  -0.1500 
 21 C       -6.6560    -0.7790    -0.2610 C.2   1 <1>   0.5690 
 22 C       -1.4910    -6.7560     1.7970 C.ar  1 <1>  -0.1500 
 23 C        3.6830    -2.3830    -0.5160 C.ar  1 <1>  -0.1500 
 24 O       -7.5040    -0.3120    -0.9740 O.2   1 <1>  -0.5700 
 25 N       -7.0090    -1.4460     0.8540 N.am  1 <1>  -0.8000 
 26 H       -0.8570    -3.2600    -1.3330 H     1 <1>   0.0800 
 27 H       -2.7640    -2.7670    -1.8600 H     1 <1>   0.0800 
 28 H       -3.0090    -1.1200    -2.3640 H     1 <1>   0.0800 
 29 H       -2.7620     0.7590    -0.6720 H     1 <1>   0.0800 
 30 H       -2.2840     0.3860     0.9560 H     1 <1>   0.0800 
 31 H       -4.7150    -2.7140    -0.4380 H     1 <1>   0.0800 
 32 H       -5.1560    -2.2420    -2.0490 H     1 <1>   0.0800 
 33 H       -4.6940     0.8700     0.8360 H     1 <1>   0.0800 
 34 H       -4.3860    -0.7550     1.3740 H     1 <1>   0.0800 
 35 H       -3.0020    -4.2720     0.1080 H     1 <1>   0.1500 
 36 H        0.7610    -1.0850    -1.5710 H     1 <1>   0.1500 
 37 H       -5.1430     0.1050    -1.4310 H     1 <1>   0.0800 
 38 H        0.6150    -6.9040     2.1370 H     1 <1>   0.1500 
 39 H       -3.5240    -6.3370     1.3030 H     1 <1>   0.1500 
 40 H        3.8810    -4.1460     0.6770 H     1 <1>   0.1500 
 41 H        3.1690    -0.6740    -1.6870 H     1 <1>   0.1500 
 42 H       -1.7230    -7.6640     2.3270 H     1 <1>   0.1500 
 43 H        4.7420    -2.1970    -0.5650 H     1 <1>   0.1500 
 44 H       -7.9990    -1.5340     1.0890 H     1 <1>   0.3700 
 45 H       -6.3430    -1.8510     1.5100 H     1 <1>   0.3700 
@<TRIPOS>BOND
  1   1   2  2   
  2   2   3  am  
  3   2   4  1   
  4   3   5  1   
  5   3   6  1   
  6   4   7  1   
  7   4   8  1   
  8   4  26  1   
  9   5   9  1   
 10   5  27  1   
 11   5  28  1   
 12   6  10  1   
 13   6  29  1   
 14   6  30  1   
 15   7  11  ar  
 16   7  12  ar  
 17   8  13  ar  
 18   8  14  ar  
 19   9  15  1   
 20   9  31  1   
 21   9  32  1   
 22  10  15  1   
 23  10  33  1   
 24  10  34  1   
 25  11  16  1   
 26  11  17  ar  
 27  12  18  ar  
 28  12  35  1   
 29  13  16  1   
 30  13  19  ar  
 31  14  20  ar  
 32  14  36  1   
 33  15  21  1   
 34  15  37  1   
 35  17  22  ar  
 36  17  38  1   
 37  18  22  ar  
 38  18  39  1   
 39  19  23  ar  
 40  19  40  1   
 41  20  23  ar  
 42  20  41  1   
 43  21  24  2   
 44  21  25  am  
 45  22  42  1   
 46  23  43  1   
 47  25  44  1   
 48  25  45  1   
@<TRIPOS>SUBSTRUCTURE
  1 ****   2 GROUP 4 **** **** 0

# MOE 2024.06 (io_trps.svl 2023.06)
