@<TRIPOS>MOLECULE
NONAME
40 41 1 0 0 
SMALL
USER_CHARGES


@<TRIPOS>ATOM
  1 S        0.6970     0.6160     0.8680 S.3   1 <1>  -0.0800 
  2 C        2.1710     0.5860    -0.0910 C.2   1 <1>  -0.1400 
  3 C       -0.2780     0.9430    -0.5520 C.2   1 <1>  -0.1100 
  4 C        1.8870     0.8160    -1.3880 C.2   1 <1>  -0.1500 
  5 C        3.4740     0.3280     0.6600 C.3   1 <1>   0.1000 
  6 C        0.4950     1.0180    -1.6500 C.2   1 <1>  -0.1500 
  7 C        4.5550     1.3410     0.1980 C.3   1 <1>   0.3040 
  8 C        3.9160    -1.1620     0.5950 C.3   1 <1>   0.0420 
  9 N        5.8650     1.0630     0.8420 N.pl3 1 <1>   0.8000 
 10 C        4.1260     2.7970     0.4190 C.ar  1 <1>  -0.1440 
 11 C        4.5860    -1.5870    -0.7020 C.2   1 <1>   0.4480 
 12 C        2.7890    -2.1220     0.9390 C.2   1 <1>   0.4480 
 13 O        5.9250     0.9480     2.0760 O.2   1 <1>  -0.5200 
 14 O        6.8280     0.7810     0.1160 O.2   1 <1>  -0.5200 
 15 C        3.9500     3.6300    -0.6770 C.ar  1 <1>  -0.1500 
 16 C        3.9040     3.3080     1.6930 C.ar  1 <1>  -0.1500 
 17 O        4.3630    -1.0440    -1.7390 O.2   1 <1>  -0.5700 
 18 C        5.5840    -2.7230    -0.6260 C.3   1 <1>  -0.1790 
 19 O        2.6210    -2.4500     2.0730 O.2   1 <1>  -0.5700 
 20 C        1.9060    -2.6970    -0.1550 C.3   1 <1>  -0.1790 
 21 C        3.5590     4.9470    -0.5060 C.ar  1 <1>  -0.1500 
 22 C        3.5140     4.6240     1.8640 C.ar  1 <1>  -0.1500 
 23 C        3.3410     5.4450     0.7650 C.ar  1 <1>  -0.1500 
 24 H       -1.3390     1.0480    -0.4110 H     1 <1>   0.1500 
 25 H        2.5980     0.8510    -2.1960 H     1 <1>   0.1500 
 26 H        3.2700     0.5410     1.6960 H     1 <1>   0.0800 
 27 H        0.1440     1.2100    -2.6490 H     1 <1>   0.1500 
 28 H        4.7060     1.2100    -0.8560 H     1 <1>   0.0800 
 29 H        4.6490    -1.2970     1.3690 H     1 <1>   0.0800 
 30 H        4.1110     3.2650    -1.6780 H     1 <1>   0.1500 
 31 H        4.0320     2.6930     2.5690 H     1 <1>   0.1500 
 32 H        5.1310    -3.5940    -0.1900 H     1 <1>   0.0800 
 33 H        6.4310    -2.4270    -0.0340 H     1 <1>   0.0800 
 34 H        5.9280    -2.9700    -1.6140 H     1 <1>   0.0800 
 35 H        1.6080    -1.9400    -0.8540 H     1 <1>   0.0800 
 36 H        1.0210    -3.1180     0.2860 H     1 <1>   0.0800 
 37 H        2.4270    -3.4740    -0.6810 H     1 <1>   0.0800 
 38 H        3.4240     5.5840    -1.3630 H     1 <1>   0.1500 
 39 H        3.3450     5.0100     2.8540 H     1 <1>   0.1500 
 40 H        3.0370     6.4690     0.8990 H     1 <1>   0.1500 
@<TRIPOS>BOND
  1   1   2  1   
  2   1   3  1   
  3   2   4  2   
  4   2   5  1   
  5   3   6  2   
  6   3  24  1   
  7   4   6  1   
  8   4  25  1   
  9   5   7  1   
 10   5   8  1   
 11   5  26  1   
 12   6  27  1   
 13   7   9  1   
 14   7  10  1   
 15   7  28  1   
 16   8  11  1   
 17   8  12  1   
 18   8  29  1   
 19   9  13  2   
 20   9  14  2   
 21  10  15  ar  
 22  10  16  ar  
 23  11  17  2   
 24  11  18  1   
 25  12  19  2   
 26  12  20  1   
 27  15  21  ar  
 28  15  30  1   
 29  16  22  ar  
 30  16  31  1   
 31  18  32  1   
 32  18  33  1   
 33  18  34  1   
 34  20  35  1   
 35  20  36  1   
 36  20  37  1   
 37  21  23  ar  
 38  21  38  1   
 39  22  23  ar  
 40  22  39  1   
 41  23  40  1   
@<TRIPOS>SUBSTRUCTURE
  1 ****   5 GROUP 4 **** **** 0

# MOE 2024.06 (io_trps.svl 2023.06)
