@<TRIPOS>MOLECULE
NONAME
45 46 1 0 0 
SMALL
USER_CHARGES


@<TRIPOS>ATOM
  1 O        2.4000    -3.9870     0.0970 O.3   1 <1>  -0.3630 
  2 C        3.6250    -3.5600    -0.3110 C.ar  1 <1>   0.0830 
  3 C        1.2910    -3.1160     0.1510 C.3   1 <1>   0.1200 
  4 C        4.6680    -4.4830    -0.2910 C.ar  1 <1>  -0.1440 
  5 C        3.8670    -2.2560    -0.7400 C.ar  1 <1>  -0.1500 
  6 C        0.0810    -3.9120     0.6560 C.3   1 <1>   0.2000 
  7 C        5.9340    -4.0930    -0.6990 C.ar  1 <1>  -0.1500 
  8 C        4.4370    -5.9140     0.1720 C.3   1 <1>  -0.0960 
  9 C        5.1350    -1.8800    -1.1430 C.ar  1 <1>  -0.1500 
 10 O       -0.0440    -5.0790    -0.1010 O.3   1 <1>  -0.6800 
 11 C       -1.2400    -3.1220     0.5590 C.3   1 <1>   0.3430 
 12 C        6.1690    -2.7980    -1.1230 C.ar  1 <1>  -0.1500 
 13 N       -2.3890    -4.0730     0.5140 N.4   1 <1>  -0.9060 
 14 C       -3.6180    -3.5560    -0.1080 C.3   1 <1>   0.4230 
 15 C       -4.2560    -2.4920     0.7960 C.3   1 <1>  -0.1600 
 16 C       -4.5720    -4.7330    -0.3350 C.3   1 <1>  -0.1600 
 17 C       -5.5970    -2.0110     0.2210 C.3   1 <1>  -0.1600 
 18 C       -5.9110    -4.2560    -0.9150 C.3   1 <1>  -0.1600 
 19 C       -6.5520    -3.1860    -0.0230 C.3   1 <1>  -0.1600 
 20 H        1.1120    -2.7350    -0.8400 H     1 <1>   0.0800 
 21 H        1.5260    -2.3080     0.8220 H     1 <1>   0.0800 
 22 H        3.0920    -1.5160    -0.7700 H     1 <1>   0.1500 
 23 H        0.2560    -4.2020     1.6780 H     1 <1>   0.0800 
 24 H        6.7480    -4.7970    -0.6880 H     1 <1>   0.1500 
 25 H        4.0510    -5.9160     1.1760 H     1 <1>   0.0800 
 26 H        5.3530    -6.4780     0.1600 H     1 <1>   0.0800 
 27 H        3.7300    -6.3980    -0.4760 H     1 <1>   0.0800 
 28 H        5.3210    -0.8730    -1.4750 H     1 <1>   0.1500 
 29 H        0.8610    -5.4490    -0.2450 H     1 <1>   0.4000 
 30 H       -1.2210    -2.5440    -0.3500 H     1 <1>   0.0800 
 31 H       -1.3350    -2.4410     1.3890 H     1 <1>   0.0800 
 32 H        7.1560    -2.5060    -1.4380 H     1 <1>   0.1500 
 33 H       -2.5930    -4.4560     1.4410 H     1 <1>   0.4500 
 34 H       -2.0260    -4.8720    -0.0390 H     1 <1>   0.4500 
 35 H       -3.3860    -3.1140    -1.0640 H     1 <1>   0.0800 
 36 H       -3.6050    -1.6420     0.8910 H     1 <1>   0.0800 
 37 H       -4.4330    -2.9020     1.7750 H     1 <1>   0.0800 
 38 H       -4.7650    -5.2370     0.5970 H     1 <1>   0.0800 
 39 H       -4.1310    -5.4350    -1.0200 H     1 <1>   0.0800 
 40 H       -5.4290    -1.4920    -0.7080 H     1 <1>   0.0800 
 41 H       -6.0560    -1.3140     0.9030 H     1 <1>   0.0800 
 42 H       -6.5840    -5.0920    -1.0100 H     1 <1>   0.0800 
 43 H       -5.7570    -3.8510    -1.9020 H     1 <1>   0.0800 
 44 H       -7.4550    -2.8240    -0.4870 H     1 <1>   0.0800 
 45 H       -6.8300    -3.6250     0.9210 H     1 <1>   0.0800 
@<TRIPOS>BOND
  1   1   2  1   
  2   1   3  1   
  3   2   4  ar  
  4   2   5  ar  
  5   3   6  1   
  6   3  20  1   
  7   3  21  1   
  8   4   7  ar  
  9   4   8  1   
 10   5   9  ar  
 11   5  22  1   
 12   6  10  1   
 13   6  11  1   
 14   6  23  1   
 15   7  12  ar  
 16   7  24  1   
 17   8  25  1   
 18   8  26  1   
 19   8  27  1   
 20   9  12  ar  
 21   9  28  1   
 22  10  29  1   
 23  11  13  1   
 24  11  30  1   
 25  11  31  1   
 26  12  32  1   
 27  13  14  1   
 28  13  33  1   
 29  13  34  1   
 30  14  15  1   
 31  14  16  1   
 32  14  35  1   
 33  15  17  1   
 34  15  36  1   
 35  15  37  1   
 36  16  18  1   
 37  16  38  1   
 38  16  39  1   
 39  17  19  1   
 40  17  40  1   
 41  17  41  1   
 42  18  19  1   
 43  18  42  1   
 44  18  43  1   
 45  19  44  1   
 46  19  45  1   
@<TRIPOS>SUBSTRUCTURE
  1 ****   6 GROUP 4 **** **** 0

# MOE 2024.06 (io_trps.svl 2023.06)
