@<TRIPOS>MOLECULE
NONAME
36 37 1 0 0 
SMALL
USER_CHARGES


@<TRIPOS>ATOM
  1 O        1.2110    -2.7490     1.7280 O.2   1 <1>  -0.5700 
  2 C        0.6130    -2.2590     0.7830 C.2   1 <1>   0.6900 
  3 N       -0.6800    -2.6220     0.5220 N.am  1 <1>  -0.6600 
  4 N        1.2270    -1.3580    -0.0150 N.am  1 <1>  -0.7300 
  5 C       -1.4850    -2.2190    -0.6920 C.3   1 <1>   0.1140 
  6 C       -1.3830    -3.6570     1.2990 C.3   1 <1>   0.1400 
  7 C        2.4930    -0.6810     0.2620 C.3   1 <1>   0.2200 
  8 C       -1.6440    -0.7040    -0.9910 C.2   1 <1>   0.9060 
  9 C       -2.8090    -2.9790    -0.5180 C.3   1 <1>  -0.1600 
 10 C       -2.4640    -4.1790     0.3590 C.3   1 <1>  -0.1600 
 11 C        2.1930     0.7690     0.6510 C.3   1 <1>  -0.1600 
 12 C        3.3680    -0.7460    -0.9930 C.3   1 <1>  -0.1600 
 13 O       -2.6830    -0.0990    -0.6910 O.co2 1 <1>  -0.9000 
 14 O       -0.7130    -0.1240    -1.5730 O.co2 1 <1>  -0.9000 
 15 C        3.4860     1.5780     0.8370 C.3   1 <1>  -0.1600 
 16 C        4.6660     0.0560    -0.8120 C.3   1 <1>  -0.1600 
 17 C        4.3650     1.5090    -0.4190 C.3   1 <1>  -0.1600 
 18 H        0.6110    -0.8440    -0.6720 H     1 <1>   0.3700 
 19 H       -0.9800    -2.6310    -1.5460 H     1 <1>   0.0800 
 20 H       -1.8240    -3.1950     2.1650 H     1 <1>   0.0800 
 21 H       -0.7080    -4.4380     1.6060 H     1 <1>   0.0800 
 22 H        2.9990    -1.1740     1.0760 H     1 <1>   0.0800 
 23 H       -3.2300    -3.2580    -1.4670 H     1 <1>   0.0800 
 24 H       -3.5140    -2.3510    -0.0010 H     1 <1>   0.0800 
 25 H       -3.3160    -4.5510     0.8980 H     1 <1>   0.0800 
 26 H       -2.0510    -4.9670    -0.2450 H     1 <1>   0.0800 
 27 H        1.6250     0.7780     1.5650 H     1 <1>   0.0800 
 28 H        1.5940     1.2240    -0.1200 H     1 <1>   0.0800 
 29 H        2.8150    -0.3440    -1.8260 H     1 <1>   0.0800 
 30 H        3.6030    -1.7730    -1.2050 H     1 <1>   0.0800 
 31 H        4.0310     1.1860     1.6780 H     1 <1>   0.0800 
 32 H        3.2370     2.6030     1.0500 H     1 <1>   0.0800 
 33 H        5.2290     0.0380    -1.7290 H     1 <1>   0.0800 
 34 H        5.2630    -0.4060    -0.0450 H     1 <1>   0.0800 
 35 H        5.2870     2.0360    -0.2450 H     1 <1>   0.0800 
 36 H        3.8540     1.9960    -1.2330 H     1 <1>   0.0800 
@<TRIPOS>BOND
  1   1   2  2   
  2   2   3  am  
  3   2   4  am  
  4   3   5  1   
  5   3   6  1   
  6   4   7  1   
  7   4  18  1   
  8   5   8  1   
  9   5   9  1   
 10   5  19  1   
 11   6  10  1   
 12   6  20  1   
 13   6  21  1   
 14   7  11  1   
 15   7  12  1   
 16   7  22  1   
 17   8  13  ar  
 18   8  14  ar  
 19   9  10  1   
 20   9  23  1   
 21   9  24  1   
 22  10  25  1   
 23  10  26  1   
 24  11  15  1   
 25  11  27  1   
 26  11  28  1   
 27  12  16  1   
 28  12  29  1   
 29  12  30  1   
 30  15  17  1   
 31  15  31  1   
 32  15  32  1   
 33  16  17  1   
 34  16  33  1   
 35  16  34  1   
 36  17  35  1   
 37  17  36  1   
@<TRIPOS>SUBSTRUCTURE
  1 ****   4 GROUP 4 **** **** 0

# MOE 2024.06 (io_trps.svl 2023.06)
