@<TRIPOS>MOLECULE
NONAME
35 35 1 0 0 
SMALL
USER_CHARGES


@<TRIPOS>ATOM
  1 CL      -0.3040     0.6940    -0.5400 Cl    1 <1>  -0.1770 
  2 C       -1.6990    -0.3540    -0.6010 C.ar  1 <1>   0.1770 
  3 C       -2.9590     0.2010    -0.7140 C.ar  1 <1>  -0.1500 
  4 C       -1.5210    -1.7220    -0.5360 C.ar  1 <1>  -0.1500 
  5 C       -4.0740    -0.6220    -0.7650 C.ar  1 <1>  -0.1440 
  6 C       -2.6280    -2.5510    -0.5810 C.ar  1 <1>  -0.1500 
  7 C       -3.9090    -2.0060    -0.6910 C.ar  1 <1>   0.0830 
  8 C       -5.4540     0.0130    -0.8940 C.3   1 <1>   0.1220 
  9 O       -5.0280    -2.7770    -0.7240 O.3   1 <1>  -0.3620 
 10 C       -6.0750     0.2060     0.4790 C.2   1 <1>  -0.2880 
 11 C       -4.9990    -4.1400    -0.3810 C.3   1 <1>   0.1200 
 12 C       -6.4940     1.3720     0.9790 C.2   1 <1>  -0.3000 
 13 C       -6.4510    -4.6280    -0.3520 C.3   1 <1>   0.3430 
 14 N       -6.5780    -6.0870    -0.0070 N.4   1 <1>  -0.9590 
 15 C       -7.9850    -6.5430    -0.2320 C.3   1 <1>   0.2630 
 16 C       -6.1660    -6.3750     1.4060 C.3   1 <1>   0.2630 
 17 H       -3.0570     1.2710    -0.7580 H     1 <1>   0.1500 
 18 H       -0.5270    -2.1240    -0.4510 H     1 <1>   0.1500 
 19 H       -2.4660    -3.6100    -0.5350 H     1 <1>   0.1500 
 20 H       -6.0950    -0.6060    -1.4960 H     1 <1>   0.0800 
 21 H       -5.3720     0.9630    -1.3930 H     1 <1>   0.0800 
 22 H       -6.1440    -0.7160     1.0290 H     1 <1>   0.1500 
 23 H       -4.5370    -4.2280     0.5860 H     1 <1>   0.0800 
 24 H       -4.4320    -4.6610    -1.1330 H     1 <1>   0.0800 
 25 H       -6.9290     1.4840     1.9580 H     1 <1>   0.1500 
 26 H       -6.4390     2.3130     0.4590 H     1 <1>   0.1500 
 27 H       -6.8790    -4.4550    -1.3260 H     1 <1>   0.0800 
 28 H       -7.0000    -4.0400     0.3660 H     1 <1>   0.0800 
 29 H       -5.9700    -6.6250    -0.6450 H     1 <1>   0.4500 
 30 H       -8.6630    -6.0040     0.4120 H     1 <1>   0.0800 
 31 H       -8.0770    -7.5970    -0.0230 H     1 <1>   0.0800 
 32 H       -8.2760    -6.3720    -1.2570 H     1 <1>   0.0800 
 33 H       -6.7780    -5.8160     2.0960 H     1 <1>   0.0800 
 34 H       -5.1350    -6.1050     1.5630 H     1 <1>   0.0800 
 35 H       -6.2790    -7.4260     1.6210 H     1 <1>   0.0800 
@<TRIPOS>BOND
  1   1   2  1   
  2   2   3  ar  
  3   2   4  ar  
  4   3   5  ar  
  5   3  17  1   
  6   4   6  ar  
  7   4  18  1   
  8   5   7  ar  
  9   5   8  1   
 10   6   7  ar  
 11   6  19  1   
 12   7   9  1   
 13   8  10  1   
 14   8  20  1   
 15   8  21  1   
 16   9  11  1   
 17  10  12  2   
 18  10  22  1   
 19  11  13  1   
 20  11  23  1   
 21  11  24  1   
 22  12  25  1   
 23  12  26  1   
 24  13  14  1   
 25  13  27  1   
 26  13  28  1   
 27  14  15  1   
 28  14  16  1   
 29  14  29  1   
 30  15  30  1   
 31  15  31  1   
 32  15  32  1   
 33  16  33  1   
 34  16  34  1   
 35  16  35  1   
@<TRIPOS>SUBSTRUCTURE
  1 ****   7 GROUP 4 **** **** 0

# MOE 2024.06 (io_trps.svl 2023.06)
