@<TRIPOS>MOLECULE
NONAME
50 52 1 0 0 
SMALL
USER_CHARGES


@<TRIPOS>ATOM
  1 O       -0.9660    -0.1190     0.4480 O.3   1 <1>  -0.3630 
  2 C       -2.0460     0.6980     0.4140 C.ar  1 <1>   0.0830 
  3 C       -0.5020    -0.7860    -0.7050 C.3   1 <1>   0.0400 
  4 C       -2.8080     0.9320    -0.7250 C.ar  1 <1>  -0.1500 
  5 C       -2.3900     1.3250     1.5980 C.ar  1 <1>  -0.1500 
  6 C       -3.8990     1.7810    -0.6690 C.ar  1 <1>  -0.1500 
  7 C       -3.4800     2.1730     1.6550 C.ar  1 <1>  -0.1500 
  8 C       -4.2490     2.4090     0.5240 C.ar  1 <1>  -0.1430 
  9 C       -5.4510     3.3330     0.6510 C.3   1 <1>   0.5660 
 10 N       -6.6290     2.6220     0.1080 N.4   1 <1>  -0.9060 
 11 C       -5.2680     4.7240     0.0240 C.3   1 <1>  -0.0190 
 12 C       -7.7550     3.4630    -0.3450 C.3   1 <1>   0.5660 
 13 C       -6.5110     5.5410     0.3610 C.2   1 <1>   0.3280 
 14 C       -4.9540     4.7640    -1.4900 C.3   1 <1>  -0.2400 
 15 C       -9.0060     2.6140    -0.2130 C.ar  1 <1>  -0.1430 
 16 C       -7.8330     4.7770     0.4260 C.3   1 <1>  -0.0990 
 17 N       -6.4010     6.7740     0.5980 N.2   1 <1>  -0.5130 
 18 C       -9.4780     2.1960     1.0270 C.ar  1 <1>  -0.1500 
 19 C       -9.6880     2.2270    -1.3600 C.ar  1 <1>  -0.1500 
 20 O       -7.4720     7.4730     0.9180 O.3   1 <1>  -0.3370 
 21 C      -10.6050     1.3990     1.1100 C.ar  1 <1>  -0.1500 
 22 C      -10.8160     1.4300    -1.2740 C.ar  1 <1>  -0.1500 
 23 C      -11.2800     1.0090    -0.0330 C.ar  1 <1>   0.0830 
 24 O      -12.3710     0.2250     0.1420 O.3   1 <1>  -0.3630 
 25 C      -13.1620    -0.1980    -0.9470 C.3   1 <1>   0.0400 
 26 H        0.3650    -1.3600    -0.4310 H     1 <1>   0.0800 
 27 H       -0.2350    -0.0560    -1.4490 H     1 <1>   0.0800 
 28 H       -1.2740    -1.4420    -1.0650 H     1 <1>   0.0800 
 29 H       -2.5590     0.4620    -1.6590 H     1 <1>   0.1500 
 30 H       -1.7910     1.1410     2.4740 H     1 <1>   0.1500 
 31 H       -4.4540     1.9400    -1.5770 H     1 <1>   0.1500 
 32 H       -3.7100     2.6420     2.5980 H     1 <1>   0.1500 
 33 H       -5.6200     3.4950     1.7040 H     1 <1>   0.0800 
 34 H       -6.3180     2.0280    -0.6640 H     1 <1>   0.4500 
 35 H       -6.9840     1.9690     0.8140 H     1 <1>   0.4500 
 36 H       -4.4360     5.1900     0.5250 H     1 <1>   0.0800 
 37 H       -7.6150     3.7050    -1.3860 H     1 <1>   0.0800 
 38 H       -5.6850     4.2490    -2.0830 H     1 <1>   0.0800 
 39 H       -3.9840     4.3410    -1.6850 H     1 <1>   0.0800 
 40 H       -4.9210     5.7900    -1.8200 H     1 <1>   0.0800 
 41 H       -8.0840     4.6030     1.4560 H     1 <1>   0.0800 
 42 H       -8.6190     5.3740    -0.0010 H     1 <1>   0.0800 
 43 H       -8.9930     2.4790     1.9460 H     1 <1>   0.1500 
 44 H       -9.3550     2.5380    -2.3370 H     1 <1>   0.1500 
 45 H       -7.3090     8.4290     1.0730 H     1 <1>   0.4000 
 46 H      -10.9780     1.0720     2.0660 H     1 <1>   0.1500 
 47 H      -11.3230     1.1470    -2.1780 H     1 <1>   0.1500 
 48 H      -13.9720    -0.7890    -0.5600 H     1 <1>   0.0800 
 49 H      -12.5590    -0.7940    -1.6080 H     1 <1>   0.0800 
 50 H      -13.5530     0.6680    -1.4530 H     1 <1>   0.0800 
@<TRIPOS>BOND
  1   1   2  1   
  2   1   3  1   
  3   2   4  ar  
  4   2   5  ar  
  5   3  26  1   
  6   3  27  1   
  7   3  28  1   
  8   4   6  ar  
  9   4  29  1   
 10   5   7  ar  
 11   5  30  1   
 12   6   8  ar  
 13   6  31  1   
 14   7   8  ar  
 15   7  32  1   
 16   8   9  1   
 17   9  10  1   
 18   9  11  1   
 19   9  33  1   
 20  10  12  1   
 21  10  34  1   
 22  10  35  1   
 23  11  13  1   
 24  11  14  1   
 25  11  36  1   
 26  12  15  1   
 27  12  16  1   
 28  12  37  1   
 29  13  16  1   
 30  13  17  2   
 31  14  38  1   
 32  14  39  1   
 33  14  40  1   
 34  15  18  ar  
 35  15  19  ar  
 36  16  41  1   
 37  16  42  1   
 38  17  20  1   
 39  18  21  ar  
 40  18  43  1   
 41  19  22  ar  
 42  19  44  1   
 43  20  45  1   
 44  21  23  ar  
 45  21  46  1   
 46  22  23  ar  
 47  22  47  1   
 48  23  24  1   
 49  24  25  1   
 50  25  48  1   
 51  25  49  1   
 52  25  50  1   
@<TRIPOS>SUBSTRUCTURE
  1 ****  10 GROUP 4 **** **** 0

# MOE 2024.06 (io_trps.svl 2023.06)
