@<TRIPOS>MOLECULE
NONAME
43 44 1 0 0 
SMALL
USER_CHARGES


@<TRIPOS>ATOM
  1 CL       0.3480     0.7500    -2.6180 Cl    1 <1>  -0.1770 
  2 C        0.6140     1.7500    -1.2130 C.ar  1 <1>   0.1770 
  3 C        0.0530     3.0100    -1.1680 C.ar  1 <1>  -0.1500 
  4 C        1.3740     1.2590    -0.1680 C.ar  1 <1>  -0.1500 
  5 C        0.2340     3.8140    -0.0480 C.ar  1 <1>   0.1990 
  6 C        1.5760     2.0570     0.9450 C.ar  1 <1>  -0.1500 
  7 N       -0.3640     5.0720     0.0460 N.am  1 <1>  -0.6930 
  8 C        1.0120     3.3200     0.9980 C.ar  1 <1>  -0.1500 
  9 S       -0.2100     6.2550    -1.2220 S.o2  1 <1>   1.3330 
 10 C       -1.2320     5.3630     1.2370 C.3   1 <1>   0.3370 
 11 O       -0.0830     7.5650    -0.6370 O.2   1 <1>  -0.6500 
 12 O        0.8180     5.7740    -2.1140 O.2   1 <1>  -0.6500 
 13 C       -1.7440     6.1700    -2.1260 C.3   1 <1>  -0.1350 
 14 C       -2.7100     5.6600     0.8760 C.2   1 <1>   0.5690 
 15 C       -0.5760     6.4110     2.1520 C.3   1 <1>  -0.2400 
 16 O       -3.0860     6.8100     0.9060 O.2   1 <1>  -0.5700 
 17 N       -3.5780     4.6520     0.5060 N.am  1 <1>  -0.6600 
 18 C       -3.2550     3.1940     0.4560 C.3   1 <1>   0.1400 
 19 C       -5.0010     4.9510     0.1640 C.3   1 <1>   0.1400 
 20 C       -3.5630     2.6370    -0.9380 C.3   1 <1>  -0.1600 
 21 C       -5.3230     4.4170    -1.2350 C.3   1 <1>  -0.1600 
 22 C       -5.0130     2.9190    -1.3540 C.3   1 <1>  -0.1600 
 23 H       -0.5160     3.3560    -2.0070 H     1 <1>   0.1500 
 24 H        1.8010     0.2740    -0.2320 H     1 <1>   0.1500 
 25 H        2.1750     1.6950     1.7640 H     1 <1>   0.1500 
 26 H        1.1860     3.9360     1.8600 H     1 <1>   0.1500 
 27 H       -1.2630     4.4710     1.8340 H     1 <1>   0.0800 
 28 H       -1.9810     5.1570    -2.3760 H     1 <1>   0.0800 
 29 H       -1.6560     6.7340    -3.0330 H     1 <1>   0.0800 
 30 H       -2.5480     6.5890    -1.5570 H     1 <1>   0.0800 
 31 H       -0.6600     7.3990     1.7390 H     1 <1>   0.0800 
 32 H       -1.0790     6.4200     3.1010 H     1 <1>   0.0800 
 33 H        0.4610     6.1830     2.3130 H     1 <1>   0.0800 
 34 H       -3.8570     2.6820     1.1870 H     1 <1>   0.0800 
 35 H       -2.2250     3.0050     0.6890 H     1 <1>   0.0800 
 36 H       -5.1930     6.0100     0.1940 H     1 <1>   0.0800 
 37 H       -5.6410     4.4810     0.8910 H     1 <1>   0.0800 
 38 H       -3.3880     1.5750    -0.9420 H     1 <1>   0.0800 
 39 H       -2.8930     3.0790    -1.6510 H     1 <1>   0.0800 
 40 H       -4.7500     4.9700    -1.9590 H     1 <1>   0.0800 
 41 H       -6.3650     4.5870    -1.4460 H     1 <1>   0.0800 
 42 H       -5.6820     2.3650    -0.7180 H     1 <1>   0.0800 
 43 H       -5.1720     2.5920    -2.3680 H     1 <1>   0.0800 
@<TRIPOS>BOND
  1   1   2  1   
  2   2   3  ar  
  3   2   4  ar  
  4   3   5  ar  
  5   3  23  1   
  6   4   6  ar  
  7   4  24  1   
  8   5   7  1   
  9   5   8  ar  
 10   6   8  ar  
 11   6  25  1   
 12   7   9  am  
 13   7  10  1   
 14   8  26  1   
 15   9  11  2   
 16   9  12  2   
 17   9  13  1   
 18  10  14  1   
 19  10  15  1   
 20  10  27  1   
 21  13  28  1   
 22  13  29  1   
 23  13  30  1   
 24  14  16  2   
 25  14  17  am  
 26  15  31  1   
 27  15  32  1   
 28  15  33  1   
 29  17  18  1   
 30  17  19  1   
 31  18  20  1   
 32  18  34  1   
 33  18  35  1   
 34  19  21  1   
 35  19  36  1   
 36  19  37  1   
 37  20  22  1   
 38  20  38  1   
 39  20  39  1   
 40  21  22  1   
 41  21  40  1   
 42  21  41  1   
 43  22  42  1   
 44  22  43  1   
@<TRIPOS>SUBSTRUCTURE
  1 ****   7 GROUP 4 **** **** 0

# MOE 2024.06 (io_trps.svl 2023.06)
