@<TRIPOS>MOLECULE
NONAME
38 39 1 0 0 
SMALL
USER_CHARGES


@<TRIPOS>ATOM
  1 O       -1.4140     0.3040    -0.3500 O.2   1 <1>  -0.5700 
  2 C       -0.7960     1.1710     0.2340 C.2   1 <1>   0.6340 
  3 O        0.2750     0.8200     0.9550 O.3   1 <1>  -0.4300 
  4 C       -1.1670     2.5730     0.1930 C.ar  1 <1>   0.0860 
  5 C        0.7030    -0.5250     1.0460 C.3   1 <1>   0.0400 
  6 C       -2.2460     3.0030    -0.5690 C.ar  1 <1>  -0.1500 
  7 C       -0.4540     3.5510     0.9240 C.ar  1 <1>  -0.1500 
  8 C       -2.6060     4.3520    -0.6030 C.ar  1 <1>  -0.1520 
  9 C       -0.8010     4.8800     0.8980 C.ar  1 <1>  -0.1500 
 10 N       -3.6250     5.0000    -1.2650 N.pl3 1 <1>   0.0480 
 11 C       -1.8910     5.2930     0.1300 C.ar  1 <1>   0.0000 
 12 C       -3.5480     6.3260    -0.9480 C.2   1 <1>  -0.3020 
 13 C       -4.6490     4.3690    -2.1280 C.3   1 <1>   0.1570 
 14 C       -2.5070     6.5360    -0.1070 C.2   1 <1>  -0.1500 
 15 C       -5.6990     3.6060    -1.3360 C.2   1 <1>   0.5690 
 16 O       -6.6780     3.2380    -1.9370 O.2   1 <1>  -0.5700 
 17 N       -5.5080     3.3490    -0.0080 N.am  1 <1>  -0.7300 
 18 C       -6.3500     2.5710     0.9160 C.3   1 <1>   0.2200 
 19 C       -6.4340     1.1210     0.4470 C.3   1 <1>  -0.2400 
 20 C       -7.7270     3.2170     1.0470 C.3   1 <1>  -0.2400 
 21 H        1.5750    -0.5640     1.6750 H     1 <1>   0.0800 
 22 H        0.9410    -0.8810     0.0590 H     1 <1>   0.0800 
 23 H       -0.0900    -1.1140     1.4730 H     1 <1>   0.0800 
 24 H       -2.8120     2.2870    -1.1400 H     1 <1>   0.1500 
 25 H        0.3880     3.2400     1.5190 H     1 <1>   0.1500 
 26 H       -0.2500     5.6140     1.4590 H     1 <1>   0.1500 
 27 H       -4.2410     7.0500    -1.3390 H     1 <1>   0.1500 
 28 H       -4.1650     3.6920    -2.8050 H     1 <1>   0.0800 
 29 H       -5.1380     5.1320    -2.7030 H     1 <1>   0.0800 
 30 H       -2.1780     7.4660     0.3250 H     1 <1>   0.1500 
 31 H       -4.6470     3.7060     0.4180 H     1 <1>   0.3700 
 32 H       -5.8780     2.5860     1.8850 H     1 <1>   0.0800 
 33 H       -6.9380     1.0550    -0.5000 H     1 <1>   0.0800 
 34 H       -6.9840     0.5370     1.1620 H     1 <1>   0.0800 
 35 H       -5.4480     0.7040     0.3530 H     1 <1>   0.0800 
 36 H       -8.2600     3.1760     0.1140 H     1 <1>   0.0800 
 37 H       -7.6280     4.2420     1.3540 H     1 <1>   0.0800 
 38 H       -8.3060     2.6950     1.7870 H     1 <1>   0.0800 
@<TRIPOS>BOND
  1   1   2  2   
  2   2   3  1   
  3   2   4  1   
  4   3   5  1   
  5   4   6  ar  
  6   4   7  ar  
  7   5  21  1   
  8   5  22  1   
  9   5  23  1   
 10   6   8  ar  
 11   6  24  1   
 12   7   9  ar  
 13   7  25  1   
 14   8  10  1   
 15   8  11  ar  
 16   9  11  ar  
 17   9  26  1   
 18  10  12  1   
 19  10  13  1   
 20  11  14  1   
 21  12  14  2   
 22  12  27  1   
 23  13  15  1   
 24  13  28  1   
 25  13  29  1   
 26  14  30  1   
 27  15  16  2   
 28  15  17  am  
 29  17  18  1   
 30  17  31  1   
 31  18  19  1   
 32  18  20  1   
 33  18  32  1   
 34  19  33  1   
 35  19  34  1   
 36  19  35  1   
 37  20  36  1   
 38  20  37  1   
 39  20  38  1   
@<TRIPOS>SUBSTRUCTURE
  1 ****   6 GROUP 4 **** **** 0

# MOE 2024.06 (io_trps.svl 2023.06)
