@<TRIPOS>MOLECULE
NONAME
25 25 1 0 0 
SMALL
USER_CHARGES


@<TRIPOS>ATOM
  1 S       -2.0480     1.1660    -0.5630 S.o2  1 <1>   1.4590 
  2 O       -1.3990     1.3630     0.7600 O.co2 1 <1>  -0.8170 
  3 O       -1.9360    -0.2300    -1.0550 O.co2 1 <1>  -0.8170 
  4 O       -1.6240     2.1710    -1.5690 O.co2 1 <1>  -0.8170 
  5 C       -3.8520     1.4650    -0.2830 C.ar  1 <1>  -0.0090 
  6 C       -4.3630     2.6790     0.1890 C.ar  1 <1>  -0.1440 
  7 C       -4.7670     0.4490    -0.5450 C.ar  1 <1>  -0.1500 
  8 C       -5.7260     2.8530     0.3820 C.ar  1 <1>  -0.1500 
  9 C       -3.4270     3.8410     0.5000 C.3   1 <1>  -0.0960 
 10 C       -6.1260     0.6180    -0.3550 C.ar  1 <1>  -0.1500 
 11 C       -6.6200     1.8220     0.1100 C.ar  1 <1>   0.0820 
 12 O       -7.9650     1.9090     0.2710 O.3   1 <1>  -0.3630 
 13 C       -8.6170     3.0930     0.6770 C.3   1 <1>   0.1200 
 14 C       -8.7620     4.0310    -0.5240 C.3   1 <1>  -0.2400 
 15 H       -4.3970    -0.4940    -0.9080 H     1 <1>   0.1500 
 16 H       -6.0770     3.7980     0.7430 H     1 <1>   0.1500 
 17 H       -2.7220     3.5520     1.2590 H     1 <1>   0.0800 
 18 H       -3.9670     4.7000     0.8510 H     1 <1>   0.0800 
 19 H       -2.8820     4.1210    -0.3840 H     1 <1>   0.0800 
 20 H       -6.8070    -0.1850    -0.5670 H     1 <1>   0.1500 
 21 H       -8.0720     3.5420     1.4880 H     1 <1>   0.0800 
 22 H       -9.5900     2.8090     1.0370 H     1 <1>   0.0800 
 23 H       -7.7990     4.3160    -0.9050 H     1 <1>   0.0800 
 24 H       -9.2890     4.9190    -0.2290 H     1 <1>   0.0800 
 25 H       -9.3210     3.5430    -1.3020 H     1 <1>   0.0800 
@<TRIPOS>BOND
  1   1   2  ar  
  2   1   3  ar  
  3   1   4  ar  
  4   1   5  1   
  5   5   6  ar  
  6   5   7  ar  
  7   6   8  ar  
  8   6   9  1   
  9   7  10  ar  
 10   7  15  1   
 11   8  11  ar  
 12   8  16  1   
 13   9  17  1   
 14   9  18  1   
 15   9  19  1   
 16  10  11  ar  
 17  10  20  1   
 18  11  12  1   
 19  12  13  1   
 20  13  14  1   
 21  13  21  1   
 22  13  22  1   
 23  14  23  1   
 24  14  24  1   
 25  14  25  1   
@<TRIPOS>SUBSTRUCTURE
  1 ****   6 GROUP 4 **** **** 0

# MOE 2024.06 (io_trps.svl 2023.06)
