@<TRIPOS>MOLECULE
NONAME
47 48 1 0 0 
SMALL
USER_CHARGES


@<TRIPOS>ATOM
  1 S       -0.2910    -0.0360     0.8900 S.o2  1 <1>   1.4470 
  2 O       -0.5280    -0.2980     2.2930 O.2   1 <1>  -0.6500 
  3 O        0.9190    -0.5320     0.2700 O.2   1 <1>  -0.6500 
  4 N       -1.5940    -0.7190     0.0440 N.am  1 <1>  -0.8490 
  5 C       -0.4610     1.7370     0.5370 C.ar  1 <1>  -0.0090 
  6 C       -2.8910    -0.3400     0.6300 C.3   1 <1>   0.1960 
  7 C       -1.4680    -2.1780    -0.0240 C.3   1 <1>   0.1960 
  8 C       -0.2800     2.2250    -0.7510 C.ar  1 <1>  -0.1500 
  9 C       -0.7970     2.6450     1.5360 C.ar  1 <1>  -0.1500 
 10 C       -4.0410    -0.8300    -0.2600 C.3   1 <1>  -0.0190 
 11 C       -2.5690    -2.7660    -0.9150 C.3   1 <1>  -0.1600 
 12 C       -0.4290     3.5710    -1.0380 C.ar  1 <1>  -0.1500 
 13 C       -0.9490     3.9930     1.2590 C.ar  1 <1>  -0.1500 
 14 C       -5.3780    -0.3970     0.3210 C.2   1 <1>   0.5690 
 15 C       -3.9690    -2.3570    -0.4350 C.3   1 <1>  -0.1600 
 16 C       -0.7650     4.4570    -0.0310 C.ar  1 <1>  -0.1500 
 17 O       -5.5650    -0.4810     1.5100 O.2   1 <1>  -0.5700 
 18 N       -6.3340     0.0690    -0.5210 N.am  1 <1>  -0.7300 
 19 C       -7.6450     0.5990    -0.0930 C.3   1 <1>   0.2200 
 20 C       -8.6090    -0.5640     0.1960 C.3   1 <1>   0.1200 
 21 C       -8.1410     1.5280    -1.2010 C.3   1 <1>  -0.2400 
 22 O       -9.8850    -0.0720     0.4860 O.3   1 <1>  -0.5600 
 23 C      -10.8000    -1.0570     0.8380 C.3   1 <1>   0.0400 
 24 H       -2.9560     0.7310     0.7170 H     1 <1>   0.0800 
 25 H       -2.9860    -0.7610     1.6190 H     1 <1>   0.0800 
 26 H       -1.5300    -2.5960     0.9680 H     1 <1>   0.0800 
 27 H       -0.5090    -2.4430    -0.4390 H     1 <1>   0.0800 
 28 H       -0.0190     1.5380    -1.5390 H     1 <1>   0.1500 
 29 H       -0.9420     2.2930     2.5440 H     1 <1>   0.1500 
 30 H       -3.9260    -0.3620    -1.2210 H     1 <1>   0.0800 
 31 H       -2.4860    -3.8380    -0.9190 H     1 <1>   0.0800 
 32 H       -2.4130    -2.4220    -1.9230 H     1 <1>   0.0800 
 33 H       -0.2830     3.9280    -2.0430 H     1 <1>   0.1500 
 34 H       -1.2090     4.6790     2.0460 H     1 <1>   0.1500 
 35 H       -4.7110    -2.6850    -1.1410 H     1 <1>   0.0800 
 36 H       -4.1740    -2.8320     0.5100 H     1 <1>   0.0800 
 37 H       -0.8810     5.5050    -0.2500 H     1 <1>   0.1500 
 38 H       -6.1620     0.1110    -1.5250 H     1 <1>   0.3700 
 39 H       -7.5100     1.1620     0.8170 H     1 <1>   0.0800 
 40 H       -8.2550    -1.1200     1.0480 H     1 <1>   0.0800 
 41 H       -8.6840    -1.2080    -0.6620 H     1 <1>   0.0800 
 42 H       -8.3210     0.9800    -2.1080 H     1 <1>   0.0800 
 43 H       -7.4260     2.3110    -1.3820 H     1 <1>   0.0800 
 44 H       -9.0660     1.9870    -0.8980 H     1 <1>   0.0800 
 45 H      -11.7440    -0.5810     1.0360 H     1 <1>   0.0800 
 46 H      -10.4560    -1.5610     1.7250 H     1 <1>   0.0800 
 47 H      -10.9080    -1.7520     0.0230 H     1 <1>   0.0800 
@<TRIPOS>BOND
  1   1   2  2   
  2   1   3  2   
  3   1   4  am  
  4   1   5  1   
  5   4   6  1   
  6   4   7  1   
  7   5   8  ar  
  8   5   9  ar  
  9   6  10  1   
 10   6  24  1   
 11   6  25  1   
 12   7  11  1   
 13   7  26  1   
 14   7  27  1   
 15   8  12  ar  
 16   8  28  1   
 17   9  13  ar  
 18   9  29  1   
 19  10  14  1   
 20  10  15  1   
 21  10  30  1   
 22  11  15  1   
 23  11  31  1   
 24  11  32  1   
 25  12  16  ar  
 26  12  33  1   
 27  13  16  ar  
 28  13  34  1   
 29  14  17  2   
 30  14  18  am  
 31  15  35  1   
 32  15  36  1   
 33  16  37  1   
 34  18  19  1   
 35  18  38  1   
 36  19  20  1   
 37  19  21  1   
 38  19  39  1   
 39  20  22  1   
 40  20  40  1   
 41  20  41  1   
 42  21  42  1   
 43  21  43  1   
 44  21  44  1   
 45  22  23  1   
 46  23  45  1   
 47  23  46  1   
 48  23  47  1   
@<TRIPOS>SUBSTRUCTURE
  1 ****   6 GROUP 4 **** **** 0

# MOE 2024.06 (io_trps.svl 2023.06)
