@<TRIPOS>MOLECULE
NONAME
53 55 1 0 0 
SMALL
USER_CHARGES


@<TRIPOS>ATOM
  1 O       -2.8230    -1.0070     0.8410 O.2   1 <1>  -0.5700 
  2 C       -2.3120    -1.7250     0.0020 C.2   1 <1>   0.6900 
  3 N       -3.0660    -2.1450    -1.0560 N.am  1 <1>  -0.6600 
  4 N       -1.0330    -2.1830     0.0900 N.am  1 <1>  -0.5470 
  5 C       -3.4340    -3.5950    -1.1400 C.3   1 <1>   0.1400 
  6 C       -4.1290    -1.2290    -1.5720 C.3   1 <1>   0.1400 
  7 C       -0.0580    -2.0870     1.0940 C.ar  1 <1>   0.1170 
  8 C       -4.9580    -3.8330    -0.9750 C.3   1 <1>   0.3430 
  9 C       -5.4510    -1.3850    -0.7830 C.3   1 <1>   0.3430 
 10 C        1.2490    -2.4460     0.7790 C.ar  1 <1>  -0.1500 
 11 C       -0.3280    -1.6670     2.3940 C.ar  1 <1>  -0.1500 
 12 N       -5.6440    -2.7540    -0.1800 N.4   1 <1>  -0.9590 
 13 C        2.2540    -2.3890     1.7270 C.ar  1 <1>  -0.1500 
 14 C        0.6750    -1.6070     3.3450 C.ar  1 <1>  -0.1500 
 15 C       -5.2470    -2.7550     1.2650 C.3   1 <1>   0.3430 
 16 C        1.9680    -1.9690     3.0140 C.ar  1 <1>  -0.1500 
 17 C       -6.0390    -3.7960     2.0860 C.3   1 <1>   0.1400 
 18 N       -7.5110    -3.5300     2.0950 N.am  1 <1>  -0.7300 
 19 C       -8.3790    -3.8750     1.1110 C.2   1 <1>   0.6900 
 20 O       -7.9400    -4.2230     0.0320 O.2   1 <1>  -0.5700 
 21 N       -9.7120    -3.7600     1.3540 N.am  1 <1>  -0.5470 
 22 C      -10.8040    -4.0350     0.5190 C.ar  1 <1>   0.1170 
 23 C      -11.9690    -3.2900     0.6670 C.ar  1 <1>  -0.1500 
 24 C      -10.7780    -5.0390    -0.4450 C.ar  1 <1>  -0.1500 
 25 C      -13.0730    -3.5310    -0.1310 C.ar  1 <1>  -0.1500 
 26 C      -11.8800    -5.2830    -1.2450 C.ar  1 <1>  -0.1500 
 27 C      -13.0290    -4.5280    -1.0900 C.ar  1 <1>  -0.1500 
 28 H       -0.7010    -2.5710    -0.7880 H     1 <1>   0.3700 
 29 H       -2.9170    -4.1420    -0.3700 H     1 <1>   0.0800 
 30 H       -3.1120    -3.9930    -2.0870 H     1 <1>   0.0800 
 31 H       -4.3040    -1.4450    -2.6120 H     1 <1>   0.0800 
 32 H       -3.7950    -0.2070    -1.5080 H     1 <1>   0.0800 
 33 H       -5.1300    -4.7950    -0.5200 H     1 <1>   0.0800 
 34 H       -5.4010    -3.8690    -1.9560 H     1 <1>   0.0800 
 35 H       -6.2710    -1.1610    -1.4450 H     1 <1>   0.0800 
 36 H       -5.4660    -0.6460     0.0020 H     1 <1>   0.0800 
 37 H        1.4900    -2.7720    -0.2160 H     1 <1>   0.1500 
 38 H       -1.3220    -1.3800     2.6780 H     1 <1>   0.1500 
 39 H       -6.6590    -2.9940    -0.1870 H     1 <1>   0.4500 
 40 H        3.2600    -2.6700     1.4670 H     1 <1>   0.1500 
 41 H        0.4490    -1.2770     4.3450 H     1 <1>   0.1500 
 42 H       -5.4270    -1.7830     1.6920 H     1 <1>   0.0800 
 43 H       -4.1920    -2.9510     1.3540 H     1 <1>   0.0800 
 44 H        2.7480    -1.9230     3.7540 H     1 <1>   0.1500 
 45 H       -5.6790    -3.7790     3.1000 H     1 <1>   0.0800 
 46 H       -5.8550    -4.7820     1.6940 H     1 <1>   0.0800 
 47 H       -7.9060    -3.3490     3.0200 H     1 <1>   0.3700 
 48 H       -9.9590    -3.3260     2.2370 H     1 <1>   0.3700 
 49 H      -12.0170    -2.5120     1.4060 H     1 <1>   0.1500 
 50 H       -9.8970    -5.6400    -0.5720 H     1 <1>   0.1500 
 51 H      -13.9670    -2.9450    -0.0080 H     1 <1>   0.1500 
 52 H      -11.8450    -6.0610    -1.9870 H     1 <1>   0.1500 
 53 H      -13.8860    -4.7170    -1.7130 H     1 <1>   0.1500 
@<TRIPOS>BOND
  1   1   2  2   
  2   2   3  am  
  3   2   4  am  
  4   3   5  1   
  5   3   6  1   
  6   4   7  1   
  7   4  28  1   
  8   5   8  1   
  9   5  29  1   
 10   5  30  1   
 11   6   9  1   
 12   6  31  1   
 13   6  32  1   
 14   7  10  ar  
 15   7  11  ar  
 16   8  12  1   
 17   8  33  1   
 18   8  34  1   
 19   9  12  1   
 20   9  35  1   
 21   9  36  1   
 22  10  13  ar  
 23  10  37  1   
 24  11  14  ar  
 25  11  38  1   
 26  12  15  1   
 27  12  39  1   
 28  13  16  ar  
 29  13  40  1   
 30  14  16  ar  
 31  14  41  1   
 32  15  17  1   
 33  15  42  1   
 34  15  43  1   
 35  16  44  1   
 36  17  18  1   
 37  17  45  1   
 38  17  46  1   
 39  18  19  am  
 40  18  47  1   
 41  19  20  2   
 42  19  21  am  
 43  21  22  1   
 44  21  48  1   
 45  22  23  ar  
 46  22  24  ar  
 47  23  25  ar  
 48  23  49  1   
 49  24  26  ar  
 50  24  50  1   
 51  25  27  ar  
 52  25  51  1   
 53  26  27  ar  
 54  26  52  1   
 55  27  53  1   
@<TRIPOS>SUBSTRUCTURE
  1 ****  15 GROUP 4 **** **** 0

# MOE 2024.06 (io_trps.svl 2023.06)
