@<TRIPOS>MOLECULE
NONAME
48 48 1 0 0 
SMALL
USER_CHARGES


@<TRIPOS>ATOM
  1 O        0.2230    -0.8520    -0.8800 O.2   1 <1>  -0.5700 
  2 C       -0.1200    -1.4910     0.0980 C.2   1 <1>   0.7060 
  3 O        0.8150    -2.1660     0.7750 O.3   1 <1>  -0.4300 
  4 C       -1.4500    -1.5770     0.6070 C.2   1 <1>  -0.1360 
  5 C        2.1670    -2.1500     0.3730 C.3   1 <1>   0.1200 
  6 C       -2.6500    -1.1070     0.1700 C.2   1 <1>  -0.0380 
  7 C        2.9620    -3.0120     1.3480 C.3   1 <1>  -0.2400 
  8 N       -3.7790    -1.3300     0.9360 N.pl3 1 <1>  -0.8690 
  9 C       -2.7780    -0.3370    -1.1380 C.3   1 <1>  -0.1020 
 10 C       -5.2080    -0.9460     0.8590 C.3   1 <1>   0.2890 
 11 C       -5.9340    -1.7920    -0.1800 C.3   1 <1>  -0.1600 
 12 C       -5.4070     0.5420     0.5900 C.3   1 <1>  -0.1600 
 13 C       -7.4300    -1.4590    -0.2490 C.3   1 <1>   0.5030 
 14 C       -6.8910     0.9230     0.5660 C.3   1 <1>   0.5030 
 15 N       -7.6600    -0.0040    -0.2840 N.4   1 <1>  -0.9060 
 16 C       -8.2140    -2.0860     0.9080 C.3   1 <1>  -0.2400 
 17 C       -8.0110    -1.9950    -1.5560 C.3   1 <1>  -0.2400 
 18 C       -7.5000     0.9870     1.9690 C.3   1 <1>  -0.2400 
 19 C       -7.0530     2.2980    -0.0800 C.3   1 <1>  -0.2400 
 20 H       -1.4610    -2.1260     1.5270 H     1 <1>   0.1500 
 21 H        2.2300    -2.5400    -0.6290 H     1 <1>   0.0800 
 22 H        2.5140    -1.1300     0.3860 H     1 <1>   0.0800 
 23 H        2.5960    -4.0230     1.3310 H     1 <1>   0.0800 
 24 H        2.8800    -2.6150     2.3450 H     1 <1>   0.0800 
 25 H        3.9980    -3.0170     1.0650 H     1 <1>   0.0800 
 26 H       -3.6110    -1.8830     1.7870 H     1 <1>   0.4000 
 27 H       -3.6730    -0.5970    -1.6620 H     1 <1>   0.0800 
 28 H       -1.9700    -0.5580    -1.8070 H     1 <1>   0.0800 
 29 H       -2.7640     0.7190    -0.9420 H     1 <1>   0.0800 
 30 H       -5.6250    -1.1670     1.8260 H     1 <1>   0.0800 
 31 H       -5.8080    -2.8330     0.0610 H     1 <1>   0.0800 
 32 H       -5.4910    -1.6370    -1.1430 H     1 <1>   0.0800 
 33 H       -4.9800     0.8020    -0.3560 H     1 <1>   0.0800 
 34 H       -4.8950     1.1120     1.3460 H     1 <1>   0.0800 
 35 H       -8.6550     0.1660    -0.1210 H     1 <1>   0.4500 
 36 H       -7.4780     0.2850    -1.2470 H     1 <1>   0.4500 
 37 H       -8.2130    -3.1580     0.8040 H     1 <1>   0.0800 
 38 H       -9.2390    -1.7620     0.9060 H     1 <1>   0.0800 
 39 H       -7.7780    -1.8760     1.8630 H     1 <1>   0.0800 
 40 H       -7.5180    -1.5660    -2.4110 H     1 <1>   0.0800 
 41 H       -9.0680    -1.8000    -1.6240 H     1 <1>   0.0800 
 42 H       -7.8740    -3.0620    -1.6080 H     1 <1>   0.0800 
 43 H       -7.0600     1.8050     2.5140 H     1 <1>   0.0800 
 44 H       -7.3100     0.1050     2.5460 H     1 <1>   0.0800 
 45 H       -8.5610     1.1620     1.9270 H     1 <1>   0.0800 
 46 H       -6.6690     2.3090    -1.0850 H     1 <1>   0.0800 
 47 H       -6.5040     3.0340     0.4820 H     1 <1>   0.0800 
 48 H       -8.0850     2.6040    -0.0940 H     1 <1>   0.0800 
@<TRIPOS>BOND
  1   1   2  2   
  2   2   3  1   
  3   2   4  1   
  4   3   5  1   
  5   4   6  2   
  6   4  20  1   
  7   5   7  1   
  8   5  21  1   
  9   5  22  1   
 10   6   8  1   
 11   6   9  1   
 12   7  23  1   
 13   7  24  1   
 14   7  25  1   
 15   8  10  1   
 16   8  26  1   
 17   9  27  1   
 18   9  28  1   
 19   9  29  1   
 20  10  11  1   
 21  10  12  1   
 22  10  30  1   
 23  11  13  1   
 24  11  31  1   
 25  11  32  1   
 26  12  14  1   
 27  12  33  1   
 28  12  34  1   
 29  13  15  1   
 30  13  16  1   
 31  13  17  1   
 32  14  15  1   
 33  14  18  1   
 34  14  19  1   
 35  15  35  1   
 36  15  36  1   
 37  16  37  1   
 38  16  38  1   
 39  16  39  1   
 40  17  40  1   
 41  17  41  1   
 42  17  42  1   
 43  18  43  1   
 44  18  44  1   
 45  18  45  1   
 46  19  46  1   
 47  19  47  1   
 48  19  48  1   
@<TRIPOS>SUBSTRUCTURE
  1 ****   8 GROUP 4 **** **** 0

# MOE 2024.06 (io_trps.svl 2023.06)
