@<TRIPOS>MOLECULE
NONAME
46 47 1 0 0 
SMALL
USER_CHARGES


@<TRIPOS>ATOM
  1 O        0.0880    -3.3520    -1.5690 O.2   1 <1>  -0.5700 
  2 C        0.1530    -2.7250    -0.5440 C.2   1 <1>   0.6590 
  3 O       -0.7500    -1.8200    -0.2000 O.3   1 <1>  -0.4300 
  4 C        1.3080    -2.9150     0.4370 C.3   1 <1>  -0.0190 
  5 C       -1.8600    -1.5410    -1.0230 C.3   1 <1>   0.1200 
  6 C        2.5230    -2.0680     0.0150 C.3   1 <1>  -0.1600 
  7 C        1.7130    -4.3970     0.5670 C.3   1 <1>  -0.1600 
  8 C       -2.6920    -0.4580    -0.3440 C.3   1 <1>  -0.2400 
  9 C        3.7270    -2.2980     0.9260 C.3   1 <1>   0.3430 
 10 C        2.9280    -4.5820     1.4730 C.3   1 <1>   0.3430 
 11 N        4.0530    -3.7530     0.9650 N.4   1 <1>  -0.9590 
 12 C        5.3130    -4.0170     1.7120 C.3   1 <1>   0.4860 
 13 C        6.4570    -3.3460     0.9770 C.ar  1 <1>  -0.1440 
 14 C        6.9630    -3.8500    -0.2190 C.ar  1 <1>  -0.1440 
 15 C        7.0000    -2.1880     1.5180 C.ar  1 <1>  -0.1500 
 16 C        7.9890    -3.1700    -0.8580 C.ar  1 <1>  -0.1500 
 17 C        6.4470    -5.1300    -0.8650 C.3   1 <1>  -0.0970 
 18 C        8.0250    -1.5240     0.8720 C.ar  1 <1>  -0.1500 
 19 C        8.5220    -2.0110    -0.3220 C.ar  1 <1>  -0.1440 
 20 C        9.6460    -1.2860    -1.0410 C.3   1 <1>  -0.0970 
 21 H        0.9690    -2.5730     1.4000 H     1 <1>   0.0800 
 22 H       -2.4320    -2.4460    -1.1460 H     1 <1>   0.0800 
 23 H       -1.5010    -1.2080    -1.9820 H     1 <1>   0.0800 
 24 H        2.2570    -1.0250     0.0430 H     1 <1>   0.0800 
 25 H        2.7970    -2.3000    -1.0000 H     1 <1>   0.0800 
 26 H        1.9340    -4.8080    -0.4040 H     1 <1>   0.0800 
 27 H        0.8860    -4.9580     0.9680 H     1 <1>   0.0800 
 28 H       -3.0370    -0.8000     0.6150 H     1 <1>   0.0800 
 29 H       -3.5480    -0.2260    -0.9510 H     1 <1>   0.0800 
 30 H       -2.1090     0.4370    -0.2200 H     1 <1>   0.0800 
 31 H        3.5050    -1.9440     1.9200 H     1 <1>   0.0800 
 32 H        4.5690    -1.7380     0.5470 H     1 <1>   0.0800 
 33 H        3.2090    -5.6230     1.4870 H     1 <1>   0.0800 
 34 H        2.6780    -4.2830     2.4790 H     1 <1>   0.0800 
 35 H        4.2530    -4.0260    -0.0060 H     1 <1>   0.4500 
 36 H        5.5010    -5.0760     1.7680 H     1 <1>   0.0800 
 37 H        5.2420    -3.6300     2.7160 H     1 <1>   0.0800 
 38 H        6.6370    -1.7870     2.4490 H     1 <1>   0.1500 
 39 H        8.3860    -3.5440    -1.7860 H     1 <1>   0.1500 
 40 H        5.5570    -4.9310    -1.4350 H     1 <1>   0.0800 
 41 H        6.2440    -5.8860    -0.1290 H     1 <1>   0.0800 
 42 H        7.1860    -5.5320    -1.5380 H     1 <1>   0.0800 
 43 H        8.4380    -0.6270     1.3010 H     1 <1>   0.1500 
 44 H       10.3180    -1.9930    -1.4940 H     1 <1>   0.0800 
 45 H       10.2090    -0.6790    -0.3550 H     1 <1>   0.0800 
 46 H        9.2400    -0.6530    -1.8100 H     1 <1>   0.0800 
@<TRIPOS>BOND
  1   1   2  2   
  2   2   3  1   
  3   2   4  1   
  4   3   5  1   
  5   4   6  1   
  6   4   7  1   
  7   4  21  1   
  8   5   8  1   
  9   5  22  1   
 10   5  23  1   
 11   6   9  1   
 12   6  24  1   
 13   6  25  1   
 14   7  10  1   
 15   7  26  1   
 16   7  27  1   
 17   8  28  1   
 18   8  29  1   
 19   8  30  1   
 20   9  11  1   
 21   9  31  1   
 22   9  32  1   
 23  10  11  1   
 24  10  33  1   
 25  10  34  1   
 26  11  12  1   
 27  11  35  1   
 28  12  13  1   
 29  12  36  1   
 30  12  37  1   
 31  13  14  ar  
 32  13  15  ar  
 33  14  16  ar  
 34  14  17  1   
 35  15  18  ar  
 36  15  38  1   
 37  16  19  ar  
 38  16  39  1   
 39  17  40  1   
 40  17  41  1   
 41  17  42  1   
 42  18  19  ar  
 43  18  43  1   
 44  19  20  1   
 45  20  44  1   
 46  20  45  1   
 47  20  46  1   
@<TRIPOS>SUBSTRUCTURE
  1 ****   9 GROUP 4 **** **** 0

# MOE 2024.06 (io_trps.svl 2023.06)
