@<TRIPOS>MOLECULE
NONAME
46 48 1 0 0 
SMALL
USER_CHARGES


@<TRIPOS>ATOM
  1 CL      -0.4450    -1.2350    -0.5540 Cl    1 <1>  -0.1770 
  2 C        0.6580    -2.5560    -0.2680 C.ar  1 <1>   0.1770 
  3 C        0.2850    -3.6690     0.4720 C.ar  1 <1>  -0.0090 
  4 C        1.9220    -2.4460    -0.8180 C.ar  1 <1>  -0.1500 
  5 S       -1.3700    -3.8170     1.1830 S.o2  1 <1>   1.4470 
  6 C        1.2300    -4.6740     0.6370 C.ar  1 <1>  -0.1500 
  7 C        2.8410    -3.4610    -0.6370 C.ar  1 <1>  -0.1500 
  8 O       -1.6710    -2.6320     1.9560 O.2   1 <1>  -0.6500 
  9 O       -1.5030    -5.1060     1.8260 O.2   1 <1>  -0.6500 
 10 N       -2.3790    -3.8500    -0.1790 N.am  1 <1>  -0.8490 
 11 C        2.5170    -4.6010     0.0990 C.ar  1 <1>   0.0860 
 12 C       -3.7450    -3.4280     0.1430 C.3   1 <1>   0.1960 
 13 C       -2.3700    -5.1540    -0.8500 C.3   1 <1>   0.1960 
 14 C        3.4670    -5.6810     0.3010 C.2   1 <1>   0.5440 
 15 C       -4.5780    -3.3010    -1.1370 C.3   1 <1>  -0.1600 
 16 C       -3.1400    -5.0740    -2.1710 C.3   1 <1>  -0.1600 
 17 O        3.0860    -6.8250     0.4380 O.2   1 <1>  -0.5700 
 18 N        4.8070    -5.4380     0.3540 N.am  1 <1>  -0.7300 
 19 C       -4.5820    -4.6050    -1.9430 C.3   1 <1>  -0.1600 
 20 C        5.8270    -6.4790     0.5500 C.3   1 <1>   0.2840 
 21 C        7.1840    -5.8520     0.2900 C.ar  1 <1>  -0.1430 
 22 C        7.7110    -5.7650    -0.9820 C.ar  1 <1>  -0.1500 
 23 C        7.9550    -5.3290     1.3090 C.ar  1 <1>  -0.1500 
 24 C        8.9500    -5.1750    -1.1700 C.ar  1 <1>   0.1600 
 25 C        9.1830    -4.7600     1.0140 C.ar  1 <1>   0.1600 
 26 N        9.6970    -4.6690    -0.2020 N.ar  1 <1>  -0.6200 
 27 H        2.1750    -1.5690    -1.3880 H     1 <1>   0.1500 
 28 H        0.9660    -5.5530     1.2040 H     1 <1>   0.1500 
 29 H        3.8180    -3.3700    -1.0810 H     1 <1>   0.1500 
 30 H       -3.7250    -2.4670     0.6310 H     1 <1>   0.0800 
 31 H       -4.1980    -4.1380     0.8160 H     1 <1>   0.0800 
 32 H       -2.8170    -5.9000    -0.2120 H     1 <1>   0.0800 
 33 H       -1.3550    -5.4520    -1.0550 H     1 <1>   0.0800 
 34 H       -4.1670    -2.5060    -1.7350 H     1 <1>   0.0800 
 35 H       -5.5860    -3.0300    -0.8800 H     1 <1>   0.0800 
 36 H       -3.1440    -6.0410    -2.6420 H     1 <1>   0.0800 
 37 H       -2.6330    -4.3890    -2.8280 H     1 <1>   0.0800 
 38 H        5.1720    -4.4860     0.3390 H     1 <1>   0.3700 
 39 H       -5.0750    -4.4530    -2.8880 H     1 <1>   0.0800 
 40 H       -5.1220    -5.3600    -1.3980 H     1 <1>   0.0800 
 41 H        5.6490    -7.2950    -0.1300 H     1 <1>   0.0800 
 42 H        5.7680    -6.8550     1.5570 H     1 <1>   0.0800 
 43 H        7.1700    -6.1490    -1.8280 H     1 <1>   0.1500 
 44 H        7.6150    -5.3580     2.3290 H     1 <1>   0.1500 
 45 H        9.3480    -5.1170    -2.1690 H     1 <1>   0.1500 
 46 H        9.7730    -4.3580     1.8200 H     1 <1>   0.1500 
@<TRIPOS>BOND
  1   1   2  1   
  2   2   3  ar  
  3   2   4  ar  
  4   3   5  1   
  5   3   6  ar  
  6   4   7  ar  
  7   4  27  1   
  8   5   8  2   
  9   5   9  2   
 10   5  10  am  
 11   6  11  ar  
 12   6  28  1   
 13   7  11  ar  
 14   7  29  1   
 15  10  12  1   
 16  10  13  1   
 17  11  14  1   
 18  12  15  1   
 19  12  30  1   
 20  12  31  1   
 21  13  16  1   
 22  13  32  1   
 23  13  33  1   
 24  14  17  2   
 25  14  18  am  
 26  15  19  1   
 27  15  34  1   
 28  15  35  1   
 29  16  19  1   
 30  16  36  1   
 31  16  37  1   
 32  18  20  1   
 33  18  38  1   
 34  19  39  1   
 35  19  40  1   
 36  20  21  1   
 37  20  41  1   
 38  20  42  1   
 39  21  22  ar  
 40  21  23  ar  
 41  22  24  ar  
 42  22  43  1   
 43  23  25  ar  
 44  23  44  1   
 45  24  26  ar  
 46  24  45  1   
 47  25  26  ar  
 48  25  46  1   
@<TRIPOS>SUBSTRUCTURE
  1 ****  11 GROUP 4 **** **** 0

# MOE 2024.06 (io_trps.svl 2023.06)
