@<TRIPOS>MOLECULE
NONAME
26 27 1 0 0 
SMALL
USER_CHARGES


@<TRIPOS>ATOM
  1 N       -1.3310    -1.9950    -0.1240 N.1   1 <1>  -0.5570 
  2 C       -2.4040    -1.6890     0.0780 C.1   1 <1>   0.3570 
  3 C       -3.7010    -1.0120     0.3000 C.3   1 <1>   0.0400 
  4 C       -3.6230     0.3970    -0.3120 C.3   1 <1>   0.5660 
  5 N       -2.3840     1.1010     0.1450 N.4   1 <1>  -0.9060 
  6 C       -4.8520     1.2600     0.0080 C.ar  1 <1>  -0.1430 
  7 C       -2.2920     2.4750    -0.4070 C.3   1 <1>   0.3430 
  8 C       -4.7260     2.6270     0.2610 C.ar  1 <1>  -0.1430 
  9 C       -6.1270     0.6970     0.0230 C.ar  1 <1>  -0.1500 
 10 C       -3.3790     3.3360     0.2310 C.3   1 <1>  -0.0170 
 11 C       -5.8470     3.3890     0.5500 C.ar  1 <1>  -0.1500 
 12 C       -7.2400     1.4660     0.3100 C.ar  1 <1>  -0.1500 
 13 C       -7.1000     2.8120     0.5770 C.ar  1 <1>  -0.1500 
 14 H       -3.9120    -0.9600     1.3520 H     1 <1>   0.0800 
 15 H       -4.4680    -1.5910    -0.1790 H     1 <1>   0.0800 
 16 H       -3.5730     0.2880    -1.3840 H     1 <1>   0.0800 
 17 H       -1.5530     0.5450    -0.1160 H     1 <1>   0.4500 
 18 H       -2.4070     1.1630     1.1690 H     1 <1>   0.4500 
 19 H       -2.4330     2.4500    -1.4770 H     1 <1>   0.0800 
 20 H       -1.3240     2.9020    -0.2000 H     1 <1>   0.0800 
 21 H       -6.2990    -0.3420    -0.1920 H     1 <1>   0.1500 
 22 H       -3.4640     4.2540    -0.3250 H     1 <1>   0.0800 
 23 H       -3.0910     3.5940     1.2350 H     1 <1>   0.0800 
 24 H       -5.7570     4.4440     0.7540 H     1 <1>   0.1500 
 25 H       -8.2200     1.0190     0.3230 H     1 <1>   0.1500 
 26 H       -7.9680     3.4110     0.8020 H     1 <1>   0.1500 
@<TRIPOS>BOND
  1   1   2  3   
  2   2   3  1   
  3   3   4  1   
  4   3  14  1   
  5   3  15  1   
  6   4   5  1   
  7   4   6  1   
  8   4  16  1   
  9   5   7  1   
 10   5  17  1   
 11   5  18  1   
 12   6   8  ar  
 13   6   9  ar  
 14   7  10  1   
 15   7  19  1   
 16   7  20  1   
 17   8  10  1   
 18   8  11  ar  
 19   9  12  ar  
 20   9  21  1   
 21  10  22  1   
 22  10  23  1   
 23  11  13  ar  
 24  11  24  1   
 25  12  13  ar  
 26  12  25  1   
 27  13  26  1   
@<TRIPOS>SUBSTRUCTURE
  1 ****   6 GROUP 4 **** **** 0

# MOE 2024.06 (io_trps.svl 2023.06)
