@<TRIPOS>MOLECULE
NONAME
43 44 1 0 0 
SMALL
USER_CHARGES


@<TRIPOS>ATOM
  1 O        0.5360    -1.8230    -1.4940 O.2   1 <1>  -0.5700 
  2 C       -0.1910    -1.9070    -0.5300 C.2   1 <1>   0.6340 
  3 O        0.2780    -1.6120     0.6810 O.3   1 <1>  -0.4300 
  4 C       -1.5450    -2.4040    -0.6210 C.ar  1 <1>   0.0860 
  5 C        1.5850    -1.1180     0.8680 C.3   1 <1>   0.1200 
  6 C       -1.7230    -3.7470    -0.9550 C.ar  1 <1>   0.2180 
  7 C       -2.6790    -1.6130    -0.4010 C.ar  1 <1>  -0.1440 
  8 C        1.7870    -0.8690     2.3590 C.3   1 <1>  -0.2400 
  9 N       -2.9610    -4.2590    -1.0410 N.ar  1 <1>  -0.1790 
 10 C       -0.5550    -4.6930    -1.2260 C.3   1 <1>  -0.0970 
 11 C       -3.9850    -2.1600    -0.5440 C.ar  1 <1>   0.0860 
 12 C       -2.5100    -0.1370    -0.0070 C.3   1 <1>  -0.0970 
 13 C       -4.0620    -3.5290    -0.8320 C.ar  1 <1>   0.2180 
 14 C       -5.2080    -1.4330    -0.4570 C.2   1 <1>   0.3030 
 15 C       -5.4100    -4.2350    -0.9040 C.3   1 <1>  -0.0170 
 16 N       -5.2770    -0.1710    -0.7860 N.2   1 <1>  -0.8000 
 17 C       -6.4960    -2.1730    -0.0520 C.3   1 <1>  -0.0990 
 18 C       -6.3500    -3.6870     0.1780 C.3   1 <1>   0.0000 
 19 O       -6.3800     0.3330    -0.6890 O.3   1 <1>  -0.6500 
 20 C       -7.7260    -4.3640     0.0640 C.3   1 <1>  -0.2400 
 21 C       -5.7960    -3.9630     1.5910 C.3   1 <1>  -0.2400 
 22 H        2.2860    -1.8480     0.4990 H     1 <1>   0.0800 
 23 H        1.6870    -0.2030     0.3070 H     1 <1>   0.0800 
 24 H        1.6760    -1.7860     2.9090 H     1 <1>   0.0800 
 25 H        1.0740    -0.1460     2.7140 H     1 <1>   0.0800 
 26 H        2.7760    -0.4850     2.5310 H     1 <1>   0.0800 
 27 H       -3.0700    -5.2480    -1.2770 H     1 <1>   0.4570 
 28 H       -0.1200    -4.4690    -2.1850 H     1 <1>   0.0800 
 29 H       -0.8650    -5.7220    -1.2240 H     1 <1>   0.0800 
 30 H        0.2080    -4.5780    -0.4750 H     1 <1>   0.0800 
 31 H       -3.2010     0.1180     0.7780 H     1 <1>   0.0800 
 32 H       -2.7330     0.4910    -0.8530 H     1 <1>   0.0800 
 33 H       -1.5290     0.1170     0.3440 H     1 <1>   0.0800 
 34 H       -5.8410    -4.0590    -1.8760 H     1 <1>   0.0800 
 35 H       -5.3000    -5.2960    -0.7730 H     1 <1>   0.0800 
 36 H       -6.9030    -1.6940     0.8210 H     1 <1>   0.0800 
 37 H       -7.2010    -2.0060    -0.8480 H     1 <1>   0.0800 
 38 H       -8.1490    -4.2070    -0.9130 H     1 <1>   0.0800 
 39 H       -8.4060    -3.9470     0.7880 H     1 <1>   0.0800 
 40 H       -7.6530    -5.4220     0.2390 H     1 <1>   0.0800 
 41 H       -5.6450    -5.0160     1.7470 H     1 <1>   0.0800 
 42 H       -6.4970    -3.6160     2.3310 H     1 <1>   0.0800 
 43 H       -4.8690    -3.4480     1.7680 H     1 <1>   0.0800 
@<TRIPOS>BOND
  1   1   2  2   
  2   2   3  1   
  3   2   4  1   
  4   3   5  1   
  5   4   6  ar  
  6   4   7  ar  
  7   5   8  1   
  8   5  22  1   
  9   5  23  1   
 10   6   9  ar  
 11   6  10  1   
 12   7  11  ar  
 13   7  12  1   
 14   8  24  1   
 15   8  25  1   
 16   8  26  1   
 17   9  13  ar  
 18   9  27  1   
 19  10  28  1   
 20  10  29  1   
 21  10  30  1   
 22  11  13  ar  
 23  11  14  1   
 24  12  31  1   
 25  12  32  1   
 26  12  33  1   
 27  13  15  1   
 28  14  16  2   
 29  14  17  1   
 30  15  18  1   
 31  15  34  1   
 32  15  35  1   
 33  16  19  1   
 34  17  18  1   
 35  17  36  1   
 36  17  37  1   
 37  18  20  1   
 38  18  21  1   
 39  20  38  1   
 40  20  39  1   
 41  20  40  1   
 42  21  41  1   
 43  21  42  1   
 44  21  43  1   
@<TRIPOS>SUBSTRUCTURE
  1 ****   7 GROUP 4 **** **** 0

# MOE 2024.06 (io_trps.svl 2023.06)
