@<TRIPOS>MOLECULE
NONAME
41 43 1 0 0 
SMALL
USER_CHARGES


@<TRIPOS>ATOM
  1 O       -1.0840     0.0510    -0.7270 O.2   1 <1>  -0.5760 
  2 C       -2.0450    -0.6460    -0.4740 C.2   1 <1>   0.6850 
  3 N       -1.9060    -2.0300    -0.4170 N.am  1 <1>  -0.4270 
  4 N       -3.2800    -0.0590    -0.2330 N.am  1 <1>  -0.4430 
  5 C       -2.9720    -2.8450    -0.0620 C.2   1 <1>   0.6980 
  6 C       -0.5680    -2.6360    -0.7060 C.3   1 <1>   0.0500 
  7 C       -4.3320    -0.8820     0.1190 C.2   1 <1>   0.4190 
  8 C       -3.4530     1.4220    -0.3170 C.3   1 <1>   0.0500 
  9 O       -2.8380    -4.0550     0.0190 O.2   1 <1>  -0.5760 
 10 C       -4.2340    -2.2240     0.2130 C.2   1 <1>   0.2690 
 11 N       -5.6060    -0.5190     0.4290 N.pl3 1 <1>  -0.7050 
 12 N       -5.5080    -2.6940     0.5930 N.pl3 1 <1>  -0.7680 
 13 C       -6.2920    -1.6220     0.7100 C.cat 1 <1>   1.0680 
 14 C       -5.7940    -4.1410     0.8060 C.3   1 <1>   0.2660 
 15 N       -7.5770    -1.6430     1.0480 N.pl3 1 <1>  -0.7190 
 16 C       -8.4820    -0.4710     1.2010 C.3   1 <1>   0.1590 
 17 C       -9.2120    -0.1550    -0.1100 C.3   1 <1>   0.1910 
 18 O       -9.8970     1.0360     0.0520 O.3   1 <1>  -0.5660 
 19 C      -10.2710    -1.1700    -0.5160 C.3   1 <1>  -0.1690 
 20 C      -11.0290     1.0850    -0.7640 C.3   1 <1>   0.1110 
 21 C      -11.2310    -0.3200    -1.3240 C.3   1 <1>  -0.1690 
 22 H       -0.0770    -2.0940    -1.4960 H     1 <1>   0.0700 
 23 H       -0.6670    -3.6620    -1.0140 H     1 <1>   0.0700 
 24 H        0.0440    -2.5930     0.1780 H     1 <1>   0.0700 
 25 H       -2.6890     1.8580    -0.9390 H     1 <1>   0.0700 
 26 H       -3.3800     1.8520     0.6670 H     1 <1>   0.0700 
 27 H       -4.4090     1.6650    -0.7460 H     1 <1>   0.0700 
 28 H       -5.9880     0.4220     0.4470 H     1 <1>   0.4430 
 29 H       -5.1470    -4.5310     1.5740 H     1 <1>   0.0700 
 30 H       -5.6090    -4.6870    -0.1050 H     1 <1>   0.0700 
 31 H       -6.8160    -4.2950     1.1020 H     1 <1>   0.0700 
 32 H       -8.0240    -2.5470     1.1980 H     1 <1>   0.4430 
 33 H       -7.9140     0.3940     1.5000 H     1 <1>   0.0700 
 34 H       -9.2050    -0.6750     1.9730 H     1 <1>   0.0700 
 35 H       -8.5130     0.0000    -0.9140 H     1 <1>   0.0700 
 36 H      -10.7710    -1.5550     0.3560 H     1 <1>   0.0700 
 37 H       -9.8630    -1.9830    -1.0890 H     1 <1>   0.0700 
 38 H      -10.8610     1.8060    -1.5460 H     1 <1>   0.0700 
 39 H      -11.8620     1.3910    -0.1560 H     1 <1>   0.0700 
 40 H      -12.2510    -0.6450    -1.2240 H     1 <1>   0.0700 
 41 H      -10.9620    -0.3290    -2.3660 H     1 <1>   0.0700 
@<TRIPOS>BOND
  1   1   2  2   
  2   2   3  am  
  3   2   4  am  
  4   3   5  am  
  5   3   6  1   
  6   4   7  1   
  7   4   8  1   
  8   5   9  2   
  9   5  10  1   
 10   6  22  1   
 11   6  23  1   
 12   6  24  1   
 13   7  10  2   
 14   7  11  1   
 15   8  25  1   
 16   8  26  1   
 17   8  27  1   
 18  10  12  1   
 19  11  13  ar  
 20  11  28  1   
 21  12  13  ar  
 22  12  14  1   
 23  13  15  ar  
 24  14  29  1   
 25  14  30  1   
 26  14  31  1   
 27  15  16  1   
 28  15  32  1   
 29  16  17  1   
 30  16  33  1   
 31  16  34  1   
 32  17  18  1   
 33  17  19  1   
 34  17  35  1   
 35  18  20  1   
 36  19  21  1   
 37  19  36  1   
 38  19  37  1   
 39  20  21  1   
 40  20  38  1   
 41  20  39  1   
 42  21  40  1   
 43  21  41  1   
@<TRIPOS>SUBSTRUCTURE
  1 ****  11 GROUP 4 **** **** 0

# MOE 2024.06 (io_trps.svl 2023.06)
