@<TRIPOS>MOLECULE
NONAME
43 44 1 0 0 
SMALL
USER_CHARGES


@<TRIPOS>ATOM
  1 O        5.3590    -0.5730    -0.6430 O.2   1 <1>  -0.5700 
  2 C        6.5070    -0.8190    -0.3520 C.2   1 <1>   0.5940 
  3 C        7.5210     0.1980    -0.2450 C.2   1 <1>  -0.2370 
  4 C        6.8340    -2.2670    -0.0690 C.3   1 <1>  -0.1790 
  5 N        7.2460     1.5090     0.0930 N.pl3 1 <1>   0.0480 
  6 C        8.8850     0.1080    -0.4300 C.2   1 <1>  -0.1810 
  7 C        8.4120     2.1970     0.1290 C.2   1 <1>  -0.3320 
  8 C        5.9130     2.0990     0.3190 C.3   1 <1>   0.0960 
  9 C        9.4330     1.3600    -0.1770 C.2   1 <1>  -0.1810 
 10 C        9.7230    -1.0880    -0.8550 C.3   1 <1>  -0.0590 
 11 C        8.5960     3.6700     0.4710 C.3   1 <1>   0.0200 
 12 C        5.3020     2.3960    -1.0530 C.3   1 <1>   0.3430 
 13 C       10.8910     1.7840    -0.2240 C.3   1 <1>   0.0210 
 14 C       10.0040     4.1480     0.0790 C.3   1 <1>  -0.1600 
 15 N        3.8200     2.6420    -1.0010 N.4   1 <1>  -0.9590 
 16 C       11.0860     3.1330     0.4880 C.3   1 <1>  -0.1600 
 17 C        3.0840     1.3640    -0.7230 C.3   1 <1>   0.2630 
 18 C        3.3530     3.2160    -2.3000 C.3   1 <1>   0.2630 
 19 H        7.6550    -2.3370     0.6190 H     1 <1>   0.0800 
 20 H        7.0820    -2.7690    -0.9850 H     1 <1>   0.0800 
 21 H        5.9810    -2.7510     0.3700 H     1 <1>   0.0800 
 22 H        6.0130     3.0000     0.8940 H     1 <1>   0.0800 
 23 H        5.3240     1.3960     0.8760 H     1 <1>   0.0800 
 24 H        9.1660    -1.7320    -1.5080 H     1 <1>   0.0800 
 25 H       10.0390    -1.6400     0.0110 H     1 <1>   0.0800 
 26 H       10.5950    -0.7590    -1.3900 H     1 <1>   0.0800 
 27 H        8.4610     3.7970     1.5310 H     1 <1>   0.0800 
 28 H        7.8690     4.2740    -0.0410 H     1 <1>   0.0800 
 29 H        5.4940     1.5580    -1.7040 H     1 <1>   0.0800 
 30 H        5.8020     3.2570    -1.4670 H     1 <1>   0.0800 
 31 H       11.1890     1.8730    -1.2540 H     1 <1>   0.0800 
 32 H       11.5070     1.0380     0.2450 H     1 <1>   0.0800 
 33 H       10.2010     5.0990     0.5410 H     1 <1>   0.0800 
 34 H       10.0430     4.2830    -0.9880 H     1 <1>   0.0800 
 35 H        3.6140     3.3180    -0.2500 H     1 <1>   0.4500 
 36 H       12.0620     3.5220     0.2570 H     1 <1>   0.0800 
 37 H       11.0340     2.9760     1.5520 H     1 <1>   0.0800 
 38 H        3.3090     0.6310    -1.4820 H     1 <1>   0.0800 
 39 H        2.0200     1.5340    -0.7090 H     1 <1>   0.0800 
 40 H        3.3790     0.9550     0.2300 H     1 <1>   0.0800 
 41 H        3.5550     2.5290    -3.1060 H     1 <1>   0.0800 
 42 H        3.8610     4.1450    -2.5040 H     1 <1>   0.0800 
 43 H        2.2920     3.4050    -2.2660 H     1 <1>   0.0800 
@<TRIPOS>BOND
  1   1   2  2   
  2   2   3  1   
  3   2   4  1   
  4   3   5  1   
  5   3   6  2   
  6   4  19  1   
  7   4  20  1   
  8   4  21  1   
  9   5   7  1   
 10   5   8  1   
 11   6   9  1   
 12   6  10  1   
 13   7   9  2   
 14   7  11  1   
 15   8  12  1   
 16   8  22  1   
 17   8  23  1   
 18   9  13  1   
 19  10  24  1   
 20  10  25  1   
 21  10  26  1   
 22  11  14  1   
 23  11  27  1   
 24  11  28  1   
 25  12  15  1   
 26  12  29  1   
 27  12  30  1   
 28  13  16  1   
 29  13  31  1   
 30  13  32  1   
 31  14  16  1   
 32  14  33  1   
 33  14  34  1   
 34  15  17  1   
 35  15  18  1   
 36  15  35  1   
 37  16  36  1   
 38  16  37  1   
 39  17  38  1   
 40  17  39  1   
 41  17  40  1   
 42  18  41  1   
 43  18  42  1   
 44  18  43  1   
@<TRIPOS>SUBSTRUCTURE
  1 ****   5 GROUP 4 **** **** 0

# MOE 2024.06 (io_trps.svl 2023.06)
