@<TRIPOS>MOLECULE
NONAME
49 50 1 0 0 
SMALL
USER_CHARGES


@<TRIPOS>ATOM
  1 O        1.2800    -7.1770    -0.0440 O.3   1 <1>  -0.3630 
  2 C        0.0590    -6.5900     0.0160 C.ar  1 <1>   0.0830 
  3 C        2.4590    -6.4250     0.1280 C.3   1 <1>   0.1200 
  4 C       -0.1460    -5.2480     0.3120 C.ar  1 <1>  -0.1500 
  5 C       -1.0370    -7.3930    -0.2360 C.ar  1 <1>  -0.1500 
  6 C        3.6490    -7.3780    -0.0120 C.3   1 <1>   0.1100 
  7 C       -1.4310    -4.7350     0.3470 C.ar  1 <1>  -0.1500 
  8 C       -2.3190    -6.8730    -0.1990 C.ar  1 <1>  -0.1500 
  9 N        4.9430    -6.6690     0.1240 N.3   1 <1>  -0.8100 
 10 C       -2.5470    -5.5290     0.0940 C.ar  1 <1>  -0.1430 
 11 C        6.0140    -7.6140     0.5020 C.3   1 <1>   0.1100 
 12 C        5.2940    -5.9110    -1.0970 C.3   1 <1>   0.1100 
 13 C       -3.9630    -4.8980     0.1480 C.3   1 <1>   0.1430 
 14 C        7.3600    -6.8890     0.6980 C.3   1 <1>   0.3430 
 15 C        6.6330    -5.1630    -0.9280 C.3   1 <1>   0.3430 
 16 C       -5.0780    -5.9370    -0.1630 C.3   1 <1>  -0.1600 
 17 C       -4.1890    -4.3190     1.5570 C.3   1 <1>  -0.2400 
 18 C       -4.0320    -3.7570    -0.8840 C.3   1 <1>  -0.2400 
 19 N        7.7370    -6.0930    -0.5170 N.4   1 <1>  -0.9060 
 20 C       -6.5380    -5.4440    -0.1450 C.3   1 <1>  -0.2400 
 21 H        2.4430    -5.9890     1.1110 H     1 <1>   0.0800 
 22 H        2.4770    -5.6630    -0.6290 H     1 <1>   0.0800 
 23 H        0.6740    -4.5880     0.5180 H     1 <1>   0.1500 
 24 H       -0.8820    -8.4320    -0.4630 H     1 <1>   0.1500 
 25 H        3.6000    -7.8830    -0.9620 H     1 <1>   0.0800 
 26 H        3.5600    -8.1140     0.7690 H     1 <1>   0.0800 
 27 H       -1.5490    -3.6930     0.5800 H     1 <1>   0.1500 
 28 H       -3.1230    -7.5530    -0.4050 H     1 <1>   0.1500 
 29 H        6.1150    -8.3790    -0.2500 H     1 <1>   0.0800 
 30 H        5.7480    -8.0960     1.4290 H     1 <1>   0.0800 
 31 H        4.5260    -5.1870    -1.3050 H     1 <1>   0.0800 
 32 H        5.3540    -6.5780    -1.9410 H     1 <1>   0.0800 
 33 H        8.1280    -7.6130     0.9190 H     1 <1>   0.0800 
 34 H        7.2680    -6.2320     1.5480 H     1 <1>   0.0800 
 35 H        6.5000    -4.4040    -0.1740 H     1 <1>   0.0800 
 36 H        6.8870    -4.6720    -1.8530 H     1 <1>   0.0800 
 37 H       -5.0040    -6.7390     0.5500 H     1 <1>   0.0800 
 38 H       -4.8940    -6.3510    -1.1390 H     1 <1>   0.0800 
 39 H       -4.1680    -5.1090     2.2860 H     1 <1>   0.0800 
 40 H       -5.1340    -3.8130     1.6230 H     1 <1>   0.0800 
 41 H       -3.4280    -3.6070     1.8130 H     1 <1>   0.0800 
 42 H       -3.9000    -4.1510    -1.8760 H     1 <1>   0.0800 
 43 H       -3.2660    -3.0260    -0.7100 H     1 <1>   0.0800 
 44 H       -4.9750    -3.2470    -0.8390 H     1 <1>   0.0800 
 45 H        7.9300    -6.7400    -1.2900 H     1 <1>   0.4500 
 46 H        8.5960    -5.5600    -0.3350 H     1 <1>   0.4500 
 47 H       -6.8130    -5.0680     0.8230 H     1 <1>   0.0800 
 48 H       -7.1930    -6.2650    -0.3760 H     1 <1>   0.0800 
 49 H       -6.7020    -4.6780    -0.8810 H     1 <1>   0.0800 
@<TRIPOS>BOND
  1   1   2  1   
  2   1   3  1   
  3   2   4  ar  
  4   2   5  ar  
  5   3   6  1   
  6   3  21  1   
  7   3  22  1   
  8   4   7  ar  
  9   4  23  1   
 10   5   8  ar  
 11   5  24  1   
 12   6   9  1   
 13   6  25  1   
 14   6  26  1   
 15   7  10  ar  
 16   7  27  1   
 17   8  10  ar  
 18   8  28  1   
 19   9  11  1   
 20   9  12  1   
 21  10  13  1   
 22  11  14  1   
 23  11  29  1   
 24  11  30  1   
 25  12  15  1   
 26  12  31  1   
 27  12  32  1   
 28  13  16  1   
 29  13  17  1   
 30  13  18  1   
 31  14  19  1   
 32  14  33  1   
 33  14  34  1   
 34  15  19  1   
 35  15  35  1   
 36  15  36  1   
 37  16  20  1   
 38  16  37  1   
 39  16  38  1   
 40  17  39  1   
 41  17  40  1   
 42  17  41  1   
 43  18  42  1   
 44  18  43  1   
 45  18  44  1   
 46  19  45  1   
 47  19  46  1   
 48  20  47  1   
 49  20  48  1   
 50  20  49  1   
@<TRIPOS>SUBSTRUCTURE
  1 ****   2 GROUP 4 **** **** 0

# MOE 2024.06 (io_trps.svl 2023.06)
