@<TRIPOS>MOLECULE
NONAME
47 49 1 0 0 
SMALL
USER_CHARGES


@<TRIPOS>ATOM
  1 O        0.2410     3.7190     2.1850 O.2   1 <1>  -0.5700 
  2 C        0.0610     3.2560     1.0780 C.2   1 <1>   0.5690 
  3 N        0.9930     2.3710     0.5600 N.am  1 <1>  -0.6600 
  4 C       -1.2310     3.7000     0.3180 C.3   1 <1>   0.2040 
  5 C        2.1850     1.9640     1.3630 C.3   1 <1>   0.1400 
  6 C        0.8960     1.6070    -0.7160 C.3   1 <1>   0.1400 
  7 C       -2.0770     2.4420    -0.0180 C.ar  1 <1>  -0.1440 
  8 C       -0.8260     4.5720    -0.9040 C.3   1 <1>  -0.1600 
  9 C       -2.1050     4.6210     1.2140 C.3   1 <1>  -0.1600 
 10 C        2.0780     0.4760     1.7130 C.3   1 <1>  -0.1600 
 11 C        0.7620     0.1110    -0.4100 C.3   1 <1>  -0.1600 
 12 C       -2.4240     1.5880     1.0250 C.ar  1 <1>  -0.1500 
 13 C       -2.4960     2.0950    -1.3010 C.ar  1 <1>  -0.1500 
 14 C       -1.9880     5.3570    -1.5400 C.3   1 <1>   0.1200 
 15 C       -3.2390     5.2800     0.4320 C.3   1 <1>   0.1200 
 16 C        1.9260    -0.3920     0.4560 C.3   1 <1>  -0.1600 
 17 C       -3.1690     0.4430     0.8100 C.ar  1 <1>  -0.1500 
 18 C       -3.2430     0.9510    -1.5230 C.ar  1 <1>  -0.1500 
 19 O       -2.6730     6.0690    -0.5640 O.3   1 <1>  -0.5600 
 20 C       -3.5860     0.1170    -0.4750 C.ar  1 <1>   0.0830 
 21 O       -4.3160    -0.9840    -0.7800 O.3   1 <1>  -0.3620 
 22 C       -4.7170    -1.8950     0.2190 C.3   1 <1>   0.0400 
 23 H        2.2630     2.5410     2.2680 H     1 <1>   0.0800 
 24 H        3.0740     2.1420     0.7840 H     1 <1>   0.0800 
 25 H        1.7880     1.7780    -1.2920 H     1 <1>   0.0800 
 26 H        0.0640     1.9200    -1.3090 H     1 <1>   0.0800 
 27 H       -0.3460     3.9840    -1.6610 H     1 <1>   0.0800 
 28 H       -0.1000     5.2950    -0.5740 H     1 <1>   0.0800 
 29 H       -1.5030     5.4120     1.6280 H     1 <1>   0.0800 
 30 H       -2.5140     4.0740     2.0430 H     1 <1>   0.0800 
 31 H        1.2280     0.3360     2.3580 H     1 <1>   0.0800 
 32 H        2.9560     0.1750     2.2570 H     1 <1>   0.0800 
 33 H        0.7330    -0.4400    -1.3330 H     1 <1>   0.0800 
 34 H       -0.1710    -0.0580     0.0980 H     1 <1>   0.0800 
 35 H       -2.1040     1.8070     2.0300 H     1 <1>   0.1500 
 36 H       -2.2460     2.6880    -2.1570 H     1 <1>   0.1500 
 37 H       -2.6970     4.7230    -2.0400 H     1 <1>   0.0800 
 38 H       -1.6090     6.0690    -2.2520 H     1 <1>   0.0800 
 39 H       -3.8140     5.9250     1.0730 H     1 <1>   0.0800 
 40 H       -3.8940     4.5530    -0.0190 H     1 <1>   0.0800 
 41 H        1.7530    -1.4170     0.7380 H     1 <1>   0.0800 
 42 H        2.8370    -0.3530    -0.1160 H     1 <1>   0.0800 
 43 H       -3.4090    -0.1800     1.6500 H     1 <1>   0.1500 
 44 H       -3.5630     0.6940    -2.5160 H     1 <1>   0.1500 
 45 H       -5.2800    -2.6800    -0.2510 H     1 <1>   0.0800 
 46 H       -5.3350    -1.3800     0.9330 H     1 <1>   0.0800 
 47 H       -3.8410    -2.3040     0.6900 H     1 <1>   0.0800 
@<TRIPOS>BOND
  1   1   2  2   
  2   2   3  am  
  3   2   4  1   
  4   3   5  1   
  5   3   6  1   
  6   4   7  1   
  7   4   8  1   
  8   4   9  1   
  9   5  10  1   
 10   5  23  1   
 11   5  24  1   
 12   6  11  1   
 13   6  25  1   
 14   6  26  1   
 15   7  12  ar  
 16   7  13  ar  
 17   8  14  1   
 18   8  27  1   
 19   8  28  1   
 20   9  15  1   
 21   9  29  1   
 22   9  30  1   
 23  10  16  1   
 24  10  31  1   
 25  10  32  1   
 26  11  16  1   
 27  11  33  1   
 28  11  34  1   
 29  12  17  ar  
 30  12  35  1   
 31  13  18  ar  
 32  13  36  1   
 33  14  19  1   
 34  14  37  1   
 35  14  38  1   
 36  15  19  1   
 37  15  39  1   
 38  15  40  1   
 39  16  41  1   
 40  16  42  1   
 41  17  20  ar  
 42  17  43  1   
 43  18  20  ar  
 44  18  44  1   
 45  20  21  1   
 46  21  22  1   
 47  22  45  1   
 48  22  46  1   
 49  22  47  1   
@<TRIPOS>SUBSTRUCTURE
  1 ****   7 GROUP 4 **** **** 0

# MOE 2024.06 (io_trps.svl 2023.06)
