@<TRIPOS>MOLECULE
NONAME
29 29 1 0 0 
SMALL
USER_CHARGES


@<TRIPOS>ATOM
  1 S       -0.2430     0.6840     1.6570 S.3   1 <1>  -0.0800 
  2 C        0.8610     1.3380     0.5060 C.2   1 <1>   0.4340 
  3 C       -1.4550     0.8300     0.4200 C.2   1 <1>   0.4420 
  4 S        2.5530     1.5480     1.0380 S.3   1 <1>  -0.2860 
  5 N        0.3500     1.6100    -0.6240 N.2   1 <1>  -0.3380 
  6 N       -0.9870     1.3170    -0.6750 N.2   1 <1>  -0.3380 
  7 N       -2.7260     0.4170     0.7620 N.am  1 <1>  -0.4940 
  8 C        3.3710     2.2540    -0.4560 C.3   1 <1>   0.0700 
  9 C       -3.8590     0.4140     0.0100 C.2   1 <1>   0.6900 
 10 C        4.8450     2.4820    -0.1250 C.3   1 <1>  -0.2400 
 11 O       -3.8840     0.8040    -1.1350 O.2   1 <1>  -0.5700 
 12 N       -5.0030    -0.0470     0.5700 N.am  1 <1>  -0.7300 
 13 C       -6.3450    -0.0960    -0.1890 C.3   1 <1>   0.2200 
 14 C       -7.4410     0.7870     0.4290 C.3   1 <1>   1.0200 
 15 C       -6.9040    -1.5170    -0.3690 C.3   1 <1>   1.0200 
 16 F       -7.0300     2.0410     0.5650 F     1 <1>  -0.3400 
 17 F       -8.5600     0.8530    -0.2770 F     1 <1>  -0.3400 
 18 F       -7.7880     0.4010     1.6510 F     1 <1>  -0.3400 
 19 F       -7.2040    -2.1040     0.7830 F     1 <1>  -0.3400 
 20 F       -6.0150    -2.3150    -0.9450 F     1 <1>  -0.3400 
 21 F       -7.9910    -1.5910    -1.1230 F     1 <1>  -0.3400 
 22 H       -2.8240     0.0680     1.7060 H     1 <1>   0.3700 
 23 H        2.8660     3.1740    -0.6940 H     1 <1>   0.0800 
 24 H        3.2450     1.5460    -1.2570 H     1 <1>   0.0800 
 25 H        4.9380     3.1680     0.6970 H     1 <1>   0.0800 
 26 H        5.3510     2.8940    -0.9790 H     1 <1>   0.0800 
 27 H        5.3140     1.5500     0.1380 H     1 <1>   0.0800 
 28 H       -5.0120    -0.3830     1.5350 H     1 <1>   0.3700 
 29 H       -6.1910     0.2830    -1.1810 H     1 <1>   0.0800 
@<TRIPOS>BOND
  1   1   2  1   
  2   1   3  1   
  3   2   4  1   
  4   2   5  2   
  5   3   6  2   
  6   3   7  1   
  7   4   8  1   
  8   5   6  1   
  9   7   9  am  
 10   7  22  1   
 11   8  10  1   
 12   8  23  1   
 13   8  24  1   
 14   9  11  2   
 15   9  12  am  
 16  10  25  1   
 17  10  26  1   
 18  10  27  1   
 19  12  13  1   
 20  12  28  1   
 21  13  14  1   
 22  13  15  1   
 23  13  29  1   
 24  14  16  1   
 25  14  17  1   
 26  14  18  1   
 27  15  19  1   
 28  15  20  1   
 29  15  21  1   
@<TRIPOS>SUBSTRUCTURE
  1 ****   9 GROUP 4 **** **** 0

# MOE 2024.06 (io_trps.svl 2023.06)
