@<TRIPOS>MOLECULE
NONAME
39 40 1 0 0 
SMALL
USER_CHARGES


@<TRIPOS>ATOM
  1 S       -0.9820    -0.7490     0.0640 S.3   1 <1>  -0.2860 
  2 C        0.7890    -0.9190    -0.1870 C.2   1 <1>   0.2420 
  3 C       -1.6460    -0.8980    -1.6690 C.3   1 <1>   0.1310 
  4 N        1.3300    -1.0480    -1.3440 N.2   1 <1>  -0.3380 
  5 N        1.6640    -0.9240     0.8170 N.pl3 1 <1>   0.0480 
  6 C       -3.1530    -0.7020    -1.7130 C.2   1 <1>   0.5690 
  7 N        2.6430    -1.1470    -1.1180 N.2   1 <1>  -0.3380 
  8 C        2.8260    -1.0750     0.1620 C.2   1 <1>   0.0060 
  9 C        1.3910    -0.8070     2.2640 C.3   1 <1>   0.0160 
 10 O       -3.7540    -1.1680    -2.6500 O.2   1 <1>  -0.5700 
 11 N       -3.7550    -0.0080    -0.6980 N.am  1 <1>  -0.5470 
 12 C        4.1800    -1.1490     0.8620 C.3   1 <1>   0.0200 
 13 C       -5.0950     0.3600    -0.4840 C.ar  1 <1>   0.1170 
 14 C        5.3460    -1.4210    -0.0970 C.3   1 <1>  -0.2400 
 15 C       -5.4980     0.6830     0.8060 C.ar  1 <1>  -0.1500 
 16 C       -6.0350     0.4330    -1.5070 C.ar  1 <1>  -0.1500 
 17 C       -6.8010     1.0650     1.0760 C.ar  1 <1>  -0.1500 
 18 C       -7.3390     0.8130    -1.2440 C.ar  1 <1>  -0.1500 
 19 C       -7.7330     1.1320     0.0450 C.ar  1 <1>   0.0830 
 20 O       -9.0320     1.4950     0.2160 O.3   1 <1>  -0.3620 
 21 C       -9.5330     1.8150     1.4950 C.3   1 <1>   0.0400 
 22 H       -1.3850    -1.8770    -2.0260 H     1 <1>   0.0800 
 23 H       -1.1560    -0.1530    -2.2670 H     1 <1>   0.0800 
 24 H        0.6560    -0.0400     2.4280 H     1 <1>   0.0800 
 25 H        2.2920    -0.5500     2.7900 H     1 <1>   0.0800 
 26 H        1.0160    -1.7460     2.6290 H     1 <1>   0.0800 
 27 H       -3.1210     0.2350     0.0640 H     1 <1>   0.3700 
 28 H        4.1490    -1.9340     1.5970 H     1 <1>   0.0800 
 29 H        4.3600    -0.2180     1.3700 H     1 <1>   0.0800 
 30 H        5.1930    -2.3540    -0.6100 H     1 <1>   0.0800 
 31 H        6.2720    -1.4700     0.4460 H     1 <1>   0.0800 
 32 H        5.4140    -0.6360    -0.8290 H     1 <1>   0.0800 
 33 H       -4.7890     0.6340     1.6110 H     1 <1>   0.1500 
 34 H       -5.7550     0.1960    -2.5170 H     1 <1>   0.1500 
 35 H       -7.0710     1.3050     2.0860 H     1 <1>   0.1500 
 36 H       -8.0600     0.8650    -2.0400 H     1 <1>   0.1500 
 37 H      -10.5740     2.0610     1.3920 H     1 <1>   0.0800 
 38 H       -8.9940     2.6630     1.8790 H     1 <1>   0.0800 
 39 H       -9.4210     0.9600     2.1380 H     1 <1>   0.0800 
@<TRIPOS>BOND
  1   1   2  1   
  2   1   3  1   
  3   2   4  2   
  4   2   5  1   
  5   3   6  1   
  6   3  22  1   
  7   3  23  1   
  8   4   7  1   
  9   5   8  1   
 10   5   9  1   
 11   6  10  2   
 12   6  11  am  
 13   7   8  2   
 14   8  12  1   
 15   9  24  1   
 16   9  25  1   
 17   9  26  1   
 18  11  13  1   
 19  11  27  1   
 20  12  14  1   
 21  12  28  1   
 22  12  29  1   
 23  13  15  ar  
 24  13  16  ar  
 25  14  30  1   
 26  14  31  1   
 27  14  32  1   
 28  15  17  ar  
 29  15  33  1   
 30  16  18  ar  
 31  16  34  1   
 32  17  19  ar  
 33  17  35  1   
 34  18  19  ar  
 35  18  36  1   
 36  19  20  1   
 37  20  21  1   
 38  21  37  1   
 39  21  38  1   
 40  21  39  1   
@<TRIPOS>SUBSTRUCTURE
  1 ****  11 GROUP 4 **** **** 0

# MOE 2024.06 (io_trps.svl 2023.06)
