@<TRIPOS>MOLECULE
NONAME
37 38 1 0 0 
SMALL
USER_CHARGES


@<TRIPOS>ATOM
  1 S       -0.3880    -0.3310     1.0570 S.o2  1 <1>   1.3330 
  2 O       -1.2800     0.6740     0.5340 O.2   1 <1>  -0.6500 
  3 O       -0.7330    -1.0600     2.2520 O.2   1 <1>  -0.6500 
  4 N       -0.1640    -1.4930    -0.2060 N.am  1 <1>  -0.6930 
  5 C        1.2310     0.3940     1.2150 C.3   1 <1>  -0.1350 
  6 C        0.8500    -2.4550    -0.2160 C.ar  1 <1>   0.1990 
  7 C       -1.3250    -1.6480    -1.1490 C.3   1 <1>   0.2570 
  8 C        1.2170    -3.1540     0.9330 C.ar  1 <1>  -0.1500 
  9 C        1.5130    -2.7360    -1.4140 C.ar  1 <1>  -0.1500 
 10 C       -1.7150    -3.0990    -1.4500 C.2   1 <1>   0.5690 
 11 C        2.2240    -4.0960     0.8630 C.ar  1 <1>   0.1900 
 12 C        2.5230    -3.6840    -1.4840 C.ar  1 <1>  -0.1500 
 13 O       -1.5020    -3.5210    -2.5650 O.2   1 <1>  -0.5700 
 14 N       -2.2890    -3.8860    -0.4860 N.am  1 <1>  -0.6600 
 15 F        2.5590    -4.7410     1.9510 F     1 <1>  -0.1900 
 16 C        2.8730    -4.3600    -0.3310 C.ar  1 <1>   0.1900 
 17 C       -2.6340    -5.3040    -0.7180 C.3   1 <1>   0.1400 
 18 C       -2.5670    -3.4920     0.9150 C.3   1 <1>   0.1400 
 19 F        3.8290    -5.2560    -0.3870 F     1 <1>  -0.1900 
 20 C       -2.9190    -5.8660     0.6700 C.3   1 <1>  -0.1600 
 21 C       -3.3590    -4.6580     1.4930 C.3   1 <1>  -0.1600 
 22 H        1.5380     0.8190     0.2800 H     1 <1>   0.0800 
 23 H        1.9460    -0.3480     1.5120 H     1 <1>   0.0800 
 24 H        1.2140     1.1690     1.9550 H     1 <1>   0.0800 
 25 H       -1.0840    -1.1590    -2.0750 H     1 <1>   0.0800 
 26 H       -2.1960    -1.1630    -0.7480 H     1 <1>   0.0800 
 27 H        0.7270    -2.9880     1.8730 H     1 <1>   0.1500 
 28 H        1.2290    -2.2080    -2.3070 H     1 <1>   0.1500 
 29 H        3.0260    -3.8980    -2.4110 H     1 <1>   0.1500 
 30 H       -1.8230    -5.8230    -1.2020 H     1 <1>   0.0800 
 31 H       -3.5140    -5.3530    -1.3370 H     1 <1>   0.0800 
 32 H       -3.1240    -2.5720     0.9650 H     1 <1>   0.0800 
 33 H       -1.6360    -3.3830     1.4440 H     1 <1>   0.0800 
 34 H       -2.0080    -6.2720     1.0750 H     1 <1>   0.0800 
 35 H       -3.6660    -6.6400     0.6420 H     1 <1>   0.0800 
 36 H       -4.4090    -4.4750     1.3440 H     1 <1>   0.0800 
 37 H       -3.1700    -4.7850     2.5440 H     1 <1>   0.0800 
@<TRIPOS>BOND
  1   1   2  2   
  2   1   3  2   
  3   1   4  am  
  4   1   5  1   
  5   4   6  1   
  6   4   7  1   
  7   5  22  1   
  8   5  23  1   
  9   5  24  1   
 10   6   8  ar  
 11   6   9  ar  
 12   7  10  1   
 13   7  25  1   
 14   7  26  1   
 15   8  11  ar  
 16   8  27  1   
 17   9  12  ar  
 18   9  28  1   
 19  10  13  2   
 20  10  14  am  
 21  11  15  1   
 22  11  16  ar  
 23  12  16  ar  
 24  12  29  1   
 25  14  17  1   
 26  14  18  1   
 27  16  19  1   
 28  17  20  1   
 29  17  30  1   
 30  17  31  1   
 31  18  21  1   
 32  18  32  1   
 33  18  33  1   
 34  20  21  1   
 35  20  34  1   
 36  20  35  1   
 37  21  36  1   
 38  21  37  1   
@<TRIPOS>SUBSTRUCTURE
  1 ****   6 GROUP 4 **** **** 0

# MOE 2024.06 (io_trps.svl 2023.06)
