@<TRIPOS>MOLECULE
NONAME
35 34 1 0 0 
SMALL
USER_CHARGES


@<TRIPOS>ATOM
  1 F       -1.1500     1.0310     1.7530 F     1 <1>  -0.3400 
  2 C        0.1620     0.8970     1.5890 C.3   1 <1>   1.0200 
  3 F        0.6830     0.8110     2.8080 F     1 <1>  -0.3400 
  4 F        0.3250    -0.3220     1.0780 F     1 <1>  -0.3400 
  5 C        0.8160     1.9850     0.6770 C.3   1 <1>   0.3000 
  6 N        2.1780     1.4770     0.1710 N.am  1 <1>  -0.7300 
  7 C        0.8880     3.2630     1.5890 C.3   1 <1>   1.0200 
  8 C       -0.0650     2.2700    -0.5890 C.3   1 <1>  -0.1600 
  9 C        3.1240     2.1790    -0.4820 C.2   1 <1>   0.6900 
 10 F        1.0540     4.3960     0.9190 F     1 <1>  -0.3400 
 11 F        1.8830     3.2230     2.4700 F     1 <1>  -0.3400 
 12 F       -0.2140     3.4740     2.3020 F     1 <1>  -0.3400 
 13 C       -0.2700     1.0970    -1.5680 C.3   1 <1>  -0.2400 
 14 O        2.9340     3.3300    -0.8020 O.2   1 <1>  -0.5700 
 15 N        4.2780     1.5450    -0.7760 N.am  1 <1>  -0.7300 
 16 C        5.4430     2.1700    -1.4380 C.3   1 <1>   0.1400 
 17 C        6.6950     1.9900    -0.5760 C.3   1 <1>  -0.1600 
 18 C        7.0990     0.5180    -0.3910 C.3   1 <1>  -0.1600 
 19 C        8.4020     0.4040     0.4050 C.3   1 <1>  -0.2400 
 20 H        2.3070     0.4650     0.2160 H     1 <1>   0.3700 
 21 H        0.3780     3.0800    -1.1440 H     1 <1>   0.0800 
 22 H       -1.0350     2.6200    -0.2770 H     1 <1>   0.0800 
 23 H        0.6720     0.7200    -1.9240 H     1 <1>   0.0800 
 24 H       -0.8300     1.4390    -2.4210 H     1 <1>   0.0800 
 25 H       -0.8240     0.2940    -1.1140 H     1 <1>   0.0800 
 26 H        4.4520     0.6250    -0.3820 H     1 <1>   0.3700 
 27 H        5.2590     3.2220    -1.5890 H     1 <1>   0.0800 
 28 H        5.5880     1.7150    -2.4030 H     1 <1>   0.0800 
 29 H        6.5310     2.4540     0.3810 H     1 <1>   0.0800 
 30 H        7.5040     2.5160    -1.0530 H     1 <1>   0.0800 
 31 H        7.2330     0.0550    -1.3540 H     1 <1>   0.0800 
 32 H        6.3270    -0.0160     0.1340 H     1 <1>   0.0800 
 33 H        9.2030     0.9060    -0.1090 H     1 <1>   0.0800 
 34 H        8.6710    -0.6300     0.5280 H     1 <1>   0.0800 
 35 H        8.2870     0.8450     1.3800 H     1 <1>   0.0800 
@<TRIPOS>BOND
  1   1   2  1   
  2   2   3  1   
  3   2   4  1   
  4   2   5  1   
  5   5   6  1   
  6   5   7  1   
  7   5   8  1   
  8   6   9  am  
  9   6  20  1   
 10   7  10  1   
 11   7  11  1   
 12   7  12  1   
 13   8  13  1   
 14   8  21  1   
 15   8  22  1   
 16   9  14  2   
 17   9  15  am  
 18  13  23  1   
 19  13  24  1   
 20  13  25  1   
 21  15  16  1   
 22  15  26  1   
 23  16  17  1   
 24  16  27  1   
 25  16  28  1   
 26  17  18  1   
 27  17  29  1   
 28  17  30  1   
 29  18  19  1   
 30  18  31  1   
 31  18  32  1   
 32  19  33  1   
 33  19  34  1   
 34  19  35  1   
@<TRIPOS>SUBSTRUCTURE
  1 ****   6 GROUP 4 **** **** 0

# MOE 2024.06 (io_trps.svl 2023.06)
