@<TRIPOS>MOLECULE
NONAME
49 51 1 0 0 
SMALL
USER_CHARGES


@<TRIPOS>ATOM
  1 O       -0.6810     2.8520    -2.2960 O.2   1 <1>  -0.5700 
  2 C        0.0200     2.5370    -1.3630 C.2   1 <1>   0.5690 
  3 N       -0.4520     1.8520    -0.2930 N.am  1 <1>  -0.7300 
  4 C        1.5050     2.9160    -1.3740 C.3   1 <1>   0.1710 
  5 C       -1.8230     1.3660    -0.0980 C.3   1 <1>   0.2200 
  6 N        2.3800     2.0000    -0.5830 N.3   1 <1>  -0.8100 
  7 C       -2.3680     1.9310     1.2170 C.3   1 <1>  -0.1600 
  8 C       -1.8050    -0.1660    -0.0830 C.3   1 <1>  -0.1600 
  9 C        3.7290     2.5860    -0.4090 C.3   1 <1>   0.1100 
 10 C        2.5050     0.6820    -1.2560 C.3   1 <1>   0.1100 
 11 C       -3.7620     1.3650     1.5300 C.3   1 <1>  -0.1600 
 12 C       -3.1970    -0.7350     0.2280 C.3   1 <1>  -0.1600 
 13 C        4.6650     1.6600     0.3920 C.3   1 <1>   0.2090 
 14 C        3.4160    -0.2860    -0.4780 C.3   1 <1>   0.2090 
 15 C       -3.7470    -0.1690     1.5450 C.3   1 <1>  -0.1600 
 16 N        4.7620     0.3130    -0.2430 N.pl3 1 <1>  -0.8380 
 17 C        5.7240    -0.5410     0.2810 C.ar  1 <1>   0.1000 
 18 C        6.8140    -0.9030    -0.4980 C.ar  1 <1>  -0.1500 
 19 C        5.6270    -1.0480     1.5720 C.ar  1 <1>  -0.1500 
 20 C        7.7870    -1.7520    -0.0040 C.ar  1 <1>  -0.1500 
 21 C        6.5980    -1.8980     2.0720 C.ar  1 <1>  -0.1500 
 22 C        7.6800    -2.2520     1.2830 C.ar  1 <1>  -0.1500 
 23 H        0.2410     1.5870     0.4120 H     1 <1>   0.3700 
 24 H        1.5760     3.9090    -0.9670 H     1 <1>   0.0800 
 25 H        1.8430     2.9540    -2.3950 H     1 <1>   0.0800 
 26 H       -2.4440     1.7040    -0.9130 H     1 <1>   0.0800 
 27 H       -2.4270     3.0020     1.1440 H     1 <1>   0.0800 
 28 H       -1.6990     1.6790     2.0210 H     1 <1>   0.0800 
 29 H       -1.1120    -0.5100     0.6650 H     1 <1>   0.0800 
 30 H       -1.4810    -0.5250    -1.0430 H     1 <1>   0.0800 
 31 H        3.6460     3.5240     0.1120 H     1 <1>   0.0800 
 32 H        4.1740     2.7740    -1.3710 H     1 <1>   0.0800 
 33 H        2.9140     0.8130    -2.2440 H     1 <1>   0.0800 
 34 H        1.5340     0.2310    -1.3570 H     1 <1>   0.0800 
 35 H       -4.4590     1.7070     0.7840 H     1 <1>   0.0800 
 36 H       -4.0950     1.7330     2.4850 H     1 <1>   0.0800 
 37 H       -3.1440    -1.8080     0.2900 H     1 <1>   0.0800 
 38 H       -3.8700    -0.4840    -0.5750 H     1 <1>   0.0800 
 39 H        4.2910     1.5610     1.3960 H     1 <1>   0.0800 
 40 H        5.6470     2.0970     0.4400 H     1 <1>   0.0800 
 41 H        3.5300    -1.1990    -1.0360 H     1 <1>   0.0800 
 42 H        2.9560    -0.5230     0.4650 H     1 <1>   0.0800 
 43 H       -4.7460    -0.5370     1.7060 H     1 <1>   0.0800 
 44 H       -3.1350    -0.5120     2.3620 H     1 <1>   0.0800 
 45 H        6.8850    -0.5090    -1.4950 H     1 <1>   0.1500 
 46 H        4.7880    -0.7740     2.1820 H     1 <1>   0.1500 
 47 H        8.6260    -2.0240    -0.6200 H     1 <1>   0.1500 
 48 H        6.5120    -2.2850     3.0720 H     1 <1>   0.1500 
 49 H        8.4360    -2.9130     1.6690 H     1 <1>   0.1500 
@<TRIPOS>BOND
  1   1   2  2   
  2   2   3  am  
  3   2   4  1   
  4   3   5  1   
  5   3  23  1   
  6   4   6  1   
  7   4  24  1   
  8   4  25  1   
  9   5   7  1   
 10   5   8  1   
 11   5  26  1   
 12   6   9  1   
 13   6  10  1   
 14   7  11  1   
 15   7  27  1   
 16   7  28  1   
 17   8  12  1   
 18   8  29  1   
 19   8  30  1   
 20   9  13  1   
 21   9  31  1   
 22   9  32  1   
 23  10  14  1   
 24  10  33  1   
 25  10  34  1   
 26  11  15  1   
 27  11  35  1   
 28  11  36  1   
 29  12  15  1   
 30  12  37  1   
 31  12  38  1   
 32  13  16  1   
 33  13  39  1   
 34  13  40  1   
 35  14  16  1   
 36  14  41  1   
 37  14  42  1   
 38  15  43  1   
 39  15  44  1   
 40  16  17  1   
 41  17  18  ar  
 42  17  19  ar  
 43  18  20  ar  
 44  18  45  1   
 45  19  21  ar  
 46  19  46  1   
 47  20  22  ar  
 48  20  47  1   
 49  21  22  ar  
 50  21  48  1   
 51  22  49  1   
@<TRIPOS>SUBSTRUCTURE
  1 ****  10 GROUP 4 **** **** 0

# MOE 2024.06 (io_trps.svl 2023.06)
