@<TRIPOS>MOLECULE
NONAME
23 23 1 0 0 
SMALL
USER_CHARGES


@<TRIPOS>ATOM
  1 BR      -0.3140    -1.6560    -0.8890 Br    1 <1>  -0.0580 
  2 C        1.1630    -0.6050    -0.2680 C.2   1 <1>   0.0980 
  3 S        2.0330     0.2950    -1.4790 S.3   1 <1>  -0.0800 
  4 C        1.6620    -0.4330     0.9670 C.2   1 <1>  -0.1500 
  5 C        3.1370     0.9450    -0.2510 C.2   1 <1>  -0.0450 
  6 C        2.7820     0.4470     0.9710 C.2   1 <1>  -0.1500 
  7 C        4.1790     1.8380    -0.6700 C.2   1 <1>   0.5940 
  8 O        4.3530     2.1800    -1.8150 O.2   1 <1>  -0.5700 
  9 C        5.1170     2.3860     0.3960 C.3   1 <1>  -0.0990 
 10 C        6.2050     3.3390    -0.1480 C.3   1 <1>  -0.0990 
 11 C        7.1310     3.8750     0.9360 C.2   1 <1>   0.6590 
 12 O        6.9850     3.5550     2.0850 O.2   1 <1>  -0.5700 
 13 O        8.1110     4.7070     0.5960 O.3   1 <1>  -0.4300 
 14 C        8.3890     5.1590    -0.7140 C.3   1 <1>   0.0400 
 15 H        1.2830    -0.8910     1.8640 H     1 <1>   0.1500 
 16 H        3.2820     0.6760     1.8960 H     1 <1>   0.1500 
 17 H        5.5930     1.5560     0.8860 H     1 <1>   0.0800 
 18 H        4.5280     2.9100     1.1280 H     1 <1>   0.0800 
 19 H        5.7280     4.1710    -0.6330 H     1 <1>   0.0800 
 20 H        6.7960     2.8140    -0.8750 H     1 <1>   0.0800 
 21 H        9.2370     5.8180    -0.6660 H     1 <1>   0.0800 
 22 H        7.5350     5.6940    -1.0930 H     1 <1>   0.0800 
 23 H        8.6210     4.3140    -1.3390 H     1 <1>   0.0800 
@<TRIPOS>BOND
  1   1   2  1   
  2   2   3  1   
  3   2   4  2   
  4   3   5  1   
  5   4   6  1   
  6   4  15  1   
  7   5   6  2   
  8   5   7  1   
  9   6  16  1   
 10   7   8  2   
 11   7   9  1   
 12   9  10  1   
 13   9  17  1   
 14   9  18  1   
 15  10  11  1   
 16  10  19  1   
 17  10  20  1   
 18  11  12  2   
 19  11  13  1   
 20  13  14  1   
 21  14  21  1   
 22  14  22  1   
 23  14  23  1   
@<TRIPOS>SUBSTRUCTURE
  1 ****   7 GROUP 4 **** **** 0

# MOE 2024.06 (io_trps.svl 2023.06)
