@<TRIPOS>MOLECULE
NONAME
42 43 1 0 0 
SMALL
USER_CHARGES


@<TRIPOS>ATOM
  1 O        0.0930     1.0270    -0.6310 O.2   1 <1>  -0.5700 
  2 C        0.1100     2.2150    -0.8910 C.2   1 <1>   0.5440 
  3 N       -1.1050     2.8280    -1.0960 N.am  1 <1>  -0.6600 
  4 C        1.3590     2.9600    -0.9070 C.ar  1 <1>   0.0860 
  5 C       -2.2590     2.0050    -1.5630 C.3   1 <1>   0.1400 
  6 C       -1.5050     3.9680    -0.2230 C.3   1 <1>   0.1400 
  7 C        2.4470     2.5470    -0.1390 C.ar  1 <1>  -0.1500 
  8 C        1.5130     4.1110    -1.6830 C.ar  1 <1>  -0.1500 
  9 C       -3.0380     1.4660    -0.3490 C.3   1 <1>   0.3430 
 10 C       -2.3170     3.4480     0.9840 C.3   1 <1>   0.3430 
 11 C        3.6380     3.2640    -0.1250 C.ar  1 <1>   0.0830 
 12 C        2.6920     4.8330    -1.6740 C.ar  1 <1>  -0.1500 
 13 N       -3.4820     2.5790     0.5710 N.4   1 <1>  -0.9590 
 14 O        4.7290     2.9190     0.6040 O.3   1 <1>  -0.3620 
 15 C        3.7500     4.4110    -0.8930 C.ar  1 <1>  -0.1500 
 16 C       -4.1780     2.0200     1.7700 C.3   1 <1>   0.2630 
 17 C        4.8530     1.6900     1.2860 C.3   1 <1>   0.2000 
 18 C        5.9950     1.8490     2.2870 C.3   1 <1>  -0.2400 
 19 C        5.1620     0.5860     0.2720 C.3   1 <1>  -0.2400 
 20 H       -1.9000     1.1770    -2.1530 H     1 <1>   0.0800 
 21 H       -2.9020     2.5990    -2.1890 H     1 <1>   0.0800 
 22 H       -2.0920     4.6690    -0.7920 H     1 <1>   0.0800 
 23 H       -0.6320     4.4850     0.1360 H     1 <1>   0.0800 
 24 H        2.3380     1.6530     0.4430 H     1 <1>   0.1500 
 25 H        0.7020     4.4430    -2.3060 H     1 <1>   0.1500 
 26 H       -2.3920     0.7870     0.1850 H     1 <1>   0.0800 
 27 H       -3.8920     0.9080    -0.6950 H     1 <1>   0.0800 
 28 H       -2.6710     4.2870     1.5590 H     1 <1>   0.0800 
 29 H       -1.6520     2.8760     1.6110 H     1 <1>   0.0800 
 30 H        2.7920     5.7200    -2.2770 H     1 <1>   0.1500 
 31 H       -4.1450     3.1680     0.0470 H     1 <1>   0.4500 
 32 H        4.6730     4.9630    -0.8760 H     1 <1>   0.1500 
 33 H       -3.5060     1.3930     2.3330 H     1 <1>   0.0800 
 34 H       -5.0280     1.4280     1.4680 H     1 <1>   0.0800 
 35 H       -4.5250     2.8160     2.4090 H     1 <1>   0.0800 
 36 H        3.9420     1.4910     1.8230 H     1 <1>   0.0800 
 37 H        6.9120     2.0800     1.7750 H     1 <1>   0.0800 
 38 H        6.1290     0.9380     2.8410 H     1 <1>   0.0800 
 39 H        5.7660     2.6380     2.9800 H     1 <1>   0.0800 
 40 H        6.0630     0.8180    -0.2680 H     1 <1>   0.0800 
 41 H        4.3530     0.4720    -0.4260 H     1 <1>   0.0800 
 42 H        5.2990    -0.3510     0.7800 H     1 <1>   0.0800 
@<TRIPOS>BOND
  1   1   2  2   
  2   2   3  am  
  3   2   4  1   
  4   3   5  1   
  5   3   6  1   
  6   4   7  ar  
  7   4   8  ar  
  8   5   9  1   
  9   5  20  1   
 10   5  21  1   
 11   6  10  1   
 12   6  22  1   
 13   6  23  1   
 14   7  11  ar  
 15   7  24  1   
 16   8  12  ar  
 17   8  25  1   
 18   9  13  1   
 19   9  26  1   
 20   9  27  1   
 21  10  13  1   
 22  10  28  1   
 23  10  29  1   
 24  11  14  1   
 25  11  15  ar  
 26  12  15  ar  
 27  12  30  1   
 28  13  16  1   
 29  13  31  1   
 30  14  17  1   
 31  15  32  1   
 32  16  33  1   
 33  16  34  1   
 34  16  35  1   
 35  17  18  1   
 36  17  19  1   
 37  17  36  1   
 38  18  37  1   
 39  18  38  1   
 40  18  39  1   
 41  19  40  1   
 42  19  41  1   
 43  19  42  1   
@<TRIPOS>SUBSTRUCTURE
  1 ****   4 GROUP 4 **** **** 0

# MOE 2024.06 (io_trps.svl 2023.06)
