@<TRIPOS>MOLECULE
NONAME
34 35 1 0 0 
SMALL
USER_CHARGES


@<TRIPOS>ATOM
  1 CL      -0.2700     0.6160     0.1930 Cl    1 <1>  -0.1770 
  2 C        1.3990     1.1330     0.1810 C.ar  1 <1>   0.1770 
  3 C        1.7950     2.1930    -0.6140 C.ar  1 <1>   0.1600 
  4 C        2.3220     0.4790     0.9680 C.ar  1 <1>  -0.1500 
  5 N        3.0400     2.6510    -0.6850 N.ar  1 <1>  -0.6200 
  6 C        3.6170     0.9470     0.9020 C.ar  1 <1>  -0.1500 
  7 C        3.9300     2.0240     0.0690 C.ar  1 <1>   0.4270 
  8 N        5.1860     2.5740    -0.0760 N.am  1 <1>  -0.5470 
  9 C        6.4120     2.2190     0.4120 C.2   1 <1>   0.5690 
 10 O        6.5930     1.2620     1.1250 O.2   1 <1>  -0.5700 
 11 C        7.6480     3.0560     0.0340 C.3   1 <1>   0.4040 
 12 N        8.9550     2.3130     0.2010 N.4   1 <1>  -0.9590 
 13 C       10.1360     3.2220     0.2170 C.3   1 <1>   0.3430 
 14 C        9.0940     1.2040    -0.7910 C.3   1 <1>   0.3430 
 15 C       11.3960     2.4230     0.5590 C.3   1 <1>  -0.1600 
 16 C       10.3380     0.3770    -0.4650 C.3   1 <1>  -0.1600 
 17 C       11.6020     1.2450    -0.4030 C.3   1 <1>  -0.1600 
 18 H        1.0490     2.6830    -1.2160 H     1 <1>   0.1500 
 19 H        2.0350    -0.3470     1.5940 H     1 <1>   0.1500 
 20 H        4.3710     0.4730     1.5000 H     1 <1>   0.1500 
 21 H        5.1110     3.3840    -0.6900 H     1 <1>   0.3700 
 22 H        7.6520     3.9260     0.6680 H     1 <1>   0.0800 
 23 H        7.5480     3.3860    -0.9860 H     1 <1>   0.0800 
 24 H        8.8910     1.8440     1.1210 H     1 <1>   0.4500 
 25 H        9.9980     3.9990     0.9520 H     1 <1>   0.0800 
 26 H       10.2570     3.6830    -0.7500 H     1 <1>   0.0800 
 27 H        9.1830     1.6100    -1.7860 H     1 <1>   0.0800 
 28 H        8.2250     0.5650    -0.7570 H     1 <1>   0.0800 
 29 H       11.3260     2.0620     1.5700 H     1 <1>   0.0800 
 30 H       12.2510     3.0750     0.5100 H     1 <1>   0.0800 
 31 H       10.4630    -0.3810    -1.2200 H     1 <1>   0.0800 
 32 H       10.1920    -0.1290     0.4740 H     1 <1>   0.0800 
 33 H       12.4390     0.6490    -0.0760 H     1 <1>   0.0800 
 34 H       11.8320     1.6180    -1.3870 H     1 <1>   0.0800 
@<TRIPOS>BOND
  1   1   2  1   
  2   2   3  ar  
  3   2   4  ar  
  4   3   5  ar  
  5   3  18  1   
  6   4   6  ar  
  7   4  19  1   
  8   5   7  ar  
  9   6   7  ar  
 10   6  20  1   
 11   7   8  1   
 12   8   9  am  
 13   8  21  1   
 14   9  10  2   
 15   9  11  1   
 16  11  12  1   
 17  11  22  1   
 18  11  23  1   
 19  12  13  1   
 20  12  14  1   
 21  12  24  1   
 22  13  15  1   
 23  13  25  1   
 24  13  26  1   
 25  14  16  1   
 26  14  27  1   
 27  14  28  1   
 28  15  17  1   
 29  15  29  1   
 30  15  30  1   
 31  16  17  1   
 32  16  31  1   
 33  16  32  1   
 34  17  33  1   
 35  17  34  1   
@<TRIPOS>SUBSTRUCTURE
  1 ****   9 GROUP 4 **** **** 0

# MOE 2024.06 (io_trps.svl 2023.06)
