@<TRIPOS>MOLECULE
NONAME
43 44 1 0 0 
SMALL
USER_CHARGES


@<TRIPOS>ATOM
  1 CL       2.2010    -3.7350     2.4840 Cl    1 <1>  -0.1770 
  2 C        3.2140    -2.7230     1.4850 C.ar  1 <1>   0.1770 
  3 C        3.3250    -1.3770     1.7780 C.ar  1 <1>  -0.1500 
  4 C        3.8890    -3.2840     0.4190 C.ar  1 <1>  -0.1500 
  5 C        4.1310    -0.5680     0.9920 C.ar  1 <1>  -0.1440 
  6 C        4.6940    -2.4820    -0.3700 C.ar  1 <1>  -0.1500 
  7 C        4.8240    -1.1210    -0.0850 C.ar  1 <1>   0.0830 
  8 C        4.2500     0.9160     1.3140 C.3   1 <1>  -0.0960 
  9 O        5.6170    -0.2850    -0.8090 O.3   1 <1>  -0.3630 
 10 C        6.5160    -0.7520    -1.8090 C.3   1 <1>   0.2610 
 11 C        7.6160    -1.6390    -1.2050 C.2   1 <1>   0.5690 
 12 C        7.0940     0.4870    -2.4980 C.3   1 <1>  -0.2400 
 13 O        8.1070    -2.5000    -1.8970 O.2   1 <1>  -0.5700 
 14 N        7.9850    -1.4430     0.0930 N.am  1 <1>  -0.7300 
 15 C        8.8870    -2.2770     0.9270 C.3   1 <1>   0.2200 
 16 C       10.2100    -2.6530     0.2190 C.3   1 <1>   0.2000 
 17 C        8.0970    -3.5050     1.3820 C.3   1 <1>  -0.2400 
 18 O       11.0870    -3.2400     1.1280 O.3   1 <1>  -0.5600 
 19 C       11.0000    -1.4730    -0.3380 C.3   1 <1>  -0.1600 
 20 C       12.3810    -3.1910     0.6250 C.3   1 <1>   0.1200 
 21 C       12.4460    -1.9380    -0.2450 C.3   1 <1>  -0.1600 
 22 H        2.7820    -0.9770     2.6140 H     1 <1>   0.1500 
 23 H        3.7830    -4.3340     0.2130 H     1 <1>   0.1500 
 24 H        5.2080    -2.9400    -1.1940 H     1 <1>   0.1500 
 25 H        3.6260     1.1840     2.1470 H     1 <1>   0.0800 
 26 H        3.9510     1.4990     0.4610 H     1 <1>   0.0800 
 27 H        5.2690     1.1580     1.5560 H     1 <1>   0.0800 
 28 H        5.9500    -1.3200    -2.5250 H     1 <1>   0.0800 
 29 H        7.6480     1.0810    -1.7930 H     1 <1>   0.0800 
 30 H        6.3030     1.0760    -2.9250 H     1 <1>   0.0800 
 31 H        7.7600     0.1840    -3.2860 H     1 <1>   0.0800 
 32 H        7.4100    -0.7850     0.6250 H     1 <1>   0.3700 
 33 H        9.1490    -1.6970     1.7950 H     1 <1>   0.0800 
 34 H       10.0270    -3.3790    -0.5560 H     1 <1>   0.0800 
 35 H        7.8350    -4.1140     0.5350 H     1 <1>   0.0800 
 36 H        7.2040    -3.2080     1.9000 H     1 <1>   0.0800 
 37 H        8.6990    -4.0950     2.0500 H     1 <1>   0.0800 
 38 H       10.8460    -0.6060     0.2800 H     1 <1>   0.0800 
 39 H       10.7010    -1.2480    -1.3460 H     1 <1>   0.0800 
 40 H       12.5450    -4.0800     0.0400 H     1 <1>   0.0800 
 41 H       13.0720    -3.1560     1.4490 H     1 <1>   0.0800 
 42 H       13.0680    -1.1880     0.2100 H     1 <1>   0.0800 
 43 H       12.8430    -2.1850    -1.2140 H     1 <1>   0.0800 
@<TRIPOS>BOND
  1   1   2  1   
  2   2   3  ar  
  3   2   4  ar  
  4   3   5  ar  
  5   3  22  1   
  6   4   6  ar  
  7   4  23  1   
  8   5   7  ar  
  9   5   8  1   
 10   6   7  ar  
 11   6  24  1   
 12   7   9  1   
 13   8  25  1   
 14   8  26  1   
 15   8  27  1   
 16   9  10  1   
 17  10  11  1   
 18  10  12  1   
 19  10  28  1   
 20  11  13  2   
 21  11  14  am  
 22  12  29  1   
 23  12  30  1   
 24  12  31  1   
 25  14  15  1   
 26  14  32  1   
 27  15  16  1   
 28  15  17  1   
 29  15  33  1   
 30  16  18  1   
 31  16  19  1   
 32  16  34  1   
 33  17  35  1   
 34  17  36  1   
 35  17  37  1   
 36  18  20  1   
 37  19  21  1   
 38  19  38  1   
 39  19  39  1   
 40  20  21  1   
 41  20  40  1   
 42  20  41  1   
 43  21  42  1   
 44  21  43  1   
@<TRIPOS>SUBSTRUCTURE
  1 ****  14 GROUP 4 **** **** 0

# MOE 2024.06 (io_trps.svl 2023.06)
