@<TRIPOS>MOLECULE
NONAME
35 37 1 0 0 
SMALL
USER_CHARGES


@<TRIPOS>ATOM
  1 O       -0.5320    -0.8150    -0.5380 O.2   1 <1>  -0.5700 
  2 C       -0.3010    -1.6150     0.3520 C.2   1 <1>   0.7150 
  3 N       -1.3370    -1.9300     1.2000 N.am  1 <1>  -0.7300 
  4 C        1.0110    -2.2290     0.5140 C.2   1 <1>   0.3930 
  5 C       -2.7090    -1.3490     1.1330 C.3   1 <1>   0.1400 
  6 O        1.2000    -3.0800     1.4820 O.3   1 <1>  -0.0190 
  7 N        2.1020    -2.0900    -0.1620 N.2   1 <1>  -0.5650 
  8 C       -3.5150    -1.9060    -0.0510 C.3   1 <1>   0.2000 
  9 N        2.3970    -3.5200     1.4750 N.2   1 <1>  -0.4100 
 10 C        2.9510    -2.9200     0.4760 C.2   1 <1>   0.4620 
 11 O       -4.8410    -1.5170     0.0780 O.3   1 <1>  -0.5600 
 12 C       -3.5880    -3.4270    -0.1300 C.3   1 <1>  -0.1600 
 13 C        4.3330    -3.0940     0.0550 C.ar  1 <1>   0.0540 
 14 C       -5.6520    -2.3350    -0.7020 C.3   1 <1>   0.1200 
 15 C       -4.9240    -3.6720    -0.8140 C.3   1 <1>  -0.1600 
 16 C        4.8600    -2.4060    -1.0400 C.ar  1 <1>  -0.1500 
 17 C        5.1940    -3.9620     0.7320 C.ar  1 <1>  -0.1500 
 18 C        6.1730    -2.5720    -1.4400 C.ar  1 <1>  -0.1500 
 19 C        6.5090    -4.1330     0.3380 C.ar  1 <1>  -0.1500 
 20 C        7.0020    -3.4380    -0.7500 C.ar  1 <1>  -0.1500 
 21 H       -1.1830    -2.6180     1.9400 H     1 <1>   0.3700 
 22 H       -2.6370    -0.2800     1.0280 H     1 <1>   0.0800 
 23 H       -3.2290    -1.5700     2.0490 H     1 <1>   0.0800 
 24 H       -3.1460    -1.4960    -0.9770 H     1 <1>   0.0800 
 25 H       -3.5980    -3.8440     0.8620 H     1 <1>   0.0800 
 26 H       -2.7590    -3.8340    -0.6810 H     1 <1>   0.0800 
 27 H       -5.7670    -1.8700    -1.6660 H     1 <1>   0.0800 
 28 H       -6.6100    -2.4290    -0.2200 H     1 <1>   0.0800 
 29 H       -5.4780    -4.4560    -0.3290 H     1 <1>   0.0800 
 30 H       -4.7900    -3.9260    -1.8510 H     1 <1>   0.0800 
 31 H        4.2310    -1.7270    -1.5900 H     1 <1>   0.1500 
 32 H        4.8300    -4.5120     1.5820 H     1 <1>   0.1500 
 33 H        6.5510    -2.0280    -2.2880 H     1 <1>   0.1500 
 34 H        7.1500    -4.8090     0.8790 H     1 <1>   0.1500 
 35 H        8.0250    -3.5700    -1.0590 H     1 <1>   0.1500 
@<TRIPOS>BOND
  1   1   2  2   
  2   2   3  am  
  3   2   4  1   
  4   3   5  1   
  5   3  21  1   
  6   4   6  1   
  7   4   7  2   
  8   5   8  1   
  9   5  22  1   
 10   5  23  1   
 11   6   9  1   
 12   7  10  1   
 13   8  11  1   
 14   8  12  1   
 15   8  24  1   
 16   9  10  2   
 17  10  13  1   
 18  11  14  1   
 19  12  15  1   
 20  12  25  1   
 21  12  26  1   
 22  13  16  ar  
 23  13  17  ar  
 24  14  15  1   
 25  14  27  1   
 26  14  28  1   
 27  15  29  1   
 28  15  30  1   
 29  16  18  ar  
 30  16  31  1   
 31  17  19  ar  
 32  17  32  1   
 33  18  20  ar  
 34  18  33  1   
 35  19  20  ar  
 36  19  34  1   
 37  20  35  1   
@<TRIPOS>SUBSTRUCTURE
  1 ****   4 GROUP 4 **** **** 0

# MOE 2024.06 (io_trps.svl 2023.06)
