@<TRIPOS>MOLECULE
NONAME
42 44 1 0 0 
SMALL
USER_CHARGES


@<TRIPOS>ATOM
  1 S        0.8100     0.3730     2.0600 S.o2  1 <1>   1.2950 
  2 O        2.1510     0.8620     2.3350 O.2   1 <1>  -0.6500 
  3 O       -0.0780     0.1870     3.1950 O.2   1 <1>  -0.6500 
  4 N        0.0320     1.4300     0.8390 N.pl3 1 <1>   0.5840 
  5 C        0.9500    -1.2030     1.1730 C.ar  1 <1>  -0.0090 
  6 N       -0.9400     1.0560    -0.0680 N.2   1 <1>  -0.7070 
  7 C        0.2710     2.7560     0.6580 C.2   1 <1>  -0.3320 
  8 C       -0.1720    -1.9800     0.9110 C.ar  1 <1>  -0.1500 
  9 C        2.1790    -1.6710     0.7220 C.ar  1 <1>  -0.1500 
 10 C       -1.2360     2.1230    -0.7460 C.2   1 <1>   0.1080 
 11 C       -0.4980     3.2160    -0.3220 C.2   1 <1>  -0.1810 
 12 C        1.1750     3.8000     1.2580 C.3   1 <1>   0.0200 
 13 C       -0.0740    -3.1780     0.2240 C.ar  1 <1>  -0.1500 
 14 C        2.2850    -2.8680     0.0350 C.ar  1 <1>  -0.1500 
 15 C       -2.2630     2.1310    -1.8540 C.3   1 <1>  -0.0590 
 16 C       -0.2570     4.6820    -0.5730 C.3   1 <1>   0.0210 
 17 C        0.5600     5.1020     0.6780 C.3   1 <1>   0.0580 
 18 C        1.1580    -3.6290    -0.2170 C.ar  1 <1>  -0.1430 
 19 C        1.5220     6.2680     0.4150 C.2   1 <1>  -0.2760 
 20 C        1.2680    -4.9410    -0.9720 C.3   1 <1>  -0.0970 
 21 C        2.8530     6.2360     0.5460 C.2   1 <1>  -0.3000 
 22 C        0.8160     7.5480    -0.0130 C.3   1 <1>  -0.1020 
 23 H       -1.1400    -1.6430     1.2440 H     1 <1>   0.1500 
 24 H        3.0710    -1.0950     0.9090 H     1 <1>   0.1500 
 25 H        2.1750     3.6240     0.9090 H     1 <1>   0.0800 
 26 H        1.1520     3.7980     2.3340 H     1 <1>   0.0800 
 27 H       -0.9620    -3.7540     0.0340 H     1 <1>   0.1500 
 28 H        3.2500    -3.2040    -0.3030 H     1 <1>   0.1500 
 29 H       -1.9890     1.4110    -2.6030 H     1 <1>   0.0800 
 30 H       -2.3200     3.1040    -2.3040 H     1 <1>   0.0800 
 31 H       -3.2250     1.8700    -1.4530 H     1 <1>   0.0800 
 32 H       -1.1780     5.2310    -0.6480 H     1 <1>   0.0800 
 33 H        0.3250     4.8030    -1.4690 H     1 <1>   0.0800 
 34 H       -0.1560     5.4350     1.4110 H     1 <1>   0.0800 
 35 H        0.5040    -5.6260    -0.6500 H     1 <1>   0.0800 
 36 H        2.2260    -5.3960    -0.7980 H     1 <1>   0.0800 
 37 H        1.1540    -4.7640    -2.0270 H     1 <1>   0.0800 
 38 H        3.4910     7.0820     0.3550 H     1 <1>   0.1500 
 39 H        3.4360     5.3870     0.8510 H     1 <1>   0.1500 
 40 H        0.3090     7.4090    -0.9510 H     1 <1>   0.0800 
 41 H        1.5220     8.3510    -0.1340 H     1 <1>   0.0800 
 42 H        0.0980     7.8450     0.7310 H     1 <1>   0.0800 
@<TRIPOS>BOND
  1   1   2  2   
  2   1   3  2   
  3   1   4  1   
  4   1   5  1   
  5   4   6  1   
  6   4   7  1   
  7   5   8  ar  
  8   5   9  ar  
  9   6  10  2   
 10   7  11  2   
 11   7  12  1   
 12   8  13  ar  
 13   8  23  1   
 14   9  14  ar  
 15   9  24  1   
 16  10  11  1   
 17  10  15  1   
 18  11  16  1   
 19  12  17  1   
 20  12  25  1   
 21  12  26  1   
 22  13  18  ar  
 23  13  27  1   
 24  14  18  ar  
 25  14  28  1   
 26  15  29  1   
 27  15  30  1   
 28  15  31  1   
 29  16  17  1   
 30  16  32  1   
 31  16  33  1   
 32  17  19  1   
 33  17  34  1   
 34  18  20  1   
 35  19  21  2   
 36  19  22  1   
 37  20  35  1   
 38  20  36  1   
 39  20  37  1   
 40  21  38  1   
 41  21  39  1   
 42  22  40  1   
 43  22  41  1   
 44  22  42  1   
@<TRIPOS>SUBSTRUCTURE
  1 ****   4 GROUP 4 **** **** 0

# MOE 2024.06 (io_trps.svl 2023.06)
