@<TRIPOS>MOLECULE
NONAME
53 55 1 0 0 
SMALL
USER_CHARGES


@<TRIPOS>ATOM
  1 S        0.7080    -1.2190    -1.1720 S.o2  1 <1>   1.5760 
  2 O        1.1060     0.1420    -0.8980 O.2   1 <1>  -0.6500 
  3 O        0.5330    -1.6670    -2.5360 O.2   1 <1>  -0.6500 
  4 N       -0.7030    -1.5710    -0.3130 N.am  1 <1>  -0.8490 
  5 N        1.7920    -2.2610    -0.4020 N.am  1 <1>  -0.8490 
  6 C       -1.7330    -0.5580    -0.5660 C.3   1 <1>   0.1960 
  7 C       -1.1600    -2.9350    -0.6070 C.3   1 <1>   0.1960 
  8 C        3.0300    -2.4760    -1.1700 C.3   1 <1>   0.1960 
  9 C        2.0940    -1.8840     0.9950 C.3   1 <1>   0.1960 
 10 C       -2.7040    -0.4780     0.6150 C.3   1 <1>  -0.1600 
 11 C       -2.3000    -3.4060     0.3030 C.3   1 <1>  -0.1600 
 12 C        4.0390    -1.3190    -1.0290 C.3   1 <1>   0.1960 
 13 C        3.1720    -0.7830     1.1430 C.3   1 <1>   0.1960 
 14 C       -3.9210    -1.4140     0.5340 C.3   1 <1>  -0.1600 
 15 C       -3.6610    -2.8010    -0.0710 C.3   1 <1>  -0.1600 
 16 N        4.3870    -1.1060     0.3830 N.am  1 <1>  -0.8490 
 17 S        5.5540     0.0960     0.5660 S.o2  1 <1>   1.5760 
 18 O        5.7630     0.3290     1.9770 O.2   1 <1>  -0.6500 
 19 O        5.2430     1.1860    -0.3300 O.2   1 <1>  -0.6500 
 20 N        6.8950    -0.7270    -0.0380 N.am  1 <1>  -0.8490 
 21 C        8.0100     0.1960    -0.2810 C.3   1 <1>   0.1960 
 22 C        7.3390    -1.7980     0.8660 C.3   1 <1>   0.1960 
 23 C        9.2450    -0.5570    -0.8100 C.3   1 <1>   0.1200 
 24 C        8.5830    -2.5090     0.3060 C.3   1 <1>   0.1200 
 25 O        9.6100    -1.5870     0.0650 O.3   1 <1>  -0.5600 
 26 H       -2.2480    -0.7500    -1.4930 H     1 <1>   0.0800 
 27 H       -1.2700     0.4110    -0.6490 H     1 <1>   0.0800 
 28 H       -0.3370    -3.6150    -0.4630 H     1 <1>   0.0800 
 29 H       -1.4580    -3.0100    -1.6400 H     1 <1>   0.0800 
 30 H        2.7990    -2.6290    -2.2110 H     1 <1>   0.0800 
 31 H        3.5030    -3.3750    -0.8150 H     1 <1>   0.0800 
 32 H        2.4490    -2.7600     1.5100 H     1 <1>   0.0800 
 33 H        1.1930    -1.5690     1.4930 H     1 <1>   0.0800 
 34 H       -3.0750     0.5300     0.6790 H     1 <1>   0.0800 
 35 H       -2.1580    -0.6640     1.5240 H     1 <1>   0.0800 
 36 H       -2.0580    -3.2220     1.3350 H     1 <1>   0.0800 
 37 H       -2.3770    -4.4720     0.1820 H     1 <1>   0.0800 
 38 H        3.6250    -0.4200    -1.4570 H     1 <1>   0.0800 
 39 H        4.9270    -1.5670    -1.5840 H     1 <1>   0.0800 
 40 H        3.4200    -0.6930     2.1870 H     1 <1>   0.0800 
 41 H        2.7800     0.1690     0.8270 H     1 <1>   0.0800 
 42 H       -4.6920    -0.9380    -0.0460 H     1 <1>   0.0800 
 43 H       -4.3090    -1.5380     1.5310 H     1 <1>   0.0800 
 44 H       -4.4410    -3.4610     0.2670 H     1 <1>   0.0800 
 45 H       -3.7420    -2.7460    -1.1430 H     1 <1>   0.0800 
 46 H        8.2720     0.7090     0.6300 H     1 <1>   0.0800 
 47 H        7.7140     0.9350    -1.0070 H     1 <1>   0.0800 
 48 H        6.5480    -2.5170     0.9910 H     1 <1>   0.0800 
 49 H        7.5780    -1.3950     1.8370 H     1 <1>   0.0800 
 50 H       10.0810     0.1140    -0.8960 H     1 <1>   0.0800 
 51 H        9.0400    -0.9820    -1.7770 H     1 <1>   0.0800 
 52 H        8.3470    -3.0110    -0.6160 H     1 <1>   0.0800 
 53 H        8.9500    -3.2310     1.0120 H     1 <1>   0.0800 
@<TRIPOS>BOND
  1   1   2  2   
  2   1   3  2   
  3   1   4  am  
  4   1   5  am  
  5   4   6  1   
  6   4   7  1   
  7   5   8  1   
  8   5   9  1   
  9   6  10  1   
 10   6  26  1   
 11   6  27  1   
 12   7  11  1   
 13   7  28  1   
 14   7  29  1   
 15   8  12  1   
 16   8  30  1   
 17   8  31  1   
 18   9  13  1   
 19   9  32  1   
 20   9  33  1   
 21  10  14  1   
 22  10  34  1   
 23  10  35  1   
 24  11  15  1   
 25  11  36  1   
 26  11  37  1   
 27  12  16  1   
 28  12  38  1   
 29  12  39  1   
 30  13  16  1   
 31  13  40  1   
 32  13  41  1   
 33  14  15  1   
 34  14  42  1   
 35  14  43  1   
 36  15  44  1   
 37  15  45  1   
 38  16  17  am  
 39  17  18  2   
 40  17  19  2   
 41  17  20  am  
 42  20  21  1   
 43  20  22  1   
 44  21  23  1   
 45  21  46  1   
 46  21  47  1   
 47  22  24  1   
 48  22  48  1   
 49  22  49  1   
 50  23  25  1   
 51  23  50  1   
 52  23  51  1   
 53  24  25  1   
 54  24  52  1   
 55  24  53  1   
@<TRIPOS>SUBSTRUCTURE
  1 ****  13 GROUP 4 **** **** 0

# MOE 2024.06 (io_trps.svl 2023.06)
