@<TRIPOS>MOLECULE
NONAME
43 45 1 0 0 
SMALL
USER_CHARGES


@<TRIPOS>ATOM
  1 O        0.6200    -3.8270     0.3340 O.2   1 <1>  -0.5700 
  2 C        0.8150    -2.6540     0.0770 C.2   1 <1>   0.5440 
  3 N       -0.2330    -1.8830    -0.3310 N.am  1 <1>  -0.4930 
  4 C        2.1600    -2.1030     0.1940 C.ar  1 <1>   0.0860 
  5 C       -1.5650    -2.1750    -0.5730 C.2   1 <1>   0.5790 
  6 C        2.4460    -0.7100     0.2970 C.ar  1 <1>   0.0830 
  7 C        3.2410    -2.9630     0.2070 C.ar  1 <1>  -0.1500 
  8 N       -2.0950    -3.3940    -0.6670 N.2   1 <1>  -0.2270 
  9 N       -2.3950    -1.2190    -0.7500 N.2   1 <1>  -0.7070 
 10 O        1.4040     0.1630     0.3060 O.3   1 <1>  -0.3620 
 11 C        3.7480    -0.2710     0.3910 C.ar  1 <1>  -0.1500 
 12 C        4.5750    -2.5380     0.3050 C.ar  1 <1>   0.0000 
 13 N       -3.3350    -3.2160    -0.9100 N.2   1 <1>  -0.4180 
 14 N       -3.5050    -1.9070    -0.9530 N.pl3 1 <1>   0.5800 
 15 C        1.5630     1.5490     0.5310 C.3   1 <1>   0.0400 
 16 C        4.8370    -1.1580     0.3970 C.ar  1 <1>   0.0000 
 17 C        5.6610    -3.4370     0.3140 C.ar  1 <1>  -0.1500 
 18 C       -4.8100    -1.2680    -1.2090 C.3   1 <1>   0.0960 
 19 C        6.1760    -0.7260     0.4910 C.ar  1 <1>  -0.1500 
 20 C        6.9500    -2.9920     0.4070 C.ar  1 <1>  -0.1500 
 21 C       -5.5230    -0.9100     0.1050 C.3   1 <1>  -0.1600 
 22 C        7.2110    -1.6200     0.4970 C.ar  1 <1>  -0.1500 
 23 C       -6.8810    -0.2480    -0.1620 C.3   1 <1>  -0.1600 
 24 C       -7.5840     0.1060     1.1500 C.3   1 <1>  -0.2400 
 25 H       -0.0440    -0.8840    -0.3760 H     1 <1>   0.3700 
 26 H        3.0690    -4.0240     0.1360 H     1 <1>   0.1500 
 27 H        3.9860     0.7720     0.4630 H     1 <1>   0.1500 
 28 H        0.5860     2.0000     0.5440 H     1 <1>   0.0800 
 29 H        2.1470     1.9700    -0.2680 H     1 <1>   0.0800 
 30 H        2.0450     1.6970     1.4810 H     1 <1>   0.0800 
 31 H        5.4540    -4.4900     0.2450 H     1 <1>   0.1500 
 32 H       -5.4100    -1.9500    -1.7830 H     1 <1>   0.0800 
 33 H       -4.6390    -0.3820    -1.7920 H     1 <1>   0.0800 
 34 H        6.3740     0.3280     0.5610 H     1 <1>   0.1500 
 35 H        7.7760    -3.6830     0.4130 H     1 <1>   0.1500 
 36 H       -4.9030    -0.2370     0.6720 H     1 <1>   0.0800 
 37 H       -5.6710    -1.8070     0.6830 H     1 <1>   0.0800 
 38 H        8.2320    -1.2860     0.5690 H     1 <1>   0.1500 
 39 H       -7.5080    -0.9160    -0.7290 H     1 <1>   0.0800 
 40 H       -6.7410     0.6510    -0.7400 H     1 <1>   0.0800 
 41 H       -7.7570    -0.7800     1.7370 H     1 <1>   0.0800 
 42 H       -8.5340     0.5690     0.9460 H     1 <1>   0.0800 
 43 H       -6.9880     0.7920     1.7260 H     1 <1>   0.0800 
@<TRIPOS>BOND
  1   1   2  2   
  2   2   3  am  
  3   2   4  1   
  4   3   5  1   
  5   3  25  1   
  6   4   6  ar  
  7   4   7  ar  
  8   5   8  1   
  9   5   9  2   
 10   6  10  1   
 11   6  11  ar  
 12   7  12  ar  
 13   7  26  1   
 14   8  13  2   
 15   9  14  1   
 16  10  15  1   
 17  11  16  ar  
 18  11  27  1   
 19  12  16  ar  
 20  12  17  ar  
 21  13  14  1   
 22  14  18  1   
 23  15  28  1   
 24  15  29  1   
 25  15  30  1   
 26  16  19  ar  
 27  17  20  ar  
 28  17  31  1   
 29  18  21  1   
 30  18  32  1   
 31  18  33  1   
 32  19  22  ar  
 33  19  34  1   
 34  20  22  ar  
 35  20  35  1   
 36  21  23  1   
 37  21  36  1   
 38  21  37  1   
 39  22  38  1   
 40  23  24  1   
 41  23  39  1   
 42  23  40  1   
 43  24  41  1   
 44  24  42  1   
 45  24  43  1   
@<TRIPOS>SUBSTRUCTURE
  1 ****   3 GROUP 4 **** **** 0

# MOE 2024.06 (io_trps.svl 2023.06)
