@<TRIPOS>MOLECULE
NONAME
33 35 1 0 0 
SMALL
USER_CHARGES


@<TRIPOS>ATOM
  1 CL      -0.3350     0.1420     0.7830 Cl    1 <1>  -0.1770 
  2 C       -1.8320    -0.6880     0.4350 C.ar  1 <1>   0.1770 
  3 C       -1.8110    -2.0420     0.1680 C.ar  1 <1>  -0.1500 
  4 C       -3.0120     0.0330     0.4360 C.ar  1 <1>  -0.1500 
  5 C       -3.0000    -2.7080    -0.1120 C.ar  1 <1>   0.1170 
  6 C       -4.2000    -0.6230     0.1640 C.ar  1 <1>  -0.1500 
  7 N       -3.0840    -4.0760    -0.3940 N.am  1 <1>  -0.5470 
  8 C       -4.1860    -1.9820    -0.1060 C.ar  1 <1>  -0.1500 
  9 C       -2.1610    -5.0570    -0.6120 C.2   1 <1>   0.5690 
 10 O       -0.9810    -4.8000    -0.7100 O.2   1 <1>  -0.5700 
 11 C       -2.5650    -6.5250    -0.8310 C.3   1 <1>  -0.0190 
 12 C       -3.9710    -7.1050    -0.4820 C.3   1 <1>  -0.1860 
 13 C       -1.6920    -7.4020     0.0820 C.3   1 <1>   0.2000 
 14 C       -5.1250    -6.1820    -0.1610 C.2   1 <1>   0.9060 
 15 C       -3.6260    -8.0670     0.6650 C.3   1 <1>   0.2000 
 16 O       -2.4880    -7.4970     1.1990 O.3   1 <1>  -0.5600 
 17 C       -1.6640    -8.8660    -0.3790 C.3   1 <1>  -0.1600 
 18 O       -5.4030    -5.3110    -0.9920 O.co2 1 <1>  -0.9000 
 19 O       -5.7860    -6.3170     0.8680 O.co2 1 <1>  -0.9000 
 20 C       -3.0340    -9.3590     0.0960 C.3   1 <1>  -0.1600 
 21 H       -0.8770    -2.5670     0.1830 H     1 <1>   0.1500 
 22 H       -2.9970     1.0870     0.6480 H     1 <1>   0.1500 
 23 H       -5.1320    -0.0860     0.1620 H     1 <1>   0.1500 
 24 H       -4.0590    -4.3990    -0.5320 H     1 <1>   0.3700 
 25 H       -5.1090    -2.5000    -0.3140 H     1 <1>   0.1500 
 26 H       -2.3360    -6.7410    -1.8580 H     1 <1>   0.0800 
 27 H       -4.3260    -7.6780    -1.3170 H     1 <1>   0.0800 
 28 H       -0.7250    -7.0000     0.3310 H     1 <1>   0.0800 
 29 H       -4.3880    -8.2070     1.4150 H     1 <1>   0.0800 
 30 H       -0.8710    -9.3930     0.1220 H     1 <1>   0.0800 
 31 H       -1.5360    -8.9470    -1.4430 H     1 <1>   0.0800 
 32 H       -3.6350    -9.7710    -0.6940 H     1 <1>   0.0800 
 33 H       -2.9330   -10.0830     0.8850 H     1 <1>   0.0800 
@<TRIPOS>BOND
  1   1   2  1   
  2   2   3  ar  
  3   2   4  ar  
  4   3   5  ar  
  5   3  21  1   
  6   4   6  ar  
  7   4  22  1   
  8   5   7  1   
  9   5   8  ar  
 10   6   8  ar  
 11   6  23  1   
 12   7   9  am  
 13   7  24  1   
 14   8  25  1   
 15   9  10  2   
 16   9  11  1   
 17  11  12  1   
 18  11  13  1   
 19  11  26  1   
 20  12  14  1   
 21  12  15  1   
 22  12  27  1   
 23  13  16  1   
 24  13  17  1   
 25  13  28  1   
 26  14  18  ar  
 27  14  19  ar  
 28  15  16  1   
 29  15  20  1   
 30  15  29  1   
 31  17  20  1   
 32  17  30  1   
 33  17  31  1   
 34  20  32  1   
 35  20  33  1   
@<TRIPOS>SUBSTRUCTURE
  1 ****   7 GROUP 4 **** **** 0

# MOE 2024.06 (io_trps.svl 2023.06)
