@<TRIPOS>MOLECULE
NONAME
40 42 1 0 0 
SMALL
USER_CHARGES


@<TRIPOS>ATOM
  1 BR      -1.6890     2.4780    -3.2570 Br    1 <1>  -0.1110 
  2 C       -2.3260     2.2120    -1.4620 C.ar  1 <1>   0.1110 
  3 C       -3.4370     1.4140    -1.2670 C.ar  1 <1>  -0.1500 
  4 C       -1.6600     2.8240    -0.4190 C.ar  1 <1>  -0.1500 
  5 C       -3.9060     1.2240     0.0260 C.ar  1 <1>  -0.1440 
  6 C       -2.1260     2.6240     0.8680 C.ar  1 <1>  -0.1500 
  7 C       -3.2410     1.8280     1.0890 C.ar  1 <1>  -0.1500 
  8 C       -5.1350     0.3710     0.2790 C.3   1 <1>   0.4870 
  9 N       -6.3380     1.1280    -0.1610 N.4   1 <1>  -0.9590 
 10 C       -6.5140     2.4080     0.6240 C.3   1 <1>   0.3430 
 11 C       -7.5860     0.2830    -0.0970 C.3   1 <1>   0.3430 
 12 C       -7.7670     3.1970     0.1930 C.3   1 <1>   0.2090 
 13 C       -8.8470     1.0580    -0.5340 C.3   1 <1>   0.2090 
 14 N       -8.9850     2.3330     0.2320 N.pl3 1 <1>  -0.8380 
 15 C      -10.1980     3.0100     0.0430 C.ar  1 <1>   0.1000 
 16 C      -10.5950     3.6100    -1.1590 C.ar  1 <1>   0.1900 
 17 C      -11.0810     3.1040     1.1110 C.ar  1 <1>  -0.1500 
 18 F       -9.7990     3.5530    -2.2020 F     1 <1>  -0.1900 
 19 C      -11.7980     4.2690    -1.3070 C.ar  1 <1>  -0.1500 
 20 C      -12.2940     3.7620     0.9830 C.ar  1 <1>  -0.1500 
 21 C      -12.6560     4.3440    -0.2220 C.ar  1 <1>  -0.1500 
 22 H       -3.9050     0.9580    -2.1210 H     1 <1>   0.1500 
 23 H       -0.7970     3.4380    -0.6110 H     1 <1>   0.1500 
 24 H       -1.6170     3.0870     1.6980 H     1 <1>   0.1500 
 25 H       -3.5760     1.6860     2.1030 H     1 <1>   0.1500 
 26 H       -5.2080     0.1320     1.3280 H     1 <1>   0.0800 
 27 H       -5.0490    -0.5480    -0.2770 H     1 <1>   0.0800 
 28 H       -6.1840     1.4030    -1.1380 H     1 <1>   0.4500 
 29 H       -5.6480     3.0380     0.4990 H     1 <1>   0.0800 
 30 H       -6.6080     2.1800     1.6720 H     1 <1>   0.0800 
 31 H       -7.7400    -0.0570     0.9130 H     1 <1>   0.0800 
 32 H       -7.4760    -0.5860    -0.7260 H     1 <1>   0.0800 
 33 H       -7.6260     3.5880    -0.8000 H     1 <1>   0.0800 
 34 H       -7.9070     4.0330     0.8590 H     1 <1>   0.0800 
 35 H       -9.7180     0.4480    -0.3600 H     1 <1>   0.0800 
 36 H       -8.7970     1.2680    -1.5880 H     1 <1>   0.0800 
 37 H      -10.8110     2.6560     2.0500 H     1 <1>   0.1500 
 38 H      -12.0610     4.7150    -2.2500 H     1 <1>   0.1500 
 39 H      -12.9620     3.8210     1.8260 H     1 <1>   0.1500 
 40 H      -13.6010     4.8540    -0.3130 H     1 <1>   0.1500 
@<TRIPOS>BOND
  1   1   2  1   
  2   2   3  ar  
  3   2   4  ar  
  4   3   5  ar  
  5   3  22  1   
  6   4   6  ar  
  7   4  23  1   
  8   5   7  ar  
  9   5   8  1   
 10   6   7  ar  
 11   6  24  1   
 12   7  25  1   
 13   8   9  1   
 14   8  26  1   
 15   8  27  1   
 16   9  10  1   
 17   9  11  1   
 18   9  28  1   
 19  10  12  1   
 20  10  29  1   
 21  10  30  1   
 22  11  13  1   
 23  11  31  1   
 24  11  32  1   
 25  12  14  1   
 26  12  33  1   
 27  12  34  1   
 28  13  14  1   
 29  13  35  1   
 30  13  36  1   
 31  14  15  1   
 32  15  16  ar  
 33  15  17  ar  
 34  16  18  1   
 35  16  19  ar  
 36  17  20  ar  
 37  17  37  1   
 38  19  21  ar  
 39  19  38  1   
 40  20  21  ar  
 41  20  39  1   
 42  21  40  1   
@<TRIPOS>SUBSTRUCTURE
  1 ****  10 GROUP 4 **** **** 0

# MOE 2024.06 (io_trps.svl 2023.06)
