@<TRIPOS>MOLECULE
NONAME
59 62 1 0 0 
SMALL
USER_CHARGES


@<TRIPOS>ATOM
  1 O       -0.7450     0.9520     1.3990 O.2   1 <1>  -0.5700 
  2 C       -1.2520     2.0180     1.1160 C.2   1 <1>   0.6900 
  3 N       -2.5910     2.0740     0.7440 N.am  1 <1>  -0.4200 
  4 N       -0.4910     3.1770     1.1550 N.am  1 <1>  -0.4360 
  5 C       -3.1800     3.2680     0.3480 C.2   1 <1>   0.7030 
  6 C       -3.3900     0.8080     0.7350 C.3   1 <1>   0.0600 
  7 C       -1.0870     4.3590     0.7600 C.2   1 <1>   0.4260 
  8 C        0.9420     3.1440     1.5760 C.3   1 <1>   0.0600 
  9 O       -4.3470     3.3000    -0.0050 O.2   1 <1>  -0.5700 
 10 C       -2.3780     4.4590     0.3630 C.2   1 <1>   0.2770 
 11 N       -0.5290     5.5900     0.6840 N.pl3 1 <1>  -0.7000 
 12 N       -2.5960     5.8060     0.0400 N.pl3 1 <1>  -0.7640 
 13 C       -1.4460     6.4430     0.2470 C.cat 1 <1>   0.6560 
 14 C       -3.8980     6.3420    -0.4540 C.3   1 <1>   0.3540 
 15 C       -1.1220     7.9320     0.0440 C.3   1 <1>   0.2540 
 16 C       -4.8610     6.5770     0.7110 C.3   1 <1>  -0.0170 
 17 N        0.3550     8.1620     0.0230 N.3   1 <1>  -0.8100 
 18 C       -6.1560     7.1650     0.1820 C.ar  1 <1>  -0.1430 
 19 C        0.7780     9.5240     0.4340 C.3   1 <1>   0.1900 
 20 C        0.8770     7.8350    -1.3240 C.3   1 <1>   0.1100 
 21 C       -6.3780     8.5340     0.2170 C.ar  1 <1>  -0.1500 
 22 C       -7.1260     6.3300    -0.3520 C.ar  1 <1>  -0.1500 
 23 C        2.3150     9.6020     0.4440 C.3   1 <1>  -0.1600 
 24 C        0.2810     9.8690     1.8440 C.3   1 <1>  -0.2400 
 25 C        2.4050     7.8440    -1.3280 C.3   1 <1>  -0.1600 
 26 C       -7.5560     9.0620    -0.2820 C.ar  1 <1>  -0.1500 
 27 C       -8.3040     6.8590    -0.8500 C.ar  1 <1>  -0.1500 
 28 C        2.9320     9.2130    -0.9020 C.3   1 <1>  -0.1600 
 29 C       -8.5190     8.2250    -0.8170 C.ar  1 <1>  -0.1500 
 30 H       -3.1150     0.1890     1.5730 H     1 <1>   0.0800 
 31 H       -3.1950     0.2650    -0.1740 H     1 <1>   0.0800 
 32 H       -4.4440     1.0130     0.8020 H     1 <1>   0.0800 
 33 H        1.1420     2.2700     2.1730 H     1 <1>   0.0800 
 34 H        1.1790     4.0120     2.1660 H     1 <1>   0.0800 
 35 H        1.5750     3.1170     0.7060 H     1 <1>   0.0800 
 36 H        0.4280     5.9050     0.8820 H     1 <1>   0.4500 
 37 H       -4.3370     5.6470    -1.1510 H     1 <1>   0.0800 
 38 H       -3.7410     7.2700    -0.9760 H     1 <1>   0.0800 
 39 H       -1.5850     8.4520     0.8580 H     1 <1>   0.0800 
 40 H       -1.5650     8.2890    -0.8690 H     1 <1>   0.0800 
 41 H       -4.4220     7.2500     1.4240 H     1 <1>   0.0800 
 42 H       -5.0750     5.6470     1.2070 H     1 <1>   0.0800 
 43 H        0.3970    10.2510    -0.2660 H     1 <1>   0.0800 
 44 H        0.5160     8.5540    -2.0420 H     1 <1>   0.0800 
 45 H        0.5430     6.8590    -1.6300 H     1 <1>   0.0800 
 46 H       -5.6440     9.2020     0.6330 H     1 <1>   0.1500 
 47 H       -6.9760     5.2640    -0.3820 H     1 <1>   0.1500 
 48 H        2.6970     8.9500     1.2100 H     1 <1>   0.0800 
 49 H        2.6230    10.6030     0.6880 H     1 <1>   0.0800 
 50 H        0.4910     9.0650     2.5270 H     1 <1>   0.0800 
 51 H       -0.7680    10.0950     1.8520 H     1 <1>   0.0800 
 52 H        0.7840    10.7500     2.2010 H     1 <1>   0.0800 
 53 H        2.7630     7.6130    -2.3160 H     1 <1>   0.0800 
 54 H        2.7700     7.0850    -0.6590 H     1 <1>   0.0800 
 55 H       -7.7260    10.1240    -0.2530 H     1 <1>   0.1500 
 56 H       -9.0550     6.2070    -1.2630 H     1 <1>   0.1500 
 57 H        4.0060     9.1870    -0.8210 H     1 <1>   0.0800 
 58 H        2.6710     9.9490    -1.6440 H     1 <1>   0.0800 
 59 H       -9.4360     8.6360    -1.2040 H     1 <1>   0.1500 
@<TRIPOS>BOND
  1   1   2  2   
  2   2   3  am  
  3   2   4  am  
  4   3   5  am  
  5   3   6  1   
  6   4   7  1   
  7   4   8  1   
  8   5   9  2   
  9   5  10  1   
 10   6  30  1   
 11   6  31  1   
 12   6  32  1   
 13   7  10  2   
 14   7  11  1   
 15   8  33  1   
 16   8  34  1   
 17   8  35  1   
 18  10  12  1   
 19  11  13  ar  
 20  11  36  1   
 21  12  13  ar  
 22  12  14  1   
 23  13  15  1   
 24  14  16  1   
 25  14  37  1   
 26  14  38  1   
 27  15  17  1   
 28  15  39  1   
 29  15  40  1   
 30  16  18  1   
 31  16  41  1   
 32  16  42  1   
 33  17  19  1   
 34  17  20  1   
 35  18  21  ar  
 36  18  22  ar  
 37  19  23  1   
 38  19  24  1   
 39  19  43  1   
 40  20  25  1   
 41  20  44  1   
 42  20  45  1   
 43  21  26  ar  
 44  21  46  1   
 45  22  27  ar  
 46  22  47  1   
 47  23  28  1   
 48  23  48  1   
 49  23  49  1   
 50  24  50  1   
 51  24  51  1   
 52  24  52  1   
 53  25  28  1   
 54  25  53  1   
 55  25  54  1   
 56  26  29  ar  
 57  26  55  1   
 58  27  29  ar  
 59  27  56  1   
 60  28  57  1   
 61  28  58  1   
 62  29  59  1   
@<TRIPOS>SUBSTRUCTURE
  1 ****  12 GROUP 4 **** **** 0

# MOE 2024.06 (io_trps.svl 2023.06)
