@<TRIPOS>MOLECULE
NONAME
41 43 1 0 0 
SMALL
USER_CHARGES


@<TRIPOS>ATOM
  1 O        0.9180    -0.4640    -1.4820 O.3   1 <1>  -0.5600 
  2 C        0.5990    -0.9200    -0.1990 C.3   1 <1>   0.1200 
  3 C        2.0800     0.3150    -1.5160 C.3   1 <1>   0.1200 
  4 C        1.7500    -1.7700     0.3690 C.3   1 <1>   0.1100 
  5 C        3.2830    -0.4880    -0.9880 C.3   1 <1>   0.1100 
  6 N        3.0180    -1.0160     0.3680 N.3   1 <1>  -0.8100 
  7 C        4.1380    -1.8510     0.8600 C.3   1 <1>   0.2900 
  8 C        5.4540    -1.0880     0.9830 C.2   1 <1>   0.2980 
  9 O        5.5250    -0.0970     1.8330 O.3   1 <1>  -0.0190 
 10 N        6.5190    -1.3230     0.3300 N.2   1 <1>  -0.5650 
 11 N        6.7400     0.3390     1.7090 N.2   1 <1>  -0.4100 
 12 C        7.3310    -0.3800     0.8220 C.2   1 <1>   0.4620 
 13 C        8.7070    -0.2170     0.3810 C.ar  1 <1>   0.0540 
 14 C        9.2940    -1.0890    -0.5380 C.ar  1 <1>  -0.1500 
 15 C        9.4980     0.8260     0.8640 C.ar  1 <1>  -0.1500 
 16 C       10.6100    -0.9340    -0.9610 C.ar  1 <1>   0.0820 
 17 C       10.8070     0.9970     0.4560 C.ar  1 <1>  -0.1500 
 18 O       11.1960    -1.7810    -1.8580 O.3   1 <1>  -0.3630 
 19 C       11.3770     0.1200    -0.4610 C.ar  1 <1>   0.0820 
 20 C       10.5100    -2.8880    -2.3960 C.3   1 <1>   0.0400 
 21 O       12.6630     0.2470    -0.8950 O.3   1 <1>  -0.3630 
 22 C       13.5050     1.2820    -0.4420 C.3   1 <1>   0.0400 
 23 H       -0.2990    -1.5070    -0.2730 H     1 <1>   0.0800 
 24 H        0.4100    -0.0700     0.4340 H     1 <1>   0.0800 
 25 H        1.9240     1.1960    -0.9180 H     1 <1>   0.0800 
 26 H        2.2470     0.6120    -2.5360 H     1 <1>   0.0800 
 27 H        1.8460    -2.6620    -0.2270 H     1 <1>   0.0800 
 28 H        1.5050    -2.0600     1.3760 H     1 <1>   0.0800 
 29 H        4.1440     0.1590    -0.9660 H     1 <1>   0.0800 
 30 H        3.4880    -1.2960    -1.6700 H     1 <1>   0.0800 
 31 H        4.2840    -2.6860     0.1960 H     1 <1>   0.0800 
 32 H        3.8880    -2.2370     1.8320 H     1 <1>   0.0800 
 33 H        8.6950    -1.8940    -0.9150 H     1 <1>   0.1500 
 34 H        9.0790     1.5180     1.5750 H     1 <1>   0.1500 
 35 H       11.3640     1.8180     0.8620 H     1 <1>   0.1500 
 36 H       11.1800    -3.4010    -3.0620 H     1 <1>   0.0800 
 37 H        9.6520    -2.5370    -2.9410 H     1 <1>   0.0800 
 38 H       10.2200    -3.5430    -1.5940 H     1 <1>   0.0800 
 39 H       14.4590     1.1690    -0.9250 H     1 <1>   0.0800 
 40 H       13.6230     1.1950     0.6230 H     1 <1>   0.0800 
 41 H       13.0700     2.2280    -0.7100 H     1 <1>   0.0800 
@<TRIPOS>BOND
  1   1   2  1   
  2   1   3  1   
  3   2   4  1   
  4   2  23  1   
  5   2  24  1   
  6   3   5  1   
  7   3  25  1   
  8   3  26  1   
  9   4   6  1   
 10   4  27  1   
 11   4  28  1   
 12   5   6  1   
 13   5  29  1   
 14   5  30  1   
 15   6   7  1   
 16   7   8  1   
 17   7  31  1   
 18   7  32  1   
 19   8   9  1   
 20   8  10  2   
 21   9  11  1   
 22  10  12  1   
 23  11  12  2   
 24  12  13  1   
 25  13  14  ar  
 26  13  15  ar  
 27  14  16  ar  
 28  14  33  1   
 29  15  17  ar  
 30  15  34  1   
 31  16  18  1   
 32  16  19  ar  
 33  17  19  ar  
 34  17  35  1   
 35  18  20  1   
 36  19  21  1   
 37  20  36  1   
 38  20  37  1   
 39  20  38  1   
 40  21  22  1   
 41  22  39  1   
 42  22  40  1   
 43  22  41  1   
@<TRIPOS>SUBSTRUCTURE
  1 ****  12 GROUP 4 **** **** 0

# MOE 2024.06 (io_trps.svl 2023.06)
