@<TRIPOS>MOLECULE
NONAME
31 32 1 0 0 
SMALL
USER_CHARGES


@<TRIPOS>ATOM
  1 O       -0.5240     0.1190    -0.1710 O.2   1 <1>  -0.5700 
  2 C       -1.5230     0.7830    -0.0660 C.2   1 <1>   0.5690 
  3 N       -2.7090     0.2960    -0.5110 N.am  1 <1>  -0.5470 
  4 C       -1.4310     2.1440     0.5840 C.3   1 <1>  -0.1790 
  5 C       -3.9810     0.8780    -0.5280 C.ar  1 <1>   0.1170 
  6 C       -5.0510     0.2160     0.0420 C.ar  1 <1>  -0.1500 
  7 C       -4.1850     2.1300    -1.1360 C.ar  1 <1>  -0.1500 
  8 C       -6.3120     0.8140     0.0150 C.ar  1 <1>  -0.1520 
  9 C       -5.4320     2.7150    -1.1590 C.ar  1 <1>  -0.1500 
 10 N       -7.5320     0.4430     0.4780 N.pl3 1 <1>   0.0330 
 11 C       -6.5070     2.0480    -0.5740 C.ar  1 <1>   0.2270 
 12 C       -8.3800     1.4530     0.1500 C.2   1 <1>   0.0060 
 13 N       -7.8120     2.4250    -0.4740 N.2   1 <1>  -0.5650 
 14 C       -9.8570     1.4190     0.4990 C.3   1 <1>   0.0200 
 15 C      -10.6010     0.3560    -0.3220 C.3   1 <1>  -0.1600 
 16 C      -12.0970     0.3330     0.0110 C.3   1 <1>  -0.2400 
 17 H       -2.6400    -0.6680    -0.8380 H     1 <1>   0.3700 
 18 H       -2.2940     2.3240     1.1980 H     1 <1>   0.0800 
 19 H       -1.3630     2.9010    -0.1730 H     1 <1>   0.0800 
 20 H       -0.5530     2.1890     1.2000 H     1 <1>   0.0800 
 21 H       -4.9170    -0.7440     0.5070 H     1 <1>   0.1500 
 22 H       -3.3520     2.6290    -1.5960 H     1 <1>   0.1500 
 23 H       -5.6100     3.6700    -1.6170 H     1 <1>   0.1500 
 24 H       -7.7660    -0.4220     0.9700 H     1 <1>   0.2700 
 25 H      -10.2810     2.3880     0.2940 H     1 <1>   0.0800 
 26 H       -9.9710     1.2250     1.5500 H     1 <1>   0.0800 
 27 H      -10.1800    -0.6150    -0.1290 H     1 <1>   0.0800 
 28 H      -10.4730     0.5720    -1.3690 H     1 <1>   0.0800 
 29 H      -12.2520     0.1020     1.0500 H     1 <1>   0.0800 
 30 H      -12.5940    -0.4150    -0.5830 H     1 <1>   0.0800 
 31 H      -12.5440     1.2880    -0.2030 H     1 <1>   0.0800 
@<TRIPOS>BOND
  1   1   2  2   
  2   2   3  am  
  3   2   4  1   
  4   3   5  1   
  5   3  17  1   
  6   4  18  1   
  7   4  19  1   
  8   4  20  1   
  9   5   6  ar  
 10   5   7  ar  
 11   6   8  ar  
 12   6  21  1   
 13   7   9  ar  
 14   7  22  1   
 15   8  10  1   
 16   8  11  ar  
 17   9  11  ar  
 18   9  23  1   
 19  10  12  1   
 20  10  24  1   
 21  11  13  1   
 22  12  13  2   
 23  12  14  1   
 24  14  15  1   
 25  14  25  1   
 26  14  26  1   
 27  15  16  1   
 28  15  27  1   
 29  15  28  1   
 30  16  29  1   
 31  16  30  1   
 32  16  31  1   
@<TRIPOS>SUBSTRUCTURE
  1 ****   8 GROUP 4 **** **** 0

# MOE 2024.06 (io_trps.svl 2023.06)
