@<TRIPOS>MOLECULE
NONAME
44 45 1 0 0 
SMALL
USER_CHARGES


@<TRIPOS>ATOM
  1 O       -0.5720    -0.4600     1.5290 O.2   1 <1>  -0.5700 
  2 C       -0.3970     0.5030     0.8260 C.2   1 <1>   0.5690 
  3 N       -1.2990     0.9220    -0.0930 N.am  1 <1>  -0.7300 
  4 C        0.8960     1.2660     0.9380 C.3   1 <1>  -0.1790 
  5 C       -2.7400     0.6380    -0.3210 C.3   1 <1>   0.4440 
  6 C       -3.3020     2.0390    -0.6530 C.ar  1 <1>  -0.1440 
  7 C       -3.4770     0.0200     0.9130 C.3   1 <1>  -0.0800 
  8 C       -2.8430    -0.3320    -1.5130 C.3   1 <1>  -0.1600 
  9 C       -3.1020     3.0710     0.2630 C.ar  1 <1>  -0.1500 
 10 C       -4.0010     2.3400    -1.8220 C.ar  1 <1>  -0.1500 
 11 C       -3.4530    -1.5200     0.9340 C.3   1 <1>   0.3430 
 12 C       -4.9640     0.4310     1.0390 C.3   1 <1>  -0.2400 
 13 C       -2.3070    -1.7490    -1.2580 C.3   1 <1>   0.4230 
 14 C       -3.5730     4.3490     0.0240 C.ar  1 <1>  -0.1500 
 15 C       -4.4730     3.6180    -2.0620 C.ar  1 <1>  -0.1500 
 16 N       -2.3040    -2.0870     0.1860 N.4   1 <1>  -0.9590 
 17 C       -0.8950    -1.9350    -1.8160 C.3   1 <1>  -0.2400 
 18 C       -4.2600     4.6250    -1.1410 C.ar  1 <1>  -0.1500 
 19 C       -2.1550    -3.5460     0.4600 C.3   1 <1>   0.2630 
 20 H       -1.0420     1.7630    -0.6170 H     1 <1>   0.3700 
 21 H        0.6940     2.3010     1.1380 H     1 <1>   0.0800 
 22 H        1.4530     1.1800     0.0240 H     1 <1>   0.0800 
 23 H        1.4870     0.8680     1.7430 H     1 <1>   0.0800 
 24 H       -2.9960     0.3760     1.8060 H     1 <1>   0.0800 
 25 H       -2.3690     0.0960    -2.3780 H     1 <1>   0.0800 
 26 H       -3.8830    -0.4460    -1.7600 H     1 <1>   0.0800 
 27 H       -2.5760     2.8880     1.1840 H     1 <1>   0.1500 
 28 H       -4.2000     1.6030    -2.5780 H     1 <1>   0.1500 
 29 H       -4.3650    -1.8920     0.4990 H     1 <1>   0.0800 
 30 H       -3.4190    -1.8480     1.9610 H     1 <1>   0.0800 
 31 H       -5.5100     0.1970     0.1410 H     1 <1>   0.0800 
 32 H       -5.0650     1.4850     1.2290 H     1 <1>   0.0800 
 33 H       -5.4300    -0.0800     1.8640 H     1 <1>   0.0800 
 34 H       -2.9570    -2.4370    -1.7750 H     1 <1>   0.0800 
 35 H       -3.4070     5.1310     0.7460 H     1 <1>   0.1500 
 36 H       -5.0100     3.8340    -2.9710 H     1 <1>   0.1500 
 37 H       -1.4740    -1.6050     0.5950 H     1 <1>   0.4500 
 38 H       -0.1860    -1.3060    -1.3110 H     1 <1>   0.0800 
 39 H       -0.8820    -1.6780    -2.8610 H     1 <1>   0.0800 
 40 H       -0.5780    -2.9580    -1.7380 H     1 <1>   0.0800 
 41 H       -4.6290     5.6190    -1.3300 H     1 <1>   0.1500 
 42 H       -2.9900    -4.0920     0.0520 H     1 <1>   0.0800 
 43 H       -2.1120    -3.7200     1.5230 H     1 <1>   0.0800 
 44 H       -1.2460    -3.9200     0.0210 H     1 <1>   0.0800 
@<TRIPOS>BOND
  1   1   2  2   
  2   2   3  am  
  3   2   4  1   
  4   3   5  1   
  5   3  20  1   
  6   4  21  1   
  7   4  22  1   
  8   4  23  1   
  9   5   6  1   
 10   5   7  1   
 11   5   8  1   
 12   6   9  ar  
 13   6  10  ar  
 14   7  11  1   
 15   7  12  1   
 16   7  24  1   
 17   8  13  1   
 18   8  25  1   
 19   8  26  1   
 20   9  14  ar  
 21   9  27  1   
 22  10  15  ar  
 23  10  28  1   
 24  11  16  1   
 25  11  29  1   
 26  11  30  1   
 27  12  31  1   
 28  12  32  1   
 29  12  33  1   
 30  13  16  1   
 31  13  17  1   
 32  13  34  1   
 33  14  18  ar  
 34  14  35  1   
 35  15  18  ar  
 36  15  36  1   
 37  16  19  1   
 38  16  37  1   
 39  17  38  1   
 40  17  39  1   
 41  17  40  1   
 42  18  41  1   
 43  19  42  1   
 44  19  43  1   
 45  19  44  1   
@<TRIPOS>SUBSTRUCTURE
  1 ****   5 GROUP 4 **** **** 0

# MOE 2024.06 (io_trps.svl 2023.06)
