@<TRIPOS>MOLECULE
NONAME
36 37 1 0 0 
SMALL
USER_CHARGES


@<TRIPOS>ATOM
  1 F       -0.1680    -1.6210    -0.6800 F     1 <1>  -0.3400 
  2 C        0.4080    -1.9700     0.4630 C.3   1 <1>   0.9600 
  3 F       -0.2880    -3.0060     0.9130 F     1 <1>  -0.3400 
  4 O        1.6730    -2.4320     0.1220 O.3   1 <1>  -0.5600 
  5 C        0.4940    -0.7920     1.4570 C.3   1 <1>   0.6800 
  6 C        2.6190    -1.6110     0.7530 C.3   1 <1>   0.6200 
  7 F        0.3600    -1.1820     2.7340 F     1 <1>  -0.3400 
  8 F       -0.4490     0.1480     1.2910 F     1 <1>  -0.3400 
  9 C        1.9000    -0.3120     1.1560 C.3   1 <1>   0.6800 
 10 F        2.9050    -2.2810     1.8730 F     1 <1>  -0.3400 
 11 C        3.9290    -1.4000    -0.0510 C.3   1 <1>   0.7410 
 12 F        1.8930     0.5870     0.1670 F     1 <1>  -0.3400 
 13 F        2.4760     0.3240     2.1830 F     1 <1>  -0.3400 
 14 F        3.6590    -0.9120    -1.2660 F     1 <1>  -0.3400 
 15 F        4.6650    -0.4340     0.5150 F     1 <1>  -0.3400 
 16 C        4.7860    -2.6830    -0.1870 C.2   1 <1>   0.5690 
 17 O        4.2660    -3.7100    -0.5650 O.2   1 <1>  -0.5700 
 18 N        6.1240    -2.6660     0.1170 N.am  1 <1>  -0.7300 
 19 C        7.0370    -3.8170     0.0390 C.3   1 <1>   0.2200 
 20 C        7.5560    -4.1300     1.4460 C.3   1 <1>  -0.1600 
 21 C        8.1860    -3.4750    -0.9150 C.3   1 <1>  -0.1600 
 22 C        8.6000    -5.2560     1.4140 C.3   1 <1>  -0.1600 
 23 C        9.2300    -4.6000    -0.9510 C.3   1 <1>  -0.1600 
 24 C        9.7520    -4.9190     0.4570 C.3   1 <1>  -0.1600 
 25 H        6.5640    -1.7920     0.4150 H     1 <1>   0.3700 
 26 H        6.5120    -4.6790    -0.3400 H     1 <1>   0.0800 
 27 H        6.7330    -4.4290     2.0700 H     1 <1>   0.0800 
 28 H        8.0060    -3.2500     1.8700 H     1 <1>   0.0800 
 29 H        8.6650    -2.5660    -0.5960 H     1 <1>   0.0800 
 30 H        7.7930    -3.3250    -1.9060 H     1 <1>   0.0800 
 31 H        8.1290    -6.1700     1.0950 H     1 <1>   0.0800 
 32 H        8.9900    -5.4160     2.4050 H     1 <1>   0.0800 
 33 H       10.0520    -4.3100    -1.5840 H     1 <1>   0.0800 
 34 H        8.7860    -5.4850    -1.3750 H     1 <1>   0.0800 
 35 H       10.4350    -5.7500     0.4080 H     1 <1>   0.0800 
 36 H       10.2940    -4.0700     0.8370 H     1 <1>   0.0800 
@<TRIPOS>BOND
  1   1   2  1   
  2   2   3  1   
  3   2   4  1   
  4   2   5  1   
  5   4   6  1   
  6   5   7  1   
  7   5   8  1   
  8   5   9  1   
  9   6   9  1   
 10   6  10  1   
 11   6  11  1   
 12   9  12  1   
 13   9  13  1   
 14  11  14  1   
 15  11  15  1   
 16  11  16  1   
 17  16  17  2   
 18  16  18  am  
 19  18  19  1   
 20  18  25  1   
 21  19  20  1   
 22  19  21  1   
 23  19  26  1   
 24  20  22  1   
 25  20  27  1   
 26  20  28  1   
 27  21  23  1   
 28  21  29  1   
 29  21  30  1   
 30  22  24  1   
 31  22  31  1   
 32  22  32  1   
 33  23  24  1   
 34  23  33  1   
 35  23  34  1   
 36  24  35  1   
 37  24  36  1   
@<TRIPOS>SUBSTRUCTURE
  1 ****  11 GROUP 4 **** **** 0

# MOE 2024.06 (io_trps.svl 2023.06)
