@<TRIPOS>MOLECULE
NONAME
43 44 1 0 0 
SMALL
USER_CHARGES


@<TRIPOS>ATOM
  1 O       -1.3000     1.2900     0.4230 O.3   1 <1>  -0.2800 
  2 C       -1.5980     0.0760    -0.0010 C.2   1 <1>  -0.0400 
  3 C       -0.2950     1.7340    -0.3040 C.2   1 <1>  -0.0400 
  4 C       -0.7830    -0.2810    -1.0170 C.2   1 <1>  -0.1500 
  5 C       -2.7380    -0.6770     0.6580 C.3   1 <1>   0.5230 
  6 C        0.0730     0.8090    -1.2150 C.2   1 <1>  -0.1500 
  7 C        0.2570     3.1150    -0.0240 C.3   1 <1>  -0.0600 
  8 N       -3.9890     0.1070     0.4720 N.4   1 <1>  -0.9590 
  9 C       -4.1070     1.1910     1.4830 C.3   1 <1>   0.4860 
 10 C       -5.2270    -0.7100     0.3900 C.3   1 <1>   0.3430 
 11 C       -5.0300     2.2440     0.9070 C.ar  1 <1>  -0.1430 
 12 C       -5.2810    -1.4600    -0.9430 C.3   1 <1>  -0.1600 
 13 C       -6.3360     2.3690     1.3600 C.ar  1 <1>  -0.1500 
 14 C       -4.5670     3.0890    -0.0920 C.ar  1 <1>  -0.1500 
 15 C       -6.5990    -2.2290    -1.1120 C.3   1 <1>  -0.1600 
 16 C       -7.1740     3.3200     0.8070 C.ar  1 <1>  -0.1500 
 17 C       -5.4080     4.0390    -0.6430 C.ar  1 <1>  -0.1500 
 18 C       -7.8220    -1.3050    -1.1620 C.3   1 <1>  -0.2400 
 19 C       -6.7120     4.1530    -0.1950 C.ar  1 <1>  -0.1500 
 20 H       -0.7510    -1.1930    -1.5890 H     1 <1>   0.1500 
 21 H       -2.5310    -0.8210     1.7050 H     1 <1>   0.0800 
 22 H       -2.8270    -1.6420     0.1900 H     1 <1>   0.0800 
 23 H        0.8560     0.8650    -1.9510 H     1 <1>   0.1500 
 24 H        0.6180     3.1660     0.9880 H     1 <1>   0.0800 
 25 H       -0.5120     3.8530    -0.1580 H     1 <1>   0.0800 
 26 H        1.0700     3.3330    -0.6930 H     1 <1>   0.0800 
 27 H       -3.8820     0.6050    -0.4220 H     1 <1>   0.4500 
 28 H       -3.1470     1.6400     1.6780 H     1 <1>   0.0800 
 29 H       -4.5010     0.8070     2.4090 H     1 <1>   0.0800 
 30 H       -6.0860    -0.0610     0.4470 H     1 <1>   0.0800 
 31 H       -5.2770    -1.4060     1.2120 H     1 <1>   0.0800 
 32 H       -4.4750    -2.1680    -1.0050 H     1 <1>   0.0800 
 33 H       -5.1860    -0.7610    -1.7560 H     1 <1>   0.0800 
 34 H       -6.7160     1.7360     2.1430 H     1 <1>   0.1500 
 35 H       -3.5520     3.0210    -0.4490 H     1 <1>   0.1500 
 36 H       -6.7200    -2.9420    -0.3120 H     1 <1>   0.0800 
 37 H       -6.5570    -2.7870    -2.0330 H     1 <1>   0.0800 
 38 H       -8.1880     3.4190     1.1570 H     1 <1>   0.1500 
 39 H       -5.0500     4.6950    -1.4190 H     1 <1>   0.1500 
 40 H       -7.9770    -0.7980    -0.2260 H     1 <1>   0.0800 
 41 H       -8.7040    -1.8850    -1.3730 H     1 <1>   0.0800 
 42 H       -7.7130    -0.5710    -1.9430 H     1 <1>   0.0800 
 43 H       -7.3650     4.8940    -0.6250 H     1 <1>   0.1500 
@<TRIPOS>BOND
  1   1   2  1   
  2   1   3  1   
  3   2   4  2   
  4   2   5  1   
  5   3   6  2   
  6   3   7  1   
  7   4   6  1   
  8   4  20  1   
  9   5   8  1   
 10   5  21  1   
 11   5  22  1   
 12   6  23  1   
 13   7  24  1   
 14   7  25  1   
 15   7  26  1   
 16   8   9  1   
 17   8  10  1   
 18   8  27  1   
 19   9  11  1   
 20   9  28  1   
 21   9  29  1   
 22  10  12  1   
 23  10  30  1   
 24  10  31  1   
 25  11  13  ar  
 26  11  14  ar  
 27  12  15  1   
 28  12  32  1   
 29  12  33  1   
 30  13  16  ar  
 31  13  34  1   
 32  14  17  ar  
 33  14  35  1   
 34  15  18  1   
 35  15  36  1   
 36  15  37  1   
 37  16  19  ar  
 38  16  38  1   
 39  17  19  ar  
 40  17  39  1   
 41  18  40  1   
 42  18  41  1   
 43  18  42  1   
 44  19  43  1   
@<TRIPOS>SUBSTRUCTURE
  1 ****   8 GROUP 4 **** **** 0

# MOE 2024.06 (io_trps.svl 2023.06)
