@<TRIPOS>MOLECULE
NONAME
42 43 1 0 0 
SMALL
USER_CHARGES


@<TRIPOS>ATOM
  1 CL      -0.1110     0.1760     1.0550 Cl    1 <1>  -0.1770 
  2 C        0.2340     1.7640     0.4180 C.ar  1 <1>   0.1770 
  3 C        1.5480     2.1780     0.3190 C.ar  1 <1>  -0.1500 
  4 C       -0.8150     2.5750     0.0250 C.ar  1 <1>  -0.1500 
  5 C        1.8200     3.4450    -0.1890 C.ar  1 <1>   0.0830 
  6 C       -0.5420     3.8350    -0.4800 C.ar  1 <1>  -0.1500 
  7 O        3.0720     3.9480    -0.3280 O.3   1 <1>  -0.3630 
  8 C        0.7710     4.2630    -0.5850 C.ar  1 <1>  -0.1500 
  9 C        4.2070     3.2010     0.0420 C.3   1 <1>   0.1200 
 10 C        5.4420     4.0570    -0.2430 C.3   1 <1>  -0.1600 
 11 C        6.7380     3.3240     0.1330 C.3   1 <1>  -0.1600 
 12 C        7.9650     4.1980    -0.1650 C.3   1 <1>  -0.1600 
 13 C        9.2590     3.4710     0.2060 C.3   1 <1>   0.3430 
 14 N       10.4410     4.2760    -0.2010 N.4   1 <1>  -0.9590 
 15 C       11.7150     3.4800    -0.1790 C.3   1 <1>   0.3430 
 16 C       10.6180     5.5570     0.5710 C.3   1 <1>   0.3430 
 17 C       12.9220     4.3320    -0.6360 C.3   1 <1>   0.1200 
 18 C       11.9020     6.3060     0.1440 C.3   1 <1>   0.1200 
 19 O       12.5390     5.6510    -0.9200 O.3   1 <1>  -0.5600 
 20 H        2.3220     1.5090     0.6380 H     1 <1>   0.1500 
 21 H       -1.8270     2.2220     0.1150 H     1 <1>   0.1500 
 22 H       -1.3470     4.4790    -0.7910 H     1 <1>   0.1500 
 23 H        0.9920     5.2400    -0.9770 H     1 <1>   0.1500 
 24 H        4.2230     2.2970    -0.5420 H     1 <1>   0.0800 
 25 H        4.1330     2.9710     1.0910 H     1 <1>   0.0800 
 26 H        5.3650     4.9700     0.3210 H     1 <1>   0.0800 
 27 H        5.4560     4.3010    -1.2920 H     1 <1>   0.0800 
 28 H        6.7990     2.4060    -0.4280 H     1 <1>   0.0800 
 29 H        6.7110     3.0770     1.1820 H     1 <1>   0.0800 
 30 H        7.8790     5.1110     0.3970 H     1 <1>   0.0800 
 31 H        7.9740     4.4350    -1.2150 H     1 <1>   0.0800 
 32 H        9.2790     2.5210    -0.3050 H     1 <1>   0.0800 
 33 H        9.2840     3.2830     1.2670 H     1 <1>   0.0800 
 34 H       10.3330     4.5710    -1.1840 H     1 <1>   0.4500 
 35 H       11.6270     2.6230    -0.8280 H     1 <1>   0.0800 
 36 H       11.9030     3.1140     0.8170 H     1 <1>   0.0800 
 37 H       10.6690     5.3490     1.6260 H     1 <1>   0.0800 
 38 H        9.7710     6.2030     0.4090 H     1 <1>   0.0800 
 39 H       13.3520     3.9170    -1.5310 H     1 <1>   0.0800 
 40 H       13.6850     4.3510     0.1240 H     1 <1>   0.0800 
 41 H       12.5930     6.3800     0.9670 H     1 <1>   0.0800 
 42 H       11.6590     7.3030    -0.1810 H     1 <1>   0.0800 
@<TRIPOS>BOND
  1   1   2  1   
  2   2   3  ar  
  3   2   4  ar  
  4   3   5  ar  
  5   3  20  1   
  6   4   6  ar  
  7   4  21  1   
  8   5   7  1   
  9   5   8  ar  
 10   6   8  ar  
 11   6  22  1   
 12   7   9  1   
 13   8  23  1   
 14   9  10  1   
 15   9  24  1   
 16   9  25  1   
 17  10  11  1   
 18  10  26  1   
 19  10  27  1   
 20  11  12  1   
 21  11  28  1   
 22  11  29  1   
 23  12  13  1   
 24  12  30  1   
 25  12  31  1   
 26  13  14  1   
 27  13  32  1   
 28  13  33  1   
 29  14  15  1   
 30  14  16  1   
 31  14  34  1   
 32  15  17  1   
 33  15  35  1   
 34  15  36  1   
 35  16  18  1   
 36  16  37  1   
 37  16  38  1   
 38  17  19  1   
 39  17  39  1   
 40  17  40  1   
 41  18  19  1   
 42  18  41  1   
 43  18  42  1   
@<TRIPOS>SUBSTRUCTURE
  1 ****  10 GROUP 4 **** **** 0

# MOE 2024.06 (io_trps.svl 2023.06)
