@<TRIPOS>MOLECULE
NONAME
34 36 1 0 0 
SMALL
USER_CHARGES


@<TRIPOS>ATOM
  1 S       -3.4830     0.4830     0.3900 S.3   1 <1>  -0.4600 
  2 C       -4.8610     1.1160    -0.6070 C.3   1 <1>   0.4500 
  3 C       -2.6190     2.0550     0.6130 C.3   1 <1>   0.1310 
  4 N       -4.8350     2.5730    -0.2490 N.am  1 <1>  -0.6600 
  5 C       -6.2320     0.3990    -0.2690 C.3   1 <1>   0.6470 
  6 C       -3.7210     3.0590     0.3740 C.2   1 <1>   0.5690 
  7 C       -6.1340     3.3040    -0.2030 C.3   1 <1>   0.1400 
  8 N       -6.8860     1.0970     0.8770 N.4   1 <1>  -0.9060 
  9 C       -6.0470    -1.0920     0.0860 C.ar  1 <1>  -0.1440 
 10 C       -7.2150     0.4590    -1.4520 C.3   1 <1>  -0.2400 
 11 O       -3.6390     4.1880     0.7850 O.2   1 <1>  -0.5700 
 12 C       -7.1620     2.5730     0.6960 C.3   1 <1>   0.3430 
 13 C       -5.4460    -1.9340    -0.8500 C.ar  1 <1>  -0.1500 
 14 C       -6.4550    -1.6560     1.2970 C.ar  1 <1>  -0.1500 
 15 C       -5.2640    -3.2800    -0.5930 C.ar  1 <1>  -0.1500 
 16 C       -6.2720    -3.0040     1.5520 C.ar  1 <1>  -0.1500 
 17 C       -5.6780    -3.8180     0.6080 C.ar  1 <1>  -0.1500 
 18 H       -4.5870     0.9650    -1.6370 H     1 <1>   0.0800 
 19 H       -1.8410     2.1320    -0.1240 H     1 <1>   0.0800 
 20 H       -2.2310     2.1010     1.6130 H     1 <1>   0.0800 
 21 H       -6.5180     3.4040    -1.2030 H     1 <1>   0.0800 
 22 H       -5.9910     4.3050     0.1700 H     1 <1>   0.0800 
 23 H       -6.2130     0.9880     1.6470 H     1 <1>   0.4500 
 24 H       -7.7300     0.5750     1.1280 H     1 <1>   0.4500 
 25 H       -7.4410     1.4590    -1.7650 H     1 <1>   0.0800 
 26 H       -8.1320    -0.0460    -1.2020 H     1 <1>   0.0800 
 27 H       -6.7980    -0.0450    -2.3060 H     1 <1>   0.0800 
 28 H       -8.1420     2.7120     0.2680 H     1 <1>   0.0800 
 29 H       -7.1700     3.0510     1.6620 H     1 <1>   0.0800 
 30 H       -5.1000    -1.5640    -1.7990 H     1 <1>   0.1500 
 31 H       -6.9190    -1.0920     2.0830 H     1 <1>   0.1500 
 32 H       -4.7970    -3.9140    -1.3280 H     1 <1>   0.1500 
 33 H       -6.5900    -3.4280     2.4900 H     1 <1>   0.1500 
 34 H       -5.5360    -4.8670     0.8090 H     1 <1>   0.1500 
@<TRIPOS>BOND
  1   1   2  1   
  2   1   3  1   
  3   2   4  1   
  4   2   5  1   
  5   2  18  1   
  6   3   6  1   
  7   3  19  1   
  8   3  20  1   
  9   4   6  am  
 10   4   7  1   
 11   5   8  1   
 12   5   9  1   
 13   5  10  1   
 14   6  11  2   
 15   7  12  1   
 16   7  21  1   
 17   7  22  1   
 18   8  12  1   
 19   8  23  1   
 20   8  24  1   
 21   9  13  ar  
 22   9  14  ar  
 23  10  25  1   
 24  10  26  1   
 25  10  27  1   
 26  12  28  1   
 27  12  29  1   
 28  13  15  ar  
 29  13  30  1   
 30  14  16  ar  
 31  14  31  1   
 32  15  17  ar  
 33  15  32  1   
 34  16  17  ar  
 35  16  33  1   
 36  17  34  1   
@<TRIPOS>SUBSTRUCTURE
  1 ****   5 GROUP 4 **** **** 0

# MOE 2024.06 (io_trps.svl 2023.06)
