@<TRIPOS>MOLECULE
NONAME
40 41 1 0 0 
SMALL
USER_CHARGES


@<TRIPOS>ATOM
  1 CL      -2.0070     1.2020    -2.0220 Cl    1 <1>  -0.1770 
  2 C       -1.0460     2.3730    -1.1520 C.ar  1 <1>   0.1770 
  3 C       -1.3360     2.6470     0.1780 C.ar  1 <1>  -0.1440 
  4 C       -0.0180     3.0110    -1.8190 C.ar  1 <1>  -0.1500 
  5 C       -0.5650     3.5870     0.8540 C.ar  1 <1>  -0.1500 
  6 C       -2.4690     1.9230     0.8820 C.3   1 <1>   0.4870 
  7 C        0.7320     3.9430    -1.1290 C.ar  1 <1>   0.1770 
  8 C        0.4690     4.2360     0.1970 C.ar  1 <1>  -0.1500 
  9 N       -3.7750     2.3570     0.3100 N.4   1 <1>  -0.9590 
 10 CL       2.0330     4.7660    -1.9450 Cl    1 <1>  -0.1770 
 11 C       -4.0290     3.8130     0.5120 C.3   1 <1>   0.3430 
 12 C       -4.8930     1.5100     0.8090 C.3   1 <1>   0.3430 
 13 C       -5.2940     4.2180    -0.2410 C.3   1 <1>  -0.1600 
 14 C       -6.1760     1.8690     0.0610 C.3   1 <1>  -0.1600 
 15 C       -6.5110     3.3680     0.1710 C.3   1 <1>  -0.0190 
 16 C       -7.7360     3.7140    -0.6710 C.2   1 <1>   0.6590 
 17 O       -7.7100     3.6320    -1.8710 O.2   1 <1>  -0.5700 
 18 O       -8.8110     4.0980    -0.0010 O.3   1 <1>  -0.4300 
 19 C      -10.0060     4.4400    -0.6660 C.3   1 <1>   0.1200 
 20 C      -11.0370     4.8320     0.3870 C.3   1 <1>  -0.2400 
 21 H        0.1990     2.7910    -2.8490 H     1 <1>   0.1500 
 22 H       -0.7520     3.8230     1.8890 H     1 <1>   0.1500 
 23 H       -2.4390     2.1310     1.9390 H     1 <1>   0.0800 
 24 H       -2.3440     0.8610     0.7430 H     1 <1>   0.0800 
 25 H        1.0770     4.9660     0.7060 H     1 <1>   0.1500 
 26 H       -3.7040     2.2010    -0.7080 H     1 <1>   0.4500 
 27 H       -3.1960     4.3920     0.1430 H     1 <1>   0.0800 
 28 H       -4.1490     4.0230     1.5630 H     1 <1>   0.0800 
 29 H       -5.0340     1.6720     1.8660 H     1 <1>   0.0800 
 30 H       -4.6680     0.4670     0.6500 H     1 <1>   0.0800 
 31 H       -5.1180     4.1220    -1.3000 H     1 <1>   0.0800 
 32 H       -5.5020     5.2560    -0.0470 H     1 <1>   0.0800 
 33 H       -6.9900     1.2910     0.4630 H     1 <1>   0.0800 
 34 H       -6.0700     1.5910    -0.9750 H     1 <1>   0.0800 
 35 H       -6.7490     3.5900     1.1980 H     1 <1>   0.0800 
 36 H      -10.3390     3.5880    -1.2340 H     1 <1>   0.0800 
 37 H       -9.8030     5.2620    -1.3330 H     1 <1>   0.0800 
 38 H      -11.2250     4.0070     1.0510 H     1 <1>   0.0800 
 39 H      -11.9610     5.1000    -0.0940 H     1 <1>   0.0800 
 40 H      -10.6900     5.6790     0.9520 H     1 <1>   0.0800 
@<TRIPOS>BOND
  1   1   2  1   
  2   2   3  ar  
  3   2   4  ar  
  4   3   5  ar  
  5   3   6  1   
  6   4   7  ar  
  7   4  21  1   
  8   5   8  ar  
  9   5  22  1   
 10   6   9  1   
 11   6  23  1   
 12   6  24  1   
 13   7   8  ar  
 14   7  10  1   
 15   8  25  1   
 16   9  11  1   
 17   9  12  1   
 18   9  26  1   
 19  11  13  1   
 20  11  27  1   
 21  11  28  1   
 22  12  14  1   
 23  12  29  1   
 24  12  30  1   
 25  13  15  1   
 26  13  31  1   
 27  13  32  1   
 28  14  15  1   
 29  14  33  1   
 30  14  34  1   
 31  15  16  1   
 32  15  35  1   
 33  16  17  2   
 34  16  18  1   
 35  18  19  1   
 36  19  20  1   
 37  19  36  1   
 38  19  37  1   
 39  20  38  1   
 40  20  39  1   
 41  20  40  1   
@<TRIPOS>SUBSTRUCTURE
  1 ****  11 GROUP 4 **** **** 0

# MOE 2024.06 (io_trps.svl 2023.06)
