@<TRIPOS>MOLECULE
NONAME
34 34 1 0 0 
SMALL
USER_CHARGES


@<TRIPOS>ATOM
  1 CL       1.1140     1.3730    -1.8060 Cl    1 <1>  -0.1770 
  2 C        2.2310     1.4870    -0.4660 C.ar  1 <1>   0.1770 
  3 C        1.8490     2.1170     0.7080 C.ar  1 <1>  -0.1440 
  4 C        3.4860     0.9340    -0.6190 C.ar  1 <1>  -0.1500 
  5 C        2.7680     2.1780     1.7430 C.ar  1 <1>  -0.1500 
  6 C        0.4630     2.7240     0.8680 C.3   1 <1>  -0.0960 
  7 C        4.4250     0.9980     0.4110 C.ar  1 <1>   0.0860 
  8 C        4.0280     1.6260     1.5940 C.ar  1 <1>  -0.1500 
  9 C        5.7610     0.4380     0.2740 C.2   1 <1>   0.5440 
 10 O        6.4180     0.1260     1.2480 O.2   1 <1>  -0.5700 
 11 N        6.3440     0.2740    -0.9540 N.am  1 <1>  -0.7300 
 12 C        7.5180    -0.5980    -1.2660 C.3   1 <1>   0.1400 
 13 C        8.8690     0.0940    -0.9840 C.3   1 <1>   0.3430 
 14 N        9.0430     0.3920     0.4690 N.4   1 <1>  -0.9590 
 15 C        9.8590     1.6160     0.7120 C.3   1 <1>   0.2630 
 16 C        9.5510    -0.7780     1.2430 C.3   1 <1>   0.2630 
 17 H        3.7160     0.4460    -1.5470 H     1 <1>   0.1500 
 18 H        2.5050     2.6540     2.6730 H     1 <1>   0.1500 
 19 H       -0.2880     1.9630     0.7510 H     1 <1>   0.0800 
 20 H        0.3050     3.4830     0.1220 H     1 <1>   0.0800 
 21 H        0.3450     3.1710     1.8390 H     1 <1>   0.0800 
 22 H        4.7220     1.6820     2.4150 H     1 <1>   0.1500 
 23 H        5.8200     0.6040    -1.7700 H     1 <1>   0.3700 
 24 H        7.4760    -0.8690    -2.3070 H     1 <1>   0.0800 
 25 H        7.4500    -1.5070    -0.6920 H     1 <1>   0.0800 
 26 H        8.8990     1.0100    -1.5510 H     1 <1>   0.0800 
 27 H        9.6770    -0.5320    -1.3250 H     1 <1>   0.0800 
 28 H        8.0730     0.5630     0.8270 H     1 <1>   0.4500 
 29 H       10.8650     1.4740     0.3530 H     1 <1>   0.0800 
 30 H        9.8940     1.8340     1.7670 H     1 <1>   0.0800 
 31 H        9.4230     2.4610     0.2040 H     1 <1>   0.0800 
 32 H       10.5370    -1.0540     0.9090 H     1 <1>   0.0800 
 33 H        8.8890    -1.6200     1.1200 H     1 <1>   0.0800 
 34 H        9.5940    -0.5370     2.2930 H     1 <1>   0.0800 
@<TRIPOS>BOND
  1   1   2  1   
  2   2   3  ar  
  3   2   4  ar  
  4   3   5  ar  
  5   3   6  1   
  6   4   7  ar  
  7   4  17  1   
  8   5   8  ar  
  9   5  18  1   
 10   6  19  1   
 11   6  20  1   
 12   6  21  1   
 13   7   8  ar  
 14   7   9  1   
 15   8  22  1   
 16   9  10  2   
 17   9  11  am  
 18  11  12  1   
 19  11  23  1   
 20  12  13  1   
 21  12  24  1   
 22  12  25  1   
 23  13  14  1   
 24  13  26  1   
 25  13  27  1   
 26  14  15  1   
 27  14  16  1   
 28  14  28  1   
 29  15  29  1   
 30  15  30  1   
 31  15  31  1   
 32  16  32  1   
 33  16  33  1   
 34  16  34  1   
@<TRIPOS>SUBSTRUCTURE
  1 ****   9 GROUP 4 **** **** 0

# MOE 2024.06 (io_trps.svl 2023.06)
