@<TRIPOS>MOLECULE
NONAME
35 37 1 0 0 
SMALL
USER_CHARGES


@<TRIPOS>ATOM
  1 O       -0.1760    -3.7550     2.0410 O.2   1 <1>  -0.5700 
  2 C       -0.0290    -2.9570     1.1440 C.2   1 <1>   0.5690 
  3 N       -0.9050    -1.9130     0.9640 N.am  1 <1>  -0.6600 
  4 C        1.1610    -3.1800     0.2260 C.3   1 <1>   0.1570 
  5 C       -2.0340    -1.6770     1.9170 C.3   1 <1>   0.1400 
  6 C       -0.7990    -0.8510    -0.0850 C.3   1 <1>   0.1400 
  7 N        2.1480    -2.0850     0.3460 N.pl3 1 <1>   0.0480 
  8 C       -3.3310    -1.3470     1.1620 C.3   1 <1>   0.1200 
  9 C       -2.1710    -0.5580    -0.7170 C.3   1 <1>   0.1200 
 10 C        2.6480    -1.3180    -0.6820 C.ar  1 <1>  -0.1520 
 11 C        2.6920    -1.6210     1.5080 C.2   1 <1>  -0.3020 
 12 O       -3.1260    -0.2910     0.2670 O.3   1 <1>  -0.5600 
 13 C        3.5000    -0.3610    -0.1380 C.ar  1 <1>   0.0000 
 14 C        2.4320    -1.3720    -2.0630 C.ar  1 <1>  -0.1500 
 15 C        3.5230    -0.5720     1.2620 C.2   1 <1>   0.0190 
 16 C        4.1330     0.5630    -0.9770 C.ar  1 <1>  -0.1500 
 17 C        3.0610    -0.4580    -2.8760 C.ar  1 <1>  -0.1500 
 18 C        4.2940     0.2080     2.1830 C.1   1 <1>   0.5380 
 19 C        3.9100     0.5120    -2.3330 C.ar  1 <1>  -0.1500 
 20 N        4.9110     0.8350     2.9100 N.1   1 <1>  -0.5570 
 21 H        0.8170    -3.2560    -0.7860 H     1 <1>   0.0800 
 22 H        1.6430    -4.1020     0.4920 H     1 <1>   0.0800 
 23 H       -1.7830    -0.8550     2.5640 H     1 <1>   0.0800 
 24 H       -2.1980    -2.5440     2.5330 H     1 <1>   0.0800 
 25 H       -0.1220    -1.1420    -0.8650 H     1 <1>   0.0800 
 26 H       -0.4190     0.0510     0.3630 H     1 <1>   0.0800 
 27 H       -4.0970    -1.0470     1.8540 H     1 <1>   0.0800 
 28 H       -3.6790    -2.2050     0.6120 H     1 <1>   0.0800 
 29 H       -2.5060    -1.3970    -1.3030 H     1 <1>   0.0800 
 30 H       -2.1080     0.3050    -1.3550 H     1 <1>   0.0800 
 31 H        2.4550    -2.0640     2.4610 H     1 <1>   0.1500 
 32 H        1.7860    -2.1180    -2.4890 H     1 <1>   0.1500 
 33 H        4.7880     1.3040    -0.5520 H     1 <1>   0.1500 
 34 H        2.9080    -0.4800    -3.9420 H     1 <1>   0.1500 
 35 H        4.3900     1.2160    -2.9900 H     1 <1>   0.1500 
@<TRIPOS>BOND
  1   1   2  2   
  2   2   3  am  
  3   2   4  1   
  4   3   5  1   
  5   3   6  1   
  6   4   7  1   
  7   4  21  1   
  8   4  22  1   
  9   5   8  1   
 10   5  23  1   
 11   5  24  1   
 12   6   9  1   
 13   6  25  1   
 14   6  26  1   
 15   7  10  1   
 16   7  11  1   
 17   8  12  1   
 18   8  27  1   
 19   8  28  1   
 20   9  12  1   
 21   9  29  1   
 22   9  30  1   
 23  10  13  ar  
 24  10  14  ar  
 25  11  15  2   
 26  11  31  1   
 27  13  15  1   
 28  13  16  ar  
 29  14  17  ar  
 30  14  32  1   
 31  15  18  1   
 32  16  19  ar  
 33  16  33  1   
 34  17  19  ar  
 35  17  34  1   
 36  18  20  3   
 37  19  35  1   
@<TRIPOS>SUBSTRUCTURE
  1 ****   7 GROUP 4 **** **** 0

# MOE 2024.06 (io_trps.svl 2023.06)
