@<TRIPOS>MOLECULE
NONAME
50 51 1 0 0 
SMALL
USER_CHARGES


@<TRIPOS>ATOM
  1 O        4.3810    -5.4370    -0.5420 O.2   1 <1>  -0.5700 
  2 C        3.5250    -4.6980    -0.1000 C.2   1 <1>   0.7800 
  3 O        3.6750    -4.1390     1.0990 O.3   1 <1>  -0.4300 
  4 N        2.3680    -4.4330    -0.7850 N.am  1 <1>  -0.6600 
  5 C        4.8460    -4.3550     1.8540 C.3   1 <1>   0.1200 
  6 C        2.0960    -5.0400    -2.1210 C.3   1 <1>   0.1400 
  7 C        1.2210    -3.6790    -0.2010 C.3   1 <1>   0.1400 
  8 C        4.7140    -3.5840     3.1640 C.3   1 <1>  -0.2400 
  9 C        0.8480    -5.9390    -2.0530 C.3   1 <1>   0.3430 
 10 C       -0.0320    -4.5750    -0.1410 C.3   1 <1>   0.3430 
 11 N       -0.3380    -5.2180    -1.4690 N.4   1 <1>  -0.9590 
 12 C       -1.5760    -6.0630    -1.4600 C.3   1 <1>   0.3430 
 13 C       -2.8440    -5.2040    -1.6770 C.3   1 <1>   0.2000 
 14 O       -2.4950    -4.0300    -2.3540 O.3   1 <1>  -0.6800 
 15 C       -3.5620    -4.8370    -0.3690 C.3   1 <1>   0.1200 
 16 O       -4.5050    -3.8220    -0.6390 O.3   1 <1>  -0.3630 
 17 C       -5.1970    -3.2120     0.3590 C.ar  1 <1>   0.0820 
 18 C       -5.9220    -2.0680     0.0360 C.ar  1 <1>  -0.1440 
 19 C       -5.2020    -3.6840     1.6710 C.ar  1 <1>  -0.1500 
 20 C       -6.6310    -1.4050     1.0250 C.ar  1 <1>  -0.1500 
 21 C       -5.9480    -1.5330    -1.3900 C.3   1 <1>  -0.0970 
 22 C       -5.9150    -3.0140     2.6490 C.ar  1 <1>  -0.1500 
 23 C       -6.6270    -1.8730     2.3260 C.ar  1 <1>  -0.1500 
 24 H        5.6900    -4.0060     1.2830 H     1 <1>   0.0800 
 25 H        4.9470    -5.4130     2.0360 H     1 <1>   0.0800 
 26 H        2.9380    -5.6270    -2.4500 H     1 <1>   0.0800 
 27 H        1.9460    -4.2570    -2.8430 H     1 <1>   0.0800 
 28 H        1.0190    -2.8140    -0.8090 H     1 <1>   0.0800 
 29 H        1.4530    -3.3310     0.7900 H     1 <1>   0.0800 
 30 H        4.6060    -2.5330     2.9660 H     1 <1>   0.0800 
 31 H        5.5980    -3.7300     3.7590 H     1 <1>   0.0800 
 32 H        3.8660    -3.9380     3.7210 H     1 <1>   0.0800 
 33 H        1.0840    -6.7990    -1.4480 H     1 <1>   0.0800 
 34 H        0.6140    -6.2870    -3.0460 H     1 <1>   0.0800 
 35 H       -0.8680    -3.9750     0.1770 H     1 <1>   0.0800 
 36 H        0.1340    -5.3390     0.6020 H     1 <1>   0.0800 
 37 H       -0.6000    -4.4430    -2.1120 H     1 <1>   0.4500 
 38 H       -1.6510    -6.6320    -0.5480 H     1 <1>   0.0800 
 39 H       -1.5250    -6.7670    -2.2750 H     1 <1>   0.0800 
 40 H       -3.5370    -5.7480    -2.2960 H     1 <1>   0.0800 
 41 H       -3.2780    -3.4290    -2.3440 H     1 <1>   0.4000 
 42 H       -2.8700    -4.4620     0.3630 H     1 <1>   0.0800 
 43 H       -4.0850    -5.6900     0.0280 H     1 <1>   0.0800 
 44 H       -4.6700    -4.5690     1.9560 H     1 <1>   0.1500 
 45 H       -7.1930    -0.5180     0.7890 H     1 <1>   0.1500 
 46 H       -6.2910    -2.2990    -2.0610 H     1 <1>   0.0800 
 47 H       -4.9610    -1.2260    -1.6830 H     1 <1>   0.0800 
 48 H       -6.6080    -0.6890    -1.4740 H     1 <1>   0.0800 
 49 H       -5.9200    -3.3770     3.6620 H     1 <1>   0.1500 
 50 H       -7.1820    -1.3510     3.0870 H     1 <1>   0.1500 
@<TRIPOS>BOND
  1   1   2  2   
  2   2   3  1   
  3   2   4  am  
  4   3   5  1   
  5   4   6  1   
  6   4   7  1   
  7   5   8  1   
  8   5  24  1   
  9   5  25  1   
 10   6   9  1   
 11   6  26  1   
 12   6  27  1   
 13   7  10  1   
 14   7  28  1   
 15   7  29  1   
 16   8  30  1   
 17   8  31  1   
 18   8  32  1   
 19   9  11  1   
 20   9  33  1   
 21   9  34  1   
 22  10  11  1   
 23  10  35  1   
 24  10  36  1   
 25  11  12  1   
 26  11  37  1   
 27  12  13  1   
 28  12  38  1   
 29  12  39  1   
 30  13  14  1   
 31  13  15  1   
 32  13  40  1   
 33  14  41  1   
 34  15  16  1   
 35  15  42  1   
 36  15  43  1   
 37  16  17  1   
 38  17  18  ar  
 39  17  19  ar  
 40  18  20  ar  
 41  18  21  1   
 42  19  22  ar  
 43  19  44  1   
 44  20  23  ar  
 45  20  45  1   
 46  21  46  1   
 47  21  47  1   
 48  21  48  1   
 49  22  23  ar  
 50  22  49  1   
 51  23  50  1   
@<TRIPOS>SUBSTRUCTURE
  1 ****  10 GROUP 4 **** **** 0

# MOE 2024.06 (io_trps.svl 2023.06)
