@<TRIPOS>MOLECULE
NONAME
35 36 1 0 0 
SMALL
USER_CHARGES


@<TRIPOS>ATOM
  1 S       -0.5840     0.0730    -1.2360 S.o2  1 <1>   1.3330 
  2 O       -0.7650     1.1540    -2.1780 O.2   1 <1>  -0.6500 
  3 O       -0.7560    -1.2970    -1.6600 O.2   1 <1>  -0.6500 
  4 N       -1.6110     0.3500     0.0810 N.am  1 <1>  -0.8490 
  5 C        1.0310     0.2080    -0.5010 C.3   1 <1>  -0.1350 
  6 C       -1.8180     1.7890     0.3480 C.3   1 <1>   0.1960 
  7 C       -2.9140    -0.3230    -0.1000 C.3   1 <1>   0.1960 
  8 C       -2.7060     2.0240     1.5820 C.3   1 <1>   0.1400 
  9 C       -3.8300    -0.1340     1.1220 C.3   1 <1>   0.1400 
 10 N       -4.0120     1.3210     1.4150 N.am  1 <1>  -0.6600 
 11 C       -5.1950     2.0140     1.2820 C.2   1 <1>   0.5690 
 12 O       -5.2190     3.2150     1.4510 O.2   1 <1>  -0.5700 
 13 C       -6.5120     1.2820     0.9150 C.3   1 <1>   0.2610 
 14 O       -6.4150     0.6650    -0.3430 O.3   1 <1>  -0.5600 
 15 C       -7.7470     2.1720     0.7600 C.3   1 <1>  -0.1600 
 16 C       -6.7430     1.5770    -1.3430 C.3   1 <1>   0.1200 
 17 C       -7.7070     2.5760    -0.7060 C.3   1 <1>  -0.1600 
 18 H        1.1790     1.1900    -0.0990 H     1 <1>   0.0800 
 19 H        1.7850     0.0220    -1.2400 H     1 <1>   0.0800 
 20 H        1.1360    -0.5110     0.2870 H     1 <1>   0.0800 
 21 H       -2.2860     2.2590    -0.5030 H     1 <1>   0.0800 
 22 H       -0.8690     2.2690     0.5080 H     1 <1>   0.0800 
 23 H       -2.7600    -1.3790    -0.2430 H     1 <1>   0.0800 
 24 H       -3.4090     0.0600    -0.9780 H     1 <1>   0.0800 
 25 H       -2.8560     3.0820     1.7150 H     1 <1>   0.0800 
 26 H       -2.2090     1.6490     2.4590 H     1 <1>   0.0800 
 27 H       -3.3780    -0.6110     1.9740 H     1 <1>   0.0800 
 28 H       -4.7690    -0.6220     0.9390 H     1 <1>   0.0800 
 29 H       -6.6950     0.5190     1.6490 H     1 <1>   0.0800 
 30 H       -7.7420     3.0160     1.4270 H     1 <1>   0.0800 
 31 H       -8.6250     1.5820     0.9550 H     1 <1>   0.0800 
 32 H       -7.1900     1.0430    -2.1630 H     1 <1>   0.0800 
 33 H       -5.8370     2.0630    -1.6660 H     1 <1>   0.0800 
 34 H       -7.3170     3.5730    -0.8190 H     1 <1>   0.0800 
 35 H       -8.6810     2.5250    -1.1600 H     1 <1>   0.0800 
@<TRIPOS>BOND
  1   1   2  2   
  2   1   3  2   
  3   1   4  am  
  4   1   5  1   
  5   4   6  1   
  6   4   7  1   
  7   5  18  1   
  8   5  19  1   
  9   5  20  1   
 10   6   8  1   
 11   6  21  1   
 12   6  22  1   
 13   7   9  1   
 14   7  23  1   
 15   7  24  1   
 16   8  10  1   
 17   8  25  1   
 18   8  26  1   
 19   9  10  1   
 20   9  27  1   
 21   9  28  1   
 22  10  11  am  
 23  11  12  2   
 24  11  13  1   
 25  13  14  1   
 26  13  15  1   
 27  13  29  1   
 28  14  16  1   
 29  15  17  1   
 30  15  30  1   
 31  15  31  1   
 32  16  17  1   
 33  16  32  1   
 34  16  33  1   
 35  17  34  1   
 36  17  35  1   
@<TRIPOS>SUBSTRUCTURE
  1 ****  10 GROUP 4 **** **** 0

# MOE 2024.06 (io_trps.svl 2023.06)
