@<TRIPOS>MOLECULE
NONAME
51 52 1 0 0 
SMALL
USER_CHARGES


@<TRIPOS>ATOM
  1 O        2.1780    -1.7230     1.9910 O.2   1 <1>  -0.5700 
  2 C        2.2860    -1.9100     0.8000 C.2   1 <1>   0.5690 
  3 N        1.4080    -2.7180     0.1180 N.am  1 <1>  -0.6600 
  4 C        3.4520    -1.2040     0.1080 C.3   1 <1>  -0.0190 
  5 C        1.5560    -3.1610    -1.3000 C.3   1 <1>   0.1400 
  6 C        0.2730    -3.3530     0.8520 C.3   1 <1>   0.1400 
  7 C        4.3940    -0.6330     1.1780 C.3   1 <1>   0.3430 
  8 C        2.9750    -0.0810    -0.8450 C.3   1 <1>  -0.1600 
  9 C        0.4810    -2.5250    -2.1780 C.3   1 <1>  -0.2400 
 10 C       -0.8600    -2.3460     1.0500 C.3   1 <1>  -0.2400 
 11 N        5.6050     0.0490     0.5970 N.4   1 <1>  -0.9590 
 12 C        4.0230     1.0310    -1.0430 C.3   1 <1>  -0.1600 
 13 C        5.4480     0.5260    -0.8150 C.3   1 <1>   0.3430 
 14 C        6.8300    -0.7810     0.7590 C.3   1 <1>   0.4860 
 15 C        8.0390     0.0700     0.4210 C.ar  1 <1>  -0.1440 
 16 C        8.6910    -0.0930    -0.7930 C.ar  1 <1>  -0.1500 
 17 C        8.4990     1.0230     1.3200 C.ar  1 <1>  -0.1500 
 18 C        9.7810     0.6980    -1.1070 C.ar  1 <1>  -0.1500 
 19 C        9.5900     1.8140     1.0050 C.ar  1 <1>  -0.1500 
 20 C       10.2360     1.6560    -0.2180 C.ar  1 <1>   0.0820 
 21 O       11.3060     2.3900    -0.6080 O.3   1 <1>  -0.3620 
 22 C       11.8940     3.3510     0.2410 C.3   1 <1>   0.0400 
 23 H        4.0080    -1.9420    -0.4390 H     1 <1>   0.0800 
 24 H        1.4730    -4.2350    -1.3480 H     1 <1>   0.0800 
 25 H        2.5240    -2.9010    -1.6840 H     1 <1>   0.0800 
 26 H        0.6160    -3.6980     1.8140 H     1 <1>   0.0800 
 27 H       -0.0920    -4.2080     0.3080 H     1 <1>   0.0800 
 28 H        4.6910    -1.4200     1.8520 H     1 <1>   0.0800 
 29 H        3.8300     0.0830     1.7570 H     1 <1>   0.0800 
 30 H        2.0710     0.3630    -0.4600 H     1 <1>   0.0800 
 31 H        2.7330    -0.5140    -1.8000 H     1 <1>   0.0800 
 32 H       -0.4880    -2.9180    -1.9310 H     1 <1>   0.0800 
 33 H        0.6760    -2.7540    -3.2110 H     1 <1>   0.0800 
 34 H        0.4730    -1.4570    -2.0590 H     1 <1>   0.0800 
 35 H       -0.5220    -1.5170     1.6450 H     1 <1>   0.0800 
 36 H       -1.6740    -2.8200     1.5680 H     1 <1>   0.0800 
 37 H       -1.2230    -1.9830     0.1080 H     1 <1>   0.0800 
 38 H        5.7740     0.8910     1.1620 H     1 <1>   0.4500 
 39 H        3.8300     1.8440    -0.3640 H     1 <1>   0.0800 
 40 H        3.9390     1.4250    -2.0410 H     1 <1>   0.0800 
 41 H        5.6430    -0.2850    -1.4990 H     1 <1>   0.0800 
 42 H        6.1580     1.3130    -1.0190 H     1 <1>   0.0800 
 43 H        6.7890    -1.6400     0.1090 H     1 <1>   0.0800 
 44 H        6.9130    -1.1270     1.7760 H     1 <1>   0.0800 
 45 H        8.3680    -0.8330    -1.5050 H     1 <1>   0.1500 
 46 H        8.0230     1.1600     2.2760 H     1 <1>   0.1500 
 47 H       10.2940     0.5800    -2.0460 H     1 <1>   0.1500 
 48 H        9.9270     2.5450     1.7170 H     1 <1>   0.1500 
 49 H       12.7330     3.7820    -0.2750 H     1 <1>   0.0800 
 50 H       12.2290     2.8650     1.1400 H     1 <1>   0.0800 
 51 H       11.1690     4.1140     0.4610 H     1 <1>   0.0800 
@<TRIPOS>BOND
  1   1   2  2   
  2   2   3  am  
  3   2   4  1   
  4   3   5  1   
  5   3   6  1   
  6   4   7  1   
  7   4   8  1   
  8   4  23  1   
  9   5   9  1   
 10   5  24  1   
 11   5  25  1   
 12   6  10  1   
 13   6  26  1   
 14   6  27  1   
 15   7  11  1   
 16   7  28  1   
 17   7  29  1   
 18   8  12  1   
 19   8  30  1   
 20   8  31  1   
 21   9  32  1   
 22   9  33  1   
 23   9  34  1   
 24  10  35  1   
 25  10  36  1   
 26  10  37  1   
 27  11  13  1   
 28  11  14  1   
 29  11  38  1   
 30  12  13  1   
 31  12  39  1   
 32  12  40  1   
 33  13  41  1   
 34  13  42  1   
 35  14  15  1   
 36  14  43  1   
 37  14  44  1   
 38  15  16  ar  
 39  15  17  ar  
 40  16  18  ar  
 41  16  45  1   
 42  17  19  ar  
 43  17  46  1   
 44  18  20  ar  
 45  18  47  1   
 46  19  20  ar  
 47  19  48  1   
 48  20  21  1   
 49  21  22  1   
 50  22  49  1   
 51  22  50  1   
 52  22  51  1   
@<TRIPOS>SUBSTRUCTURE
  1 ****  11 GROUP 4 **** **** 0

# MOE 2024.06 (io_trps.svl 2023.06)
