@<TRIPOS>MOLECULE
NONAME
49 51 1 0 0 
SMALL
USER_CHARGES


@<TRIPOS>ATOM
  1 S       -0.1000    -0.3630    -0.2150 S.3   1 <1>  -0.0800 
  2 C       -0.6620     1.2950    -0.0530 C.2   1 <1>   0.1040 
  3 C        1.5600     0.0920     0.1410 C.2   1 <1>  -0.1400 
  4 N       -2.0070     1.6090    -0.1770 N.am  1 <1>  -0.4940 
  5 C        0.3840     2.1280     0.2220 C.2   1 <1>  -0.0860 
  6 C        1.6310     1.4190     0.3480 C.2   1 <1>  -0.1500 
  7 C        2.5900    -1.0290     0.1610 C.3   1 <1>   0.1000 
  8 C       -3.0970     0.9060    -0.6140 C.2   1 <1>   0.7350 
  9 C        0.2570     3.5520     0.3850 C.2   1 <1>   0.7160 
 10 C        2.3930    -1.9080     1.4000 C.3   1 <1>  -0.2400 
 11 C        4.0170    -0.4700     0.1360 C.3   1 <1>  -0.2400 
 12 O       -3.0060    -0.1930    -1.1110 O.2   1 <1>  -0.5700 
 13 C       -4.3740     1.5260    -0.4840 C.1   1 <1>  -0.1050 
 14 O       -0.7710     4.0140     0.8560 O.2   1 <1>  -0.5700 
 15 N        1.2480     4.4300     0.0050 N.am  1 <1>  -0.6600 
 16 C       -5.4460     2.0410    -0.3740 C.1   1 <1>  -0.0730 
 17 C        1.3090     5.8210     0.5400 C.3   1 <1>   0.1400 
 18 C        2.1390     4.2210    -1.1750 C.3   1 <1>   0.1400 
 19 C       -6.7370     2.6400    -0.2480 C.ar  1 <1>   0.0730 
 20 C        2.7710     6.2540     0.7420 C.3   1 <1>   0.1200 
 21 C        3.5570     4.7280    -0.8670 C.3   1 <1>   0.1200 
 22 C       -6.8860     3.9020     0.3130 C.ar  1 <1>  -0.1500 
 23 C       -7.8730     1.9700    -0.6850 C.ar  1 <1>  -0.1500 
 24 O        3.5160     6.0560    -0.4280 O.3   1 <1>  -0.5600 
 25 C       -8.1370     4.4820     0.4350 C.ar  1 <1>  -0.1500 
 26 C       -9.1260     2.5440    -0.5670 C.ar  1 <1>  -0.1500 
 27 C       -9.2590     3.8020    -0.0060 C.ar  1 <1>  -0.1500 
 28 H       -2.2320     2.5570     0.1390 H     1 <1>   0.3700 
 29 H        2.5310     1.9510     0.6010 H     1 <1>   0.1500 
 30 H        2.4480    -1.6330    -0.7200 H     1 <1>   0.0800 
 31 H        2.4990    -1.3210     2.2950 H     1 <1>   0.0800 
 32 H        3.1160    -2.7030     1.4160 H     1 <1>   0.0800 
 33 H        1.4100    -2.3440     1.3930 H     1 <1>   0.0800 
 34 H        4.2080     0.1170     1.0170 H     1 <1>   0.0800 
 35 H        4.1550     0.1470    -0.7330 H     1 <1>   0.0800 
 36 H        4.7290    -1.2750     0.0980 H     1 <1>   0.0800 
 37 H        0.7860     5.8810     1.4800 H     1 <1>   0.0800 
 38 H        0.8300     6.4910    -0.1520 H     1 <1>   0.0800 
 39 H        1.7480     4.7760    -2.0100 H     1 <1>   0.0800 
 40 H        2.1740     3.1860    -1.4600 H     1 <1>   0.0800 
 41 H        3.2260     5.6920     1.5390 H     1 <1>   0.0800 
 42 H        2.8180     7.3000     0.9880 H     1 <1>   0.0800 
 43 H        4.1640     4.6950    -1.7550 H     1 <1>   0.0800 
 44 H        4.0220     4.1260    -0.1060 H     1 <1>   0.0800 
 45 H       -6.0160     4.4330     0.6580 H     1 <1>   0.1500 
 46 H       -7.7730     0.9920    -1.1220 H     1 <1>   0.1500 
 47 H       -8.2380     5.4600     0.8720 H     1 <1>   0.1500 
 48 H       -9.9970     2.0130    -0.9100 H     1 <1>   0.1500 
 49 H      -10.2330     4.2510     0.0880 H     1 <1>   0.1500 
@<TRIPOS>BOND
  1   1   2  1   
  2   1   3  1   
  3   2   4  1   
  4   2   5  2   
  5   3   6  2   
  6   3   7  1   
  7   4   8  am  
  8   4  28  1   
  9   5   6  1   
 10   5   9  1   
 11   6  29  1   
 12   7  10  1   
 13   7  11  1   
 14   7  30  1   
 15   8  12  2   
 16   8  13  1   
 17   9  14  2   
 18   9  15  am  
 19  10  31  1   
 20  10  32  1   
 21  10  33  1   
 22  11  34  1   
 23  11  35  1   
 24  11  36  1   
 25  13  16  3   
 26  15  17  1   
 27  15  18  1   
 28  16  19  1   
 29  17  20  1   
 30  17  37  1   
 31  17  38  1   
 32  18  21  1   
 33  18  39  1   
 34  18  40  1   
 35  19  22  ar  
 36  19  23  ar  
 37  20  24  1   
 38  20  41  1   
 39  20  42  1   
 40  21  24  1   
 41  21  43  1   
 42  21  44  1   
 43  22  25  ar  
 44  22  45  1   
 45  23  26  ar  
 46  23  46  1   
 47  25  27  ar  
 48  25  47  1   
 49  26  27  ar  
 50  26  48  1   
 51  27  49  1   
@<TRIPOS>SUBSTRUCTURE
  1 ****   4 GROUP 4 **** **** 0

# MOE 2024.06 (io_trps.svl 2023.06)
