@<TRIPOS>MOLECULE
NONAME
46 47 1 0 0 
SMALL
USER_CHARGES


@<TRIPOS>ATOM
  1 S        0.1010     0.2220     0.3010 S.o2  1 <1>   1.4470 
  2 O       -0.4060     0.8910    -0.8790 O.2   1 <1>  -0.6500 
  3 O       -0.1570     0.8440     1.5830 O.2   1 <1>  -0.6500 
  4 N        1.7860     0.2060     0.1060 N.am  1 <1>  -0.8490 
  5 C       -0.2770    -1.5760     0.3790 C.ar  1 <1>  -0.0090 
  6 C        2.2080    -0.0860    -1.2700 C.3   1 <1>   0.1960 
  7 C        2.4180     1.4380     0.6030 C.3   1 <1>   0.1960 
  8 C       -0.9670    -2.2510    -0.6420 C.ar  1 <1>  -0.1440 
  9 C        0.1530    -2.3430     1.4740 C.ar  1 <1>  -0.1440 
 10 C        3.6900    -0.5040    -1.2870 C.3   1 <1>  -0.0190 
 11 C        3.9000     1.5500     0.1860 C.3   1 <1>  -0.1600 
 12 C       -1.1950    -3.6160    -0.5630 C.ar  1 <1>  -0.1500 
 13 C       -1.5120    -1.5540    -1.8850 C.3   1 <1>  -0.0970 
 14 C       -0.0920    -3.7050     1.5350 C.ar  1 <1>  -0.1500 
 15 C        0.9010    -1.7410     2.6630 C.3   1 <1>  -0.0970 
 16 C        3.8100    -2.0180    -1.2090 C.2   1 <1>   0.5690 
 17 C        4.5130     0.1880    -0.1730 C.3   1 <1>  -0.1600 
 18 C       -0.7600    -4.3520     0.5180 C.ar  1 <1>  -0.1440 
 19 O        4.5360    -2.5870    -1.9880 O.2   1 <1>  -0.5700 
 20 N        3.0810    -2.6860    -0.2780 N.am  1 <1>  -0.7300 
 21 C       -1.0230    -5.8460     0.5870 C.3   1 <1>  -0.0970 
 22 C        3.0030    -4.1570    -0.1240 C.3   1 <1>   0.0600 
 23 H        2.0660     0.7920    -1.8790 H     1 <1>   0.0800 
 24 H        1.6060    -0.8750    -1.6920 H     1 <1>   0.0800 
 25 H        2.3540     1.4410     1.6790 H     1 <1>   0.0800 
 26 H        1.8810     2.3000     0.2410 H     1 <1>   0.0800 
 27 H        4.0880    -0.2060    -2.2410 H     1 <1>   0.0800 
 28 H        4.4580     2.0090     0.9830 H     1 <1>   0.0800 
 29 H        3.9690     2.2030    -0.6660 H     1 <1>   0.0800 
 30 H       -1.7230    -4.1220    -1.3530 H     1 <1>   0.1500 
 31 H       -0.7120    -1.1220    -2.4580 H     1 <1>   0.0800 
 32 H       -2.2050    -0.7810    -1.6040 H     1 <1>   0.0800 
 33 H       -2.0360    -2.2410    -2.5240 H     1 <1>   0.0800 
 34 H        0.2370    -4.2770     2.3850 H     1 <1>   0.1500 
 35 H        0.2490    -1.0890     3.2170 H     1 <1>   0.0800 
 36 H        1.7630    -1.1860     2.3440 H     1 <1>   0.0800 
 37 H        1.2440    -2.5060     3.3370 H     1 <1>   0.0800 
 38 H        5.5360     0.3000    -0.4890 H     1 <1>   0.0800 
 39 H        4.5090    -0.4270     0.7110 H     1 <1>   0.0800 
 40 H        2.4550    -2.1360     0.3230 H     1 <1>   0.3700 
 41 H       -2.0090    -6.0220     0.9800 H     1 <1>   0.0800 
 42 H       -0.3050    -6.3290     1.2240 H     1 <1>   0.0800 
 43 H       -0.9570    -6.2830    -0.3920 H     1 <1>   0.0800 
 44 H        2.0130    -4.4950    -0.3790 H     1 <1>   0.0800 
 45 H        3.2190    -4.4280     0.8940 H     1 <1>   0.0800 
 46 H        3.7140    -4.6390    -0.7740 H     1 <1>   0.0800 
@<TRIPOS>BOND
  1   1   2  2   
  2   1   3  2   
  3   1   4  am  
  4   1   5  1   
  5   4   6  1   
  6   4   7  1   
  7   5   8  ar  
  8   5   9  ar  
  9   6  10  1   
 10   6  23  1   
 11   6  24  1   
 12   7  11  1   
 13   7  25  1   
 14   7  26  1   
 15   8  12  ar  
 16   8  13  1   
 17   9  14  ar  
 18   9  15  1   
 19  10  16  1   
 20  10  17  1   
 21  10  27  1   
 22  11  17  1   
 23  11  28  1   
 24  11  29  1   
 25  12  18  ar  
 26  12  30  1   
 27  13  31  1   
 28  13  32  1   
 29  13  33  1   
 30  14  18  ar  
 31  14  34  1   
 32  15  35  1   
 33  15  36  1   
 34  15  37  1   
 35  16  19  2   
 36  16  20  am  
 37  17  38  1   
 38  17  39  1   
 39  18  21  1   
 40  20  22  1   
 41  20  40  1   
 42  21  41  1   
 43  21  42  1   
 44  21  43  1   
 45  22  44  1   
 46  22  45  1   
 47  22  46  1   
@<TRIPOS>SUBSTRUCTURE
  1 ****   5 GROUP 4 **** **** 0

# MOE 2024.06 (io_trps.svl 2023.06)
