@<TRIPOS>MOLECULE
NONAME
43 45 1 0 0 
SMALL
USER_CHARGES


@<TRIPOS>ATOM
  1 CL       0.5140    -1.4310     3.2960 Cl    1 <1>  -0.1770 
  2 C        1.6500    -1.5880     1.9810 C.ar  1 <1>   0.1770 
  3 C        1.4040    -2.3930     0.8760 C.ar  1 <1>  -0.0090 
  4 C        2.8150    -0.8510     2.0920 C.ar  1 <1>  -0.1500 
  5 S       -0.1110    -3.3690     0.6700 S.o2  1 <1>   1.4470 
  6 C        2.3750    -2.4100    -0.1200 C.ar  1 <1>  -0.1500 
  7 C        3.7610    -0.9000     1.0890 C.ar  1 <1>  -0.1500 
  8 O       -0.7310    -3.7260     1.9260 O.2   1 <1>  -0.6500 
  9 O        0.1800    -4.4350    -0.2640 O.2   1 <1>  -0.6500 
 10 N       -1.1710    -2.3150    -0.1320 N.am  1 <1>  -0.8490 
 11 C        3.5680    -1.6860    -0.0480 C.ar  1 <1>   0.0860 
 12 C       -2.2430    -3.0600    -0.8170 C.3   1 <1>   0.1960 
 13 C       -1.7780    -1.3120     0.7600 C.3   1 <1>   0.1960 
 14 C        4.5270    -1.7520    -1.1360 C.2   1 <1>   0.4930 
 15 C       -3.2200    -2.1110    -1.5350 C.3   1 <1>   0.1200 
 16 C       -2.7630    -0.4060    -0.0010 C.3   1 <1>   0.1200 
 17 O        4.1170    -1.7830    -2.2830 O.2   1 <1>  -0.5700 
 18 N        5.9280    -1.7870    -0.8530 N.pl3 1 <1>   0.5610 
 19 O       -3.7430    -1.1720    -0.6400 O.3   1 <1>  -0.5600 
 20 N        6.4370    -2.1460     0.3720 N.2   1 <1>  -0.7070 
 21 C        6.9810    -1.4820    -1.6830 C.2   1 <1>  -0.3320 
 22 C        7.7200    -2.0640     0.2740 C.2   1 <1>   0.1080 
 23 C        8.1230    -1.6520    -0.9890 C.2   1 <1>  -0.1500 
 24 C        6.8540    -1.0340    -3.1330 C.3   1 <1>  -0.0600 
 25 C        8.6500    -2.3870     1.4200 C.3   1 <1>  -0.0590 
 26 H        2.9770    -0.2430     2.9650 H     1 <1>   0.1500 
 27 H        2.2020    -3.0140    -0.9980 H     1 <1>   0.1500 
 28 H        4.6640    -0.3210     1.1930 H     1 <1>   0.1500 
 29 H       -2.7890    -3.6570    -0.1050 H     1 <1>   0.0800 
 30 H       -1.8140    -3.7240    -1.5480 H     1 <1>   0.0800 
 31 H       -1.0090    -0.6930     1.1850 H     1 <1>   0.0800 
 32 H       -2.3050    -1.7950     1.5670 H     1 <1>   0.0800 
 33 H       -4.0430    -2.6670    -1.9460 H     1 <1>   0.0800 
 34 H       -2.7210    -1.5880    -2.3320 H     1 <1>   0.0800 
 35 H       -2.2450     0.1780    -0.7420 H     1 <1>   0.0800 
 36 H       -3.2610     0.2600     0.6810 H     1 <1>   0.0800 
 37 H        9.1400    -1.5090    -1.3110 H     1 <1>   0.1500 
 38 H        6.3950    -1.8090    -3.7230 H     1 <1>   0.0800 
 39 H        7.8230    -0.8210    -3.5460 H     1 <1>   0.0800 
 40 H        6.2500    -0.1460    -3.1990 H     1 <1>   0.0800 
 41 H        8.4580    -3.3850     1.7680 H     1 <1>   0.0800 
 42 H        8.4800    -1.6980     2.2270 H     1 <1>   0.0800 
 43 H        9.6740    -2.3160     1.1050 H     1 <1>   0.0800 
@<TRIPOS>BOND
  1   1   2  1   
  2   2   3  ar  
  3   2   4  ar  
  4   3   5  1   
  5   3   6  ar  
  6   4   7  ar  
  7   4  26  1   
  8   5   8  2   
  9   5   9  2   
 10   5  10  am  
 11   6  11  ar  
 12   6  27  1   
 13   7  11  ar  
 14   7  28  1   
 15  10  12  1   
 16  10  13  1   
 17  11  14  1   
 18  12  15  1   
 19  12  29  1   
 20  12  30  1   
 21  13  16  1   
 22  13  31  1   
 23  13  32  1   
 24  14  17  2   
 25  14  18  1   
 26  15  19  1   
 27  15  33  1   
 28  15  34  1   
 29  16  19  1   
 30  16  35  1   
 31  16  36  1   
 32  18  20  1   
 33  18  21  1   
 34  20  22  2   
 35  21  23  2   
 36  21  24  1   
 37  22  23  1   
 38  22  25  1   
 39  23  37  1   
 40  24  38  1   
 41  24  39  1   
 42  24  40  1   
 43  25  41  1   
 44  25  42  1   
 45  25  43  1   
@<TRIPOS>SUBSTRUCTURE
  1 ****   6 GROUP 4 **** **** 0

# MOE 2024.06 (io_trps.svl 2023.06)
