@<TRIPOS>MOLECULE
NONAME
38 39 1 0 0 
SMALL
USER_CHARGES


@<TRIPOS>ATOM
  1 O       -0.8310     0.4760     1.0460 O.3   1 <1>  -0.3630 
  2 C       -2.0330     0.8620     0.5500 C.ar  1 <1>   0.0830 
  3 C       -0.0770    -0.5420     0.4280 C.3   1 <1>   0.0400 
  4 C       -2.6310     0.2900    -0.5680 C.ar  1 <1>  -0.1500 
  5 C       -2.6830     1.8900     1.2120 C.ar  1 <1>  -0.1500 
  6 C       -3.8630     0.7460    -1.0030 C.ar  1 <1>  -0.1500 
  7 C       -3.9140     2.3430     0.7740 C.ar  1 <1>  -0.1500 
  8 C       -4.5220     1.7730    -0.3390 C.ar  1 <1>  -0.1430 
  9 C       -5.8910     2.2140    -0.8660 C.3   1 <1>   0.5650 
 10 N       -6.4810     3.3060    -0.0920 N.2   1 <1>  -0.6960 
 11 N       -6.8290     1.0760    -0.7340 N.4   1 <1>  -0.1220 
 12 C       -7.6260     2.9910     0.2970 C.2   1 <1>   0.3280 
 13 O       -7.0140     0.4180    -1.9300 O.2   1 <1>  -0.7500 
 14 C       -8.0760     1.5910    -0.1040 C.3   1 <1>   0.3170 
 15 C       -8.5160     3.9170     1.1190 C.3   1 <1>  -0.0990 
 16 C       -8.3980     0.6940     1.1010 C.3   1 <1>  -0.2400 
 17 C       -9.2750     1.6290    -1.0730 C.3   1 <1>  -0.2400 
 18 C       -9.3250     4.8840     0.2440 C.3   1 <1>  -0.2400 
 19 H        0.8330    -0.6690     0.9860 H     1 <1>   0.0800 
 20 H        0.1500    -0.2440    -0.5800 H     1 <1>   0.0800 
 21 H       -0.6450    -1.4550     0.4430 H     1 <1>   0.0800 
 22 H       -2.1570    -0.5060    -1.1100 H     1 <1>   0.1500 
 23 H       -2.2150     2.3330     2.0730 H     1 <1>   0.1500 
 24 H       -4.3160     0.2920    -1.8720 H     1 <1>   0.1500 
 25 H       -4.3880     3.1480     1.3100 H     1 <1>   0.1500 
 26 H       -5.8240     2.5000    -1.9020 H     1 <1>   0.0800 
 27 H       -6.3690     0.4280    -0.0910 H     1 <1>   0.3600 
 28 H       -7.8810     4.4980     1.7640 H     1 <1>   0.0800 
 29 H       -9.1770     3.3480     1.7450 H     1 <1>   0.0800 
 30 H       -9.2990     1.0220     1.5860 H     1 <1>   0.0800 
 31 H       -8.5510    -0.3200     0.7730 H     1 <1>   0.0800 
 32 H       -7.5990     0.7180     1.8200 H     1 <1>   0.0800 
 33 H       -9.0450     2.2470    -1.9230 H     1 <1>   0.0800 
 34 H      -10.1480     2.0190    -0.5850 H     1 <1>   0.0800 
 35 H       -9.5040     0.6370    -1.4230 H     1 <1>   0.0800 
 36 H       -8.6610     5.4670    -0.3720 H     1 <1>   0.0800 
 37 H       -9.8910     5.5570     0.8640 H     1 <1>   0.0800 
 38 H      -10.0080     4.3550    -0.3950 H     1 <1>   0.0800 
@<TRIPOS>BOND
  1   1   2  1   
  2   1   3  1   
  3   2   4  ar  
  4   2   5  ar  
  5   3  19  1   
  6   3  20  1   
  7   3  21  1   
  8   4   6  ar  
  9   4  22  1   
 10   5   7  ar  
 11   5  23  1   
 12   6   8  ar  
 13   6  24  1   
 14   7   8  ar  
 15   7  25  1   
 16   8   9  1   
 17   9  10  1   
 18   9  11  1   
 19   9  26  1   
 20  10  12  2   
 21  11  13  2   
 22  11  14  1   
 23  11  27  1   
 24  12  14  1   
 25  12  15  1   
 26  14  16  1   
 27  14  17  1   
 28  15  18  1   
 29  15  28  1   
 30  15  29  1   
 31  16  30  1   
 32  16  31  1   
 33  16  32  1   
 34  17  33  1   
 35  17  34  1   
 36  17  35  1   
 37  18  36  1   
 38  18  37  1   
 39  18  38  1   
@<TRIPOS>SUBSTRUCTURE
  1 ****   8 GROUP 4 **** **** 0

# MOE 2024.06 (io_trps.svl 2023.06)
