@<TRIPOS>MOLECULE
NONAME
32 32 1 0 0 
SMALL
USER_CHARGES


@<TRIPOS>ATOM
  1 S        0.2280    -0.0590    -1.0990 S.o2  1 <1>   1.3330 
  2 O        1.4710    -0.2310    -1.8080 O.2   1 <1>  -0.6500 
  3 O        0.0430    -0.5890     0.2290 O.2   1 <1>  -0.6500 
  4 N       -0.0520     1.6480    -1.0200 N.am  1 <1>  -0.6930 
  5 C       -1.0930    -0.6100    -2.1570 C.3   1 <1>  -0.1350 
  6 C       -1.2600     2.1510    -0.5570 C.ar  1 <1>   0.1990 
  7 C        1.1700     2.4630    -0.7300 C.3   1 <1>   0.2570 
  8 C       -1.6680     1.9730     0.7600 C.ar  1 <1>  -0.1500 
  9 C       -2.0850     2.8540    -1.4240 C.ar  1 <1>  -0.1500 
 10 C        1.7440     2.2520     0.6720 C.2   1 <1>   0.6590 
 11 C       -2.8790     2.4770     1.2190 C.ar  1 <1>  -0.1440 
 12 C       -3.2930     3.3610    -0.9880 C.ar  1 <1>  -0.1500 
 13 O        1.4110     2.9440     1.6020 O.2   1 <1>  -0.5700 
 14 O        2.6240     1.2670     0.8080 O.3   1 <1>  -0.4300 
 15 C       -3.6890     3.1720     0.3250 C.ar  1 <1>  -0.1500 
 16 C       -3.3340     2.2760     2.6740 C.3   1 <1>   1.1640 
 17 C        3.1450     0.9000     2.0670 C.3   1 <1>   0.0400 
 18 F       -3.8450     3.3840     3.1980 F     1 <1>  -0.3400 
 19 F       -2.3590     1.8960     3.4900 F     1 <1>  -0.3400 
 20 F       -4.2810     1.3510     2.7680 F     1 <1>  -0.3400 
 21 H       -1.0180    -1.6670    -2.3150 H     1 <1>   0.0800 
 22 H       -1.0380    -0.1140    -3.1060 H     1 <1>   0.0800 
 23 H       -2.0430    -0.3960    -1.7070 H     1 <1>   0.0800 
 24 H        0.9240     3.5040    -0.8330 H     1 <1>   0.0800 
 25 H        1.9330     2.2340    -1.4520 H     1 <1>   0.0800 
 26 H       -1.0180     1.4320     1.4280 H     1 <1>   0.1500 
 27 H       -1.7720     3.0020    -2.4420 H     1 <1>   0.1500 
 28 H       -3.9280     3.9050    -1.6680 H     1 <1>   0.1500 
 29 H       -4.6360     3.5740     0.6500 H     1 <1>   0.1500 
 30 H        3.6560     1.7460     2.4950 H     1 <1>   0.0800 
 31 H        3.8280     0.0820     1.9260 H     1 <1>   0.0800 
 32 H        2.3310     0.5960     2.7020 H     1 <1>   0.0800 
@<TRIPOS>BOND
  1   1   2  2   
  2   1   3  2   
  3   1   4  am  
  4   1   5  1   
  5   4   6  1   
  6   4   7  1   
  7   5  21  1   
  8   5  22  1   
  9   5  23  1   
 10   6   8  ar  
 11   6   9  ar  
 12   7  10  1   
 13   7  24  1   
 14   7  25  1   
 15   8  11  ar  
 16   8  26  1   
 17   9  12  ar  
 18   9  27  1   
 19  10  13  2   
 20  10  14  1   
 21  11  15  ar  
 22  11  16  1   
 23  12  15  ar  
 24  12  28  1   
 25  14  17  1   
 26  15  29  1   
 27  16  18  1   
 28  16  19  1   
 29  16  20  1   
 30  17  30  1   
 31  17  31  1   
 32  17  32  1   
@<TRIPOS>SUBSTRUCTURE
  1 ****   8 GROUP 4 **** **** 0

# MOE 2024.06 (io_trps.svl 2023.06)
