@<TRIPOS>MOLECULE
NONAME
37 37 1 0 0 
SMALL
USER_CHARGES


@<TRIPOS>ATOM
  1 S       -0.1490    -0.0290    -1.3340 S.o2  1 <1>   1.4470 
  2 O       -0.4280     1.2970    -0.8260 O.2   1 <1>  -0.6500 
  3 O       -0.2650    -0.2660    -2.7540 O.2   1 <1>  -0.6500 
  4 N        1.4950    -0.2770    -1.0830 N.am  1 <1>  -0.9140 
  5 C       -0.9710    -1.3560    -0.4070 C.ar  1 <1>  -0.0090 
  6 C        2.1180     0.4960    -0.0130 C.3   1 <1>   0.2760 
  7 C       -2.3200    -1.2560    -0.0800 C.ar  1 <1>   0.0830 
  8 C       -0.2890    -2.5100    -0.0310 C.ar  1 <1>  -0.1500 
  9 C        3.6460     0.3850    -0.1620 C.3   1 <1>   0.1200 
 10 C        1.6590    -0.0380     1.3480 C.3   1 <1>  -0.2400 
 11 O       -2.9820    -0.1450    -0.4880 O.3   1 <1>  -0.3630 
 12 C       -2.9500    -2.2750     0.6330 C.ar  1 <1>  -0.1500 
 13 C       -0.9080    -3.5260     0.6780 C.ar  1 <1>  -0.1430 
 14 O        4.2820     1.1870     0.7880 O.3   1 <1>  -0.5600 
 15 C       -4.3350     0.0920    -0.1690 C.3   1 <1>   0.0400 
 16 C       -2.2440    -3.4010     1.0100 C.ar  1 <1>  -0.1500 
 17 C       -0.1270    -4.7650     1.0780 C.3   1 <1>  -0.0970 
 18 C        5.6700     1.1230     0.7450 C.3   1 <1>   0.0400 
 19 H        1.8780     0.0560    -1.9650 H     1 <1>   0.4200 
 20 H        1.8570     1.5380    -0.1090 H     1 <1>   0.0800 
 21 H        0.7470    -2.6170    -0.2980 H     1 <1>   0.1500 
 22 H        3.9470     0.7240    -1.1380 H     1 <1>   0.0800 
 23 H        3.9560    -0.6350    -0.0130 H     1 <1>   0.0800 
 24 H        1.8910    -1.0830     1.4440 H     1 <1>   0.0800 
 25 H        0.6050     0.1150     1.4880 H     1 <1>   0.0800 
 26 H        2.1660     0.4930     2.1330 H     1 <1>   0.0800 
 27 H       -3.9870    -2.2120     0.9000 H     1 <1>   0.1500 
 28 H       -4.6120     1.0440    -0.5850 H     1 <1>   0.0800 
 29 H       -4.4430     0.1160     0.9010 H     1 <1>   0.0800 
 30 H       -4.9390    -0.6850    -0.6040 H     1 <1>   0.0800 
 31 H       -2.7400    -4.1820     1.5600 H     1 <1>   0.1500 
 32 H        0.9030    -4.5180     1.2610 H     1 <1>   0.0800 
 33 H       -0.1750    -5.4950     0.2900 H     1 <1>   0.0800 
 34 H       -0.5360    -5.1950     1.9740 H     1 <1>   0.0800 
 35 H        6.0580     1.7730     1.5100 H     1 <1>   0.0800 
 36 H        6.0130     1.4540    -0.2200 H     1 <1>   0.0800 
 37 H        5.9870     0.1120     0.9350 H     1 <1>   0.0800 
@<TRIPOS>BOND
  1   1   2  2   
  2   1   3  2   
  3   1   4  am  
  4   1   5  1   
  5   4   6  1   
  6   4  19  1   
  7   5   7  ar  
  8   5   8  ar  
  9   6   9  1   
 10   6  10  1   
 11   6  20  1   
 12   7  11  1   
 13   7  12  ar  
 14   8  13  ar  
 15   8  21  1   
 16   9  14  1   
 17   9  22  1   
 18   9  23  1   
 19  10  24  1   
 20  10  25  1   
 21  10  26  1   
 22  11  15  1   
 23  12  16  ar  
 24  12  27  1   
 25  13  16  ar  
 26  13  17  1   
 27  14  18  1   
 28  15  28  1   
 29  15  29  1   
 30  15  30  1   
 31  16  31  1   
 32  17  32  1   
 33  17  33  1   
 34  17  34  1   
 35  18  35  1   
 36  18  36  1   
 37  18  37  1   
@<TRIPOS>SUBSTRUCTURE
  1 ****   5 GROUP 4 **** **** 0

# MOE 2024.06 (io_trps.svl 2023.06)
