@<TRIPOS>MOLECULE
NONAME
40 41 1 0 0 
SMALL
USER_CHARGES


@<TRIPOS>ATOM
  1 F       -0.7200     1.6970    -0.1650 F     1 <1>  -0.3400 
  2 C       -1.7370     0.8690     0.0260 C.3   1 <1>   1.3000 
  3 F       -1.7910     0.5880     1.3220 F     1 <1>  -0.3400 
  4 F       -1.4730    -0.2520    -0.6350 F     1 <1>  -0.3400 
  5 O       -2.9360     1.4660    -0.4260 O.3   1 <1>  -0.3630 
  6 C       -4.0710     0.7460    -0.3060 C.ar  1 <1>   0.0830 
  7 C       -4.4790    -0.0770    -1.3430 C.ar  1 <1>  -0.1500 
  8 C       -4.8340     0.8430     0.8470 C.ar  1 <1>  -0.1500 
  9 C       -5.6420    -0.8160    -1.2190 C.ar  1 <1>  -0.1500 
 10 C       -5.9960     0.1030     0.9660 C.ar  1 <1>  -0.1500 
 11 C       -6.4070    -0.7330    -0.0640 C.ar  1 <1>  -0.1430 
 12 C       -7.6830    -1.5520     0.0800 C.3   1 <1>   0.2540 
 13 N       -8.8610    -0.6790     0.2650 N.3   1 <1>  -0.8100 
 14 C      -10.0710    -1.4660     0.5640 C.3   1 <1>   0.1100 
 15 C       -9.0710     0.2290    -0.8840 C.3   1 <1>   0.1100 
 16 C      -11.2890    -0.5520     0.8100 C.3   1 <1>   0.3430 
 17 C      -10.2820     1.1550    -0.6540 C.3   1 <1>   0.3430 
 18 N      -11.5350     0.3790    -0.3490 N.4   1 <1>  -0.9590 
 19 C      -12.6750     1.2990    -0.1080 C.3   1 <1>   0.3430 
 20 C      -13.9850     0.5210    -0.1680 C.3   1 <1>  -0.2400 
 21 H       -3.8890    -0.1400    -2.2410 H     1 <1>   0.1500 
 22 H       -4.5200     1.4920     1.6460 H     1 <1>   0.1500 
 23 H       -5.9450    -1.4580    -2.0290 H     1 <1>   0.1500 
 24 H       -6.5880     0.1760     1.8620 H     1 <1>   0.1500 
 25 H       -7.5750    -2.1930     0.9390 H     1 <1>   0.0800 
 26 H       -7.8210    -2.1770    -0.7850 H     1 <1>   0.0800 
 27 H       -9.8990    -2.0550     1.4500 H     1 <1>   0.0800 
 28 H      -10.2830    -2.1430    -0.2470 H     1 <1>   0.0800 
 29 H       -9.2120    -0.3410    -1.7860 H     1 <1>   0.0800 
 30 H       -8.1990     0.8470    -1.0180 H     1 <1>   0.0800 
 31 H      -11.1060     0.0220     1.7030 H     1 <1>   0.0800 
 32 H      -12.1580    -1.1660     0.9810 H     1 <1>   0.0800 
 33 H      -10.4300     1.7640    -1.5310 H     1 <1>   0.0800 
 34 H      -10.0510     1.8100     0.1700 H     1 <1>   0.0800 
 35 H      -11.7480    -0.1960    -1.1720 H     1 <1>   0.4500 
 36 H      -12.6900     2.0640    -0.8680 H     1 <1>   0.0800 
 37 H      -12.5700     1.7790     0.8530 H     1 <1>   0.0800 
 38 H      -14.0910     0.0220    -1.1140 H     1 <1>   0.0800 
 39 H      -14.8050     1.2100    -0.0640 H     1 <1>   0.0800 
 40 H      -14.0580    -0.1930     0.6320 H     1 <1>   0.0800 
@<TRIPOS>BOND
  1   1   2  1   
  2   2   3  1   
  3   2   4  1   
  4   2   5  1   
  5   5   6  1   
  6   6   7  ar  
  7   6   8  ar  
  8   7   9  ar  
  9   7  21  1   
 10   8  10  ar  
 11   8  22  1   
 12   9  11  ar  
 13   9  23  1   
 14  10  11  ar  
 15  10  24  1   
 16  11  12  1   
 17  12  13  1   
 18  12  25  1   
 19  12  26  1   
 20  13  14  1   
 21  13  15  1   
 22  14  16  1   
 23  14  27  1   
 24  14  28  1   
 25  15  17  1   
 26  15  29  1   
 27  15  30  1   
 28  16  18  1   
 29  16  31  1   
 30  16  32  1   
 31  17  18  1   
 32  17  33  1   
 33  17  34  1   
 34  18  19  1   
 35  18  35  1   
 36  19  20  1   
 37  19  36  1   
 38  19  37  1   
 39  20  38  1   
 40  20  39  1   
 41  20  40  1   
@<TRIPOS>SUBSTRUCTURE
  1 ****  11 GROUP 4 **** **** 0

# MOE 2024.06 (io_trps.svl 2023.06)
