@<TRIPOS>MOLECULE
NONAME
34 35 1 0 0 
SMALL
USER_CHARGES


@<TRIPOS>ATOM
  1 O        0.0020     0.4830     0.1390 O.2   1 <1>  -0.5700 
  2 C       -0.6880     1.2880     0.7320 C.2   1 <1>   0.6160 
  3 N       -0.0880     2.1860     1.5630 N.am  1 <1>  -0.7300 
  4 C       -2.1130     1.3140     0.5640 C.2   1 <1>  -0.1360 
  5 C        1.3780     2.2460     1.8320 C.3   1 <1>   0.1400 
  6 C       -2.8500     0.5100    -0.2380 C.2   1 <1>  -0.1780 
  7 C        2.1660     2.7710     0.6220 C.3   1 <1>   0.2000 
  8 C       -4.2780     0.4950    -0.4430 C.ar  1 <1>   0.0280 
  9 O        3.4740     3.0360     1.0080 O.3   1 <1>  -0.5600 
 10 C        1.6780     4.0990     0.0550 C.3   1 <1>  -0.1600 
 11 C       -4.8270    -0.3440    -1.4120 C.ar  1 <1>  -0.1500 
 12 C       -5.1600     1.2900     0.2900 C.ar  1 <1>  -0.1500 
 13 C        4.0730     3.8860     0.0850 C.3   1 <1>   0.1200 
 14 C        2.9430     4.7120    -0.5270 C.3   1 <1>  -0.1600 
 15 C       -6.1900    -0.3880    -1.6430 C.ar  1 <1>  -0.1500 
 16 C       -6.5240     1.2520     0.0640 C.ar  1 <1>  -0.1500 
 17 C       -7.0430     0.4120    -0.9040 C.ar  1 <1>  -0.1500 
 18 H       -0.6520     2.8880     2.0390 H     1 <1>   0.3700 
 19 H       -2.5920     2.0660     1.1540 H     1 <1>   0.1500 
 20 H        1.5530     2.8890     2.6760 H     1 <1>   0.0800 
 21 H        1.7310     1.2580     2.0720 H     1 <1>   0.0800 
 22 H       -2.3230    -0.2310    -0.8160 H     1 <1>   0.1500 
 23 H        2.2010     2.0200    -0.1490 H     1 <1>   0.0800 
 24 H        0.9100     3.9510    -0.6840 H     1 <1>   0.0800 
 25 H        1.2970     4.7170     0.8480 H     1 <1>   0.0800 
 26 H       -4.1780    -0.9720    -1.9950 H     1 <1>   0.1500 
 27 H       -4.7860     1.9480     1.0500 H     1 <1>   0.1500 
 28 H        4.7960     4.4960     0.5980 H     1 <1>   0.0800 
 29 H        4.5610     3.2800    -0.6590 H     1 <1>   0.0800 
 30 H        3.0360     5.7500    -0.2610 H     1 <1>   0.0800 
 31 H        2.9650     4.6190    -1.5980 H     1 <1>   0.0800 
 32 H       -6.5880    -1.0440    -2.3970 H     1 <1>   0.1500 
 33 H       -7.1840     1.8740     0.6410 H     1 <1>   0.1500 
 34 H       -8.1040     0.3800    -1.0820 H     1 <1>   0.1500 
@<TRIPOS>BOND
  1   1   2  2   
  2   2   3  am  
  3   2   4  1   
  4   3   5  1   
  5   3  18  1   
  6   4   6  2   
  7   4  19  1   
  8   5   7  1   
  9   5  20  1   
 10   5  21  1   
 11   6   8  1   
 12   6  22  1   
 13   7   9  1   
 14   7  10  1   
 15   7  23  1   
 16   8  11  ar  
 17   8  12  ar  
 18   9  13  1   
 19  10  14  1   
 20  10  24  1   
 21  10  25  1   
 22  11  15  ar  
 23  11  26  1   
 24  12  16  ar  
 25  12  27  1   
 26  13  14  1   
 27  13  28  1   
 28  13  29  1   
 29  14  30  1   
 30  14  31  1   
 31  15  17  ar  
 32  15  32  1   
 33  16  17  ar  
 34  16  33  1   
 35  17  34  1   
@<TRIPOS>SUBSTRUCTURE
  1 ****   4 GROUP 4 **** **** 0

# MOE 2024.06 (io_trps.svl 2023.06)
