@<TRIPOS>MOLECULE
NONAME
37 39 1 0 0 
SMALL
USER_CHARGES


@<TRIPOS>ATOM
  1 F        0.1920    -0.7860     0.4300 F     1 <1>  -0.1900 
  2 C        1.3890    -1.2870     0.2600 C.ar  1 <1>   0.1900 
  3 C        2.0490    -1.0500    -0.9300 C.ar  1 <1>  -0.1500 
  4 C        1.9490    -2.0360     1.2790 C.ar  1 <1>  -0.1500 
  5 C        3.3140    -1.5840    -1.1010 C.ar  1 <1>  -0.1500 
  6 C        3.2150    -2.5630     1.0930 C.ar  1 <1>  -0.1500 
  7 C        3.9080    -2.3420    -0.0970 C.ar  1 <1>   0.1000 
  8 N        5.1800    -2.8650    -0.3010 N.pl3 1 <1>  -0.8380 
  9 C        5.2670    -4.3440    -0.4700 C.3   1 <1>   0.2090 
 10 C        6.2790    -2.2680     0.5120 C.3   1 <1>   0.2090 
 11 C        6.6510    -4.7470    -1.0250 C.3   1 <1>   0.3430 
 12 C        7.6560    -2.6840    -0.0460 C.3   1 <1>   0.3430 
 13 N        7.7910    -4.1830    -0.2110 N.4   1 <1>  -0.9590 
 14 C        9.1120    -4.5480    -0.7850 C.3   1 <1>   0.5240 
 15 C       10.1840    -4.1150     0.1890 C.2   1 <1>  -0.1810 
 16 C       11.1050    -3.1370     0.0410 C.2   1 <1>  -0.0100 
 17 C       10.4180    -4.6620     1.4620 C.2   1 <1>  -0.1500 
 18 O       11.8570    -3.0430     1.1160 O.3   1 <1>  -0.2800 
 19 C       11.4530    -3.9600     1.9710 C.2   1 <1>  -0.0100 
 20 H        1.5800    -0.4620    -1.6990 H     1 <1>   0.1500 
 21 H        1.4010    -2.1960     2.1900 H     1 <1>   0.1500 
 22 H        3.8520    -1.4160    -2.0160 H     1 <1>   0.1500 
 23 H        3.6660    -3.1470     1.8730 H     1 <1>   0.1500 
 24 H        4.5000    -4.6670    -1.1530 H     1 <1>   0.0800 
 25 H        5.0940    -4.8290     0.4750 H     1 <1>   0.0800 
 26 H        6.1870    -2.5820     1.5370 H     1 <1>   0.0800 
 27 H        6.1930    -1.1940     0.4870 H     1 <1>   0.0800 
 28 H        6.7170    -4.3830    -2.0370 H     1 <1>   0.0800 
 29 H        6.7150    -5.8220    -1.0560 H     1 <1>   0.0800 
 30 H        8.4250    -2.3150     0.6140 H     1 <1>   0.0800 
 31 H        7.7850    -2.2030    -1.0010 H     1 <1>   0.0800 
 32 H        7.7540    -4.5900     0.7300 H     1 <1>   0.4500 
 33 H        9.2560    -4.0550    -1.7330 H     1 <1>   0.0800 
 34 H        9.1760    -5.6140    -0.9370 H     1 <1>   0.0800 
 35 H       11.3030    -2.4620    -0.7760 H     1 <1>   0.1500 
 36 H        9.8900    -5.4770     1.9270 H     1 <1>   0.1500 
 37 H       11.9620    -4.0440     2.9170 H     1 <1>   0.1500 
@<TRIPOS>BOND
  1   1   2  1   
  2   2   3  ar  
  3   2   4  ar  
  4   3   5  ar  
  5   3  20  1   
  6   4   6  ar  
  7   4  21  1   
  8   5   7  ar  
  9   5  22  1   
 10   6   7  ar  
 11   6  23  1   
 12   7   8  1   
 13   8   9  1   
 14   8  10  1   
 15   9  11  1   
 16   9  24  1   
 17   9  25  1   
 18  10  12  1   
 19  10  26  1   
 20  10  27  1   
 21  11  13  1   
 22  11  28  1   
 23  11  29  1   
 24  12  13  1   
 25  12  30  1   
 26  12  31  1   
 27  13  14  1   
 28  13  32  1   
 29  14  15  1   
 30  14  33  1   
 31  14  34  1   
 32  15  16  2   
 33  15  17  1   
 34  16  18  1   
 35  16  35  1   
 36  17  19  2   
 37  17  36  1   
 38  18  19  1   
 39  19  37  1   
@<TRIPOS>SUBSTRUCTURE
  1 ****  10 GROUP 4 **** **** 0

# MOE 2024.06 (io_trps.svl 2023.06)
