@<TRIPOS>MOLECULE
NONAME
50 52 1 0 0 
SMALL
USER_CHARGES


@<TRIPOS>ATOM
  1 O       -2.0710    -1.7270     2.1690 O.2   1 <1>  -0.5700 
  2 C       -2.5720    -0.9510     1.3900 C.2   1 <1>   0.5690 
  3 N       -2.7200     0.3790     1.6190 N.am  1 <1>  -0.5470 
  4 C       -3.1020    -1.3010    -0.0160 C.3   1 <1>   0.4810 
  5 C       -3.2440     1.0180     0.5070 C.ar  1 <1>   0.1170 
  6 C       -2.0310    -1.9610    -0.9030 C.2   1 <1>  -0.1240 
  7 C       -4.3940    -2.1200     0.0550 C.2   1 <1>  -0.1240 
  8 C       -3.4720     0.1040    -0.5060 C.ar  1 <1>  -0.1440 
  9 C       -3.5270     2.3610     0.3240 C.ar  1 <1>  -0.1500 
 10 C       -2.2990    -3.1890    -1.4420 C.2   1 <1>   0.1770 
 11 C       -0.8040    -1.2580    -1.1110 C.2   1 <1>   0.7060 
 12 C       -4.4660    -3.3260    -0.5490 C.2   1 <1>  -0.0620 
 13 C       -5.4730    -1.4830     0.7500 C.2   1 <1>   0.7060 
 14 C       -3.9800     0.5120    -1.7250 C.ar  1 <1>  -0.1500 
 15 C       -4.0380     2.7750    -0.8950 C.ar  1 <1>  -0.1500 
 16 O       -3.4470    -3.8440    -1.2390 O.3   1 <1>  -0.1530 
 17 N       -1.4530    -3.8940    -2.2420 N.pl3 1 <1>  -0.9000 
 18 O        0.0880    -1.6470    -1.8520 O.2   1 <1>  -0.5700 
 19 O       -0.5820    -0.0980    -0.4780 O.3   1 <1>  -0.4300 
 20 C       -5.6680    -4.2570    -0.5510 C.3   1 <1>  -0.1020 
 21 O       -5.4030    -1.1180     1.9030 O.2   1 <1>  -0.5700 
 22 O       -6.5840    -1.2750     0.0400 O.3   1 <1>  -0.4300 
 23 C       -4.2620     1.8570    -1.9140 C.ar  1 <1>  -0.1500 
 24 C        0.6110     0.6420    -0.6480 C.3   1 <1>   0.0400 
 25 C       -7.7330    -0.5510     0.4240 C.3   1 <1>   0.2800 
 26 C       -7.3570     0.9040     0.7280 C.3   1 <1>  -0.2400 
 27 C       -8.4250    -1.2410     1.6050 C.3   1 <1>  -0.2400 
 28 C       -8.6530    -0.5900    -0.7960 C.3   1 <1>  -0.2400 
 29 H       -2.4810     0.8050     2.5130 H     1 <1>   0.3700 
 30 H       -3.3500     3.0640     1.1180 H     1 <1>   0.1500 
 31 H       -4.1600    -0.2000    -2.5140 H     1 <1>   0.1500 
 32 H       -4.2630     3.8150    -1.0560 H     1 <1>   0.1500 
 33 H       -0.5240    -3.5150    -2.4850 H     1 <1>   0.4000 
 34 H       -1.6710    -4.8250    -2.6060 H     1 <1>   0.4000 
 35 H       -5.3760    -5.2230    -0.1810 H     1 <1>   0.0800 
 36 H       -6.0370    -4.3710    -1.5550 H     1 <1>   0.0800 
 37 H       -6.4660    -3.8900     0.0680 H     1 <1>   0.0800 
 38 H       -4.6580     2.1920    -2.8580 H     1 <1>   0.1500 
 39 H        0.7110     0.9080    -1.6860 H     1 <1>   0.0800 
 40 H        1.4440     0.0360    -0.3350 H     1 <1>   0.0800 
 41 H        0.5500     1.5280    -0.0420 H     1 <1>   0.0800 
 42 H       -8.2460     1.4880     0.8830 H     1 <1>   0.0800 
 43 H       -6.7650     0.9740     1.6220 H     1 <1>   0.0800 
 44 H       -6.8080     1.3290    -0.0920 H     1 <1>   0.0800 
 45 H       -7.8320    -1.1720     2.4980 H     1 <1>   0.0800 
 46 H       -8.6090    -2.2750     1.3800 H     1 <1>   0.0800 
 47 H       -9.3670    -0.7640     1.8060 H     1 <1>   0.0800 
 48 H       -8.1710    -0.1330    -1.6410 H     1 <1>   0.0800 
 49 H       -9.5640    -0.0560    -0.5950 H     1 <1>   0.0800 
 50 H       -8.9040    -1.6060    -1.0420 H     1 <1>   0.0800 
@<TRIPOS>BOND
  1   1   2  2   
  2   2   3  am  
  3   2   4  1   
  4   3   5  1   
  5   3  29  1   
  6   4   6  1   
  7   4   7  1   
  8   4   8  1   
  9   5   8  ar  
 10   5   9  ar  
 11   6  10  2   
 12   6  11  1   
 13   7  12  2   
 14   7  13  1   
 15   8  14  ar  
 16   9  15  ar  
 17   9  30  1   
 18  10  16  1   
 19  10  17  1   
 20  11  18  2   
 21  11  19  1   
 22  12  16  1   
 23  12  20  1   
 24  13  21  2   
 25  13  22  1   
 26  14  23  ar  
 27  14  31  1   
 28  15  23  ar  
 29  15  32  1   
 30  17  33  1   
 31  17  34  1   
 32  19  24  1   
 33  20  35  1   
 34  20  36  1   
 35  20  37  1   
 36  22  25  1   
 37  23  38  1   
 38  24  39  1   
 39  24  40  1   
 40  24  41  1   
 41  25  26  1   
 42  25  27  1   
 43  25  28  1   
 44  26  42  1   
 45  26  43  1   
 46  26  44  1   
 47  27  45  1   
 48  27  46  1   
 49  27  47  1   
 50  28  48  1   
 51  28  49  1   
 52  28  50  1   
@<TRIPOS>SUBSTRUCTURE
  1 ****   4 GROUP 4 **** **** 0

# MOE 2024.06 (io_trps.svl 2023.06)
