@<TRIPOS>MOLECULE
NONAME
53 55 1 0 0 
SMALL
USER_CHARGES


@<TRIPOS>ATOM
  1 N      -10.4580     1.9600     0.5400 N.pl3 1 <1>  -0.7030 
  2 C       -9.4890     2.8400     0.2600 C.cat 1 <1>   1.0690 
  3 C      -11.6110     2.6960     0.7780 C.ar  1 <1>   0.3030 
  4 N       -9.9360     4.0850     0.3020 N.pl3 1 <1>  -0.6330 
  5 N       -8.1850     2.7810    -0.0670 N.pl3 1 <1>  -0.5710 
  6 C      -11.2870     4.0370     0.6290 C.ar  1 <1>   0.3030 
  7 C      -12.9060     2.3130     1.1060 C.ar  1 <1>  -0.1160 
  8 C       -8.8830     4.9000    -0.0440 C.2   1 <1>   0.2230 
  9 C       -7.7990     4.1220    -0.2780 C.2   1 <1>   0.1580 
 10 C       -7.4330     1.5040    -0.2930 C.3   1 <1>   0.1610 
 11 C      -12.2420     5.0290     0.8030 C.ar  1 <1>  -0.1160 
 12 C      -13.8590     3.2990     1.2800 C.ar  1 <1>  -0.1570 
 13 C       -6.4100     4.6750    -0.6890 C.3   1 <1>   0.1310 
 14 C       -6.3270     1.2630     0.7580 C.3   1 <1>   0.3380 
 15 C      -13.5300     4.6480     1.1300 C.ar  1 <1>  -0.1570 
 16 C       -5.5610     4.9240     0.5670 C.3   1 <1>  -0.2460 
 17 C       -6.5740     6.0310    -1.4050 C.3   1 <1>  -0.2460 
 18 C       -5.6390     3.7640    -1.6610 C.3   1 <1>  -0.2460 
 19 N       -5.4160     0.1220     0.4030 N.4   1 <1>  -0.9610 
 20 C       -6.0760    -1.2060     0.5310 C.3   1 <1>   0.3380 
 21 C       -4.1750     0.1550     1.2300 C.3   1 <1>   0.3380 
 22 C       -5.3610    -2.2060    -0.3690 C.3   1 <1>  -0.2460 
 23 C       -3.2510     1.2520     0.7160 C.3   1 <1>  -0.2460 
 24 H      -10.4040     0.9450     0.5380 H     1 <1>   0.4450 
 25 H      -13.1600     1.2740     1.2210 H     1 <1>   0.1430 
 26 H       -8.9940     5.9720    -0.0940 H     1 <1>   0.1430 
 27 H       -7.0070     1.5240    -1.2800 H     1 <1>   0.0730 
 28 H       -8.1240     0.6800    -0.2630 H     1 <1>   0.0730 
 29 H      -11.9800     6.0650     0.6860 H     1 <1>   0.1430 
 30 H      -14.8730     3.0320     1.5360 H     1 <1>   0.1430 
 31 H       -6.7720     1.0810     1.7220 H     1 <1>   0.0730 
 32 H       -5.7370     2.1560     0.8280 H     1 <1>   0.0730 
 33 H      -14.2950     5.3960     1.2730 H     1 <1>   0.1430 
 34 H       -6.0360     5.6480     1.2050 H     1 <1>   0.0730 
 35 H       -4.5930     5.3100     0.2950 H     1 <1>   0.0730 
 36 H       -5.4140     4.0300     1.1380 H     1 <1>   0.0730 
 37 H       -5.6190     6.4060    -1.7320 H     1 <1>   0.0730 
 38 H       -6.9950     6.7770    -0.7560 H     1 <1>   0.0730 
 39 H       -7.2020     5.9300    -2.2740 H     1 <1>   0.0730 
 40 H       -4.7860     4.2840    -2.0640 H     1 <1>   0.0730 
 41 H       -6.2660     3.4760    -2.4870 H     1 <1>   0.0730 
 42 H       -5.2580     2.8900    -1.1750 H     1 <1>   0.0730 
 43 H       -5.1020     0.2150    -0.5740 H     1 <1>   0.4450 
 44 H       -7.1050    -1.1420     0.2190 H     1 <1>   0.0730 
 45 H       -6.0510    -1.5410     1.5560 H     1 <1>   0.0730 
 46 H       -3.6590    -0.7890     1.1560 H     1 <1>   0.0730 
 47 H       -4.4170     0.3230     2.2670 H     1 <1>   0.0730 
 48 H       -5.3860    -1.8880    -1.3960 H     1 <1>   0.0730 
 49 H       -5.8630    -3.1560    -0.3060 H     1 <1>   0.0730 
 50 H       -4.3420    -2.3580    -0.0620 H     1 <1>   0.0730 
 51 H       -3.0200     1.1030    -0.3240 H     1 <1>   0.0730 
 52 H       -2.3270     1.2130     1.2650 H     1 <1>   0.0730 
 53 H       -3.6690     2.2310     0.8610 H     1 <1>   0.0730 
@<TRIPOS>BOND
  1   1   2  ar  
  2   1   3  1   
  3   1  24  1   
  4   2   4  ar  
  5   2   5  ar  
  6   3   6  ar  
  7   3   7  ar  
  8   4   6  1   
  9   4   8  1   
 10   5   9  1   
 11   5  10  1   
 12   6  11  ar  
 13   7  12  ar  
 14   7  25  1   
 15   8   9  2   
 16   8  26  1   
 17   9  13  1   
 18  10  14  1   
 19  10  27  1   
 20  10  28  1   
 21  11  15  ar  
 22  11  29  1   
 23  12  15  ar  
 24  12  30  1   
 25  13  16  1   
 26  13  17  1   
 27  13  18  1   
 28  14  19  1   
 29  14  31  1   
 30  14  32  1   
 31  15  33  1   
 32  16  34  1   
 33  16  35  1   
 34  16  36  1   
 35  17  37  1   
 36  17  38  1   
 37  17  39  1   
 38  18  40  1   
 39  18  41  1   
 40  18  42  1   
 41  19  20  1   
 42  19  21  1   
 43  19  43  1   
 44  20  22  1   
 45  20  44  1   
 46  20  45  1   
 47  21  23  1   
 48  21  46  1   
 49  21  47  1   
 50  22  48  1   
 51  22  49  1   
 52  22  50  1   
 53  23  51  1   
 54  23  52  1   
 55  23  53  1   
@<TRIPOS>SUBSTRUCTURE
  1 ****   5 GROUP 4 **** **** 0

# MOE 2024.06 (io_trps.svl 2023.06)
