@<TRIPOS>MOLECULE
NONAME
37 38 1 0 0 
SMALL
USER_CHARGES


@<TRIPOS>ATOM
  1 CL       3.0790    -0.6220    -3.9070 Cl    1 <1>  -0.1770 
  2 C        3.0740    -1.1130    -2.2340 C.ar  1 <1>   0.1770 
  3 C        4.0210    -0.5850    -1.3770 C.ar  1 <1>  -0.1500 
  4 C        2.1320    -2.0210    -1.7930 C.ar  1 <1>  -0.1500 
  5 C        4.0350    -0.9770    -0.0450 C.ar  1 <1>  -0.1440 
  6 C        2.1390    -2.4070    -0.4640 C.ar  1 <1>  -0.1500 
  7 C        3.0850    -1.8860     0.4050 C.ar  1 <1>  -0.1500 
  8 C        5.0820    -0.4250     0.9050 C.3   1 <1>   0.4870 
  9 N        6.4040    -0.9910     0.5370 N.4   1 <1>  -0.9590 
 10 C        6.4650    -2.4910     0.5700 C.3   1 <1>   0.3430 
 11 C        7.5600    -0.3920     1.2770 C.3   1 <1>   0.3430 
 12 C        7.8430    -3.0060     0.0830 C.3   1 <1>   0.1100 
 13 C        8.9030    -0.8960     0.6940 C.3   1 <1>   0.1100 
 14 N        8.7230    -1.9080    -0.3830 N.3   1 <1>  -0.8100 
 15 C       10.0440    -2.4320    -0.8470 C.3   1 <1>   0.1710 
 16 C       10.9980    -1.3630    -1.3960 C.2   1 <1>   0.5690 
 17 O       11.7900    -0.8400    -0.6540 O.2   1 <1>  -0.5700 
 18 N       10.9420    -0.9940    -2.6910 N.am  1 <1>  -0.8000 
 19 H        4.7280     0.1250    -1.7690 H     1 <1>   0.1500 
 20 H        1.4050    -2.4160    -2.4810 H     1 <1>   0.1500 
 21 H        1.4040    -3.1110    -0.1080 H     1 <1>   0.1500 
 22 H        3.0650    -2.2000     1.4360 H     1 <1>   0.1500 
 23 H        4.8330    -0.6890     1.9200 H     1 <1>   0.0800 
 24 H        5.1030     0.6500     0.8260 H     1 <1>   0.0800 
 25 H        6.5960    -0.7710    -0.4520 H     1 <1>   0.4500 
 26 H        5.6990    -2.9010    -0.0690 H     1 <1>   0.0800 
 27 H        6.2840    -2.8500     1.5690 H     1 <1>   0.0800 
 28 H        7.5070    -0.6550     2.3200 H     1 <1>   0.0800 
 29 H        7.5320     0.6830     1.2050 H     1 <1>   0.0800 
 30 H        7.6860    -3.7060    -0.7200 H     1 <1>   0.0800 
 31 H        8.3210    -3.5410     0.8870 H     1 <1>   0.0800 
 32 H        9.5010    -1.3060     1.4900 H     1 <1>   0.0800 
 33 H        9.4380    -0.0460     0.3030 H     1 <1>   0.0800 
 34 H        9.8830    -3.1600    -1.6210 H     1 <1>   0.0800 
 35 H       10.5410    -2.9280    -0.0310 H     1 <1>   0.0800 
 36 H       11.5890    -0.2820    -3.0370 H     1 <1>   0.3700 
 37 H       10.2640    -1.3550    -3.3610 H     1 <1>   0.3700 
@<TRIPOS>BOND
  1   1   2  1   
  2   2   3  ar  
  3   2   4  ar  
  4   3   5  ar  
  5   3  19  1   
  6   4   6  ar  
  7   4  20  1   
  8   5   7  ar  
  9   5   8  1   
 10   6   7  ar  
 11   6  21  1   
 12   7  22  1   
 13   8   9  1   
 14   8  23  1   
 15   8  24  1   
 16   9  10  1   
 17   9  11  1   
 18   9  25  1   
 19  10  12  1   
 20  10  26  1   
 21  10  27  1   
 22  11  13  1   
 23  11  28  1   
 24  11  29  1   
 25  12  14  1   
 26  12  30  1   
 27  12  31  1   
 28  13  14  1   
 29  13  32  1   
 30  13  33  1   
 31  14  15  1   
 32  15  16  1   
 33  15  34  1   
 34  15  35  1   
 35  16  17  2   
 36  16  18  am  
 37  18  36  1   
 38  18  37  1   
@<TRIPOS>SUBSTRUCTURE
  1 ****   9 GROUP 4 **** **** 0

# MOE 2024.06 (io_trps.svl 2023.06)
