@<TRIPOS>MOLECULE
NONAME
44 47 1 0 0 
SMALL
USER_CHARGES


@<TRIPOS>ATOM
  1 F        4.2730     1.7860    -3.3800 F     1 <1>  -0.1900 
  2 C        3.3420     2.3360    -2.6380 C.ar  1 <1>   0.1900 
  3 C        3.5730     2.5300    -1.2800 C.ar  1 <1>   0.0830 
  4 C        2.1590     2.7010    -3.2500 C.ar  1 <1>  -0.1500 
  5 O        4.7690     2.1390    -0.7610 O.3   1 <1>  -0.3630 
  6 C        2.5610     3.1170    -0.5230 C.ar  1 <1>  -0.1500 
  7 C        1.1640     3.2830    -2.4820 C.ar  1 <1>  -0.1500 
  8 C        5.0740     2.3060     0.6190 C.3   1 <1>   0.1810 
  9 C        1.3680     3.4880    -1.1250 C.ar  1 <1>  -0.1500 
 10 C        6.4710     1.7890     0.9440 C.2   1 <1>   0.5690 
 11 O        6.8540     1.8730     2.0860 O.2   1 <1>  -0.5700 
 12 N        7.2240     1.2590    -0.0580 N.am  1 <1>  -0.7300 
 13 C        8.5820     0.6980    -0.0100 C.3   1 <1>   0.3000 
 14 C        9.5960     1.7630     0.4470 C.3   1 <1>  -0.1600 
 15 C        8.9470     0.2400    -1.4340 C.3   1 <1>  -0.1600 
 16 C        8.6380    -0.5170     0.9350 C.3   1 <1>  -0.1600 
 17 C       11.0190     1.1700     0.4440 C.3   1 <1>  -0.0800 
 18 C       10.3660    -0.3610    -1.4550 C.3   1 <1>  -0.0800 
 19 C       10.0580    -1.1180     0.9330 C.3   1 <1>  -0.0800 
 20 C       11.3720     0.7060    -0.9830 C.3   1 <1>  -0.1600 
 21 C       11.0620    -0.0430     1.3940 C.3   1 <1>  -0.1600 
 22 C       10.4170    -1.5650    -0.4960 C.3   1 <1>  -0.1600 
 23 H        2.0220     2.5330    -4.3030 H     1 <1>   0.1500 
 24 H        2.6780     3.2930     0.5300 H     1 <1>   0.1500 
 25 H        0.2340     3.5760    -2.9380 H     1 <1>   0.1500 
 26 H        4.3530     1.7590     1.1960 H     1 <1>   0.0800 
 27 H        5.0220     3.3530     0.8550 H     1 <1>   0.0800 
 28 H        0.5900     3.9420    -0.5350 H     1 <1>   0.1500 
 29 H        6.7950     1.2400    -0.9860 H     1 <1>   0.3700 
 30 H        9.3570     2.0950     1.4410 H     1 <1>   0.0800 
 31 H        9.5550     2.6130    -0.2100 H     1 <1>   0.0800 
 32 H        8.2430    -0.5000    -1.7710 H     1 <1>   0.0800 
 33 H        8.9060     1.0770    -2.1080 H     1 <1>   0.0800 
 34 H        7.9280    -1.2590     0.6190 H     1 <1>   0.0800 
 35 H        8.3870    -0.2150     1.9360 H     1 <1>   0.0800 
 36 H       11.7240     1.9150     0.7710 H     1 <1>   0.0800 
 37 H       10.6140    -0.6780    -2.4540 H     1 <1>   0.0800 
 38 H       10.0950    -1.9620     1.6010 H     1 <1>   0.0800 
 39 H       12.3680     0.2990    -0.9970 H     1 <1>   0.0800 
 40 H       11.3540     1.5480    -1.6540 H     1 <1>   0.0800 
 41 H       12.0550    -0.4570     1.4120 H     1 <1>   0.0800 
 42 H       10.8220     0.2720     2.3950 H     1 <1>   0.0800 
 43 H       11.4030    -1.9960    -0.5050 H     1 <1>   0.0800 
 44 H        9.7280    -2.3230    -0.8250 H     1 <1>   0.0800 
@<TRIPOS>BOND
  1   1   2  1   
  2   2   3  ar  
  3   2   4  ar  
  4   3   5  1   
  5   3   6  ar  
  6   4   7  ar  
  7   4  23  1   
  8   5   8  1   
  9   6   9  ar  
 10   6  24  1   
 11   7   9  ar  
 12   7  25  1   
 13   8  10  1   
 14   8  26  1   
 15   8  27  1   
 16   9  28  1   
 17  10  11  2   
 18  10  12  am  
 19  12  13  1   
 20  12  29  1   
 21  13  14  1   
 22  13  15  1   
 23  13  16  1   
 24  14  17  1   
 25  14  30  1   
 26  14  31  1   
 27  15  18  1   
 28  15  32  1   
 29  15  33  1   
 30  16  19  1   
 31  16  34  1   
 32  16  35  1   
 33  17  20  1   
 34  17  21  1   
 35  17  36  1   
 36  18  20  1   
 37  18  22  1   
 38  18  37  1   
 39  19  21  1   
 40  19  22  1   
 41  19  38  1   
 42  20  39  1   
 43  20  40  1   
 44  21  41  1   
 45  21  42  1   
 46  22  43  1   
 47  22  44  1   
@<TRIPOS>SUBSTRUCTURE
  1 ****  12 GROUP 4 **** **** 0

# MOE 2024.06 (io_trps.svl 2023.06)
