@<TRIPOS>MOLECULE
NONAME
47 49 1 0 0 
SMALL
USER_CHARGES


@<TRIPOS>ATOM
  1 CL      -0.1740    -0.2550    -1.0410 Cl    1 <1>  -0.1770 
  2 C       -1.8720    -0.0890    -0.6250 C.ar  1 <1>   0.1770 
  3 C       -2.3930     1.1480    -0.2300 C.ar  1 <1>   0.1000 
  4 C       -2.6400    -1.2350    -0.6940 C.ar  1 <1>  -0.1500 
  5 N       -1.5530     2.2860    -0.2030 N.pl3 1 <1>  -0.8380 
  6 C       -3.7590     1.1900     0.1280 C.ar  1 <1>   0.1170 
  7 C       -3.9760    -1.1760    -0.3550 C.ar  1 <1>  -0.1500 
  8 C       -1.2480     3.0160     1.0640 C.3   1 <1>   0.2090 
  9 C       -1.0320     2.8350    -1.5000 C.3   1 <1>   0.2090 
 10 N       -4.4370     2.3350     0.6020 N.am  1 <1>  -0.5470 
 11 C       -4.5200     0.0280     0.0540 C.ar  1 <1>  -0.1500 
 12 C       -1.4070     4.5540     0.9330 C.3   1 <1>   0.3430 
 13 C       -0.7440     4.3500    -1.4380 C.3   1 <1>   0.3430 
 14 C       -4.6710     3.5360    -0.0170 C.2   1 <1>   0.5440 
 15 N       -1.6710     5.0210    -0.4720 N.4   1 <1>  -0.9590 
 16 O       -4.1160     3.8090    -1.0640 O.2   1 <1>  -0.5700 
 17 C       -5.5620     4.5010     0.6000 C.ar  1 <1>   0.0860 
 18 C       -1.7540     6.4940    -0.5950 C.3   1 <1>   0.3430 
 19 C       -5.6850     4.6080     1.9860 C.ar  1 <1>  -0.1500 
 20 C       -6.3210     5.3760    -0.1840 C.ar  1 <1>  -0.1500 
 21 C       -2.4760     6.8600    -1.8860 C.3   1 <1>  -0.2400 
 22 C       -6.5340     5.5510     2.5280 C.ar  1 <1>   0.1900 
 23 C       -7.1700     6.3180     0.3760 C.ar  1 <1>  -0.1500 
 24 F       -6.6260     5.6330     3.8260 F     1 <1>  -0.1900 
 25 C       -7.2830     6.4120     1.7520 C.ar  1 <1>  -0.1500 
 26 H       -2.1920    -2.1610    -1.0080 H     1 <1>   0.1500 
 27 H       -4.5880    -2.0610    -0.4070 H     1 <1>   0.1500 
 28 H       -0.2340     2.7930     1.3500 H     1 <1>   0.0800 
 29 H       -1.8850     2.6550     1.8520 H     1 <1>   0.0800 
 30 H       -1.7650     2.6520    -2.2670 H     1 <1>   0.0800 
 31 H       -0.1310     2.3180    -1.7820 H     1 <1>   0.0800 
 32 H       -5.0810     2.1280     1.3640 H     1 <1>   0.3700 
 33 H       -5.5630     0.0580     0.3140 H     1 <1>   0.1500 
 34 H       -0.5130     5.0210     1.3090 H     1 <1>   0.0800 
 35 H       -2.2210     4.8640     1.5660 H     1 <1>   0.0800 
 36 H       -0.8590     4.7620    -2.4250 H     1 <1>   0.0800 
 37 H        0.2760     4.5030    -1.1290 H     1 <1>   0.0800 
 38 H       -2.5980     4.6100    -0.7220 H     1 <1>   0.4500 
 39 H       -0.7670     6.9270    -0.5810 H     1 <1>   0.0800 
 40 H       -2.3130     6.8930     0.2370 H     1 <1>   0.0800 
 41 H       -5.1280     3.9740     2.6510 H     1 <1>   0.1500 
 42 H       -6.2470     5.3130    -1.2580 H     1 <1>   0.1500 
 43 H       -1.9110     6.5640    -2.7510 H     1 <1>   0.0800 
 44 H       -2.6050     7.9270    -1.9280 H     1 <1>   0.0800 
 45 H       -3.4500     6.4050    -1.9180 H     1 <1>   0.0800 
 46 H       -7.7450     6.9750    -0.2570 H     1 <1>   0.1500 
 47 H       -7.9350     7.1330     2.2130 H     1 <1>   0.1500 
@<TRIPOS>BOND
  1   1   2  1   
  2   2   3  ar  
  3   2   4  ar  
  4   3   5  1   
  5   3   6  ar  
  6   4   7  ar  
  7   4  26  1   
  8   5   8  1   
  9   5   9  1   
 10   6  10  1   
 11   6  11  ar  
 12   7  11  ar  
 13   7  27  1   
 14   8  12  1   
 15   8  28  1   
 16   8  29  1   
 17   9  13  1   
 18   9  30  1   
 19   9  31  1   
 20  10  14  am  
 21  10  32  1   
 22  11  33  1   
 23  12  15  1   
 24  12  34  1   
 25  12  35  1   
 26  13  15  1   
 27  13  36  1   
 28  13  37  1   
 29  14  16  2   
 30  14  17  1   
 31  15  18  1   
 32  15  38  1   
 33  17  19  ar  
 34  17  20  ar  
 35  18  21  1   
 36  18  39  1   
 37  18  40  1   
 38  19  22  ar  
 39  19  41  1   
 40  20  23  ar  
 41  20  42  1   
 42  21  43  1   
 43  21  44  1   
 44  21  45  1   
 45  22  24  1   
 46  22  25  ar  
 47  23  25  ar  
 48  23  46  1   
 49  25  47  1   
@<TRIPOS>SUBSTRUCTURE
  1 ****  14 GROUP 4 **** **** 0

# MOE 2024.06 (io_trps.svl 2023.06)
