@<TRIPOS>MOLECULE
NONAME
37 37 1 0 0 
SMALL
USER_CHARGES


@<TRIPOS>ATOM
  1 CL       0.5670    -0.3920    -2.1480 Cl    1 <1>  -0.1770 
  2 C       -0.5770     0.5910    -1.2520 C.ar  1 <1>   0.1770 
  3 C       -0.2850     1.8890    -0.8140 C.ar  1 <1>   0.0830 
  4 C       -1.8120     0.0200    -1.0110 C.ar  1 <1>  -0.1500 
  5 O        0.9150     2.5120    -0.9930 O.3   1 <1>  -0.3630 
  6 C       -1.2760     2.6120    -0.1520 C.ar  1 <1>  -0.1440 
  7 C       -2.7810     0.7390    -0.3370 C.ar  1 <1>  -0.1500 
  8 C        2.1220     1.8100    -0.8250 C.3   1 <1>   0.1200 
  9 C       -2.5120     2.0300     0.0850 C.ar  1 <1>  -0.1500 
 10 C       -1.0250     4.0380     0.3200 C.3   1 <1>  -0.0960 
 11 C        3.1780     2.8040    -0.3350 C.3   1 <1>   0.3430 
 12 N        4.5480     2.1960    -0.2220 N.4   1 <1>  -0.9590 
 13 C        4.6110     1.1290     0.8160 C.3   1 <1>   0.3430 
 14 C        5.5500     3.2660     0.0270 C.3   1 <1>   0.3430 
 15 C        4.7560    -0.2170     0.1190 C.3   1 <1>  -0.2400 
 16 C        6.9450     2.7500    -0.3090 C.3   1 <1>  -0.2400 
 17 H       -2.0150    -0.9800    -1.3530 H     1 <1>   0.1500 
 18 H       -3.7460     0.3000    -0.1460 H     1 <1>   0.1500 
 19 H        2.4040     1.4070    -1.7810 H     1 <1>   0.0800 
 20 H        1.9620     1.0270    -0.1040 H     1 <1>   0.0800 
 21 H       -3.2810     2.5800     0.6010 H     1 <1>   0.1500 
 22 H       -0.7170     4.6490    -0.5100 H     1 <1>   0.0800 
 23 H       -0.2530     4.0480     1.0670 H     1 <1>   0.0800 
 24 H       -1.9150     4.4690     0.7430 H     1 <1>   0.0800 
 25 H        2.8730     3.1920     0.6230 H     1 <1>   0.0800 
 26 H        3.2110     3.6220    -1.0360 H     1 <1>   0.0800 
 27 H        4.7870     1.7650    -1.1260 H     1 <1>   0.4500 
 28 H        3.7200     1.1380     1.4240 H     1 <1>   0.0800 
 29 H        5.4590     1.2850     1.4640 H     1 <1>   0.0800 
 30 H        5.5080     3.5880     1.0550 H     1 <1>   0.0800 
 31 H        5.3370     4.1170    -0.6020 H     1 <1>   0.0800 
 32 H        3.9140    -0.4260    -0.5160 H     1 <1>   0.0800 
 33 H        5.6630    -0.2510    -0.4590 H     1 <1>   0.0800 
 34 H        4.8090    -0.9940     0.8610 H     1 <1>   0.0800 
 35 H        7.6550     3.5460    -0.1760 H     1 <1>   0.0800 
 36 H        7.2360     1.9430     0.3390 H     1 <1>   0.0800 
 37 H        6.9980     2.4290    -1.3340 H     1 <1>   0.0800 
@<TRIPOS>BOND
  1   1   2  1   
  2   2   3  ar  
  3   2   4  ar  
  4   3   5  1   
  5   3   6  ar  
  6   4   7  ar  
  7   4  17  1   
  8   5   8  1   
  9   6   9  ar  
 10   6  10  1   
 11   7   9  ar  
 12   7  18  1   
 13   8  11  1   
 14   8  19  1   
 15   8  20  1   
 16   9  21  1   
 17  10  22  1   
 18  10  23  1   
 19  10  24  1   
 20  11  12  1   
 21  11  25  1   
 22  11  26  1   
 23  12  13  1   
 24  12  14  1   
 25  12  27  1   
 26  13  15  1   
 27  13  28  1   
 28  13  29  1   
 29  14  16  1   
 30  14  30  1   
 31  14  31  1   
 32  15  32  1   
 33  15  33  1   
 34  15  34  1   
 35  16  35  1   
 36  16  36  1   
 37  16  37  1   
@<TRIPOS>SUBSTRUCTURE
  1 ****   8 GROUP 4 **** **** 0

# MOE 2024.06 (io_trps.svl 2023.06)
