@<TRIPOS>MOLECULE
NONAME
36 37 1 0 0 
SMALL
USER_CHARGES


@<TRIPOS>ATOM
  1 CL       0.2230    -0.0180    -0.6880 Cl    1 <1>  -0.1770 
  2 C        1.0110    -1.5060    -0.2280 C.ar  1 <1>   0.1770 
  3 C        2.3610    -1.6570    -0.4710 C.ar  1 <1>  -0.1500 
  4 C        0.2680    -2.5060     0.3710 C.ar  1 <1>  -0.1500 
  5 C        3.0060    -2.8340    -0.1110 C.ar  1 <1>   0.1170 
  6 C        0.8990    -3.6840     0.7310 C.ar  1 <1>  -0.1500 
  7 N        4.3780    -2.9570    -0.3830 N.am  1 <1>  -0.5470 
  8 C        2.2540    -3.8430     0.4890 C.ar  1 <1>  -0.1500 
  9 C        5.3340    -3.7610     0.1780 C.2   1 <1>   0.5690 
 10 O        5.1090    -4.5250     1.0840 O.2   1 <1>  -0.5700 
 11 C        6.7550    -3.6490    -0.3780 C.3   1 <1>  -0.0190 
 12 C        7.5560    -4.9600    -0.2360 C.3   1 <1>  -0.1600 
 13 C        7.5190    -2.4930     0.2950 C.3   1 <1>  -0.1600 
 14 C        8.9830    -4.8130    -0.7720 C.3   1 <1>   0.1400 
 15 C        8.9480    -2.3690    -0.2420 C.3   1 <1>   0.1400 
 16 N        9.6520    -3.6710    -0.0880 N.am  1 <1>  -0.6600 
 17 C       10.8030    -3.7630     0.6550 C.2   1 <1>   0.5690 
 18 O       11.3190    -2.7980     1.1640 O.2   1 <1>  -0.5700 
 19 C       11.4810    -5.0960     0.8680 C.3   1 <1>  -0.1790 
 20 H        2.9000    -0.8540    -0.9360 H     1 <1>   0.1500 
 21 H       -0.7830    -2.3620     0.5500 H     1 <1>   0.1500 
 22 H        0.3400    -4.4760     1.1980 H     1 <1>   0.1500 
 23 H        4.7270    -2.3030    -1.0790 H     1 <1>   0.3700 
 24 H        2.7240    -4.7670     0.7710 H     1 <1>   0.1500 
 25 H        6.6760    -3.4330    -1.4280 H     1 <1>   0.0800 
 26 H        7.0550    -5.7490    -0.7680 H     1 <1>   0.0800 
 27 H        7.6070    -5.2480     0.8000 H     1 <1>   0.0800 
 28 H        7.5650    -2.6600     1.3580 H     1 <1>   0.0800 
 29 H        7.0020    -1.5640     0.1350 H     1 <1>   0.0800 
 30 H        8.9580    -4.6180    -1.8300 H     1 <1>   0.0800 
 31 H        9.5170    -5.7320    -0.6180 H     1 <1>   0.0800 
 32 H        9.4640    -1.5900     0.2930 H     1 <1>   0.0800 
 33 H        8.9330    -2.1000    -1.2840 H     1 <1>   0.0800 
 34 H       11.7990    -5.4990    -0.0740 H     1 <1>   0.0800 
 35 H       10.8050    -5.7750     1.3510 H     1 <1>   0.0800 
 36 H       12.3440    -4.9670     1.4950 H     1 <1>   0.0800 
@<TRIPOS>BOND
  1   1   2  1   
  2   2   3  ar  
  3   2   4  ar  
  4   3   5  ar  
  5   3  20  1   
  6   4   6  ar  
  7   4  21  1   
  8   5   7  1   
  9   5   8  ar  
 10   6   8  ar  
 11   6  22  1   
 12   7   9  am  
 13   7  23  1   
 14   8  24  1   
 15   9  10  2   
 16   9  11  1   
 17  11  12  1   
 18  11  13  1   
 19  11  25  1   
 20  12  14  1   
 21  12  26  1   
 22  12  27  1   
 23  13  15  1   
 24  13  28  1   
 25  13  29  1   
 26  14  16  1   
 27  14  30  1   
 28  14  31  1   
 29  15  16  1   
 30  15  32  1   
 31  15  33  1   
 32  16  17  am  
 33  17  18  2   
 34  17  19  1   
 35  19  34  1   
 36  19  35  1   
 37  19  36  1   
@<TRIPOS>SUBSTRUCTURE
  1 ****   9 GROUP 4 **** **** 0

# MOE 2024.06 (io_trps.svl 2023.06)
