@<TRIPOS>MOLECULE
NONAME
43 44 1 0 0 
SMALL
USER_CHARGES


@<TRIPOS>ATOM
  1 S       -1.0500    -0.4610    -1.6950 S.3   1 <1>  -0.2860 
  2 C       -1.4660    -0.9480    -0.0140 C.2   1 <1>   0.2420 
  3 C        0.8040    -0.5800    -1.7220 C.3   1 <1>   0.1310 
  4 N       -0.6920    -1.6200     0.7450 N.2   1 <1>  -0.3380 
  5 N       -2.6170    -0.6530     0.5760 N.pl3 1 <1>   0.5930 
  6 C        1.4290     0.3680    -0.7000 C.2   1 <1>   0.5690 
  7 N       -1.3800    -1.7610     1.8740 N.2   1 <1>   0.0000 
  8 N       -2.5320    -1.1920     1.7900 N.2   1 <1>  -0.4180 
  9 C       -3.7320     0.0830     0.0810 C.ar  1 <1>  -0.0230 
 10 O        0.9380     1.4590    -0.5440 O.2   1 <1>  -0.5700 
 11 N        2.5280     0.0560     0.0330 N.am  1 <1>  -0.7300 
 12 C       -4.8610    -0.5870    -0.4000 C.ar  1 <1>  -0.1430 
 13 C       -3.7030     1.4800     0.0670 C.ar  1 <1>  -0.1430 
 14 C        3.4230    -1.1010     0.1140 C.3   1 <1>   0.3000 
 15 C       -5.9370     0.1370    -0.8830 C.ar  1 <1>  -0.1500 
 16 C       -4.9360    -2.1100    -0.4050 C.3   1 <1>  -0.0970 
 17 C       -4.7900     2.1850    -0.4230 C.ar  1 <1>  -0.1500 
 18 C       -2.4940     2.2580     0.5790 C.3   1 <1>  -0.0970 
 19 C        3.9700    -1.4590    -1.2690 C.3   1 <1>  -0.2400 
 20 C        2.6940    -2.2770     0.7630 C.3   1 <1>  -0.2400 
 21 C        4.5800    -0.6710     1.0130 C.3   1 <1>  -0.2400 
 22 C       -5.9030     1.5180    -0.8960 C.ar  1 <1>  -0.1500 
 23 H        1.1190    -0.3130    -2.7130 H     1 <1>   0.0800 
 24 H        1.0410    -1.6030    -1.5210 H     1 <1>   0.0800 
 25 H        2.7790     0.7880     0.6980 H     1 <1>   0.3700 
 26 H       -6.8130    -0.3670    -1.2540 H     1 <1>   0.1500 
 27 H       -4.1280    -2.5220    -0.9830 H     1 <1>   0.0800 
 28 H       -5.8610    -2.4500    -0.8330 H     1 <1>   0.0800 
 29 H       -4.8740    -2.4870     0.6010 H     1 <1>   0.0800 
 30 H       -4.7760     3.2610    -0.4410 H     1 <1>   0.1500 
 31 H       -2.2030     1.9100     1.5540 H     1 <1>   0.0800 
 32 H       -2.7150     3.3070     0.6550 H     1 <1>   0.0800 
 33 H       -1.6640     2.1400    -0.0950 H     1 <1>   0.0800 
 34 H        3.2090    -1.8610    -1.9080 H     1 <1>   0.0800 
 35 H        4.7360    -2.2070    -1.1750 H     1 <1>   0.0800 
 36 H        4.4030    -0.5920    -1.7360 H     1 <1>   0.0800 
 37 H        3.3810    -3.0850     0.9400 H     1 <1>   0.0800 
 38 H        1.9080    -2.6510     0.1360 H     1 <1>   0.0800 
 39 H        2.2700    -1.9820     1.7060 H     1 <1>   0.0800 
 40 H        5.2850    -1.4760     1.1230 H     1 <1>   0.0800 
 41 H        4.2220    -0.4070     1.9920 H     1 <1>   0.0800 
 42 H        5.0980     0.1710     0.5870 H     1 <1>   0.0800 
 43 H       -6.7440     2.0740    -1.2740 H     1 <1>   0.1500 
@<TRIPOS>BOND
  1   1   2  1   
  2   1   3  1   
  3   2   4  2   
  4   2   5  1   
  5   3   6  1   
  6   3  23  1   
  7   3  24  1   
  8   4   7  1   
  9   5   8  1   
 10   5   9  1   
 11   6  10  2   
 12   6  11  am  
 13   7   8  2   
 14   9  12  ar  
 15   9  13  ar  
 16  11  14  1   
 17  11  25  1   
 18  12  15  ar  
 19  12  16  1   
 20  13  17  ar  
 21  13  18  1   
 22  14  19  1   
 23  14  20  1   
 24  14  21  1   
 25  15  22  ar  
 26  15  26  1   
 27  16  27  1   
 28  16  28  1   
 29  16  29  1   
 30  17  22  ar  
 31  17  30  1   
 32  18  31  1   
 33  18  32  1   
 34  18  33  1   
 35  19  34  1   
 36  19  35  1   
 37  19  36  1   
 38  20  37  1   
 39  20  38  1   
 40  20  39  1   
 41  21  40  1   
 42  21  41  1   
 43  21  42  1   
 44  22  43  1   
@<TRIPOS>SUBSTRUCTURE
  1 ****   2 GROUP 4 **** **** 0

# MOE 2024.06 (io_trps.svl 2023.06)
