@<TRIPOS>MOLECULE
NONAME
32 34 1 0 0 
SMALL
USER_CHARGES


@<TRIPOS>ATOM
  1 O        1.0560    -0.5170     0.9970 O.2   1 <1>  -0.5700 
  2 C        2.0120    -0.4350     0.2540 C.2   1 <1>   0.6900 
  3 N        2.3540    -1.4080    -0.6550 N.am  1 <1>  -0.6600 
  4 N        2.8700     0.6430     0.2280 N.am  1 <1>  -0.6600 
  5 C        3.7150    -1.0550    -0.9930 C.3   1 <1>   0.5200 
  6 C        1.9350    -2.8210    -0.5300 C.3   1 <1>   0.2840 
  7 C        3.5830     0.4510    -1.0150 C.3   1 <1>   0.5200 
  8 C        2.5470     1.9950     0.7390 C.3   1 <1>   0.0600 
  9 N        4.4430    -1.2460    -2.2240 N.am  1 <1>  -0.7300 
 10 C        3.0850    -3.6700    -0.0100 C.ar  1 <1>  -0.1440 
 11 N        4.9380     0.7960    -1.3690 N.am  1 <1>  -0.7300 
 12 C        5.2880    -0.1800    -2.2510 C.2   1 <1>   0.6900 
 13 C        3.7890    -4.5070    -0.8640 C.ar  1 <1>  -0.1500 
 14 C        3.4480    -3.5980     1.3270 C.ar  1 <1>  -0.1500 
 15 O        6.2450    -0.1040    -2.9840 O.2   1 <1>  -0.5700 
 16 C        4.8480    -5.2590    -0.3870 C.ar  1 <1>  -0.1500 
 17 C        4.5060    -4.3510     1.8040 C.ar  1 <1>  -0.1500 
 18 C        5.2080    -5.1800     0.9470 C.ar  1 <1>  -0.1500 
 19 H        4.3560    -1.3410    -0.1720 H     1 <1>   0.0800 
 20 H        1.6160    -3.1760    -1.4940 H     1 <1>   0.0800 
 21 H        1.0980    -2.8950     0.1440 H     1 <1>   0.0800 
 22 H        2.9330     0.7390    -1.8270 H     1 <1>   0.0800 
 23 H        1.8930     1.9130     1.5910 H     1 <1>   0.0800 
 24 H        2.0550     2.5710    -0.0250 H     1 <1>   0.0800 
 25 H        3.4510     2.4940     1.0410 H     1 <1>   0.0800 
 26 H        4.8490    -2.1620    -2.4040 H     1 <1>   0.3700 
 27 H        5.1760     1.7560    -1.6030 H     1 <1>   0.3700 
 28 H        3.5170    -4.5770    -1.9030 H     1 <1>   0.1500 
 29 H        2.9060    -2.9520     1.9980 H     1 <1>   0.1500 
 30 H        5.3920    -5.9070    -1.0510 H     1 <1>   0.1500 
 31 H        4.7840    -4.2900     2.8420 H     1 <1>   0.1500 
 32 H        6.0310    -5.7650     1.3190 H     1 <1>   0.1500 
@<TRIPOS>BOND
  1   1   2  2   
  2   2   3  am  
  3   2   4  am  
  4   3   5  1   
  5   3   6  1   
  6   4   7  1   
  7   4   8  1   
  8   5   7  1   
  9   5   9  1   
 10   5  19  1   
 11   6  10  1   
 12   6  20  1   
 13   6  21  1   
 14   7  11  1   
 15   7  22  1   
 16   8  23  1   
 17   8  24  1   
 18   8  25  1   
 19   9  12  am  
 20   9  26  1   
 21  10  13  ar  
 22  10  14  ar  
 23  11  12  am  
 24  11  27  1   
 25  12  15  2   
 26  13  16  ar  
 27  13  28  1   
 28  14  17  ar  
 29  14  29  1   
 30  16  18  ar  
 31  16  30  1   
 32  17  18  ar  
 33  17  31  1   
 34  18  32  1   
@<TRIPOS>SUBSTRUCTURE
  1 ****   5 GROUP 4 **** **** 0

# MOE 2024.06 (io_trps.svl 2023.06)
