@<TRIPOS>MOLECULE
NONAME
38 38 1 0 0 
SMALL
USER_CHARGES


@<TRIPOS>ATOM
  1 O       -4.8620     1.6650     1.6480 O.2   1 <1>  -0.5700 
  2 C       -4.5370     1.8540     0.4980 C.2   1 <1>   0.5690 
  3 N       -5.2800     1.2660    -0.4930 N.am  1 <1>  -0.6600 
  4 C       -3.3210     2.7720     0.1900 C.3   1 <1>   0.0610 
  5 C       -5.8730    -0.0730    -0.2100 C.3   1 <1>   0.1400 
  6 C       -6.1500     2.1120    -1.3560 C.3   1 <1>   0.1400 
  7 C       -2.7750     2.5850    -1.2410 C.3   1 <1>  -0.2400 
  8 C       -2.1650     2.4480     1.1590 C.3   1 <1>  -0.2400 
  9 C       -3.7020     4.2520     0.3860 C.3   1 <1>  -0.2400 
 10 C       -7.2530     0.0910     0.4540 C.3   1 <1>   0.3430 
 11 C       -7.5450     2.2660    -0.7100 C.3   1 <1>   0.3430 
 12 N       -8.1840     0.9360    -0.3810 N.4   1 <1>  -0.9590 
 13 C       -9.4850     1.1030     0.3460 C.3   1 <1>   0.3430 
 14 C      -10.5850     1.7300    -0.5250 C.3   1 <1>   0.1200 
 15 O      -11.7470     1.7560     0.2240 O.3   1 <1>  -0.6800 
 16 H       -5.2230    -0.6190     0.4540 H     1 <1>   0.0800 
 17 H       -5.9570    -0.6360    -1.1230 H     1 <1>   0.0800 
 18 H       -6.2360     1.6640    -2.3300 H     1 <1>   0.0800 
 19 H       -5.7140     3.0870    -1.4810 H     1 <1>   0.0800 
 20 H       -3.4940     2.8830    -1.9800 H     1 <1>   0.0800 
 21 H       -2.5200     1.5530    -1.4100 H     1 <1>   0.0800 
 22 H       -1.8880     3.1780    -1.3880 H     1 <1>   0.0800 
 23 H       -1.8740     1.4170     1.0610 H     1 <1>   0.0800 
 24 H       -2.4680     2.6140     2.1780 H     1 <1>   0.0800 
 25 H       -1.3080     3.0660     0.9590 H     1 <1>   0.0800 
 26 H       -4.0610     4.4110     1.3880 H     1 <1>   0.0800 
 27 H       -4.4700     4.5500    -0.3010 H     1 <1>   0.0800 
 28 H       -2.8460     4.8860     0.2320 H     1 <1>   0.0800 
 29 H       -7.1050     0.5540     1.4170 H     1 <1>   0.0800 
 30 H       -7.6840    -0.8830     0.6190 H     1 <1>   0.0800 
 31 H       -8.1790     2.8250    -1.3770 H     1 <1>   0.0800 
 32 H       -7.4310     2.8400     0.1960 H     1 <1>   0.0800 
 33 H       -8.3560     0.4270    -1.2580 H     1 <1>   0.4500 
 34 H       -9.3370     1.7200     1.2180 H     1 <1>   0.0800 
 35 H       -9.8350     0.1380     0.6760 H     1 <1>   0.0800 
 36 H      -10.7700     1.1350    -1.4030 H     1 <1>   0.0800 
 37 H      -10.3440     2.7430    -0.7960 H     1 <1>   0.0800 
 38 H      -12.5000     2.1350    -0.2780 H     1 <1>   0.4000 
@<TRIPOS>BOND
  1   1   2  2   
  2   2   3  am  
  3   2   4  1   
  4   3   5  1   
  5   3   6  1   
  6   4   7  1   
  7   4   8  1   
  8   4   9  1   
  9   5  10  1   
 10   5  16  1   
 11   5  17  1   
 12   6  11  1   
 13   6  18  1   
 14   6  19  1   
 15   7  20  1   
 16   7  21  1   
 17   7  22  1   
 18   8  23  1   
 19   8  24  1   
 20   8  25  1   
 21   9  26  1   
 22   9  27  1   
 23   9  28  1   
 24  10  12  1   
 25  10  29  1   
 26  10  30  1   
 27  11  12  1   
 28  11  31  1   
 29  11  32  1   
 30  12  13  1   
 31  12  33  1   
 32  13  14  1   
 33  13  34  1   
 34  13  35  1   
 35  14  15  1   
 36  14  36  1   
 37  14  37  1   
 38  15  38  1   
@<TRIPOS>SUBSTRUCTURE
  1 ****   3 GROUP 4 **** **** 0

# MOE 2024.06 (io_trps.svl 2023.06)
