@<TRIPOS>MOLECULE
NONAME
22 23 1 0 0 
SMALL
USER_CHARGES


@<TRIPOS>ATOM
  1 O       -0.1820    -0.3220     0.1110 O.3   1 <1>  -0.5600 
  2 C       -0.8340    -1.4820     0.5180 C.3   1 <1>   0.2000 
  3 C        1.2070    -0.3810     0.2150 C.3   1 <1>   0.4000 
  4 C       -0.3160    -2.6470    -0.3380 C.3   1 <1>  -0.1600 
  5 C       -2.3350    -1.2260     0.3640 C.3   1 <1>   0.0960 
  6 O        1.6490    -1.3710    -0.6570 O.3   1 <1>  -0.5600 
  7 C        1.2120    -2.6490    -0.3310 C.3   1 <1>   0.1200 
  8 N       -3.1100    -2.4220     0.7310 N.pl3 1 <1>   0.3140 
  9 N       -3.0680    -2.9800     1.9200 N.2   1 <1>  -0.4180 
 10 C       -3.9230    -3.1430    -0.0160 C.2   1 <1>   0.0360 
 11 N       -3.8420    -4.0050     1.8670 N.2   1 <1>   0.0000 
 12 N       -4.3850    -4.1230     0.6600 N.2   1 <1>  -0.3380 
 13 H       -0.5990    -1.6430     1.5580 H     1 <1>   0.0800 
 14 H        1.5010    -0.6130     1.2260 H     1 <1>   0.0800 
 15 H        1.6220     0.5640    -0.0920 H     1 <1>   0.0800 
 16 H       -0.6630    -2.5470    -1.3510 H     1 <1>   0.0800 
 17 H       -0.6750    -3.5860     0.0470 H     1 <1>   0.0800 
 18 H       -2.5560    -0.9660    -0.6540 H     1 <1>   0.0800 
 19 H       -2.6310    -0.4220     1.0100 H     1 <1>   0.0800 
 20 H        1.6000    -3.3330    -1.0660 H     1 <1>   0.0800 
 21 H        1.6020    -2.9100     0.6390 H     1 <1>   0.0800 
 22 H       -4.1520    -2.9260    -1.0430 H     1 <1>   0.1500 
@<TRIPOS>BOND
  1   1   2  1   
  2   1   3  1   
  3   2   4  1   
  4   2   5  1   
  5   2  13  1   
  6   3   6  1   
  7   3  14  1   
  8   3  15  1   
  9   4   7  1   
 10   4  16  1   
 11   4  17  1   
 12   5   8  1   
 13   5  18  1   
 14   5  19  1   
 15   6   7  1   
 16   7  20  1   
 17   7  21  1   
 18   8   9  1   
 19   8  10  1   
 20   9  11  2   
 21  10  12  2   
 22  10  22  1   
 23  11  12  1   
@<TRIPOS>SUBSTRUCTURE
  1 ****   2 GROUP 4 **** **** 0

# MOE 2024.06 (io_trps.svl 2023.06)
