@<TRIPOS>MOLECULE
NONAME
48 49 1 0 0 
SMALL
USER_CHARGES


@<TRIPOS>ATOM
  1 O        0.6520    -0.8710     0.0110 O.co2 1 <1>  -0.9000 
  2 C        0.0710    -1.5400     0.8690 C.2   1 <1>   0.9060 
  3 O        0.4500    -1.5480     2.0460 O.co2 1 <1>  -0.9000 
  4 C       -1.1160    -2.4250     0.5100 C.3   1 <1>  -0.1860 
  5 C       -0.7240    -3.9230     0.4540 C.3   1 <1>  -0.0190 
  6 C       -1.8850    -1.9900    -0.7600 C.3   1 <1>  -0.1600 
  7 C        0.3170    -4.2530    -0.6380 C.2   1 <1>   0.5690 
  8 C       -1.9960    -4.8110     0.3410 C.3   1 <1>  -0.1600 
  9 C       -2.9100    -3.0380    -1.2400 C.3   1 <1>  -0.1600 
 10 O       -0.0420    -4.4570    -1.7740 O.2   1 <1>  -0.5700 
 11 N        1.6350    -4.4030    -0.3670 N.am  1 <1>  -0.7300 
 12 C       -3.2530    -4.0690    -0.1560 C.3   1 <1>  -0.1600 
 13 C        2.3930    -4.0380     0.8330 C.3   1 <1>   0.3640 
 14 C        3.7250    -3.4480     0.3790 C.ar  1 <1>  -0.1430 
 15 C        2.5560    -5.2790     1.7100 C.3   1 <1>  -0.2400 
 16 C        4.7760    -4.2300    -0.0850 C.ar  1 <1>  -0.1500 
 17 C        3.8780    -2.0720     0.4170 C.ar  1 <1>  -0.1500 
 18 C        5.9750    -3.6480    -0.4920 C.ar  1 <1>   0.0820 
 19 C        5.0610    -1.4800     0.0150 C.ar  1 <1>  -0.1500 
 20 O        7.0290    -4.3870    -0.9490 O.3   1 <1>  -0.3620 
 21 C        6.1200    -2.2590    -0.4390 C.ar  1 <1>   0.0820 
 22 C        6.9410    -5.7840    -1.1100 C.3   1 <1>   0.0400 
 23 O        7.3070    -1.7170    -0.8450 O.3   1 <1>  -0.3630 
 24 C        7.4860    -0.3210    -0.9170 C.3   1 <1>   0.0400 
 25 H       -1.7880    -2.3090     1.3400 H     1 <1>   0.0800 
 26 H       -0.2740    -4.1610     1.3990 H     1 <1>   0.0800 
 27 H       -1.1820    -1.8070    -1.5560 H     1 <1>   0.0800 
 28 H       -2.3800    -1.0580    -0.5530 H     1 <1>   0.0800 
 29 H       -2.2150    -5.2300     1.3070 H     1 <1>   0.0800 
 30 H       -1.7950    -5.6380    -0.3190 H     1 <1>   0.0800 
 31 H       -2.4980    -3.5590    -2.0870 H     1 <1>   0.0800 
 32 H       -3.8030    -2.5400    -1.5720 H     1 <1>   0.0800 
 33 H        2.2230    -4.4480    -1.1960 H     1 <1>   0.3700 
 34 H       -3.7170    -3.5590     0.6710 H     1 <1>   0.0800 
 35 H       -3.9630    -4.7800    -0.5410 H     1 <1>   0.0800 
 36 H        1.8650    -3.2980     1.3980 H     1 <1>   0.0800 
 37 H        2.9760    -6.0960     1.1560 H     1 <1>   0.0800 
 38 H        1.5990    -5.5730     2.1000 H     1 <1>   0.0800 
 39 H        3.1990    -5.0450     2.5380 H     1 <1>   0.0800 
 40 H        4.6450    -5.2910    -0.1290 H     1 <1>   0.1500 
 41 H        3.0590    -1.4500     0.7540 H     1 <1>   0.1500 
 42 H        5.1210    -0.4100     0.0650 H     1 <1>   0.1500 
 43 H        7.8770    -6.1320    -1.5090 H     1 <1>   0.0800 
 44 H        6.1440    -6.0060    -1.7970 H     1 <1>   0.0800 
 45 H        6.7640    -6.2350    -0.1490 H     1 <1>   0.0800 
 46 H        8.4720    -0.1320    -1.2990 H     1 <1>   0.0800 
 47 H        7.3890     0.0940     0.0700 H     1 <1>   0.0800 
 48 H        6.7480     0.0900    -1.5840 H     1 <1>   0.0800 
@<TRIPOS>BOND
  1   1   2  ar  
  2   2   3  ar  
  3   2   4  1   
  4   4   5  1   
  5   4   6  1   
  6   4  25  1   
  7   5   7  1   
  8   5   8  1   
  9   5  26  1   
 10   6   9  1   
 11   6  27  1   
 12   6  28  1   
 13   7  10  2   
 14   7  11  am  
 15   8  12  1   
 16   8  29  1   
 17   8  30  1   
 18   9  12  1   
 19   9  31  1   
 20   9  32  1   
 21  11  13  1   
 22  11  33  1   
 23  12  34  1   
 24  12  35  1   
 25  13  14  1   
 26  13  15  1   
 27  13  36  1   
 28  14  16  ar  
 29  14  17  ar  
 30  15  37  1   
 31  15  38  1   
 32  15  39  1   
 33  16  18  ar  
 34  16  40  1   
 35  17  19  ar  
 36  17  41  1   
 37  18  20  1   
 38  18  21  ar  
 39  19  21  ar  
 40  19  42  1   
 41  20  22  1   
 42  21  23  1   
 43  22  43  1   
 44  22  44  1   
 45  22  45  1   
 46  23  24  1   
 47  24  46  1   
 48  24  47  1   
 49  24  48  1   
@<TRIPOS>SUBSTRUCTURE
  1 ****  13 GROUP 4 **** **** 0

# MOE 2024.06 (io_trps.svl 2023.06)
