@<TRIPOS>MOLECULE
NONAME
35 35 1 0 0 
SMALL
USER_CHARGES


@<TRIPOS>ATOM
  1 BR       0.4370    -0.1220     0.7960 Br    1 <1>  -0.1110 
  2 C        0.3140     1.7400     0.3030 C.ar  1 <1>   0.1110 
  3 C        1.4750     2.4670     0.0680 C.ar  1 <1>   0.0830 
  4 C       -0.9460     2.2980     0.2000 C.ar  1 <1>  -0.1500 
  5 O        2.6710     1.8330     0.1940 O.3   1 <1>  -0.3630 
  6 C        1.3450     3.8080    -0.2850 C.ar  1 <1>  -0.1500 
  7 C       -1.0560     3.6330    -0.1520 C.ar  1 <1>  -0.1500 
  8 C        3.8890     2.5070    -0.0300 C.3   1 <1>   0.1200 
  9 C        0.0860     4.3810    -0.3930 C.ar  1 <1>  -0.1500 
 10 C        5.0220     1.5100     0.1950 C.3   1 <1>   0.1200 
 11 O        6.2420     2.1550    -0.0250 O.3   1 <1>  -0.5600 
 12 C        7.3540     1.3430     0.1520 C.3   1 <1>   0.1200 
 13 C        8.5960     2.2040    -0.1120 C.3   1 <1>   0.3430 
 14 N        9.8850     1.4590     0.1000 N.4   1 <1>  -0.9590 
 15 C       11.0360     2.4140     0.0640 C.3   1 <1>   0.2630 
 16 C       10.0850     0.3730    -0.9130 C.3   1 <1>   0.2630 
 17 H       -1.8190     1.7000     0.3910 H     1 <1>   0.1500 
 18 H        2.2040     4.4220    -0.4800 H     1 <1>   0.1500 
 19 H       -2.0280     4.0880    -0.2380 H     1 <1>   0.1500 
 20 H        3.9600     3.3220     0.6680 H     1 <1>   0.0800 
 21 H        3.8980     2.8640    -1.0450 H     1 <1>   0.0800 
 22 H       -0.0070     5.4190    -0.6660 H     1 <1>   0.1500 
 23 H        4.9310     0.6900    -0.4970 H     1 <1>   0.0800 
 24 H        4.9960     1.1500     1.2100 H     1 <1>   0.0800 
 25 H        7.2890     0.5280    -0.5470 H     1 <1>   0.0800 
 26 H        7.3500     0.9790     1.1650 H     1 <1>   0.0800 
 27 H        8.5600     3.0490     0.5560 H     1 <1>   0.0800 
 28 H        8.5530     2.5740    -1.1230 H     1 <1>   0.0800 
 29 H        9.8590     1.0340     1.0410 H     1 <1>   0.4500 
 30 H       11.1000     2.8900    -0.9010 H     1 <1>   0.0800 
 31 H       11.9620     1.8940     0.2530 H     1 <1>   0.0800 
 32 H       10.9130     3.1780     0.8160 H     1 <1>   0.0800 
 33 H       10.1010     0.7870    -1.9080 H     1 <1>   0.0800 
 34 H        9.2890    -0.3510    -0.8530 H     1 <1>   0.0800 
 35 H       11.0200    -0.1350    -0.7370 H     1 <1>   0.0800 
@<TRIPOS>BOND
  1   1   2  1   
  2   2   3  ar  
  3   2   4  ar  
  4   3   5  1   
  5   3   6  ar  
  6   4   7  ar  
  7   4  17  1   
  8   5   8  1   
  9   6   9  ar  
 10   6  18  1   
 11   7   9  ar  
 12   7  19  1   
 13   8  10  1   
 14   8  20  1   
 15   8  21  1   
 16   9  22  1   
 17  10  11  1   
 18  10  23  1   
 19  10  24  1   
 20  11  12  1   
 21  12  13  1   
 22  12  25  1   
 23  12  26  1   
 24  13  14  1   
 25  13  27  1   
 26  13  28  1   
 27  14  15  1   
 28  14  16  1   
 29  14  29  1   
 30  15  30  1   
 31  15  31  1   
 32  15  32  1   
 33  16  33  1   
 34  16  34  1   
 35  16  35  1   
@<TRIPOS>SUBSTRUCTURE
  1 ****   8 GROUP 4 **** **** 0

# MOE 2024.06 (io_trps.svl 2023.06)
