@<TRIPOS>MOLECULE
NONAME
47 49 1 0 0 
SMALL
USER_CHARGES


@<TRIPOS>ATOM
  1 O       -0.1360     0.1020     2.9000 O.2   1 <1>  -0.5700 
  2 C       -0.2060     1.2940     2.7090 C.2   1 <1>   0.5690 
  3 N        0.6570     1.9770     1.8940 N.am  1 <1>  -0.5470 
  4 C       -1.3390     2.0750     3.3970 C.3   1 <1>   0.2610 
  5 C        1.7290     1.5390     1.1020 C.ar  1 <1>   0.1170 
  6 O       -1.5560     3.3440     2.7880 O.3   1 <1>  -0.3630 
  7 C       -1.0330     2.3440     4.8730 C.3   1 <1>  -0.2400 
  8 C        2.0080     2.1670    -0.1160 C.ar  1 <1>  -0.1440 
  9 C        2.5430     0.4970     1.5300 C.ar  1 <1>  -0.1500 
 10 C       -2.0090     3.4730     1.5130 C.ar  1 <1>   0.0830 
 11 C        3.1040     1.7570    -0.8720 C.ar  1 <1>  -0.1430 
 12 C        1.1070     3.3060    -0.6060 C.3   1 <1>  -0.0170 
 13 C        3.6230     0.0860     0.7760 C.ar  1 <1>  -0.1500 
 14 C       -1.9670     4.7460     0.9690 C.ar  1 <1>  -0.1500 
 15 C       -2.4710     2.4110     0.7380 C.ar  1 <1>  -0.1500 
 16 C        3.9020     0.7170    -0.4210 C.ar  1 <1>  -0.1500 
 17 C        3.4630     2.3990    -2.2070 C.3   1 <1>  -0.0170 
 18 C        1.3070     3.6650    -2.0820 C.3   1 <1>  -0.1600 
 19 C       -2.3590     4.9600    -0.3390 C.ar  1 <1>  -0.1500 
 20 C       -2.8620     2.6260    -0.5720 C.ar  1 <1>  -0.1500 
 21 C        2.7960     3.7620    -2.4090 C.3   1 <1>  -0.1600 
 22 C       -2.8010     3.9050    -1.1200 C.ar  1 <1>   0.0830 
 23 O       -3.1500     4.1980    -2.3990 O.3   1 <1>  -0.3620 
 24 C       -3.5790     3.1880    -3.2860 C.3   1 <1>   0.0400 
 25 H        0.3820     2.9480     1.7390 H     1 <1>   0.3700 
 26 H       -2.2520     1.5120     3.3270 H     1 <1>   0.0800 
 27 H       -0.1310     2.9220     4.9670 H     1 <1>   0.0800 
 28 H       -0.8950     1.4110     5.3890 H     1 <1>   0.0800 
 29 H       -1.8500     2.8710     5.3310 H     1 <1>   0.0800 
 30 H        2.3330     0.0060     2.4620 H     1 <1>   0.1500 
 31 H        1.3040     4.1770    -0.0060 H     1 <1>   0.0800 
 32 H        0.0760     3.0350    -0.4740 H     1 <1>   0.0800 
 33 H        4.2440    -0.7220     1.1190 H     1 <1>   0.1500 
 34 H       -1.6240     5.5680     1.5730 H     1 <1>   0.1500 
 35 H       -2.5280     1.4110     1.1280 H     1 <1>   0.1500 
 36 H        4.7460     0.3920    -1.0030 H     1 <1>   0.1500 
 37 H        3.1520     1.7340    -2.9940 H     1 <1>   0.0800 
 38 H        4.5300     2.5170    -2.2790 H     1 <1>   0.0800 
 39 H        0.8170     4.6000    -2.2930 H     1 <1>   0.0800 
 40 H        0.8530     2.9060    -2.6950 H     1 <1>   0.0800 
 41 H       -2.3240     5.9470    -0.7650 H     1 <1>   0.1500 
 42 H       -3.2080     1.7890    -1.1480 H     1 <1>   0.1500 
 43 H        2.9310     4.0830    -3.4280 H     1 <1>   0.0800 
 44 H        3.2610     4.4880    -1.7640 H     1 <1>   0.0800 
 45 H       -3.7860     3.6450    -4.2370 H     1 <1>   0.0800 
 46 H       -4.4740     2.7380    -2.8950 H     1 <1>   0.0800 
 47 H       -2.7950     2.4600    -3.3930 H     1 <1>   0.0800 
@<TRIPOS>BOND
  1   1   2  2   
  2   2   3  am  
  3   2   4  1   
  4   3   5  1   
  5   3  25  1   
  6   4   6  1   
  7   4   7  1   
  8   4  26  1   
  9   5   8  ar  
 10   5   9  ar  
 11   6  10  1   
 12   7  27  1   
 13   7  28  1   
 14   7  29  1   
 15   8  11  ar  
 16   8  12  1   
 17   9  13  ar  
 18   9  30  1   
 19  10  14  ar  
 20  10  15  ar  
 21  11  16  ar  
 22  11  17  1   
 23  12  18  1   
 24  12  31  1   
 25  12  32  1   
 26  13  16  ar  
 27  13  33  1   
 28  14  19  ar  
 29  14  34  1   
 30  15  20  ar  
 31  15  35  1   
 32  16  36  1   
 33  17  21  1   
 34  17  37  1   
 35  17  38  1   
 36  18  21  1   
 37  18  39  1   
 38  18  40  1   
 39  19  22  ar  
 40  19  41  1   
 41  20  22  ar  
 42  20  42  1   
 43  21  43  1   
 44  21  44  1   
 45  22  23  1   
 46  23  24  1   
 47  24  45  1   
 48  24  46  1   
 49  24  47  1   
@<TRIPOS>SUBSTRUCTURE
  1 ****  12 GROUP 4 **** **** 0

# MOE 2024.06 (io_trps.svl 2023.06)
