@<TRIPOS>MOLECULE
NONAME
40 41 1 0 0 
SMALL
USER_CHARGES


@<TRIPOS>ATOM
  1 S        1.2190    -0.0260     1.2280 S.o2  1 <1>   1.3330 
  2 O        2.2800     0.4590     2.0780 O.2   1 <1>  -0.6500 
  3 O        1.0270    -1.4430     1.0560 O.2   1 <1>  -0.6500 
  4 N        1.5300     0.6210    -0.3420 N.am  1 <1>  -0.6930 
  5 C       -0.3380     0.7150     1.6770 C.3   1 <1>  -0.1350 
  6 C        1.3570     1.9810    -0.5880 C.ar  1 <1>   0.1990 
  7 C        2.5280    -0.1510    -1.1540 C.3   1 <1>   0.3370 
  8 C        0.3580     2.3990    -1.4590 C.ar  1 <1>  -0.1500 
  9 C        2.1360     2.9490     0.0360 C.ar  1 <1>  -0.1500 
 10 C        3.9970     0.3140    -0.9670 C.2   1 <1>   0.5690 
 11 C        2.0670    -0.1580    -2.6200 C.3   1 <1>  -0.2400 
 12 C        0.1450     3.7430    -1.7050 C.ar  1 <1>  -0.1500 
 13 C        1.9250     4.2930    -0.2070 C.ar  1 <1>  -0.1500 
 14 O        4.7070     0.4640    -1.9380 O.2   1 <1>  -0.5700 
 15 N        4.4780     0.5180     0.2930 N.am  1 <1>  -0.5790 
 16 C        0.9290     4.6990    -1.0800 C.ar  1 <1>  -0.1430 
 17 C        5.8300     0.9660     0.6430 C.3   1 <1>   0.0490 
 18 C        0.7000     6.1750    -1.3480 C.3   1 <1>  -0.0970 
 19 C        6.4180     0.4740     1.9230 C.3   1 <1>  -0.2000 
 20 C        5.9720     1.9000     1.7980 C.3   1 <1>  -0.2000 
 21 H       -0.6500     0.3580     2.6380 H     1 <1>   0.0800 
 22 H       -1.0890     0.4620     0.9550 H     1 <1>   0.0800 
 23 H       -0.2450     1.7830     1.7210 H     1 <1>   0.0800 
 24 H        2.5090    -1.1760    -0.8320 H     1 <1>   0.0800 
 25 H       -0.2530     1.6620    -1.9470 H     1 <1>   0.1500 
 26 H        2.9130     2.6550     0.7170 H     1 <1>   0.1500 
 27 H        2.1500     0.8250    -3.0470 H     1 <1>   0.0800 
 28 H        1.0530    -0.5050    -2.6920 H     1 <1>   0.0800 
 29 H        2.6940    -0.8200    -3.1910 H     1 <1>   0.0800 
 30 H       -0.6340     4.0430    -2.3850 H     1 <1>   0.1500 
 31 H        2.5420     5.0250     0.2850 H     1 <1>   0.1500 
 32 H        3.8360     0.4380     1.0950 H     1 <1>   0.3700 
 33 H        6.4760     1.0930    -0.2120 H     1 <1>   0.1000 
 34 H        0.0130     6.5750    -0.6240 H     1 <1>   0.0800 
 35 H        0.2920     6.3220    -2.3320 H     1 <1>   0.0800 
 36 H        1.6270     6.7160    -1.2830 H     1 <1>   0.0800 
 37 H        7.4730     0.2710     1.9610 H     1 <1>   0.1000 
 38 H        5.8410    -0.2030     2.5300 H     1 <1>   0.1000 
 39 H        5.0880     2.2140     2.3260 H     1 <1>   0.1000 
 40 H        6.7240     2.6670     1.7520 H     1 <1>   0.1000 
@<TRIPOS>BOND
  1   1   2  2   
  2   1   3  2   
  3   1   4  am  
  4   1   5  1   
  5   4   6  1   
  6   4   7  1   
  7   5  21  1   
  8   5  22  1   
  9   5  23  1   
 10   6   8  ar  
 11   6   9  ar  
 12   7  10  1   
 13   7  11  1   
 14   7  24  1   
 15   8  12  ar  
 16   8  25  1   
 17   9  13  ar  
 18   9  26  1   
 19  10  14  2   
 20  10  15  am  
 21  11  27  1   
 22  11  28  1   
 23  11  29  1   
 24  12  16  ar  
 25  12  30  1   
 26  13  16  ar  
 27  13  31  1   
 28  15  17  1   
 29  15  32  1   
 30  16  18  1   
 31  17  19  1   
 32  17  20  1   
 33  17  33  1   
 34  18  34  1   
 35  18  35  1   
 36  18  36  1   
 37  19  20  1   
 38  19  37  1   
 39  19  38  1   
 40  20  39  1   
 41  20  40  1   
@<TRIPOS>SUBSTRUCTURE
  1 ****   6 GROUP 4 **** **** 0

# MOE 2024.06 (io_trps.svl 2023.06)
