@<TRIPOS>MOLECULE
NONAME
57 59 1 0 0 
SMALL
USER_CHARGES


@<TRIPOS>ATOM
  1 O        0.4150    -0.9770    -2.2070 O.2   1 <1>  -0.5700 
  2 C       -0.3930    -1.4270    -1.4310 C.2   1 <1>   0.5690 
  3 N       -0.3550    -1.1570    -0.1000 N.am  1 <1>  -0.7300 
  4 C       -1.5260    -2.3020    -1.9800 C.3   1 <1>   0.1710 
  5 C        0.6620    -0.3340     0.5720 C.3   1 <1>   0.2200 
  6 N       -2.8480    -1.6120    -2.0730 N.3   1 <1>  -0.8100 
  7 C        1.3280    -1.1680     1.6710 C.3   1 <1>  -0.1600 
  8 C       -0.0150     0.9120     1.1520 C.3   1 <1>  -0.1600 
  9 C       -2.7460    -0.3980    -2.9280 C.3   1 <1>   0.1100 
 10 C       -3.8950    -2.5220    -2.5890 C.3   1 <1>   0.1100 
 11 C        2.3260    -0.3250     2.4790 C.3   1 <1>  -0.1600 
 12 C        0.9800     1.7590     1.9590 C.3   1 <1>  -0.1600 
 13 C       -4.1140     0.2810    -3.1820 C.3   1 <1>   0.3430 
 14 C       -5.2830    -1.8370    -2.6730 C.3   1 <1>   0.3430 
 15 C        1.6530     0.9270     3.0590 C.3   1 <1>  -0.1600 
 16 N       -5.1970    -0.3670    -2.3750 N.4   1 <1>  -0.9590 
 17 C       -6.4860     0.3520    -2.4300 C.3   1 <1>   0.4810 
 18 C       -7.3290    -0.1370    -1.2770 C.2   1 <1>  -0.2880 
 19 C       -7.5680     0.5630    -0.1550 C.2   1 <1>  -0.1780 
 20 C       -8.3610     0.1670     0.9900 C.ar  1 <1>   0.0280 
 21 C       -9.1900    -0.9530     0.9800 C.ar  1 <1>  -0.1500 
 22 C       -8.3110     0.9190     2.1620 C.ar  1 <1>  -0.1500 
 23 C       -9.9300    -1.3110     2.0920 C.ar  1 <1>  -0.1500 
 24 C       -9.0500     0.5670     3.2770 C.ar  1 <1>  -0.1500 
 25 C       -9.8610    -0.5520     3.2450 C.ar  1 <1>  -0.1500 
 26 H       -1.1000    -1.5020     0.5040 H     1 <1>   0.3700 
 27 H       -1.6180    -3.1600    -1.3380 H     1 <1>   0.0800 
 28 H       -1.2300    -2.6520    -2.9540 H     1 <1>   0.0800 
 29 H        1.4120    -0.0280    -0.1400 H     1 <1>   0.0800 
 30 H        0.5780    -1.5540     2.3380 H     1 <1>   0.0800 
 31 H        1.8470    -1.9970     1.2220 H     1 <1>   0.0800 
 32 H       -0.4140     1.5060     0.3480 H     1 <1>   0.0800 
 33 H       -0.8240     0.6170     1.7970 H     1 <1>   0.0800 
 34 H       -2.0960     0.3180    -2.4530 H     1 <1>   0.0800 
 35 H       -2.2990    -0.6500    -3.8750 H     1 <1>   0.0800 
 36 H       -3.6180    -2.8750    -3.5690 H     1 <1>   0.0800 
 37 H       -3.9730    -3.3830    -1.9460 H     1 <1>   0.0800 
 38 H        2.7360    -0.9180     3.2780 H     1 <1>   0.0800 
 39 H        3.1400    -0.0280     1.8390 H     1 <1>   0.0800 
 40 H        1.7350     2.1490     1.2960 H     1 <1>   0.0800 
 41 H        0.4680     2.5960     2.4020 H     1 <1>   0.0800 
 42 H       -4.3490     0.2150    -4.2310 H     1 <1>   0.0800 
 43 H       -4.0340     1.3250    -2.9280 H     1 <1>   0.0800 
 44 H       -5.9410    -2.3110    -1.9640 H     1 <1>   0.0800 
 45 H       -5.6940    -1.9940    -3.6560 H     1 <1>   0.0800 
 46 H        2.3890     1.5280     3.5660 H     1 <1>   0.0800 
 47 H        0.9150     0.6310     3.7840 H     1 <1>   0.0800 
 48 H       -4.8540    -0.3310    -1.4030 H     1 <1>   0.4500 
 49 H       -6.3150     1.4100    -2.3170 H     1 <1>   0.0800 
 50 H       -6.9860     0.1810    -3.3700 H     1 <1>   0.0800 
 51 H       -7.7320    -1.1190    -1.4430 H     1 <1>   0.1500 
 52 H       -7.1390     1.5440    -0.0410 H     1 <1>   0.1500 
 53 H       -9.2720    -1.5570     0.0970 H     1 <1>   0.1500 
 54 H       -7.6880     1.7940     2.2100 H     1 <1>   0.1500 
 55 H      -10.5640    -2.1810     2.0630 H     1 <1>   0.1500 
 56 H       -8.9950     1.1630     4.1720 H     1 <1>   0.1500 
 57 H      -10.4360    -0.8280     4.1120 H     1 <1>   0.1500 
@<TRIPOS>BOND
  1   1   2  2   
  2   2   3  am  
  3   2   4  1   
  4   3   5  1   
  5   3  26  1   
  6   4   6  1   
  7   4  27  1   
  8   4  28  1   
  9   5   7  1   
 10   5   8  1   
 11   5  29  1   
 12   6   9  1   
 13   6  10  1   
 14   7  11  1   
 15   7  30  1   
 16   7  31  1   
 17   8  12  1   
 18   8  32  1   
 19   8  33  1   
 20   9  13  1   
 21   9  34  1   
 22   9  35  1   
 23  10  14  1   
 24  10  36  1   
 25  10  37  1   
 26  11  15  1   
 27  11  38  1   
 28  11  39  1   
 29  12  15  1   
 30  12  40  1   
 31  12  41  1   
 32  13  16  1   
 33  13  42  1   
 34  13  43  1   
 35  14  16  1   
 36  14  44  1   
 37  14  45  1   
 38  15  46  1   
 39  15  47  1   
 40  16  17  1   
 41  16  48  1   
 42  17  18  1   
 43  17  49  1   
 44  17  50  1   
 45  18  19  2   
 46  18  51  1   
 47  19  20  1   
 48  19  52  1   
 49  20  21  ar  
 50  20  22  ar  
 51  21  23  ar  
 52  21  53  1   
 53  22  24  ar  
 54  22  54  1   
 55  23  25  ar  
 56  23  55  1   
 57  24  25  ar  
 58  24  56  1   
 59  25  57  1   
@<TRIPOS>SUBSTRUCTURE
  1 ****   6 GROUP 4 **** **** 0

# MOE 2024.06 (io_trps.svl 2023.06)
