@<TRIPOS>MOLECULE
NONAME
51 54 1 0 0 
SMALL
USER_CHARGES


@<TRIPOS>ATOM
  1 S       -0.1720    -0.0390    -0.5810 S.3   1 <1>  -0.0800 
  2 C       -0.2560     1.6830    -0.1970 C.2   1 <1>   0.1040 
  3 C        1.5700     0.0330    -0.5770 C.2   1 <1>  -0.1400 
  4 N       -1.4840     2.3130    -0.0520 N.am  1 <1>  -0.4940 
  5 C        0.9960     2.2350    -0.0790 C.2   1 <1>  -0.0860 
  6 C        2.0240     1.2460    -0.3080 C.2   1 <1>  -0.1810 
  7 C        2.5710    -1.0470    -0.8260 C.3   1 <1>   0.0200 
  8 C       -2.7830     1.8840    -0.1320 C.2   1 <1>   0.5690 
  9 C        1.2370     3.6240     0.2320 C.2   1 <1>   0.7160 
 10 C        3.5360     1.2270    -0.3230 C.3   1 <1>   0.0210 
 11 C        3.8880    -0.2480    -0.6740 C.3   1 <1>  -0.1600 
 12 O       -3.1050     0.7470    -0.3770 O.2   1 <1>  -0.5700 
 13 C       -3.8690     2.9350     0.1010 C.3   1 <1>  -0.0190 
 14 O        0.3060     4.4030     0.3810 O.2   1 <1>  -0.5700 
 15 N        2.5110     4.0940     0.3690 N.am  1 <1>  -0.5790 
 16 C       -5.0820     2.3720     0.8680 C.3   1 <1>  -0.1600 
 17 C       -4.3310     3.5540    -1.2310 C.3   1 <1>  -0.1600 
 18 C        2.9150     5.4720     0.6830 C.3   1 <1>   0.0490 
 19 C       -6.1650     3.4350     1.0660 C.3   1 <1>   0.1400 
 20 C       -5.4270     4.6020    -1.0190 C.3   1 <1>   0.1400 
 21 C        4.1760     5.9870     0.0720 C.3   1 <1>  -0.2000 
 22 C        4.1240     5.6690     1.5360 C.3   1 <1>  -0.2000 
 23 N       -6.5560     4.0000    -0.2560 N.am  1 <1>  -0.6600 
 24 C       -7.8240     3.9770    -0.7790 C.2   1 <1>   0.5690 
 25 O       -8.0970     4.4900    -1.8370 O.2   1 <1>  -0.5700 
 26 C       -8.9530     3.2990    -0.0370 C.3   1 <1>  -0.1790 
 27 H       -1.3780     3.3120     0.1540 H     1 <1>   0.3700 
 28 H        2.4580    -1.4510    -1.8170 H     1 <1>   0.0800 
 29 H        2.4840    -1.8240    -0.0880 H     1 <1>   0.0800 
 30 H        3.9280     1.4870     0.6440 H     1 <1>   0.0800 
 31 H        3.9180     1.8960    -1.0750 H     1 <1>   0.0800 
 32 H        4.4420    -0.2830    -1.5960 H     1 <1>   0.0800 
 33 H        4.4910    -0.6800     0.1050 H     1 <1>   0.0800 
 34 H       -3.4440     3.7190     0.7020 H     1 <1>   0.0800 
 35 H        3.2710     3.4310     0.2560 H     1 <1>   0.3700 
 36 H       -4.7640     2.0020     1.8260 H     1 <1>   0.0800 
 37 H       -5.5060     1.5440     0.3240 H     1 <1>   0.0800 
 38 H       -4.7120     2.7800    -1.8770 H     1 <1>   0.0800 
 39 H       -3.4960     4.0130    -1.7300 H     1 <1>   0.0800 
 40 H        2.0830     6.1500     0.8010 H     1 <1>   0.1000 
 41 H       -5.7860     4.2300     1.6850 H     1 <1>   0.0800 
 42 H       -7.0060     2.9970     1.5710 H     1 <1>   0.0800 
 43 H       -5.7630     4.9650    -1.9760 H     1 <1>   0.0800 
 44 H       -5.0380     5.4400    -0.4670 H     1 <1>   0.0800 
 45 H        4.2230     7.0220    -0.2190 H     1 <1>   0.1000 
 46 H        4.7400     5.3480    -0.5840 H     1 <1>   0.1000 
 47 H        4.6510     4.8060     1.9040 H     1 <1>   0.1000 
 48 H        4.1360     6.4890     2.2330 H     1 <1>   0.1000 
 49 H       -9.1210     3.7920     0.9020 H     1 <1>   0.0800 
 50 H       -8.7120     2.2660     0.1260 H     1 <1>   0.0800 
 51 H       -9.8530     3.3540    -0.6200 H     1 <1>   0.0800 
@<TRIPOS>BOND
  1   1   2  1   
  2   1   3  1   
  3   2   4  1   
  4   2   5  2   
  5   3   6  2   
  6   3   7  1   
  7   4   8  am  
  8   4  27  1   
  9   5   6  1   
 10   5   9  1   
 11   6  10  1   
 12   7  11  1   
 13   7  28  1   
 14   7  29  1   
 15   8  12  2   
 16   8  13  1   
 17   9  14  2   
 18   9  15  am  
 19  10  11  1   
 20  10  30  1   
 21  10  31  1   
 22  11  32  1   
 23  11  33  1   
 24  13  16  1   
 25  13  17  1   
 26  13  34  1   
 27  15  18  1   
 28  15  35  1   
 29  16  19  1   
 30  16  36  1   
 31  16  37  1   
 32  17  20  1   
 33  17  38  1   
 34  17  39  1   
 35  18  21  1   
 36  18  22  1   
 37  18  40  1   
 38  19  23  1   
 39  19  41  1   
 40  19  42  1   
 41  20  23  1   
 42  20  43  1   
 43  20  44  1   
 44  21  22  1   
 45  21  45  1   
 46  21  46  1   
 47  22  47  1   
 48  22  48  1   
 49  23  24  am  
 50  24  25  2   
 51  24  26  1   
 52  26  49  1   
 53  26  50  1   
 54  26  51  1   
@<TRIPOS>SUBSTRUCTURE
  1 ****   4 GROUP 4 **** **** 0

# MOE 2024.06 (io_trps.svl 2023.06)
