@<TRIPOS>MOLECULE
NONAME
28 29 1 0 0 
SMALL
USER_CHARGES


@<TRIPOS>ATOM
  1 F       -0.4270    -1.5420     2.4510 F     1 <1>  -0.3400 
  2 C       -0.3430    -1.4540     1.1170 C.3   1 <1>   0.6800 
  3 F        0.4380    -2.4920     0.7920 F     1 <1>  -0.3400 
  4 C       -1.7760    -1.6230     0.4990 C.3   1 <1>   0.5600 
  5 C        0.4240    -0.1560     0.7710 C.3   1 <1>   0.6000 
  6 O       -1.7950    -1.3540    -0.8840 O.3   1 <1>  -0.2170 
  7 O       -2.2550    -2.9280     0.5690 O.3   1 <1>  -0.6800 
  8 C       -2.8780    -0.7110     1.0330 C.3   1 <1>  -0.0990 
  9 F       -0.2560     0.9430     1.0950 F     1 <1>  -0.3400 
 10 F        0.6690    -0.0260    -0.5310 F     1 <1>  -0.3400 
 11 N       -2.8450    -0.6490    -1.2540 N.2   1 <1>  -0.5130 
 12 C       -3.5140    -0.2430    -0.2520 C.2   1 <1>   0.3030 
 13 C       -4.7310     0.5510    -0.3110 C.ar  1 <1>   0.0860 
 14 C       -5.3770     1.1460     0.7910 C.ar  1 <1>   0.0820 
 15 C       -5.3310     0.7570    -1.5580 C.ar  1 <1>  -0.1500 
 16 O       -4.8970     1.0400     2.0410 O.3   1 <1>  -0.5330 
 17 C       -6.5430     1.8830     0.6390 C.ar  1 <1>  -0.1500 
 18 C       -6.4920     1.4910    -1.7130 C.ar  1 <1>  -0.1500 
 19 C       -7.1030     2.0570    -0.6110 C.ar  1 <1>  -0.1500 
 20 H        1.3690    -0.1120     1.2790 H     1 <1>   0.0800 
 21 H       -2.8750    -3.0270    -0.1800 H     1 <1>   0.4000 
 22 H       -2.4870     0.1260     1.5760 H     1 <1>   0.0800 
 23 H       -3.5690    -1.2460     1.6590 H     1 <1>   0.0800 
 24 H       -4.8770     0.3290    -2.4360 H     1 <1>   0.1500 
 25 H       -5.4270     1.5190     2.7050 H     1 <1>   0.4500 
 26 H       -7.0230     2.3290     1.4910 H     1 <1>   0.1500 
 27 H       -6.9200     1.6230    -2.6920 H     1 <1>   0.1500 
 28 H       -8.0080     2.6290    -0.7290 H     1 <1>   0.1500 
@<TRIPOS>BOND
  1   1   2  1   
  2   2   3  1   
  3   2   4  1   
  4   2   5  1   
  5   4   6  1   
  6   4   7  1   
  7   4   8  1   
  8   5   9  1   
  9   5  10  1   
 10   5  20  1   
 11   6  11  1   
 12   7  21  1   
 13   8  12  1   
 14   8  22  1   
 15   8  23  1   
 16  11  12  2   
 17  12  13  1   
 18  13  14  ar  
 19  13  15  ar  
 20  14  16  1   
 21  14  17  ar  
 22  15  18  ar  
 23  15  24  1   
 24  16  25  1   
 25  17  19  ar  
 26  17  26  1   
 27  18  19  ar  
 28  18  27  1   
 29  19  28  1   
@<TRIPOS>SUBSTRUCTURE
  1 ****  12 GROUP 4 **** **** 0

# MOE 2024.06 (io_trps.svl 2023.06)
