@<TRIPOS>MOLECULE
NONAME
37 40 1 0 0 
SMALL
USER_CHARGES


@<TRIPOS>ATOM
  1 O       -1.1620     6.3190    -0.3470 O.3   1 <1>  -0.3630 
  2 C       -2.0300     5.2830    -0.1780 C.ar  1 <1>   0.0830 
  3 C        0.2330     6.1100    -0.3290 C.3   1 <1>   0.0400 
  4 C       -3.3690     5.5950    -0.1550 C.ar  1 <1>  -0.1500 
  5 C       -1.6150     3.9440    -0.0330 C.ar  1 <1>  -0.1500 
  6 C       -4.3160     4.5820     0.0150 C.ar  1 <1>   0.0000 
  7 C       -2.5390     2.9390     0.1360 C.ar  1 <1>  -0.1500 
  8 C       -3.8990     3.2610     0.1630 C.ar  1 <1>  -0.1520 
  9 C       -5.7260     4.5600     0.0640 C.2   1 <1>  -0.1810 
 10 N       -5.0110     2.4650     0.3100 N.pl3 1 <1>   0.0480 
 11 C       -6.1020     3.2790     0.2450 C.2   1 <1>  -0.3320 
 12 C       -6.6980     5.7130    -0.0980 C.3   1 <1>   0.0210 
 13 C       -5.0950     1.0030     0.1410 C.3   1 <1>   0.0960 
 14 C       -7.5140     2.7850     0.3270 C.3   1 <1>   0.6030 
 15 C       -8.1410     5.2530     0.2140 C.3   1 <1>  -0.1600 
 16 C       -6.5650     0.5300     0.1750 C.3   1 <1>   0.3430 
 17 N       -7.5220     1.5250    -0.4240 N.4   1 <1>  -0.9060 
 18 C       -8.4470     3.8270    -0.3090 C.3   1 <1>  -0.1600 
 19 H        0.7140     7.0630    -0.4570 H     1 <1>   0.0800 
 20 H        0.4980     5.4560    -1.1410 H     1 <1>   0.0800 
 21 H        0.5100     5.6850     0.6190 H     1 <1>   0.0800 
 22 H       -3.6900     6.6130    -0.2670 H     1 <1>   0.1500 
 23 H       -0.5720     3.6920    -0.0510 H     1 <1>   0.1500 
 24 H       -2.2190     1.9190     0.2500 H     1 <1>   0.1500 
 25 H       -6.6390     6.0670    -1.1130 H     1 <1>   0.0800 
 26 H       -6.4190     6.5230     0.5540 H     1 <1>   0.0800 
 27 H       -4.5290     0.5230     0.9190 H     1 <1>   0.0800 
 28 H       -4.6510     0.7480    -0.8050 H     1 <1>   0.0800 
 29 H       -7.7820     2.6200     1.3590 H     1 <1>   0.0800 
 30 H       -8.8330     5.9590    -0.2120 H     1 <1>   0.0800 
 31 H       -8.2790     5.2720     1.2820 H     1 <1>   0.0800 
 32 H       -6.8400     0.3520     1.2020 H     1 <1>   0.0800 
 33 H       -6.6390    -0.4120    -0.3440 H     1 <1>   0.0800 
 34 H       -7.2140     1.7780    -1.3700 H     1 <1>   0.4500 
 35 H       -8.4800     1.1650    -0.4750 H     1 <1>   0.4500 
 36 H       -9.4690     3.5810    -0.0830 H     1 <1>   0.0800 
 37 H       -8.3190     3.8300    -1.3770 H     1 <1>   0.0800 
@<TRIPOS>BOND
  1   1   2  1   
  2   1   3  1   
  3   2   4  ar  
  4   2   5  ar  
  5   3  19  1   
  6   3  20  1   
  7   3  21  1   
  8   4   6  ar  
  9   4  22  1   
 10   5   7  ar  
 11   5  23  1   
 12   6   8  ar  
 13   6   9  1   
 14   7   8  ar  
 15   7  24  1   
 16   8  10  1   
 17   9  11  2   
 18   9  12  1   
 19  10  11  1   
 20  10  13  1   
 21  11  14  1   
 22  12  15  1   
 23  12  25  1   
 24  12  26  1   
 25  13  16  1   
 26  13  27  1   
 27  13  28  1   
 28  14  17  1   
 29  14  18  1   
 30  14  29  1   
 31  15  18  1   
 32  15  30  1   
 33  15  31  1   
 34  16  17  1   
 35  16  32  1   
 36  16  33  1   
 37  17  34  1   
 38  17  35  1   
 39  18  36  1   
 40  18  37  1   
@<TRIPOS>SUBSTRUCTURE
  1 ****   6 GROUP 4 **** **** 0

# MOE 2024.06 (io_trps.svl 2023.06)
