@<TRIPOS>MOLECULE
NONAME
53 54 1 0 0 
SMALL
USER_CHARGES


@<TRIPOS>ATOM
  1 S       -1.0640     0.7420     0.9260 S.o2  1 <1>   1.4470 
  2 O       -0.7630    -0.2950     1.8890 O.2   1 <1>  -0.6500 
  3 O       -2.2670     0.6400     0.1280 O.2   1 <1>  -0.6500 
  4 N       -1.2080     2.1820     1.8060 N.am  1 <1>  -0.8490 
  5 C        0.3530     1.0620    -0.1590 C.ar  1 <1>  -0.0090 
  6 C       -2.5630     2.3290     2.4080 C.3   1 <1>   0.2570 
  7 C       -0.1410     2.3530     2.7900 C.3   1 <1>   0.1960 
  8 C        0.3890     2.1970    -0.9600 C.ar  1 <1>  -0.1500 
  9 C        1.4340     0.1880    -0.2170 C.ar  1 <1>  -0.1500 
 10 C       -3.4930     3.2680     1.6310 C.2   1 <1>   0.5690 
 11 C        0.0320     3.8380     3.1020 C.3   1 <1>  -0.2400 
 12 C        1.4690     2.4560    -1.7850 C.ar  1 <1>  -0.1500 
 13 C        2.5190     0.4390    -1.0390 C.ar  1 <1>  -0.1500 
 14 O       -4.0420     4.1540     2.2430 O.2   1 <1>  -0.5700 
 15 N       -3.6770     3.0620     0.2910 N.am  1 <1>  -0.5470 
 16 C        2.5410     1.5820    -1.8310 C.ar  1 <1>   0.0830 
 17 C       -4.4560     3.7880    -0.6230 C.ar  1 <1>   0.1170 
 18 O        3.5610     1.9080    -2.6610 O.3   1 <1>  -0.3630 
 19 C       -5.4990     3.1440    -1.2970 C.ar  1 <1>  -0.1430 
 20 C       -4.1910     5.1340    -0.8980 C.ar  1 <1>  -0.1440 
 21 C        4.6970     1.0830    -2.7920 C.3   1 <1>   0.0400 
 22 C       -6.2660     3.8470    -2.2120 C.ar  1 <1>  -0.1500 
 23 C       -5.8370     1.6740    -1.0600 C.3   1 <1>  -0.0170 
 24 C       -4.9750     5.8180    -1.8120 C.ar  1 <1>  -0.1500 
 25 C       -3.0480     5.8880    -0.2280 C.3   1 <1>  -0.0970 
 26 C       -6.0100     5.1810    -2.4680 C.ar  1 <1>  -0.1500 
 27 C       -5.0650     0.7790    -2.0330 C.3   1 <1>  -0.2400 
 28 H       -2.4850     2.7240     3.4050 H     1 <1>   0.0800 
 29 H       -3.0420     1.3690     2.4980 H     1 <1>   0.0800 
 30 H        0.7910     1.9880     2.3880 H     1 <1>   0.0800 
 31 H       -0.3570     1.7910     3.6850 H     1 <1>   0.0800 
 32 H       -0.4370     2.8890    -0.9370 H     1 <1>   0.1500 
 33 H        1.4270    -0.7010     0.3920 H     1 <1>   0.1500 
 34 H        0.2420     4.3810     2.1970 H     1 <1>   0.0800 
 35 H        0.8600     3.9690     3.7750 H     1 <1>   0.0800 
 36 H       -0.8450     4.2500     3.5650 H     1 <1>   0.0800 
 37 H        1.4870     3.3380    -2.4010 H     1 <1>   0.1500 
 38 H        3.3320    -0.2630    -1.0520 H     1 <1>   0.1500 
 39 H       -3.2910     2.1810    -0.0690 H     1 <1>   0.3700 
 40 H        5.3610     1.5410    -3.5030 H     1 <1>   0.0800 
 41 H        4.3880     0.1170    -3.1510 H     1 <1>   0.0800 
 42 H        5.1840     1.0030    -1.8360 H     1 <1>   0.0800 
 43 H       -7.0710     3.3590    -2.7320 H     1 <1>   0.1500 
 44 H       -6.8920     1.5210    -1.2020 H     1 <1>   0.0800 
 45 H       -5.6150     1.3910    -0.0470 H     1 <1>   0.0800 
 46 H       -4.7840     6.8560    -2.0200 H     1 <1>   0.1500 
 47 H       -2.7720     6.7540    -0.8010 H     1 <1>   0.0800 
 48 H       -3.3520     6.2090     0.7520 H     1 <1>   0.0800 
 49 H       -2.1810     5.2590    -0.1350 H     1 <1>   0.0800 
 50 H       -6.6140     5.7200    -3.1760 H     1 <1>   0.1500 
 51 H       -5.3280     1.0190    -3.0470 H     1 <1>   0.0800 
 52 H       -5.2970    -0.2550    -1.8490 H     1 <1>   0.0800 
 53 H       -4.0060     0.9200    -1.9110 H     1 <1>   0.0800 
@<TRIPOS>BOND
  1   1   2  2   
  2   1   3  2   
  3   1   4  am  
  4   1   5  1   
  5   4   6  1   
  6   4   7  1   
  7   5   8  ar  
  8   5   9  ar  
  9   6  10  1   
 10   6  28  1   
 11   6  29  1   
 12   7  11  1   
 13   7  30  1   
 14   7  31  1   
 15   8  12  ar  
 16   8  32  1   
 17   9  13  ar  
 18   9  33  1   
 19  10  14  2   
 20  10  15  am  
 21  11  34  1   
 22  11  35  1   
 23  11  36  1   
 24  12  16  ar  
 25  12  37  1   
 26  13  16  ar  
 27  13  38  1   
 28  15  17  1   
 29  15  39  1   
 30  16  18  1   
 31  17  19  ar  
 32  17  20  ar  
 33  18  21  1   
 34  19  22  ar  
 35  19  23  1   
 36  20  24  ar  
 37  20  25  1   
 38  21  40  1   
 39  21  41  1   
 40  21  42  1   
 41  22  26  ar  
 42  22  43  1   
 43  23  27  1   
 44  23  44  1   
 45  23  45  1   
 46  24  26  ar  
 47  24  46  1   
 48  25  47  1   
 49  25  48  1   
 50  25  49  1   
 51  26  50  1   
 52  27  51  1   
 53  27  52  1   
 54  27  53  1   
@<TRIPOS>SUBSTRUCTURE
  1 ****   3 GROUP 4 **** **** 0

# MOE 2024.06 (io_trps.svl 2023.06)
