@<TRIPOS>MOLECULE
NONAME
48 50 1 0 0 
SMALL
USER_CHARGES


@<TRIPOS>ATOM
  1 O        2.0220    -3.8420     2.1320 O.2   1 <1>  -0.5700 
  2 C        1.7080    -3.8360     0.9670 C.2   1 <1>   0.5690 
  3 N        2.0350    -2.7840     0.1540 N.am  1 <1>  -0.6600 
  4 C        0.9880    -5.0440     0.4170 C.3   1 <1>  -0.1790 
  5 C        2.6270    -1.5570     0.7530 C.3   1 <1>   0.1400 
  6 C        2.4120    -2.9570    -1.2750 C.3   1 <1>   0.1400 
  7 C        4.1580    -1.6840     0.7240 C.3   1 <1>   0.3430 
  8 C        3.9470    -3.0700    -1.3820 C.3   1 <1>   0.3430 
  9 N        4.6920    -1.9500    -0.6690 N.4   1 <1>  -0.9590 
 10 C        6.1930    -2.1780    -0.6740 C.3   1 <1>   0.3430 
 11 C        6.7620    -3.2250     0.3200 C.3   1 <1>   0.2070 
 12 C        8.2880    -3.3090     0.2340 C.ar  1 <1>  -0.1440 
 13 C        6.1250    -4.6010     0.1360 C.ar  1 <1>  -0.1440 
 14 C        8.9970    -3.0870    -0.9430 C.ar  1 <1>  -0.1500 
 15 C        8.9960    -3.6240     1.3870 C.ar  1 <1>  -0.1500 
 16 C        6.4270    -5.3880    -0.9680 C.ar  1 <1>  -0.1500 
 17 C        5.2010    -5.0700     1.0630 C.ar  1 <1>  -0.1500 
 18 C       10.3780    -3.1630    -0.9580 C.ar  1 <1>  -0.1500 
 19 C       10.3770    -3.7010     1.3720 C.ar  1 <1>  -0.1500 
 20 C        5.7990    -6.6070    -1.1540 C.ar  1 <1>  -0.1500 
 21 C        4.5720    -6.2870     0.8750 C.ar  1 <1>  -0.1500 
 22 C       11.0700    -3.4670     0.1990 C.ar  1 <1>  -0.1500 
 23 C        4.8670    -7.0550    -0.2360 C.ar  1 <1>  -0.1500 
 24 H        1.6830    -5.6850    -0.0910 H     1 <1>   0.0800 
 25 H        0.2110    -4.7370    -0.2570 H     1 <1>   0.0800 
 26 H        0.5410    -5.5930     1.2260 H     1 <1>   0.0800 
 27 H        2.2930    -1.4420     1.7720 H     1 <1>   0.0800 
 28 H        2.3070    -0.6890     0.2050 H     1 <1>   0.0800 
 29 H        2.0590    -2.1150    -1.8460 H     1 <1>   0.0800 
 30 H        1.9600    -3.8420    -1.6870 H     1 <1>   0.0800 
 31 H        4.4210    -2.4980     1.3780 H     1 <1>   0.0800 
 32 H        4.5960    -0.7840     1.1230 H     1 <1>   0.0800 
 33 H        4.2290    -3.0930    -2.4220 H     1 <1>   0.0800 
 34 H        4.2130    -4.0210    -0.9590 H     1 <1>   0.0800 
 35 H        4.5110    -1.0980    -1.2160 H     1 <1>   0.4500 
 36 H        6.6850    -1.2430    -0.4630 H     1 <1>   0.0800 
 37 H        6.4870    -2.4730    -1.6660 H     1 <1>   0.0800 
 38 H        6.5410    -2.8760     1.3120 H     1 <1>   0.0800 
 39 H        8.5050    -2.8600    -1.8710 H     1 <1>   0.1500 
 40 H        8.4800    -3.8200     2.3110 H     1 <1>   0.1500 
 41 H        7.1590    -5.0700    -1.6900 H     1 <1>   0.1500 
 42 H        4.9510    -4.5030     1.9450 H     1 <1>   0.1500 
 43 H       10.9220    -2.9890    -1.8710 H     1 <1>   0.1500 
 44 H       10.9140    -3.9450     2.2730 H     1 <1>   0.1500 
 45 H        6.0420    -7.2140    -2.0100 H     1 <1>   0.1500 
 46 H        3.8560    -6.6390     1.6000 H     1 <1>   0.1500 
 47 H       12.1450    -3.5270     0.1870 H     1 <1>   0.1500 
 48 H        4.3820    -8.0060    -0.3780 H     1 <1>   0.1500 
@<TRIPOS>BOND
  1   1   2  2   
  2   2   3  am  
  3   2   4  1   
  4   3   5  1   
  5   3   6  1   
  6   4  24  1   
  7   4  25  1   
  8   4  26  1   
  9   5   7  1   
 10   5  27  1   
 11   5  28  1   
 12   6   8  1   
 13   6  29  1   
 14   6  30  1   
 15   7   9  1   
 16   7  31  1   
 17   7  32  1   
 18   8   9  1   
 19   8  33  1   
 20   8  34  1   
 21   9  10  1   
 22   9  35  1   
 23  10  11  1   
 24  10  36  1   
 25  10  37  1   
 26  11  12  1   
 27  11  13  1   
 28  11  38  1   
 29  12  14  ar  
 30  12  15  ar  
 31  13  16  ar  
 32  13  17  ar  
 33  14  18  ar  
 34  14  39  1   
 35  15  19  ar  
 36  15  40  1   
 37  16  20  ar  
 38  16  41  1   
 39  17  21  ar  
 40  17  42  1   
 41  18  22  ar  
 42  18  43  1   
 43  19  22  ar  
 44  19  44  1   
 45  20  23  ar  
 46  20  45  1   
 47  21  23  ar  
 48  21  46  1   
 49  22  47  1   
 50  23  48  1   
@<TRIPOS>SUBSTRUCTURE
  1 ****  13 GROUP 4 **** **** 0

# MOE 2024.06 (io_trps.svl 2023.06)
