@<TRIPOS>MOLECULE
NONAME
37 39 1 0 0 
SMALL
USER_CHARGES


@<TRIPOS>ATOM
  1 S        0.3330    -0.6660    -0.6830 S.3   1 <1>  -0.0800 
  2 C        1.5430     0.5180    -0.1840 C.2   1 <1>   0.1660 
  3 C       -0.9360     0.5060    -0.3810 C.2   1 <1>  -0.1400 
  4 N        2.8650     0.2380    -0.1780 N.2   1 <1>  -0.5760 
  5 C        0.9710     1.7000     0.1770 C.2   1 <1>  -0.0860 
  6 C       -0.4560     1.6620     0.0520 C.2   1 <1>  -0.1810 
  7 C       -2.4200     0.4130    -0.5300 C.3   1 <1>   0.0200 
  8 C        3.6150     1.2120     0.2140 C.2   1 <1>   0.6510 
  9 C        1.8410     2.7400     0.6010 C.2   1 <1>   0.7160 
 10 C       -1.5680     2.6450     0.3010 C.3   1 <1>   0.0210 
 11 C       -2.8440     1.8360    -0.0760 C.3   1 <1>  -0.1600 
 12 S        5.3700     0.8860     0.2270 S.3   1 <1>  -0.3710 
 13 N        3.1970     2.4660     0.6170 N.am  1 <1>  -0.4200 
 14 O        1.4190     3.8390     0.9400 O.2   1 <1>  -0.5700 
 15 C        5.5080    -0.8600    -0.4020 C.3   1 <1>   0.1310 
 16 C        4.1450     3.5320     1.0570 C.3   1 <1>   0.1400 
 17 C        6.9570    -1.3070    -0.4340 C.2   1 <1>   0.6590 
 18 C        4.6120     4.3480    -0.1500 C.3   1 <1>  -0.2400 
 19 O        7.5450    -1.4730    -1.4720 O.2   1 <1>  -0.5700 
 20 O        7.5320    -1.5240     0.7450 O.3   1 <1>  -0.4300 
 21 C        8.8770    -1.9440     0.8470 C.3   1 <1>   0.0400 
 22 H       -2.8200    -0.3490     0.1160 H     1 <1>   0.0800 
 23 H       -2.6890     0.2230    -1.5540 H     1 <1>   0.0800 
 24 H       -1.4500     3.5110    -0.3270 H     1 <1>   0.0800 
 25 H       -1.5810     2.9430     1.3350 H     1 <1>   0.0800 
 26 H       -3.4970     1.7690     0.7760 H     1 <1>   0.0800 
 27 H       -3.3690     2.3330    -0.8730 H     1 <1>   0.0800 
 28 H        5.0880    -0.8790    -1.3900 H     1 <1>   0.0800 
 29 H        4.9360    -1.4880     0.2550 H     1 <1>   0.0800 
 30 H        4.9890     3.1020     1.5670 H     1 <1>   0.0800 
 31 H        3.6590     4.1850     1.7620 H     1 <1>   0.0800 
 32 H        5.1260     3.7220    -0.8570 H     1 <1>   0.0800 
 33 H        5.2880     5.1170     0.1760 H     1 <1>   0.0800 
 34 H        3.7710     4.8170    -0.6300 H     1 <1>   0.0800 
 35 H        9.1230    -2.0520     1.8880 H     1 <1>   0.0800 
 36 H        9.5090    -1.2010     0.3920 H     1 <1>   0.0800 
 37 H        8.9870    -2.8860     0.3390 H     1 <1>   0.0800 
@<TRIPOS>BOND
  1   1   2  1   
  2   1   3  1   
  3   2   4  1   
  4   2   5  2   
  5   3   6  2   
  6   3   7  1   
  7   4   8  2   
  8   5   6  1   
  9   5   9  1   
 10   6  10  1   
 11   7  11  1   
 12   7  22  1   
 13   7  23  1   
 14   8  12  1   
 15   8  13  1   
 16   9  13  am  
 17   9  14  2   
 18  10  11  1   
 19  10  24  1   
 20  10  25  1   
 21  11  26  1   
 22  11  27  1   
 23  12  15  1   
 24  13  16  1   
 25  15  17  1   
 26  15  28  1   
 27  15  29  1   
 28  16  18  1   
 29  16  30  1   
 30  16  31  1   
 31  17  19  2   
 32  17  20  1   
 33  18  32  1   
 34  18  33  1   
 35  18  34  1   
 36  20  21  1   
 37  21  35  1   
 38  21  36  1   
 39  21  37  1   
@<TRIPOS>SUBSTRUCTURE
  1 ****   4 GROUP 4 **** **** 0

# MOE 2024.06 (io_trps.svl 2023.06)
