@<TRIPOS>MOLECULE
NONAME
28 29 1 0 0 
SMALL
USER_CHARGES


@<TRIPOS>ATOM
  1 I        0.8490     0.6280    -2.4560 I     1 <1>  -0.0810 
  2 C        2.4990     0.3690    -1.1410 C.ar  1 <1>   0.0810 
  3 C        3.2600    -0.7780    -1.2460 C.ar  1 <1>  -0.1500 
  4 C        2.7700     1.3530    -0.2110 C.ar  1 <1>  -0.1500 
  5 C        4.3350    -0.9350    -0.3860 C.ar  1 <1>  -0.1500 
  6 C        3.8490     1.1760     0.6380 C.ar  1 <1>  -0.1500 
  7 C        4.6520     0.0370     0.5630 C.ar  1 <1>  -0.0090 
  8 S        6.0870    -0.1660     1.6550 S.o2  1 <1>   1.6670 
  9 O        6.1400    -1.5040     2.1900 O.2   1 <1>  -0.6500 
 10 O        6.2650     0.9870     2.5010 O.2   1 <1>  -0.6500 
 11 N        7.4320    -0.1060     0.5560 N.pl3 1 <1>  -0.7020 
 12 C        7.7920     0.8400    -0.2640 C.cat 1 <1>   0.6040 
 13 C        8.4320    -1.1950     0.6020 C.3   1 <1>   0.3300 
 14 N        8.9150     0.5670    -0.8680 N.pl3 1 <1>  -0.7940 
 15 C        7.0380     2.1260    -0.5170 C.3   1 <1>  -0.1350 
 16 C        9.4810    -0.7300    -0.4260 C.3   1 <1>   0.3290 
 17 H        3.0160    -1.5300    -1.9770 H     1 <1>   0.1500 
 18 H        2.1520     2.2330    -0.1500 H     1 <1>   0.1500 
 19 H        4.9260    -1.8330    -0.4570 H     1 <1>   0.1500 
 20 H        4.0620     1.9390     1.3710 H     1 <1>   0.1500 
 21 H        7.9940    -2.1370     0.3150 H     1 <1>   0.0800 
 22 H        8.8630    -1.2780     1.5860 H     1 <1>   0.0800 
 23 H        9.4080     1.1510    -1.5550 H     1 <1>   0.4500 
 24 H        6.1420     1.9260    -1.0750 H     1 <1>   0.0800 
 25 H        7.6440     2.8080    -1.0850 H     1 <1>   0.0800 
 26 H        6.7840     2.6020     0.4120 H     1 <1>   0.0800 
 27 H        9.5560    -1.4210    -1.2490 H     1 <1>   0.0800 
 28 H       10.4460    -0.5960     0.0350 H     1 <1>   0.0800 
@<TRIPOS>BOND
  1   1   2  1   
  2   2   3  ar  
  3   2   4  ar  
  4   3   5  ar  
  5   3  17  1   
  6   4   6  ar  
  7   4  18  1   
  8   5   7  ar  
  9   5  19  1   
 10   6   7  ar  
 11   6  20  1   
 12   7   8  1   
 13   8   9  2   
 14   8  10  2   
 15   8  11  1   
 16  11  12  ar  
 17  11  13  1   
 18  12  14  ar  
 19  12  15  1   
 20  13  16  1   
 21  13  21  1   
 22  13  22  1   
 23  14  16  1   
 24  14  23  1   
 25  15  24  1   
 26  15  25  1   
 27  15  26  1   
 28  16  27  1   
 29  16  28  1   
@<TRIPOS>SUBSTRUCTURE
  1 ****   7 GROUP 4 **** **** 0

# MOE 2024.06 (io_trps.svl 2023.06)
