@<TRIPOS>MOLECULE
NONAME
27 27 1 0 0 
SMALL
USER_CHARGES


@<TRIPOS>ATOM
  1 S        0.0410    -0.4350    -1.4000 S.o2  1 <1>   1.2570 
  2 O        0.6240     0.1730    -2.5750 O.2   1 <1>  -0.6500 
  3 O       -0.1220    -1.8710    -1.3490 O.2   1 <1>  -0.6500 
  4 C       -1.5470     0.3710    -1.0810 C.2   1 <1>  -0.0220 
  5 C        1.0480     0.0710     0.0040 C.3   1 <1>  -0.0550 
  6 S       -2.7810    -0.5290    -0.2030 S.3   1 <1>  -0.0800 
  7 C       -2.0200     1.6000    -1.3650 C.2   1 <1>  -0.1500 
  8 C        0.5370    -0.3800     1.3860 C.3   1 <1>  -0.2400 
  9 C       -3.9210     0.8110    -0.2540 C.2   1 <1>  -0.0220 
 10 C       -3.3510     1.8470    -0.9010 C.2   1 <1>  -0.1500 
 11 S       -5.5350     0.5970     0.5300 S.o2  1 <1>   1.2570 
 12 O       -6.3920     1.6770     0.0930 O.2   1 <1>  -0.6500 
 13 O       -5.3400     0.3690     1.9450 O.2   1 <1>  -0.6500 
 14 C       -6.1460    -0.9280    -0.2060 C.3   1 <1>  -0.0550 
 15 C       -7.5570    -1.3330     0.2570 C.3   1 <1>  -0.2400 
 16 H        1.1370     1.1400     0.0040 H     1 <1>   0.0800 
 17 H        2.0350    -0.3280    -0.1320 H     1 <1>   0.0800 
 18 H       -1.4740     2.3620    -1.8980 H     1 <1>   0.1500 
 19 H       -0.4140     0.0700     1.6090 H     1 <1>   0.0800 
 20 H        1.2380    -0.0920     2.1490 H     1 <1>   0.0800 
 21 H        0.4270    -1.4510     1.4100 H     1 <1>   0.0800 
 22 H       -3.8290     2.7990    -1.0710 H     1 <1>   0.1500 
 23 H       -5.4720    -1.7290     0.0330 H     1 <1>   0.0800 
 24 H       -6.1580    -0.8210    -1.2740 H     1 <1>   0.0800 
 25 H       -7.5700    -1.4760     1.3240 H     1 <1>   0.0800 
 26 H       -7.8570    -2.2500    -0.2190 H     1 <1>   0.0800 
 27 H       -8.2660    -0.5630     0.0060 H     1 <1>   0.0800 
@<TRIPOS>BOND
  1   1   2  2   
  2   1   3  2   
  3   1   4  1   
  4   1   5  1   
  5   4   6  1   
  6   4   7  2   
  7   5   8  1   
  8   5  16  1   
  9   5  17  1   
 10   6   9  1   
 11   7  10  1   
 12   7  18  1   
 13   8  19  1   
 14   8  20  1   
 15   8  21  1   
 16   9  10  2   
 17   9  11  1   
 18  10  22  1   
 19  11  12  2   
 20  11  13  2   
 21  11  14  1   
 22  14  15  1   
 23  14  23  1   
 24  14  24  1   
 25  15  25  1   
 26  15  26  1   
 27  15  27  1   
@<TRIPOS>SUBSTRUCTURE
  1 ****   6 GROUP 4 **** **** 0

# MOE 2024.06 (io_trps.svl 2023.06)
