@<TRIPOS>MOLECULE
NONAME
36 37 1 0 0 
SMALL
USER_CHARGES


@<TRIPOS>ATOM
  1 F       -0.0410    -0.8670    -1.3430 F     1 <1>  -0.1900 
  2 C       -0.7040    -1.7060    -0.5830 C.ar  1 <1>   0.1900 
  3 C       -0.0120    -2.7620     0.0110 C.ar  1 <1>   0.1170 
  4 C       -2.0580    -1.4930    -0.4130 C.ar  1 <1>  -0.1500 
  5 N        1.3730    -2.9000    -0.2220 N.am  1 <1>  -0.5470 
  6 C       -0.7590    -3.6260     0.8080 C.ar  1 <1>  -0.1500 
  7 C       -2.7720    -2.3690     0.3860 C.ar  1 <1>  -0.1500 
  8 C        2.3090    -3.7840     0.2400 C.2   1 <1>   0.5690 
  9 C       -2.1200    -3.4310     0.9930 C.ar  1 <1>  -0.1500 
 10 O        2.0560    -4.6810     1.0070 O.2   1 <1>  -0.5700 
 11 C        3.7460    -3.5950    -0.2510 C.3   1 <1>  -0.0190 
 12 C        4.5480    -4.9130    -0.2780 C.3   1 <1>  -0.1600 
 13 C        4.4860    -2.5490     0.6040 C.3   1 <1>  -0.1600 
 14 C        5.9870    -4.6890    -0.7470 C.3   1 <1>   0.1400 
 15 C        5.9290    -2.3490     0.1310 C.3   1 <1>   0.1400 
 16 N        6.6340    -3.6590     0.1130 N.am  1 <1>  -0.6600 
 17 C        7.7660    -3.8570     0.8640 C.2   1 <1>   0.5690 
 18 O        8.2660    -2.9770     1.5210 O.2   1 <1>  -0.5700 
 19 C        8.4440    -5.2080     0.8990 C.3   1 <1>  -0.1790 
 20 H       -2.5410    -0.6620    -0.8940 H     1 <1>   0.1500 
 21 H        1.7360    -2.1790    -0.8460 H     1 <1>   0.3700 
 22 H       -0.2900    -4.4610     1.2950 H     1 <1>   0.1500 
 23 H       -3.8290    -2.2270     0.5370 H     1 <1>   0.1500 
 24 H       -2.6740    -4.1130     1.6150 H     1 <1>   0.1500 
 25 H        3.6970    -3.2280    -1.2610 H     1 <1>   0.0800 
 26 H        4.0640    -5.6170    -0.9320 H     1 <1>   0.0800 
 27 H        4.5710    -5.3470     0.7070 H     1 <1>   0.0800 
 28 H        4.5010    -2.8680     1.6330 H     1 <1>   0.0800 
 29 H        3.9700    -1.6070     0.5640 H     1 <1>   0.0800 
 30 H        5.9900    -4.3420    -1.7660 H     1 <1>   0.0800 
 31 H        6.5210    -5.6210    -0.7150 H     1 <1>   0.0800 
 32 H        6.4270    -1.6550     0.7890 H     1 <1>   0.0800 
 33 H        5.9410    -1.9300    -0.8600 H     1 <1>   0.0800 
 34 H        7.7580    -5.9500     1.2600 H     1 <1>   0.0800 
 35 H        9.2890    -5.1710     1.5610 H     1 <1>   0.0800 
 36 H        8.7870    -5.4690    -0.0840 H     1 <1>   0.0800 
@<TRIPOS>BOND
  1   1   2  1   
  2   2   3  ar  
  3   2   4  ar  
  4   3   5  1   
  5   3   6  ar  
  6   4   7  ar  
  7   4  20  1   
  8   5   8  am  
  9   5  21  1   
 10   6   9  ar  
 11   6  22  1   
 12   7   9  ar  
 13   7  23  1   
 14   8  10  2   
 15   8  11  1   
 16   9  24  1   
 17  11  12  1   
 18  11  13  1   
 19  11  25  1   
 20  12  14  1   
 21  12  26  1   
 22  12  27  1   
 23  13  15  1   
 24  13  28  1   
 25  13  29  1   
 26  14  16  1   
 27  14  30  1   
 28  14  31  1   
 29  15  16  1   
 30  15  32  1   
 31  15  33  1   
 32  16  17  am  
 33  17  18  2   
 34  17  19  1   
 35  19  34  1   
 36  19  35  1   
 37  19  36  1   
@<TRIPOS>SUBSTRUCTURE
  1 ****   8 GROUP 4 **** **** 0

# MOE 2024.06 (io_trps.svl 2023.06)
