@<TRIPOS>MOLECULE
NONAME
47 47 1 0 0 
SMALL
USER_CHARGES


@<TRIPOS>ATOM
  1 O      -13.2910     0.0000    -0.9480 O.3   1 <1>  -0.3630 
  2 C      -14.5020    -0.3770    -0.4790 C.ar  1 <1>   0.0830 
  3 C      -12.1950    -0.2860    -0.1110 C.3   1 <1>   0.1200 
  4 C      -14.9940    -1.6440    -0.7800 C.ar  1 <1>  -0.1440 
  5 C      -15.2490     0.5110     0.2920 C.ar  1 <1>  -0.1440 
  6 C      -10.9290     0.2050    -0.8060 C.3   1 <1>   0.1200 
  7 C      -16.2250    -2.0270    -0.2730 C.ar  1 <1>  -0.1500 
  8 C      -14.2140    -2.6130    -1.6570 C.3   1 <1>  -0.0960 
  9 C      -16.4770     0.1040     0.7870 C.ar  1 <1>  -0.1500 
 10 C      -14.7510     1.9160     0.5960 C.3   1 <1>  -0.0960 
 11 O       -9.8270    -0.0710     0.0090 O.3   1 <1>  -0.5600 
 12 C      -16.9670    -1.1620     0.5140 C.ar  1 <1>  -0.1430 
 13 C       -8.6100     0.3330    -0.5180 C.3   1 <1>   0.1200 
 14 C      -18.3140    -1.5950     1.0630 C.3   1 <1>  -0.0970 
 15 C       -7.5290    -0.0480     0.4980 C.3   1 <1>   0.3430 
 16 N       -6.1640     0.3520     0.0380 N.4   1 <1>  -0.9060 
 17 C       -5.1060     0.0250     1.0040 C.3   1 <1>   0.4230 
 18 C       -3.8560     0.7860     0.5840 C.3   1 <1>  -0.2400 
 19 C       -4.8540    -1.4800     0.9880 C.3   1 <1>  -0.2400 
 20 H      -12.1570    -1.3490     0.0470 H     1 <1>   0.0800 
 21 H      -12.3400     0.2230     0.8250 H     1 <1>   0.0800 
 22 H      -10.9890     1.2680    -0.9640 H     1 <1>   0.0800 
 23 H      -10.8060    -0.3080    -1.7440 H     1 <1>   0.0800 
 24 H      -16.6110    -3.0060    -0.4930 H     1 <1>   0.1500 
 25 H      -13.7580    -2.0870    -2.4760 H     1 <1>   0.0800 
 26 H      -14.8640    -3.3660    -2.0630 H     1 <1>   0.0800 
 27 H      -13.4470    -3.0940    -1.0780 H     1 <1>   0.0800 
 28 H      -17.0600     0.7780     1.3890 H     1 <1>   0.1500 
 29 H      -14.0420     1.8860     1.4020 H     1 <1>   0.0800 
 30 H      -15.5670     2.5570     0.8770 H     1 <1>   0.0800 
 31 H      -14.2780     2.3380    -0.2720 H     1 <1>   0.0800 
 32 H       -8.6420     1.3990    -0.6670 H     1 <1>   0.0800 
 33 H       -8.4580    -0.1790    -1.4530 H     1 <1>   0.0800 
 34 H      -18.3300    -2.6580     1.2270 H     1 <1>   0.0800 
 35 H      -19.0900    -1.3390     0.3650 H     1 <1>   0.0800 
 36 H      -18.5130    -1.1060     2.0000 H     1 <1>   0.0800 
 37 H       -7.5660    -1.1140     0.6500 H     1 <1>   0.0800 
 38 H       -7.7530     0.4370     1.4350 H     1 <1>   0.0800 
 39 H       -6.1380     1.3640    -0.1300 H     1 <1>   0.4500 
 40 H       -5.9360    -0.1100    -0.8500 H     1 <1>   0.4500 
 41 H       -5.3970     0.3380     1.9960 H     1 <1>   0.0800 
 42 H       -3.5320     0.4980    -0.4010 H     1 <1>   0.0800 
 43 H       -3.0560     0.5690     1.2710 H     1 <1>   0.0800 
 44 H       -4.0260     1.8470     0.6120 H     1 <1>   0.0800 
 45 H       -4.5800    -1.8220     0.0060 H     1 <1>   0.0800 
 46 H       -5.7140    -2.0240     1.3330 H     1 <1>   0.0800 
 47 H       -4.0420    -1.7130     1.6560 H     1 <1>   0.0800 
@<TRIPOS>BOND
  1   1   2  1   
  2   1   3  1   
  3   2   4  ar  
  4   2   5  ar  
  5   3   6  1   
  6   3  20  1   
  7   3  21  1   
  8   4   7  ar  
  9   4   8  1   
 10   5   9  ar  
 11   5  10  1   
 12   6  11  1   
 13   6  22  1   
 14   6  23  1   
 15   7  12  ar  
 16   7  24  1   
 17   8  25  1   
 18   8  26  1   
 19   8  27  1   
 20   9  12  ar  
 21   9  28  1   
 22  10  29  1   
 23  10  30  1   
 24  10  31  1   
 25  11  13  1   
 26  12  14  1   
 27  13  15  1   
 28  13  32  1   
 29  13  33  1   
 30  14  34  1   
 31  14  35  1   
 32  14  36  1   
 33  15  16  1   
 34  15  37  1   
 35  15  38  1   
 36  16  17  1   
 37  16  39  1   
 38  16  40  1   
 39  17  18  1   
 40  17  19  1   
 41  17  41  1   
 42  18  42  1   
 43  18  43  1   
 44  18  44  1   
 45  19  45  1   
 46  19  46  1   
 47  19  47  1   
@<TRIPOS>SUBSTRUCTURE
  1 ****   3 GROUP 4 **** **** 0

# MOE 2024.06 (io_trps.svl 2023.06)
