@<TRIPOS>MOLECULE
NONAME
56 58 1 0 0 
SMALL
USER_CHARGES


@<TRIPOS>ATOM
  1 N        0.0400     0.0210     0.8190 N.4   1 <1>  -0.9590 
  2 C       -0.4510    -1.1750     0.0680 C.3   1 <1>   0.3430 
  3 C       -0.9970     1.0850     0.9650 C.3   1 <1>   0.3430 
  4 C        1.2600     0.6130     0.1680 C.3   1 <1>   0.3430 
  5 C       -1.6940    -1.7530     0.7500 C.3   1 <1>  -0.1600 
  6 C       -2.2410     0.5200     1.6550 C.3   1 <1>  -0.1600 
  7 C        2.4900    -0.2900     0.2920 C.3   1 <1>  -0.0170 
  8 C       -2.7810    -0.6880     0.8890 C.3   1 <1>   0.4230 
  9 C        3.6730     0.4450    -0.3030 C.ar  1 <1>  -0.1440 
 10 N       -3.9480    -1.2540     1.6110 N.4   1 <1>  -0.9060 
 11 C        4.4570     1.2670     0.4920 C.ar  1 <1>  -0.1500 
 12 C        3.9750     0.3110    -1.6510 C.ar  1 <1>  -0.1500 
 13 C       -5.2360    -1.2670     0.8630 C.3   1 <1>   0.4230 
 14 C        5.5250     1.9550    -0.0560 C.ar  1 <1>  -0.1500 
 15 C        5.0430     1.0000    -2.1980 C.ar  1 <1>  -0.1500 
 16 C       -5.0980    -2.1340    -0.3980 C.3   1 <1>  -0.1600 
 17 C       -5.7020     0.1760     0.6180 C.3   1 <1>  -0.1600 
 18 C        5.8180     1.8230    -1.4020 C.ar  1 <1>  -0.1500 
 19 C       -6.4690    -2.5630    -0.9410 C.3   1 <1>  -0.1600 
 20 C       -7.0540     0.2920    -0.1050 C.3   1 <1>  -0.1600 
 21 C       -7.1200    -1.5660    -1.9110 C.3   1 <1>  -0.1600 
 22 C       -6.9570    -0.0710    -1.5930 C.3   1 <1>  -0.1600 
 23 H        0.3350    -0.2750     1.7630 H     1 <1>   0.4500 
 24 H        0.3180    -1.9310     0.0300 H     1 <1>   0.0800 
 25 H       -0.6900    -0.8940    -0.9470 H     1 <1>   0.0800 
 26 H       -1.2630     1.4690    -0.0080 H     1 <1>   0.0800 
 27 H       -0.6030     1.9040     1.5470 H     1 <1>   0.0800 
 28 H        1.4970     1.5560     0.6370 H     1 <1>   0.0800 
 29 H        1.0690     0.8090    -0.8750 H     1 <1>   0.0800 
 30 H       -1.4120    -2.1440     1.7120 H     1 <1>   0.0800 
 31 H       -2.0560    -2.5670     0.1470 H     1 <1>   0.0800 
 32 H       -2.9870     1.2940     1.6860 H     1 <1>   0.0800 
 33 H       -1.9870     0.2530     2.6660 H     1 <1>   0.0800 
 34 H        2.3500    -1.2140    -0.2390 H     1 <1>   0.0800 
 35 H        2.6940    -0.5100     1.3250 H     1 <1>   0.0800 
 36 H       -3.0860    -0.3690    -0.0960 H     1 <1>   0.0800 
 37 H       -4.1110    -0.7370     2.4830 H     1 <1>   0.4500 
 38 H       -3.7540    -2.2230     1.8910 H     1 <1>   0.4500 
 39 H        4.2530     1.3820     1.5420 H     1 <1>   0.1500 
 40 H        3.3910    -0.3280    -2.2900 H     1 <1>   0.1500 
 41 H       -5.9790    -1.7370     1.4900 H     1 <1>   0.0800 
 42 H        6.1330     2.5930     0.5630 H     1 <1>   0.1500 
 43 H        5.2760     0.8940    -3.2440 H     1 <1>   0.1500 
 44 H       -4.5750    -3.0370    -0.1390 H     1 <1>   0.0800 
 45 H       -4.5460    -1.6310    -1.1720 H     1 <1>   0.0800 
 46 H       -4.9750     0.7240     0.0490 H     1 <1>   0.0800 
 47 H       -5.8130     0.6620     1.5720 H     1 <1>   0.0800 
 48 H        6.6500     2.3580    -1.8270 H     1 <1>   0.1500 
 49 H       -7.1440    -2.7550    -0.1230 H     1 <1>   0.0800 
 50 H       -6.3590    -3.4970    -1.4680 H     1 <1>   0.0800 
 51 H       -7.3720     1.3200    -0.0430 H     1 <1>   0.0800 
 52 H       -7.8130    -0.2990     0.3810 H     1 <1>   0.0800 
 53 H       -8.1720    -1.7930    -1.9570 H     1 <1>   0.0800 
 54 H       -6.7300    -1.7370    -2.9000 H     1 <1>   0.0800 
 55 H       -6.0270     0.2860    -2.0000 H     1 <1>   0.0800 
 56 H       -7.7360     0.4540    -2.1220 H     1 <1>   0.0800 
@<TRIPOS>BOND
  1   1   2  1   
  2   1   3  1   
  3   1   4  1   
  4   1  23  1   
  5   2   5  1   
  6   2  24  1   
  7   2  25  1   
  8   3   6  1   
  9   3  26  1   
 10   3  27  1   
 11   4   7  1   
 12   4  28  1   
 13   4  29  1   
 14   5   8  1   
 15   5  30  1   
 16   5  31  1   
 17   6   8  1   
 18   6  32  1   
 19   6  33  1   
 20   7   9  1   
 21   7  34  1   
 22   7  35  1   
 23   8  10  1   
 24   8  36  1   
 25   9  11  ar  
 26   9  12  ar  
 27  10  13  1   
 28  10  37  1   
 29  10  38  1   
 30  11  14  ar  
 31  11  39  1   
 32  12  15  ar  
 33  12  40  1   
 34  13  16  1   
 35  13  17  1   
 36  13  41  1   
 37  14  18  ar  
 38  14  42  1   
 39  15  18  ar  
 40  15  43  1   
 41  16  19  1   
 42  16  44  1   
 43  16  45  1   
 44  17  20  1   
 45  17  46  1   
 46  17  47  1   
 47  18  48  1   
 48  19  21  1   
 49  19  49  1   
 50  19  50  1   
 51  20  22  1   
 52  20  51  1   
 53  20  52  1   
 54  21  22  1   
 55  21  53  1   
 56  21  54  1   
 57  22  55  1   
 58  22  56  1   
@<TRIPOS>SUBSTRUCTURE
  1 ****   2 GROUP 4 **** **** 0

# MOE 2024.06 (io_trps.svl 2023.06)
