@<TRIPOS>MOLECULE
NONAME
47 48 1 0 0 
SMALL
USER_CHARGES


@<TRIPOS>ATOM
  1 S       -0.0720    -1.0630     1.9550 S.o2  1 <1>   1.4470 
  2 O       -0.3490    -1.9230     3.0860 O.2   1 <1>  -0.6500 
  3 O        0.0720     0.3580     2.1960 O.2   1 <1>  -0.6500 
  4 N        1.3890    -1.6180     1.3040 N.am  1 <1>  -0.8490 
  5 C       -1.2910    -1.3500     0.6480 C.ar  1 <1>  -0.0090 
  6 C        2.5420    -1.1560     2.1200 C.3   1 <1>   0.2570 
  7 C        1.4200    -3.0670     1.0930 C.3   1 <1>   0.1960 
  8 C       -1.1760    -0.7380    -0.5970 C.ar  1 <1>   0.0830 
  9 C       -2.3780    -2.1930     0.8570 C.ar  1 <1>  -0.1500 
 10 C        3.9190    -1.3140     1.4600 C.2   1 <1>   0.5690 
 11 C        1.9240    -3.3510    -0.3170 C.3   1 <1>  -0.2400 
 12 O       -0.1420     0.0870    -0.8600 O.3   1 <1>  -0.3630 
 13 C       -2.1050    -0.9740    -1.5990 C.ar  1 <1>  -0.1500 
 14 C       -3.3180    -2.4290    -0.1340 C.ar  1 <1>  -0.1440 
 15 O        4.7140    -2.0710     1.9720 O.2   1 <1>  -0.5700 
 16 N        4.2330    -0.6030     0.3310 N.am  1 <1>  -0.6600 
 17 C       -0.4250     1.4680    -0.8580 C.3   1 <1>   0.0400 
 18 C       -3.1750    -1.8170    -1.3670 C.ar  1 <1>  -0.1500 
 19 C       -4.4930    -3.3550     0.1270 C.3   1 <1>  -0.0970 
 20 C        3.2770     0.2160    -0.4490 C.3   1 <1>   0.1400 
 21 C        5.5240    -0.7340    -0.3730 C.3   1 <1>   0.1400 
 22 C        4.1110     0.8150    -1.5750 C.3   1 <1>  -0.1600 
 23 C        5.2630    -0.1690    -1.7650 C.3   1 <1>  -0.1600 
 24 H        2.5470    -1.6770     3.0610 H     1 <1>   0.0800 
 25 H        2.4340    -0.1090     2.3380 H     1 <1>   0.0800 
 26 H        0.4310    -3.4850     1.1850 H     1 <1>   0.0800 
 27 H        2.0470    -3.5530     1.8230 H     1 <1>   0.0800 
 28 H       -2.4880    -2.6730     1.8150 H     1 <1>   0.1500 
 29 H        1.3080    -2.8450    -1.0390 H     1 <1>   0.0800 
 30 H        1.8800    -4.4080    -0.5090 H     1 <1>   0.0800 
 31 H        2.9430    -3.0330    -0.4320 H     1 <1>   0.0800 
 32 H       -1.9850    -0.5020    -2.5570 H     1 <1>   0.1500 
 33 H        0.4920     2.0000    -1.0360 H     1 <1>   0.0800 
 34 H       -0.8240     1.7410     0.1040 H     1 <1>   0.0800 
 35 H       -1.1360     1.6850    -1.6350 H     1 <1>   0.0800 
 36 H       -3.8930    -1.9950    -2.1490 H     1 <1>   0.1500 
 37 H       -4.2500    -4.3520    -0.1910 H     1 <1>   0.0800 
 38 H       -5.3610    -3.0210    -0.4130 H     1 <1>   0.0800 
 39 H       -4.7360    -3.3740     1.1750 H     1 <1>   0.0800 
 40 H        2.8240     0.9780     0.1630 H     1 <1>   0.0800 
 41 H        2.5100    -0.4240    -0.8530 H     1 <1>   0.0800 
 42 H        5.8400    -1.7630    -0.4110 H     1 <1>   0.0800 
 43 H        6.2640    -0.1470     0.1430 H     1 <1>   0.0800 
 44 H        4.4920     1.7690    -1.2570 H     1 <1>   0.0800 
 45 H        3.5310     0.9480    -2.4710 H     1 <1>   0.0800 
 46 H        4.9540    -0.9710    -2.4130 H     1 <1>   0.0800 
 47 H        6.1390     0.2980    -2.1780 H     1 <1>   0.0800 
@<TRIPOS>BOND
  1   1   2  2   
  2   1   3  2   
  3   1   4  am  
  4   1   5  1   
  5   4   6  1   
  6   4   7  1   
  7   5   8  ar  
  8   5   9  ar  
  9   6  10  1   
 10   6  24  1   
 11   6  25  1   
 12   7  11  1   
 13   7  26  1   
 14   7  27  1   
 15   8  12  1   
 16   8  13  ar  
 17   9  14  ar  
 18   9  28  1   
 19  10  15  2   
 20  10  16  am  
 21  11  29  1   
 22  11  30  1   
 23  11  31  1   
 24  12  17  1   
 25  13  18  ar  
 26  13  32  1   
 27  14  18  ar  
 28  14  19  1   
 29  16  20  1   
 30  16  21  1   
 31  17  33  1   
 32  17  34  1   
 33  17  35  1   
 34  18  36  1   
 35  19  37  1   
 36  19  38  1   
 37  19  39  1   
 38  20  22  1   
 39  20  40  1   
 40  20  41  1   
 41  21  23  1   
 42  21  42  1   
 43  21  43  1   
 44  22  23  1   
 45  22  44  1   
 46  22  45  1   
 47  23  46  1   
 48  23  47  1   
@<TRIPOS>SUBSTRUCTURE
  1 ****   4 GROUP 4 **** **** 0

# MOE 2024.06 (io_trps.svl 2023.06)
