@<TRIPOS>MOLECULE
NONAME
52 55 1 0 0 
SMALL
USER_CHARGES


@<TRIPOS>ATOM
  1 S        0.1970     0.0390     0.0000 S.3   1 <1>  -0.2860 
  2 C       -1.5180     0.2680    -0.4780 C.2   1 <1>   0.2420 
  3 C        0.9360     1.7150    -0.3300 C.3   1 <1>   0.1310 
  4 N       -1.9750     1.3610    -0.9720 N.2   1 <1>  -0.3380 
  5 N       -2.4350    -0.6900    -0.3590 N.pl3 1 <1>   0.0480 
  6 C        2.4270     1.7360    -0.0370 C.2   1 <1>   0.5690 
  7 N       -3.2690     1.1370    -1.2100 N.2   1 <1>  -0.3380 
  8 C       -3.5400    -0.0840    -0.8370 C.2   1 <1>   0.1870 
  9 C       -2.2610    -2.0880     0.0980 C.3   1 <1>   0.0960 
 10 O        2.9290     2.7930     0.2590 O.2   1 <1>  -0.5700 
 11 N        3.1400     0.5780    -0.1280 N.am  1 <1>  -0.7300 
 12 C       -4.8260    -0.7230    -0.9270 C.2   1 <1>  -0.0010 
 13 C       -1.9450    -3.0050    -1.0870 C.3   1 <1>  -0.2400 
 14 C        4.5830     0.3600     0.1070 C.3   1 <1>   0.2200 
 15 C       -5.5890    -1.2000     0.1720 C.ar  1 <1>   0.0000 
 16 C       -5.5500    -1.0080    -2.0470 C.2   1 <1>  -0.3020 
 17 C        4.9540     0.6760     1.5620 C.3   1 <1>  -0.1600 
 18 C        5.4310     1.1690    -0.8830 C.3   1 <1>  -0.1600 
 19 C       -6.7370    -1.7850    -0.3520 C.ar  1 <1>  -0.1520 
 20 C       -5.4040    -1.1700     1.5580 C.ar  1 <1>  -0.1500 
 21 N       -6.7030    -1.6500    -1.7150 N.pl3 1 <1>   0.0330 
 22 C        6.4530     0.4460     1.8080 C.3   1 <1>  -0.1600 
 23 C        6.9300     0.9380    -0.6370 C.3   1 <1>  -0.1600 
 24 C       -7.6920    -2.3700     0.4820 C.ar  1 <1>  -0.1500 
 25 C       -6.3460    -1.7440     2.3810 C.ar  1 <1>  -0.1500 
 26 C        7.3070     1.2520     0.8180 C.3   1 <1>  -0.1600 
 27 C       -7.4880    -2.3480     1.8430 C.ar  1 <1>  -0.1500 
 28 H        0.4200     2.4180     0.2980 H     1 <1>   0.0800 
 29 H        0.7550     1.9490    -1.3620 H     1 <1>   0.0800 
 30 H       -3.1620    -2.4180     0.5820 H     1 <1>   0.0800 
 31 H       -1.4630    -2.1250     0.8170 H     1 <1>   0.0800 
 32 H        2.6140    -0.2750    -0.3270 H     1 <1>   0.3700 
 33 H       -2.7530    -2.9900    -1.7970 H     1 <1>   0.0800 
 34 H       -1.8180    -4.0150    -0.7400 H     1 <1>   0.0800 
 35 H       -1.0370    -2.6950    -1.5720 H     1 <1>   0.0800 
 36 H        4.7870    -0.6840    -0.0640 H     1 <1>   0.0800 
 37 H       -5.2910    -0.7780    -3.0660 H     1 <1>   0.1500 
 38 H        4.3820     0.0530     2.2250 H     1 <1>   0.0800 
 39 H        4.7240     1.7050     1.7780 H     1 <1>   0.0800 
 40 H        5.2210     2.2180    -0.7660 H     1 <1>   0.0800 
 41 H        5.1830     0.8820    -1.8890 H     1 <1>   0.0800 
 42 H       -4.5320    -0.6900     1.9640 H     1 <1>   0.1500 
 43 H       -7.4350    -1.9670    -2.3580 H     1 <1>   0.2700 
 44 H        6.6780    -0.6010     1.7030 H     1 <1>   0.0800 
 45 H        6.7000     0.7370     2.8150 H     1 <1>   0.0800 
 46 H        7.5030     1.5650    -1.3000 H     1 <1>   0.0800 
 47 H        7.1760    -0.0870    -0.8570 H     1 <1>   0.0800 
 48 H       -8.5710    -2.8250     0.0610 H     1 <1>   0.1500 
 49 H       -6.2150    -1.7310     3.4490 H     1 <1>   0.1500 
 50 H        8.3480     1.0320     0.9770 H     1 <1>   0.0800 
 51 H        7.1610     2.3040     1.0010 H     1 <1>   0.0800 
 52 H       -8.2090    -2.7920     2.5080 H     1 <1>   0.1500 
@<TRIPOS>BOND
  1   1   2  1   
  2   1   3  1   
  3   2   4  2   
  4   2   5  1   
  5   3   6  1   
  6   3  28  1   
  7   3  29  1   
  8   4   7  1   
  9   5   8  1   
 10   5   9  1   
 11   6  10  2   
 12   6  11  am  
 13   7   8  2   
 14   8  12  1   
 15   9  13  1   
 16   9  30  1   
 17   9  31  1   
 18  11  14  1   
 19  11  32  1   
 20  12  15  1   
 21  12  16  2   
 22  13  33  1   
 23  13  34  1   
 24  13  35  1   
 25  14  17  1   
 26  14  18  1   
 27  14  36  1   
 28  15  19  ar  
 29  15  20  ar  
 30  16  21  1   
 31  16  37  1   
 32  17  22  1   
 33  17  38  1   
 34  17  39  1   
 35  18  23  1   
 36  18  40  1   
 37  18  41  1   
 38  19  21  1   
 39  19  24  ar  
 40  20  25  ar  
 41  20  42  1   
 42  21  43  1   
 43  22  26  1   
 44  22  44  1   
 45  22  45  1   
 46  23  26  1   
 47  23  46  1   
 48  23  47  1   
 49  24  27  ar  
 50  24  48  1   
 51  25  27  ar  
 52  25  49  1   
 53  26  50  1   
 54  26  51  1   
 55  27  52  1   
@<TRIPOS>SUBSTRUCTURE
  1 ****   2 GROUP 4 **** **** 0

# MOE 2024.06 (io_trps.svl 2023.06)
