@<TRIPOS>MOLECULE
NONAME
42 43 1 0 0 
SMALL
USER_CHARGES


@<TRIPOS>ATOM
  1 CL       0.8450     0.1530     1.6490 Cl    1 <1>  -0.1770 
  2 C        1.4540     1.6770     1.0560 C.ar  1 <1>   0.1770 
  3 C        1.2690     2.8200     1.8100 C.ar  1 <1>  -0.1500 
  4 C        2.1130     1.7190    -0.1580 C.ar  1 <1>  -0.1500 
  5 C        1.7520     4.0290     1.3370 C.ar  1 <1>  -0.1500 
  6 C        2.5940     2.9300    -0.6250 C.ar  1 <1>  -0.1500 
  7 C        2.4130     4.0910     0.1170 C.ar  1 <1>  -0.1430 
  8 C        2.9350     5.4170    -0.4100 C.3   1 <1>   0.2640 
  9 O        4.3280     5.4070    -0.3230 O.3   1 <1>  -0.5600 
 10 C        4.9500     6.5820    -0.7410 C.3   1 <1>   0.1200 
 11 C        6.4650     6.4100    -0.5560 C.3   1 <1>   0.2000 
 12 O        6.6950     5.8870     0.7160 O.3   1 <1>  -0.6800 
 13 C        7.2540     7.7280    -0.7090 C.3   1 <1>   0.3430 
 14 N        8.5650     7.6350     0.0050 N.4   1 <1>  -0.9590 
 15 C        9.0680     8.9580     0.4670 C.3   1 <1>   0.3430 
 16 C        9.5830     6.8560    -0.7550 C.3   1 <1>   0.3430 
 17 C       10.2930     8.7570     1.3620 C.3   1 <1>  -0.1600 
 18 C       10.8140     6.6260     0.1230 C.3   1 <1>  -0.1600 
 19 C       11.3880     7.9450     0.6580 C.3   1 <1>  -0.1600 
 20 H        0.7550     2.7600     2.7520 H     1 <1>   0.1500 
 21 H        2.2470     0.8150    -0.7240 H     1 <1>   0.1500 
 22 H        1.6100     4.9190     1.9260 H     1 <1>   0.1500 
 23 H        3.1120     2.9690    -1.5680 H     1 <1>   0.1500 
 24 H        2.5540     6.2360     0.1770 H     1 <1>   0.0800 
 25 H        2.6510     5.5460    -1.4410 H     1 <1>   0.0800 
 26 H        4.5860     7.3980    -0.1400 H     1 <1>   0.0800 
 27 H        4.7090     6.7560    -1.7760 H     1 <1>   0.0800 
 28 H        6.8210     5.6890    -1.2720 H     1 <1>   0.0800 
 29 H        5.9810     5.2230     0.8860 H     1 <1>   0.4000 
 30 H        6.6680     8.5170    -0.2690 H     1 <1>   0.0800 
 31 H        7.3990     7.9630    -1.7500 H     1 <1>   0.0800 
 32 H        8.3330     7.0630     0.8400 H     1 <1>   0.4500 
 33 H        8.3000     9.4720     1.0230 H     1 <1>   0.0800 
 34 H        9.3400     9.5620    -0.3830 H     1 <1>   0.0800 
 35 H        9.8700     7.3970    -1.6430 H     1 <1>   0.0800 
 36 H        9.1740     5.9030    -1.0500 H     1 <1>   0.0800 
 37 H        9.9920     8.2590     2.2680 H     1 <1>   0.0800 
 38 H       10.6860     9.7200     1.6410 H     1 <1>   0.0800 
 39 H       11.5670     6.1170    -0.4530 H     1 <1>   0.0800 
 40 H       10.5480     5.9820     0.9430 H     1 <1>   0.0800 
 41 H       12.1910     7.7410     1.3470 H     1 <1>   0.0800 
 42 H       11.7940     8.5190    -0.1580 H     1 <1>   0.0800 
@<TRIPOS>BOND
  1   1   2  1   
  2   2   3  ar  
  3   2   4  ar  
  4   3   5  ar  
  5   3  20  1   
  6   4   6  ar  
  7   4  21  1   
  8   5   7  ar  
  9   5  22  1   
 10   6   7  ar  
 11   6  23  1   
 12   7   8  1   
 13   8   9  1   
 14   8  24  1   
 15   8  25  1   
 16   9  10  1   
 17  10  11  1   
 18  10  26  1   
 19  10  27  1   
 20  11  12  1   
 21  11  13  1   
 22  11  28  1   
 23  12  29  1   
 24  13  14  1   
 25  13  30  1   
 26  13  31  1   
 27  14  15  1   
 28  14  16  1   
 29  14  32  1   
 30  15  17  1   
 31  15  33  1   
 32  15  34  1   
 33  16  18  1   
 34  16  35  1   
 35  16  36  1   
 36  17  19  1   
 37  17  37  1   
 38  17  38  1   
 39  18  19  1   
 40  18  39  1   
 41  18  40  1   
 42  19  41  1   
 43  19  42  1   
@<TRIPOS>SUBSTRUCTURE
  1 ****   9 GROUP 4 **** **** 0

# MOE 2024.06 (io_trps.svl 2023.06)
