@<TRIPOS>MOLECULE
NONAME
38 39 1 0 0 
SMALL
USER_CHARGES


@<TRIPOS>ATOM
  1 F        0.2430    -2.1710     1.1460 F     1 <1>  -0.3400 
  2 C        1.3990    -2.1640     0.4870 C.3   1 <1>   0.8800 
  3 F        1.5060    -0.9400    -0.0200 F     1 <1>  -0.3400 
  4 O        1.3000    -3.0690    -0.5840 O.3   1 <1>  -0.3630 
  5 C        1.5460    -4.3620    -0.2650 C.ar  1 <1>   0.0820 
  6 C        2.8080    -4.9290    -0.4800 C.ar  1 <1>   0.1170 
  7 C        0.5100    -5.1280     0.2460 C.ar  1 <1>  -0.1500 
  8 N        3.8980    -4.2260    -1.0060 N.am  1 <1>  -0.5470 
  9 C        2.9950    -6.2690    -0.1720 C.ar  1 <1>  -0.1500 
 10 C        0.7180    -6.4620     0.5560 C.ar  1 <1>  -0.1500 
 11 C        4.6690    -3.2860    -0.3930 C.2   1 <1>   0.5690 
 12 C        1.9620    -7.0310     0.3460 C.ar  1 <1>  -0.1500 
 13 O        4.3060    -2.7240     0.6170 O.2   1 <1>  -0.5700 
 14 C        6.0330    -2.9640    -1.0330 C.3   1 <1>  -0.0190 
 15 C        7.0690    -4.0960    -0.7920 C.3   1 <1>  -0.1860 
 16 C        6.6210    -1.5850    -0.6250 C.3   1 <1>  -0.1600 
 17 C        6.6210    -5.4400    -1.3680 C.2   1 <1>   0.9060 
 18 C        7.4520    -4.1750     0.7080 C.3   1 <1>  -0.1600 
 19 C        7.7600    -1.6620     0.4100 C.3   1 <1>  -0.1600 
 20 O        6.9260    -6.4940    -0.8060 O.co2 1 <1>  -0.9000 
 21 O        5.9110    -5.4360    -2.3830 O.co2 1 <1>  -0.9000 
 22 C        7.5380    -2.8050     1.4060 C.3   1 <1>  -0.1600 
 23 H        2.2080    -2.3680     1.1620 H     1 <1>   0.0800 
 24 H       -0.4570    -4.6830     0.3950 H     1 <1>   0.1500 
 25 H        4.4330    -4.7530    -1.7290 H     1 <1>   0.3700 
 26 H        3.9650    -6.7120    -0.3420 H     1 <1>   0.1500 
 27 H       -0.0860    -7.0550     0.9560 H     1 <1>   0.1500 
 28 H        2.1340    -8.0670     0.5800 H     1 <1>   0.1500 
 29 H        5.8490    -2.9110    -2.0920 H     1 <1>   0.0800 
 30 H        7.9540    -3.8430    -1.3430 H     1 <1>   0.0800 
 31 H        5.8360    -0.9540    -0.2450 H     1 <1>   0.0800 
 32 H        7.0060    -1.1000    -1.5040 H     1 <1>   0.0800 
 33 H        8.3970    -4.6850     0.7850 H     1 <1>   0.0800 
 34 H        6.7280    -4.7800     1.2290 H     1 <1>   0.0800 
 35 H        7.8350    -0.7260     0.9350 H     1 <1>   0.0800 
 36 H        8.6940    -1.8280    -0.0990 H     1 <1>   0.0800 
 37 H        8.3290    -2.8210     2.1340 H     1 <1>   0.0800 
 38 H        6.6170    -2.6240     1.9340 H     1 <1>   0.0800 
@<TRIPOS>BOND
  1   1   2  1   
  2   2   3  1   
  3   2   4  1   
  4   2  23  1   
  5   4   5  1   
  6   5   6  ar  
  7   5   7  ar  
  8   6   8  1   
  9   6   9  ar  
 10   7  10  ar  
 11   7  24  1   
 12   8  11  am  
 13   8  25  1   
 14   9  12  ar  
 15   9  26  1   
 16  10  12  ar  
 17  10  27  1   
 18  11  13  2   
 19  11  14  1   
 20  12  28  1   
 21  14  15  1   
 22  14  16  1   
 23  14  29  1   
 24  15  17  1   
 25  15  18  1   
 26  15  30  1   
 27  16  19  1   
 28  16  31  1   
 29  16  32  1   
 30  17  20  ar  
 31  17  21  ar  
 32  18  22  1   
 33  18  33  1   
 34  18  34  1   
 35  19  22  1   
 36  19  35  1   
 37  19  36  1   
 38  22  37  1   
 39  22  38  1   
@<TRIPOS>SUBSTRUCTURE
  1 ****   8 GROUP 4 **** **** 0

# MOE 2024.06 (io_trps.svl 2023.06)
