@<TRIPOS>MOLECULE
NONAME
40 43 1 0 0 
SMALL
USER_CHARGES


@<TRIPOS>ATOM
  1 I        0.0280     0.3710    -0.1500 I     1 <1>  -0.0810 
  2 C        2.0400     1.0590    -0.1840 C.ar  1 <1>   0.0810 
  3 C        3.0180     0.2780     0.3990 C.ar  1 <1>  -0.1500 
  4 C        2.3140     2.2700    -0.7910 C.ar  1 <1>  -0.1500 
  5 C        4.3460     0.7050     0.3860 C.ar  1 <1>   0.0860 
  6 C        3.6260     2.7080    -0.8030 C.ar  1 <1>  -0.1500 
  7 C        5.3910    -0.1080     0.9820 C.2   1 <1>   0.5440 
  8 C        4.6210     1.9370    -0.2210 C.ar  1 <1>  -0.1500 
  9 O        5.1410    -0.8650     1.9000 O.2   1 <1>  -0.5700 
 10 N        6.6700    -0.0490     0.5080 N.am  1 <1>  -0.7300 
 11 C        7.8230    -0.8230     1.0170 C.3   1 <1>   0.2200 
 12 C        9.0040     0.1220     1.3250 C.3   1 <1>  -0.0800 
 13 C        8.2620    -1.8710    -0.0280 C.3   1 <1>  -0.0800 
 14 C       10.1540    -0.7150     1.9230 C.3   1 <1>  -0.1600 
 15 C        9.5140     0.8070     0.0350 C.3   1 <1>  -0.1600 
 16 C        9.4130    -2.7050     0.5720 C.3   1 <1>  -0.1600 
 17 C        8.7720    -1.1860    -1.3170 C.3   1 <1>  -0.1600 
 18 C       10.6060    -1.7900     0.9140 C.3   1 <1>  -0.0800 
 19 C        9.9580    -0.2580    -0.9870 C.3   1 <1>  -0.0800 
 20 C       11.0940    -1.0980    -0.3730 C.3   1 <1>  -0.1600 
 21 H        2.7640    -0.6580     0.8650 H     1 <1>   0.1500 
 22 H        1.5280     2.8540    -1.2370 H     1 <1>   0.1500 
 23 H        3.8720     3.6510    -1.2620 H     1 <1>   0.1500 
 24 H        5.6310     2.3050    -0.2310 H     1 <1>   0.1500 
 25 H        6.8720     0.4770    -0.3390 H     1 <1>   0.3700 
 26 H        7.5330    -1.3300     1.9230 H     1 <1>   0.0800 
 27 H        8.6920     0.8600     2.0430 H     1 <1>   0.0800 
 28 H        7.4330    -2.5200    -0.2510 H     1 <1>   0.0800 
 29 H        9.8270    -1.1860     2.8340 H     1 <1>   0.0800 
 30 H       10.9830    -0.0740     2.1690 H     1 <1>   0.0800 
 31 H       10.3450     1.4470     0.2730 H     1 <1>   0.0800 
 32 H        8.7450     1.4270    -0.3900 H     1 <1>   0.0800 
 33 H        9.7220    -3.4600    -0.1300 H     1 <1>   0.0800 
 34 H        9.0730    -3.2070     1.4620 H     1 <1>   0.0800 
 35 H        7.9810    -0.6230    -1.7800 H     1 <1>   0.0800 
 36 H        9.0850    -1.9350    -2.0230 H     1 <1>   0.0800 
 37 H       11.4050    -2.3750     1.3380 H     1 <1>   0.0800 
 38 H       10.3070     0.2220    -1.8860 H     1 <1>   0.0800 
 39 H       11.4240    -1.8380    -1.0810 H     1 <1>   0.0800 
 40 H       11.9350    -0.4650    -0.1500 H     1 <1>   0.0800 
@<TRIPOS>BOND
  1   1   2  1   
  2   2   3  ar  
  3   2   4  ar  
  4   3   5  ar  
  5   3  21  1   
  6   4   6  ar  
  7   4  22  1   
  8   5   7  1   
  9   5   8  ar  
 10   6   8  ar  
 11   6  23  1   
 12   7   9  2   
 13   7  10  am  
 14   8  24  1   
 15  10  11  1   
 16  10  25  1   
 17  11  12  1   
 18  11  13  1   
 19  11  26  1   
 20  12  14  1   
 21  12  15  1   
 22  12  27  1   
 23  13  16  1   
 24  13  17  1   
 25  13  28  1   
 26  14  18  1   
 27  14  29  1   
 28  14  30  1   
 29  15  19  1   
 30  15  31  1   
 31  15  32  1   
 32  16  18  1   
 33  16  33  1   
 34  16  34  1   
 35  17  19  1   
 36  17  35  1   
 37  17  36  1   
 38  18  20  1   
 39  18  37  1   
 40  19  20  1   
 41  19  38  1   
 42  20  39  1   
 43  20  40  1   
@<TRIPOS>SUBSTRUCTURE
  1 ****  10 GROUP 4 **** **** 0

# MOE 2024.06 (io_trps.svl 2023.06)
