@<TRIPOS>MOLECULE
NONAME
50 52 1 0 0 
SMALL
USER_CHARGES


@<TRIPOS>ATOM
  1 O       -3.2900     2.7930     0.5040 O.3   1 <1>  -0.5600 
  2 C       -3.5150     2.4050    -0.8200 C.3   1 <1>   0.1200 
  3 C       -4.2230     3.6970     1.0200 C.3   1 <1>   0.1200 
  4 C       -4.8960     1.7350    -0.9510 C.3   1 <1>   0.3430 
  5 C       -5.6380     3.0890     0.9740 C.3   1 <1>   0.3430 
  6 N       -5.9940     2.6130    -0.4120 N.4   1 <1>  -0.9590 
  7 C       -7.3020     1.9020    -0.4540 C.3   1 <1>   0.3430 
  8 C       -8.4590     2.8820    -0.2430 C.3   1 <1>  -0.1600 
  9 C       -9.8050     2.1560    -0.3870 C.3   1 <1>  -0.1600 
 10 C      -10.9920     3.1040    -0.1950 C.3   1 <1>   0.1200 
 11 O      -12.1650     2.3440    -0.3450 O.3   1 <1>  -0.3630 
 12 C      -13.3940     2.9120    -0.2590 C.ar  1 <1>   0.0820 
 13 C      -14.4800     2.0790    -0.4700 C.ar  1 <1>  -0.1500 
 14 C      -13.6070     4.2610     0.0210 C.ar  1 <1>  -0.1500 
 15 C      -15.7730     2.5800    -0.3950 C.ar  1 <1>   0.0820 
 16 C      -14.8970     4.7610     0.0850 C.ar  1 <1>  -0.1500 
 17 O      -16.8620     1.7950    -0.5980 O.3   1 <1>  -0.1650 
 18 C      -15.9780     3.9230    -0.1250 C.ar  1 <1>  -0.1500 
 19 C      -16.9100     0.5120    -0.1600 C.ar  1 <1>   0.0820 
 20 C      -17.5480    -0.4280    -0.9550 C.ar  1 <1>  -0.1500 
 21 C      -16.3580     0.1270     1.0570 C.ar  1 <1>  -0.1500 
 22 C      -17.6240    -1.7480    -0.5460 C.ar  1 <1>  -0.1500 
 23 C      -16.4340    -1.1930     1.4640 C.ar  1 <1>  -0.1500 
 24 C      -17.0650    -2.1300     0.6630 C.ar  1 <1>  -0.1500 
 25 H       -2.7380     1.7120    -1.0920 H     1 <1>   0.0800 
 26 H       -3.4380     3.2720    -1.4540 H     1 <1>   0.0800 
 27 H       -4.1710     4.6120     0.4550 H     1 <1>   0.0800 
 28 H       -3.9440     3.9080     2.0380 H     1 <1>   0.0800 
 29 H       -4.8710     0.8060    -0.4040 H     1 <1>   0.0800 
 30 H       -5.0810     1.5040    -1.9870 H     1 <1>   0.0800 
 31 H       -6.3490     3.8260     1.3070 H     1 <1>   0.0800 
 32 H       -5.6720     2.2610     1.6620 H     1 <1>   0.0800 
 33 H       -6.0540     3.4390    -1.0230 H     1 <1>   0.4500 
 34 H       -7.3290     1.1330     0.3010 H     1 <1>   0.0800 
 35 H       -7.4230     1.4290    -1.4160 H     1 <1>   0.0800 
 36 H       -8.4080     3.6670    -0.9780 H     1 <1>   0.0800 
 37 H       -8.4070     3.3160     0.7400 H     1 <1>   0.0800 
 38 H       -9.8750     1.3710     0.3470 H     1 <1>   0.0800 
 39 H       -9.8790     1.7160    -1.3670 H     1 <1>   0.0800 
 40 H      -10.9940     3.8790    -0.9420 H     1 <1>   0.0800 
 41 H      -10.9910     3.5320     0.7930 H     1 <1>   0.0800 
 42 H      -14.3090     1.0430    -0.6960 H     1 <1>   0.1500 
 43 H      -12.7890     4.9340     0.1910 H     1 <1>   0.1500 
 44 H      -15.0610     5.8040     0.2990 H     1 <1>   0.1500 
 45 H      -16.9820     4.3050    -0.0780 H     1 <1>   0.1500 
 46 H      -17.9800    -0.1220    -1.8910 H     1 <1>   0.1500 
 47 H      -15.8760     0.8550     1.6850 H     1 <1>   0.1500 
 48 H      -18.1170    -2.4760    -1.1660 H     1 <1>   0.1500 
 49 H      -16.0030    -1.4910     2.4040 H     1 <1>   0.1500 
 50 H      -17.1230    -3.1570     0.9800 H     1 <1>   0.1500 
@<TRIPOS>BOND
  1   1   2  1   
  2   1   3  1   
  3   2   4  1   
  4   2  25  1   
  5   2  26  1   
  6   3   5  1   
  7   3  27  1   
  8   3  28  1   
  9   4   6  1   
 10   4  29  1   
 11   4  30  1   
 12   5   6  1   
 13   5  31  1   
 14   5  32  1   
 15   6   7  1   
 16   6  33  1   
 17   7   8  1   
 18   7  34  1   
 19   7  35  1   
 20   8   9  1   
 21   8  36  1   
 22   8  37  1   
 23   9  10  1   
 24   9  38  1   
 25   9  39  1   
 26  10  11  1   
 27  10  40  1   
 28  10  41  1   
 29  11  12  1   
 30  12  13  ar  
 31  12  14  ar  
 32  13  15  ar  
 33  13  42  1   
 34  14  16  ar  
 35  14  43  1   
 36  15  17  1   
 37  15  18  ar  
 38  16  18  ar  
 39  16  44  1   
 40  17  19  1   
 41  18  45  1   
 42  19  20  ar  
 43  19  21  ar  
 44  20  22  ar  
 45  20  46  1   
 46  21  23  ar  
 47  21  47  1   
 48  22  24  ar  
 49  22  48  1   
 50  23  24  ar  
 51  23  49  1   
 52  24  50  1   
@<TRIPOS>SUBSTRUCTURE
  1 ****  11 GROUP 4 **** **** 0

# MOE 2024.06 (io_trps.svl 2023.06)
