@<TRIPOS>MOLECULE
NONAME
47 50 1 0 0 
SMALL
USER_CHARGES


@<TRIPOS>ATOM
  1 S       -0.1290    -0.5740    -0.3060 S.3   1 <1>  -0.2860 
  2 C       -0.6570     1.1020    -0.6810 C.2   1 <1>   0.2420 
  3 C        1.6780    -0.5240    -0.7200 C.3   1 <1>   0.1310 
  4 N        0.1560     2.0060    -1.0960 N.2   1 <1>  -0.3380 
  5 N       -1.9210     1.5210    -0.5630 N.pl3 1 <1>   0.0480 
  6 C        2.3390    -1.8730    -0.4890 C.2   1 <1>   0.5950 
  7 N       -0.5840     3.1000    -1.2780 N.2   1 <1>  -0.3380 
  8 C       -1.8020     2.8040    -0.9640 C.2   1 <1>   0.0060 
  9 C       -3.0830     0.6940    -0.1280 C.3   1 <1>   0.1760 
 10 O        1.7970    -2.8560    -0.9380 O.2   1 <1>  -0.5700 
 11 C        3.5670    -1.9500     0.2530 C.2   1 <1>  -0.0860 
 12 C       -2.9200     3.8260    -1.0570 C.3   1 <1>  -0.0600 
 13 C       -3.9850     0.3350    -1.3210 C.3   1 <1>  -0.1600 
 14 C       -3.8830     1.3510     1.0110 C.3   1 <1>  -0.1600 
 15 C        4.5790    -0.9520     0.4030 C.ar  1 <1>   0.0000 
 16 C        4.0050    -3.0300     0.9720 C.2   1 <1>  -0.3020 
 17 C       -5.1510    -0.5600    -0.8750 C.3   1 <1>  -0.1600 
 18 C       -5.0380     0.4410     1.4550 C.3   1 <1>  -0.1600 
 19 C        5.5520    -1.4890     1.2420 C.ar  1 <1>  -0.1520 
 20 C        4.7840     0.3380    -0.1100 C.ar  1 <1>  -0.1500 
 21 N        5.1840    -2.7650     1.5750 N.pl3 1 <1>   0.0330 
 22 C       -5.9460     0.0830     0.2700 C.3   1 <1>  -0.1600 
 23 C        6.6870    -0.7650     1.6120 C.ar  1 <1>  -0.1500 
 24 C        5.9030     1.0540     0.2510 C.ar  1 <1>  -0.1500 
 25 C        6.8540     0.5060     1.1160 C.ar  1 <1>  -0.1500 
 26 H        2.0970     0.2310    -0.0830 H     1 <1>   0.0800 
 27 H        1.7600    -0.2340    -1.7510 H     1 <1>   0.0800 
 28 H       -2.6970    -0.2290     0.2640 H     1 <1>   0.0800 
 29 H       -3.7820     3.4130    -1.5450 H     1 <1>   0.0800 
 30 H       -2.5860     4.6740    -1.6290 H     1 <1>   0.0800 
 31 H       -3.1880     4.1690    -0.0760 H     1 <1>   0.0800 
 32 H       -3.4060    -0.1850    -2.0640 H     1 <1>   0.0800 
 33 H       -4.3850     1.2280    -1.7660 H     1 <1>   0.0800 
 34 H       -4.3030     2.2830     0.6860 H     1 <1>   0.0800 
 35 H       -3.2340     1.5370     1.8480 H     1 <1>   0.0800 
 36 H        3.5050    -3.9790     1.0750 H     1 <1>   0.1500 
 37 H       -4.7660    -1.5120    -0.5490 H     1 <1>   0.0800 
 38 H       -5.8060    -0.7420    -1.7100 H     1 <1>   0.0800 
 39 H       -5.6170     0.9370     2.2150 H     1 <1>   0.0800 
 40 H       -4.6390    -0.4630     1.8850 H     1 <1>   0.0800 
 41 H        4.0800     0.7760    -0.7910 H     1 <1>   0.1500 
 42 H        5.7280    -3.3970     2.1710 H     1 <1>   0.2700 
 43 H       -6.7140    -0.5960     0.5990 H     1 <1>   0.0800 
 44 H       -6.4310     0.9750    -0.0890 H     1 <1>   0.0800 
 45 H        7.4160    -1.2010     2.2720 H     1 <1>   0.1500 
 46 H        6.0580     2.0470    -0.1340 H     1 <1>   0.1500 
 47 H        7.7180     1.0870     1.3850 H     1 <1>   0.1500 
@<TRIPOS>BOND
  1   1   2  1   
  2   1   3  1   
  3   2   4  2   
  4   2   5  1   
  5   3   6  1   
  6   3  26  1   
  7   3  27  1   
  8   4   7  1   
  9   5   8  1   
 10   5   9  1   
 11   6  10  2   
 12   6  11  1   
 13   7   8  2   
 14   8  12  1   
 15   9  13  1   
 16   9  14  1   
 17   9  28  1   
 18  11  15  1   
 19  11  16  2   
 20  12  29  1   
 21  12  30  1   
 22  12  31  1   
 23  13  17  1   
 24  13  32  1   
 25  13  33  1   
 26  14  18  1   
 27  14  34  1   
 28  14  35  1   
 29  15  19  ar  
 30  15  20  ar  
 31  16  21  1   
 32  16  36  1   
 33  17  22  1   
 34  17  37  1   
 35  17  38  1   
 36  18  22  1   
 37  18  39  1   
 38  18  40  1   
 39  19  21  1   
 40  19  23  ar  
 41  20  24  ar  
 42  20  41  1   
 43  21  42  1   
 44  22  43  1   
 45  22  44  1   
 46  23  25  ar  
 47  23  45  1   
 48  24  25  ar  
 49  24  46  1   
 50  25  47  1   
@<TRIPOS>SUBSTRUCTURE
  1 ****   1 GROUP 4 **** **** 0

# MOE 2024.06 (io_trps.svl 2023.06)
