@<TRIPOS>MOLECULE
NONAME
47 49 1 0 0 
SMALL
USER_CHARGES


@<TRIPOS>ATOM
  1 O        4.3040    -6.5870     0.0140 O.3   1 <1>  -0.3630 
  2 C        5.1010    -5.4940    -0.0900 C.ar  1 <1>   0.0830 
  3 C        2.9060    -6.5280    -0.1350 C.3   1 <1>   0.1200 
  4 C        6.4840    -5.6970    -0.0110 C.ar  1 <1>   0.0000 
  5 C        4.5910    -4.2110    -0.2760 C.ar  1 <1>  -0.1500 
  6 C        2.3750    -7.9610    -0.0580 C.3   1 <1>   0.1100 
  7 C        7.0590    -7.0100     0.1810 C.ar  1 <1>   0.0000 
  8 C        7.3210    -4.5910    -0.1240 C.ar  1 <1>  -0.1500 
  9 C        5.4440    -3.1290    -0.3850 C.ar  1 <1>  -0.1500 
 10 N        0.9020    -8.0160    -0.1900 N.3   1 <1>  -0.8100 
 11 C        7.8000    -7.6190    -0.8270 C.ar  1 <1>  -0.1500 
 12 C        6.8940    -7.6990     1.3790 C.ar  1 <1>  -0.1500 
 13 C        6.8120    -3.3200    -0.3090 C.ar  1 <1>  -0.1500 
 14 C        0.4680    -9.3870    -0.5550 C.3   1 <1>   0.1100 
 15 C        0.2110    -7.5770     1.0520 C.3   1 <1>   0.1100 
 16 C        8.3590    -8.8720    -0.6450 C.ar  1 <1>  -0.1500 
 17 C        7.4510    -8.9510     1.5680 C.ar  1 <1>  -0.1500 
 18 C       -1.0690    -9.5060    -0.7090 C.3   1 <1>   0.3430 
 19 C       -1.3300    -7.7090     0.9570 C.3   1 <1>   0.3430 
 20 C        8.1860    -9.5400     0.5540 C.ar  1 <1>  -0.1500 
 21 N       -1.7500    -8.2060    -0.3940 N.4   1 <1>  -0.9590 
 22 C       -3.2280    -8.2500    -0.5820 C.3   1 <1>   0.2630 
 23 H        2.6850    -6.0980    -1.0960 H     1 <1>   0.0800 
 24 H        2.5150    -5.9200     0.6600 H     1 <1>   0.0800 
 25 H        3.5350    -4.0330    -0.3380 H     1 <1>   0.1500 
 26 H        2.6830    -8.4110     0.8710 H     1 <1>   0.0800 
 27 H        2.8260    -8.5120    -0.8660 H     1 <1>   0.0800 
 28 H        8.3850    -4.7360    -0.0620 H     1 <1>   0.1500 
 29 H        5.0480    -2.1390    -0.5280 H     1 <1>   0.1500 
 30 H        7.9330    -7.1030    -1.7610 H     1 <1>   0.1500 
 31 H        6.3210    -7.2420     2.1660 H     1 <1>   0.1500 
 32 H        7.4790    -2.4790    -0.3930 H     1 <1>   0.1500 
 33 H        0.8020   -10.0870     0.1930 H     1 <1>   0.0800 
 34 H        0.9290    -9.6700    -1.4870 H     1 <1>   0.0800 
 35 H        0.4520    -6.5470     1.2530 H     1 <1>   0.0800 
 36 H        0.5600    -8.1570     1.8900 H     1 <1>   0.0800 
 37 H        8.9280    -9.3270    -1.4370 H     1 <1>   0.1500 
 38 H        7.3130    -9.4670     2.5010 H     1 <1>   0.1500 
 39 H       -1.4300   -10.2810    -0.0540 H     1 <1>   0.0800 
 40 H       -1.2940    -9.8010    -1.7210 H     1 <1>   0.0800 
 41 H       -1.7750    -6.7470     1.1500 H     1 <1>   0.0800 
 42 H       -1.6730    -8.3870     1.7210 H     1 <1>   0.0800 
 43 H        8.6200   -10.5140     0.6970 H     1 <1>   0.1500 
 44 H       -1.3140    -7.5370    -1.0510 H     1 <1>   0.4500 
 45 H       -3.6730    -8.9520     0.1060 H     1 <1>   0.0800 
 46 H       -3.4680    -8.5530    -1.5880 H     1 <1>   0.0800 
 47 H       -3.6560    -7.2760    -0.4070 H     1 <1>   0.0800 
@<TRIPOS>BOND
  1   1   2  1   
  2   1   3  1   
  3   2   4  ar  
  4   2   5  ar  
  5   3   6  1   
  6   3  23  1   
  7   3  24  1   
  8   4   7  1   
  9   4   8  ar  
 10   5   9  ar  
 11   5  25  1   
 12   6  10  1   
 13   6  26  1   
 14   6  27  1   
 15   7  11  ar  
 16   7  12  ar  
 17   8  13  ar  
 18   8  28  1   
 19   9  13  ar  
 20   9  29  1   
 21  10  14  1   
 22  10  15  1   
 23  11  16  ar  
 24  11  30  1   
 25  12  17  ar  
 26  12  31  1   
 27  13  32  1   
 28  14  18  1   
 29  14  33  1   
 30  14  34  1   
 31  15  19  1   
 32  15  35  1   
 33  15  36  1   
 34  16  20  ar  
 35  16  37  1   
 36  17  20  ar  
 37  17  38  1   
 38  18  21  1   
 39  18  39  1   
 40  18  40  1   
 41  19  21  1   
 42  19  41  1   
 43  19  42  1   
 44  20  43  1   
 45  21  22  1   
 46  21  44  1   
 47  22  45  1   
 48  22  46  1   
 49  22  47  1   
@<TRIPOS>SUBSTRUCTURE
  1 ****   1 GROUP 4 **** **** 0

# MOE 2024.06 (io_trps.svl 2023.06)
