@<TRIPOS>MOLECULE
NONAME
38 40 1 0 0 
SMALL
USER_CHARGES


@<TRIPOS>ATOM
  1 BR       0.5470    -0.0920     1.9400 Br    1 <1>  -0.1110 
  2 C        2.1250     0.6970     1.1680 C.ar  1 <1>   0.1110 
  3 C        3.3530     0.5020     1.7720 C.ar  1 <1>   0.1600 
  4 C        2.0080     1.4490     0.0210 C.ar  1 <1>  -0.1500 
  5 N        4.4880     1.0080     1.3080 N.ar  1 <1>  -0.6200 
  6 C        3.1860     1.9760    -0.4630 C.ar  1 <1>  -0.1500 
  7 C        4.3930     1.7350     0.2010 C.ar  1 <1>   0.4270 
  8 N        5.6140     2.2210    -0.2120 N.am  1 <1>  -0.5470 
  9 C        6.0220     2.9500    -1.2920 C.2   1 <1>   0.5690 
 10 O        5.2710     3.3220    -2.1590 O.2   1 <1>  -0.5700 
 11 C        7.4910     3.3250    -1.4140 C.3   1 <1>   0.1310 
 12 S        8.5700     2.2500    -0.3460 S.3   1 <1>  -0.2860 
 13 C       10.2070     2.9260    -0.6360 C.2   1 <1>   0.2430 
 14 N       10.4320     3.9320    -1.4030 N.2   1 <1>  -0.3380 
 15 N       11.3060     2.4250    -0.0730 N.pl3 1 <1>   0.0480 
 16 N       11.7540     4.1280    -1.3620 N.2   1 <1>  -0.3380 
 17 C       12.2530     3.2320    -0.5740 C.2   1 <1>   0.1020 
 18 C       11.4360     1.2800     0.8550 C.3   1 <1>   0.0960 
 19 C       13.7320     3.0920    -0.2490 C.3   1 <1>  -0.0150 
 20 C       11.6400    -0.0240     0.0790 C.3   1 <1>  -0.2400 
 21 C       14.2480     3.4940     1.0990 C.3   1 <1>  -0.2000 
 22 C       14.5930     4.3100    -0.1080 C.3   1 <1>  -0.2000 
 23 H        3.4000    -0.0930     2.6680 H     1 <1>   0.1500 
 24 H        1.0590     1.6090    -0.4580 H     1 <1>   0.1500 
 25 H        3.1650     2.5740    -1.3540 H     1 <1>   0.1500 
 26 H        6.3550     1.9280     0.4230 H     1 <1>   0.3700 
 27 H        7.6450     4.3420    -1.1030 H     1 <1>   0.0800 
 28 H        7.8260     3.2030    -2.4280 H     1 <1>   0.0800 
 29 H       10.5470     1.2160     1.4560 H     1 <1>   0.0800 
 30 H       12.2710     1.4540     1.5100 H     1 <1>   0.0800 
 31 H       14.1780     2.2410    -0.7330 H     1 <1>   0.1000 
 32 H       10.7970    -0.2140    -0.5630 H     1 <1>   0.0800 
 33 H       11.7330    -0.8460     0.7670 H     1 <1>   0.0800 
 34 H       12.5350     0.0260    -0.5150 H     1 <1>   0.0800 
 35 H       15.0210     2.9040     1.5590 H     1 <1>   0.1000 
 36 H       13.5690     3.9220     1.8170 H     1 <1>   0.1000 
 37 H       14.1340     5.2750    -0.2360 H     1 <1>   0.1000 
 38 H       15.5950     4.2750    -0.4970 H     1 <1>   0.1000 
@<TRIPOS>BOND
  1   1   2  1   
  2   2   3  ar  
  3   2   4  ar  
  4   3   5  ar  
  5   3  23  1   
  6   4   6  ar  
  7   4  24  1   
  8   5   7  ar  
  9   6   7  ar  
 10   6  25  1   
 11   7   8  1   
 12   8   9  am  
 13   8  26  1   
 14   9  10  2   
 15   9  11  1   
 16  11  12  1   
 17  11  27  1   
 18  11  28  1   
 19  12  13  1   
 20  13  14  2   
 21  13  15  1   
 22  14  16  1   
 23  15  17  1   
 24  15  18  1   
 25  16  17  2   
 26  17  19  1   
 27  18  20  1   
 28  18  29  1   
 29  18  30  1   
 30  19  21  1   
 31  19  22  1   
 32  19  31  1   
 33  20  32  1   
 34  20  33  1   
 35  20  34  1   
 36  21  22  1   
 37  21  35  1   
 38  21  36  1   
 39  22  37  1   
 40  22  38  1   
@<TRIPOS>SUBSTRUCTURE
  1 ****  12 GROUP 4 **** **** 0

# MOE 2024.06 (io_trps.svl 2023.06)
