@<TRIPOS>MOLECULE
NONAME
52 55 1 0 0 
SMALL
USER_CHARGES


@<TRIPOS>ATOM
  1 BR      -0.0560    -0.6520    -0.6370 Br    1 <1>  -0.1110 
  2 C       -1.9390    -0.3260    -0.4410 C.ar  1 <1>   0.1110 
  3 C       -2.8330    -1.1830    -1.0520 C.ar  1 <1>  -0.1500 
  4 C       -2.3570     0.7590     0.3030 C.ar  1 <1>  -0.1500 
  5 C       -4.1880    -0.9430    -0.9060 C.ar  1 <1>  -0.1500 
  6 C       -3.7160     0.9830     0.4380 C.ar  1 <1>  -0.1500 
  7 C       -4.6630     0.1400    -0.1530 C.ar  1 <1>   0.0860 
  8 C       -6.0840     0.3920     0.0170 C.2   1 <1>   0.5440 
  9 O       -6.4840     1.5170     0.2490 O.2   1 <1>  -0.5700 
 10 N       -6.9680    -0.6510    -0.0680 N.am  1 <1>  -0.5470 
 11 C       -8.3670    -0.7800     0.0030 C.ar  1 <1>   0.1170 
 12 C       -8.8680    -2.0880    -0.0550 C.ar  1 <1>   0.1000 
 13 C       -9.2470     0.2870     0.1210 C.ar  1 <1>  -0.1500 
 14 N       -7.9770    -3.1750    -0.1810 N.pl3 1 <1>  -0.8380 
 15 C      -10.2400    -2.2870     0.0160 C.ar  1 <1>  -0.1500 
 16 C      -10.6120     0.0660     0.1870 C.ar  1 <1>  -0.1500 
 17 C       -7.9020    -4.0510     1.0280 C.3   1 <1>   0.2090 
 18 C       -8.1570    -3.9970    -1.4170 C.3   1 <1>   0.2090 
 19 C      -11.1220    -1.2250     0.1360 C.ar  1 <1>   0.1000 
 20 C       -6.8510    -5.1600     0.8380 C.3   1 <1>   0.1200 
 21 C       -7.0930    -5.1060    -1.4970 C.3   1 <1>   0.1200 
 22 N      -12.4910    -1.4800     0.2040 N.pl3 1 <1>  -0.8380 
 23 O       -7.0950    -5.8890    -0.3340 O.3   1 <1>  -0.5600 
 24 C      -13.1400    -1.1420     1.5050 C.3   1 <1>   0.2090 
 25 C      -13.2940    -0.9720    -0.9470 C.3   1 <1>   0.2090 
 26 C      -14.6190    -1.5690     1.5080 C.3   1 <1>   0.1200 
 27 C      -14.7660    -1.4070    -0.8240 C.3   1 <1>   0.1200 
 28 O      -15.3030    -1.0240     0.4120 O.3   1 <1>  -0.5600 
 29 H       -2.4720    -2.0160    -1.6290 H     1 <1>   0.1500 
 30 H       -1.6360     1.4120     0.7630 H     1 <1>   0.1500 
 31 H       -4.8850    -1.6020    -1.3930 H     1 <1>   0.1500 
 32 H       -4.0590     1.8270     1.0140 H     1 <1>   0.1500 
 33 H       -6.5680    -1.5890    -0.1550 H     1 <1>   0.3700 
 34 H       -8.8760     1.2930     0.1620 H     1 <1>   0.1500 
 35 H      -10.6440    -3.2790    -0.0200 H     1 <1>   0.1500 
 36 H      -11.2830     0.8980     0.2800 H     1 <1>   0.1500 
 37 H       -8.8620    -4.5020     1.2130 H     1 <1>   0.0800 
 38 H       -7.6450    -3.4530     1.8840 H     1 <1>   0.0800 
 39 H       -8.0800    -3.3600    -2.2810 H     1 <1>   0.0800 
 40 H       -9.1340    -4.4470    -1.4200 H     1 <1>   0.0800 
 41 H       -6.8850    -5.8470     1.6640 H     1 <1>   0.0800 
 42 H       -5.8650    -4.7350     0.7810 H     1 <1>   0.0800 
 43 H       -6.1140    -4.6790    -1.6220 H     1 <1>   0.0800 
 44 H       -7.2970    -5.7560    -2.3290 H     1 <1>   0.0800 
 45 H      -13.0770    -0.0830     1.6800 H     1 <1>   0.0800 
 46 H      -12.6190    -1.6450     2.3010 H     1 <1>   0.0800 
 47 H      -12.8810    -1.3560    -1.8640 H     1 <1>   0.0800 
 48 H      -13.2460     0.1020    -0.9810 H     1 <1>   0.0800 
 49 H      -15.1030    -1.2230     2.4030 H     1 <1>   0.0800 
 50 H      -14.6970    -2.6410     1.4630 H     1 <1>   0.0800 
 51 H      -14.8470    -2.4760    -0.9180 H     1 <1>   0.0800 
 52 H      -15.3550    -0.9460    -1.5960 H     1 <1>   0.0800 
@<TRIPOS>BOND
  1   1   2  1   
  2   2   3  ar  
  3   2   4  ar  
  4   3   5  ar  
  5   3  29  1   
  6   4   6  ar  
  7   4  30  1   
  8   5   7  ar  
  9   5  31  1   
 10   6   7  ar  
 11   6  32  1   
 12   7   8  1   
 13   8   9  2   
 14   8  10  am  
 15  10  11  1   
 16  10  33  1   
 17  11  12  ar  
 18  11  13  ar  
 19  12  14  1   
 20  12  15  ar  
 21  13  16  ar  
 22  13  34  1   
 23  14  17  1   
 24  14  18  1   
 25  15  19  ar  
 26  15  35  1   
 27  16  19  ar  
 28  16  36  1   
 29  17  20  1   
 30  17  37  1   
 31  17  38  1   
 32  18  21  1   
 33  18  39  1   
 34  18  40  1   
 35  19  22  1   
 36  20  23  1   
 37  20  41  1   
 38  20  42  1   
 39  21  23  1   
 40  21  43  1   
 41  21  44  1   
 42  22  24  1   
 43  22  25  1   
 44  24  26  1   
 45  24  45  1   
 46  24  46  1   
 47  25  27  1   
 48  25  47  1   
 49  25  48  1   
 50  26  28  1   
 51  26  49  1   
 52  26  50  1   
 53  27  28  1   
 54  27  51  1   
 55  27  52  1   
@<TRIPOS>SUBSTRUCTURE
  1 ****  11 GROUP 4 **** **** 0

# MOE 2024.06 (io_trps.svl 2023.06)
