@<TRIPOS>MOLECULE
NONAME
44 45 1 0 0 
SMALL
USER_CHARGES


@<TRIPOS>ATOM
  1 O        0.2100     0.5410     0.5720 O.3   1 <1>  -0.5600 
  2 C        1.1690    -0.4300     0.8970 C.3   1 <1>   0.1200 
  3 C        0.4240     1.1660    -0.6660 C.3   1 <1>   0.1200 
  4 C        2.5900     0.1790     0.9350 C.3   1 <1>   0.3430 
  5 C        1.8170     1.8340    -0.7250 C.3   1 <1>   0.3430 
  6 N        2.5750     1.6330     0.5600 N.4   1 <1>  -0.9590 
  7 C        3.9160     2.2740     0.6400 C.3   1 <1>   0.4230 
  8 C        3.7720     3.7970     0.6310 C.3   1 <1>  -0.1600 
  9 C        4.8490     1.8170    -0.4880 C.3   1 <1>  -0.1600 
 10 C        5.1440     4.4740     0.7700 C.3   1 <1>  -0.1600 
 11 C        6.2260     2.4840    -0.3550 C.3   1 <1>  -0.1600 
 12 C        6.1320     4.0300    -0.3370 C.3   1 <1>  -0.0800 
 13 C        7.5230     4.7470    -0.2660 C.3   1 <1>   0.0000 
 14 C        8.4100     4.3320    -1.4560 C.3   1 <1>  -0.2400 
 15 C        8.2960     4.4340     1.0290 C.3   1 <1>  -0.2400 
 16 C        7.3520     6.2750    -0.3550 C.3   1 <1>  -0.2400 
 17 H        1.1130    -1.2260     0.1750 H     1 <1>   0.0800 
 18 H        0.9130    -0.8340     1.8620 H     1 <1>   0.0800 
 19 H       -0.3480     1.9050    -0.7970 H     1 <1>   0.0800 
 20 H        0.3200     0.4310    -1.4460 H     1 <1>   0.0800 
 21 H        3.2220    -0.3720     0.2580 H     1 <1>   0.0800 
 22 H        2.9960     0.0590     1.9260 H     1 <1>   0.0800 
 23 H        1.6900     2.8860    -0.9210 H     1 <1>   0.0800 
 24 H        2.3690     1.4140    -1.5490 H     1 <1>   0.0800 
 25 H        1.9770     2.0710     1.2760 H     1 <1>   0.4500 
 26 H        4.3720     1.9990     1.5780 H     1 <1>   0.0800 
 27 H        3.1490     4.1110     1.4500 H     1 <1>   0.0800 
 28 H        3.3260     4.1300    -0.2890 H     1 <1>   0.0800 
 29 H        4.4420     2.0830    -1.4470 H     1 <1>   0.0800 
 30 H        4.9840     0.7520    -0.4540 H     1 <1>   0.0800 
 31 H        5.5510     4.2420     1.7390 H     1 <1>   0.0800 
 32 H        4.9890     5.5370     0.7280 H     1 <1>   0.0800 
 33 H        6.8300     2.1570    -1.1830 H     1 <1>   0.0800 
 34 H        6.6970     2.1360     0.5480 H     1 <1>   0.0800 
 35 H        5.6930     4.3230    -1.2770 H     1 <1>   0.0800 
 36 H        9.3100     4.9210    -1.4820 H     1 <1>   0.0800 
 37 H        7.8900     4.4780    -2.3860 H     1 <1>   0.0800 
 38 H        8.7090     3.3030    -1.3850 H     1 <1>   0.0800 
 39 H        8.5000     3.3830     1.1190 H     1 <1>   0.0800 
 40 H        7.7520     4.7560     1.8970 H     1 <1>   0.0800 
 41 H        9.2410     4.9490     1.0290 H     1 <1>   0.0800 
 42 H        6.7660     6.5420    -1.2160 H     1 <1>   0.0800 
 43 H        8.3090     6.7600    -0.4400 H     1 <1>   0.0800 
 44 H        6.8760     6.6710     0.5230 H     1 <1>   0.0800 
@<TRIPOS>BOND
  1   1   2  1   
  2   1   3  1   
  3   2   4  1   
  4   2  17  1   
  5   2  18  1   
  6   3   5  1   
  7   3  19  1   
  8   3  20  1   
  9   4   6  1   
 10   4  21  1   
 11   4  22  1   
 12   5   6  1   
 13   5  23  1   
 14   5  24  1   
 15   6   7  1   
 16   6  25  1   
 17   7   8  1   
 18   7   9  1   
 19   7  26  1   
 20   8  10  1   
 21   8  27  1   
 22   8  28  1   
 23   9  11  1   
 24   9  29  1   
 25   9  30  1   
 26  10  12  1   
 27  10  31  1   
 28  10  32  1   
 29  11  12  1   
 30  11  33  1   
 31  11  34  1   
 32  12  13  1   
 33  12  35  1   
 34  13  14  1   
 35  13  15  1   
 36  13  16  1   
 37  14  36  1   
 38  14  37  1   
 39  14  38  1   
 40  15  39  1   
 41  15  40  1   
 42  15  41  1   
 43  16  42  1   
 44  16  43  1   
 45  16  44  1   
@<TRIPOS>SUBSTRUCTURE
  1 ****   7 GROUP 4 **** **** 0

# MOE 2024.06 (io_trps.svl 2023.06)
