@<TRIPOS>MOLECULE
NONAME
35 36 1 0 0 
SMALL
USER_CHARGES


@<TRIPOS>ATOM
  1 CL      -1.7590     0.9960    -2.0700 Cl    1 <1>  -0.1770 
  2 C       -0.9080     2.2300    -1.1740 C.ar  1 <1>   0.1770 
  3 C       -1.4080     2.6480     0.0470 C.ar  1 <1>  -0.1440 
  4 C        0.2460     2.7730    -1.7120 C.ar  1 <1>  -0.1500 
  5 C       -0.7180     3.6430     0.7200 C.ar  1 <1>   0.1770 
  6 C       -2.6610     2.0270     0.6270 C.3   1 <1>   0.4870 
  7 C        0.9230     3.7630    -1.0180 C.ar  1 <1>  -0.1500 
  8 CL      -1.3250     4.2250     2.2500 Cl    1 <1>  -0.1770 
  9 C        0.4380     4.2010     0.2040 C.ar  1 <1>  -0.1500 
 10 N       -3.8580     2.5330    -0.1010 N.4   1 <1>  -0.9590 
 11 C       -4.0570     3.9990     0.0960 C.3   1 <1>   0.3430 
 12 C       -5.0720     1.7500     0.2550 C.3   1 <1>   0.3430 
 13 C       -5.1970     4.4820    -0.7960 C.3   1 <1>  -0.1600 
 14 C       -6.2340     2.1820    -0.6360 C.3   1 <1>  -0.1600 
 15 C       -6.5010     3.6970    -0.5560 C.3   1 <1>  -0.0190 
 16 C       -7.5690     4.1090    -1.5670 C.2   1 <1>   0.5690 
 17 O       -7.3730     3.9220    -2.7380 O.2   1 <1>  -0.5700 
 18 N       -8.7170     4.6730    -1.1540 N.am  1 <1>  -0.8000 
 19 H        0.6120     2.4250    -2.6630 H     1 <1>   0.1500 
 20 H       -2.7420     2.2550     1.6780 H     1 <1>   0.0800 
 21 H       -2.5970     0.9560     0.5220 H     1 <1>   0.0800 
 22 H        1.8250     4.1910    -1.4280 H     1 <1>   0.1500 
 23 H        0.9550     4.9710     0.7520 H     1 <1>   0.1500 
 24 H       -3.6790     2.3790    -1.1060 H     1 <1>   0.4500 
 25 H       -3.1570     4.5360    -0.1580 H     1 <1>   0.0800 
 26 H       -4.2900     4.2020     1.1290 H     1 <1>   0.0800 
 27 H       -5.3260     1.9170     1.2900 H     1 <1>   0.0800 
 28 H       -4.8880     0.6960     0.1140 H     1 <1>   0.0800 
 29 H       -4.8970     4.3890    -1.8270 H     1 <1>   0.0800 
 30 H       -5.3710     5.5280    -0.6110 H     1 <1>   0.0800 
 31 H       -7.1210     1.6480    -0.3420 H     1 <1>   0.0800 
 32 H       -6.0180     1.9000    -1.6530 H     1 <1>   0.0800 
 33 H       -6.8620     3.9290     0.4310 H     1 <1>   0.0800 
 34 H       -9.4120     4.9380    -1.8570 H     1 <1>   0.3700 
 35 H       -8.9700     4.8710    -0.1870 H     1 <1>   0.3700 
@<TRIPOS>BOND
  1   1   2  1   
  2   2   3  ar  
  3   2   4  ar  
  4   3   5  ar  
  5   3   6  1   
  6   4   7  ar  
  7   4  19  1   
  8   5   8  1   
  9   5   9  ar  
 10   6  10  1   
 11   6  20  1   
 12   6  21  1   
 13   7   9  ar  
 14   7  22  1   
 15   9  23  1   
 16  10  11  1   
 17  10  12  1   
 18  10  24  1   
 19  11  13  1   
 20  11  25  1   
 21  11  26  1   
 22  12  14  1   
 23  12  27  1   
 24  12  28  1   
 25  13  15  1   
 26  13  29  1   
 27  13  30  1   
 28  14  15  1   
 29  14  31  1   
 30  14  32  1   
 31  15  16  1   
 32  15  33  1   
 33  16  17  2   
 34  16  18  am  
 35  18  34  1   
 36  18  35  1   
@<TRIPOS>SUBSTRUCTURE
  1 ****  10 GROUP 4 **** **** 0

# MOE 2024.06 (io_trps.svl 2023.06)
