@<TRIPOS>MOLECULE
NONAME
45 46 1 0 0 
SMALL
USER_CHARGES


@<TRIPOS>ATOM
  1 O        2.0300    -1.0800     2.7080 O.2   1 <1>  -0.5700 
  2 C        1.0890    -1.1630     1.9570 C.2   1 <1>   0.5690 
  3 N        0.9130    -0.3520     0.8800 N.am  1 <1>  -0.7300 
  4 C        0.0560    -2.2440     2.2320 C.3   1 <1>   0.0440 
  5 C        1.8180     0.6550     0.2850 C.3   1 <1>   0.3640 
  6 C       -1.0670    -2.2820     1.1970 C.ar  1 <1>  -0.1440 
  7 C        2.8120    -0.0430    -0.6410 C.ar  1 <1>  -0.1440 
  8 C        2.5050     1.5730     1.3120 C.3   1 <1>  -0.1600 
  9 C       -0.8770    -2.9360    -0.0110 C.ar  1 <1>  -0.1500 
 10 C       -2.2730    -1.6450     1.4450 C.ar  1 <1>  -0.1500 
 11 C        3.7990    -0.8810    -0.1410 C.ar  1 <1>  -0.1500 
 12 C        2.7350     0.1560    -2.0130 C.ar  1 <1>  -0.1500 
 13 C        1.5170     2.3530     2.1950 C.3   1 <1>  -0.2400 
 14 C       -1.8830    -2.9500    -0.9600 C.ar  1 <1>  -0.1500 
 15 C       -3.2820    -1.6580     0.4970 C.ar  1 <1>  -0.1500 
 16 C        4.6940    -1.5050    -0.9920 C.ar  1 <1>  -0.1500 
 17 C        3.6280    -0.4680    -2.8670 C.ar  1 <1>  -0.1500 
 18 C       -3.0890    -2.3130    -0.7170 C.ar  1 <1>   0.0820 
 19 C        4.6100    -1.2990    -2.3570 C.ar  1 <1>  -0.1500 
 20 O       -4.0190    -2.3700    -1.7020 O.3   1 <1>  -0.3620 
 21 C       -5.2840    -1.7720    -1.5510 C.3   1 <1>   0.1200 
 22 C       -6.0780    -2.0210    -2.8290 C.3   1 <1>  -0.2400 
 23 H        0.1230    -0.5860     0.2740 H     1 <1>   0.3700 
 24 H       -0.3510    -2.0780     3.2110 H     1 <1>   0.0800 
 25 H        0.5600    -3.1930     2.2490 H     1 <1>   0.0800 
 26 H        1.2040     1.2950    -0.3240 H     1 <1>   0.0800 
 27 H        3.1100     2.2790     0.7710 H     1 <1>   0.0800 
 28 H        3.1740     1.0050     1.9320 H     1 <1>   0.0800 
 29 H        0.0540    -3.4350    -0.2200 H     1 <1>   0.1500 
 30 H       -2.4330    -1.1320     2.3780 H     1 <1>   0.1500 
 31 H        3.8740    -1.0530     0.9200 H     1 <1>   0.1500 
 32 H        1.9770     0.7970    -2.4290 H     1 <1>   0.1500 
 33 H        0.8470     2.9370     1.5900 H     1 <1>   0.0800 
 34 H        2.0560     3.0130     2.8510 H     1 <1>   0.0800 
 35 H        0.9400     1.6750     2.7990 H     1 <1>   0.0800 
 36 H       -1.7400    -3.4560    -1.8980 H     1 <1>   0.1500 
 37 H       -4.2040    -1.1570     0.7190 H     1 <1>   0.1500 
 38 H        5.4550    -2.1510    -0.5890 H     1 <1>   0.1500 
 39 H        3.5600    -0.3070    -3.9290 H     1 <1>   0.1500 
 40 H        5.3060    -1.7830    -3.0190 H     1 <1>   0.1500 
 41 H       -5.1460    -0.7160    -1.3890 H     1 <1>   0.0800 
 42 H       -5.7740    -2.2200    -0.7040 H     1 <1>   0.0800 
 43 H       -5.5720    -1.5830    -3.6710 H     1 <1>   0.0800 
 44 H       -7.0530    -1.5760    -2.7450 H     1 <1>   0.0800 
 45 H       -6.1950    -3.0770    -2.9900 H     1 <1>   0.0800 
@<TRIPOS>BOND
  1   1   2  2   
  2   2   3  am  
  3   2   4  1   
  4   3   5  1   
  5   3  23  1   
  6   4   6  1   
  7   4  24  1   
  8   4  25  1   
  9   5   7  1   
 10   5   8  1   
 11   5  26  1   
 12   6   9  ar  
 13   6  10  ar  
 14   7  11  ar  
 15   7  12  ar  
 16   8  13  1   
 17   8  27  1   
 18   8  28  1   
 19   9  14  ar  
 20   9  29  1   
 21  10  15  ar  
 22  10  30  1   
 23  11  16  ar  
 24  11  31  1   
 25  12  17  ar  
 26  12  32  1   
 27  13  33  1   
 28  13  34  1   
 29  13  35  1   
 30  14  18  ar  
 31  14  36  1   
 32  15  18  ar  
 33  15  37  1   
 34  16  19  ar  
 35  16  38  1   
 36  17  19  ar  
 37  17  39  1   
 38  18  20  1   
 39  19  40  1   
 40  20  21  1   
 41  21  22  1   
 42  21  41  1   
 43  21  42  1   
 44  22  43  1   
 45  22  44  1   
 46  22  45  1   
@<TRIPOS>SUBSTRUCTURE
  1 ****   3 GROUP 4 **** **** 0

# MOE 2024.06 (io_trps.svl 2023.06)
