@<TRIPOS>MOLECULE
NONAME
48 48 1 0 0 
SMALL
USER_CHARGES


@<TRIPOS>ATOM
  1 S       -6.5150    -3.0110    -1.5190 S.o2  1 <1>   1.4470 
  2 O       -6.0410    -1.7060    -1.9290 O.2   1 <1>  -0.6500 
  3 O       -6.9270    -3.9480    -2.5410 O.2   1 <1>  -0.6500 
  4 N       -7.8170    -2.7770    -0.4420 N.am  1 <1>  -0.8490 
  5 C       -5.2530    -3.8440    -0.5110 C.ar  1 <1>  -0.0090 
  6 C       -9.1170    -2.8580    -1.1230 C.3   1 <1>   0.1960 
  7 C       -7.7110    -1.5360     0.3460 C.3   1 <1>   0.1960 
  8 C       -3.9160    -3.4810    -0.5920 C.ar  1 <1>  -0.1500 
  9 C       -5.5930    -4.8780     0.3510 C.ar  1 <1>  -0.1500 
 10 C      -10.2380    -3.1750    -0.1320 C.3   1 <1>  -0.2400 
 11 C       -6.5930    -1.6190     1.3820 C.3   1 <1>  -0.2400 
 12 C       -2.9180    -4.1000     0.1610 C.ar  1 <1>   0.0860 
 13 C       -4.6310    -5.5190     1.1090 C.ar  1 <1>  -0.1500 
 14 C       -1.5330    -3.6750     0.0460 C.2   1 <1>   0.5440 
 15 C       -3.3080    -5.1340     1.0130 C.ar  1 <1>  -0.1500 
 16 O       -1.1210    -3.1570    -0.9730 O.2   1 <1>  -0.5700 
 17 N       -0.6500    -3.8310     1.0810 N.am  1 <1>  -0.7300 
 18 C        0.7460    -3.3110     1.1050 C.3   1 <1>   0.1400 
 19 C        1.5880    -3.8730    -0.0630 C.3   1 <1>   0.3430 
 20 N        2.3460    -2.8170    -0.8220 N.4   1 <1>  -0.9590 
 21 C        1.4080    -1.9410    -1.5990 C.3   1 <1>   0.2630 
 22 C        3.3220    -3.4550    -1.7550 C.3   1 <1>   0.2630 
 23 H       -9.1130    -3.6620    -1.8390 H     1 <1>   0.0800 
 24 H       -9.3190    -1.9440    -1.6580 H     1 <1>   0.0800 
 25 H       -8.6230    -1.3660     0.8880 H     1 <1>   0.0800 
 26 H       -7.5610    -0.6860    -0.3010 H     1 <1>   0.0800 
 27 H       -3.6380    -2.6860    -1.2650 H     1 <1>   0.1500 
 28 H       -6.6250    -5.1820     0.4260 H     1 <1>   0.1500 
 29 H       -9.9710    -4.0260     0.4680 H     1 <1>   0.0800 
 30 H      -11.1320    -3.4140    -0.6780 H     1 <1>   0.0800 
 31 H      -10.4600    -2.3390     0.5040 H     1 <1>   0.0800 
 32 H       -6.6760    -2.5280     1.9520 H     1 <1>   0.0800 
 33 H       -6.6770    -0.7880     2.0580 H     1 <1>   0.0800 
 34 H       -5.6270    -1.5600     0.9170 H     1 <1>   0.0800 
 35 H       -4.9170    -6.3210     1.7690 H     1 <1>   0.1500 
 36 H       -2.5740    -5.6550     1.6010 H     1 <1>   0.1500 
 37 H       -1.0310    -4.1140     1.9890 H     1 <1>   0.3700 
 38 H        1.2060    -3.5930     2.0360 H     1 <1>   0.0800 
 39 H        0.7070    -2.2360     1.0610 H     1 <1>   0.0800 
 40 H        0.9300    -4.3890    -0.7440 H     1 <1>   0.0800 
 41 H        2.2810    -4.5950     0.3360 H     1 <1>   0.0800 
 42 H        2.8640    -2.2300    -0.1520 H     1 <1>   0.4500 
 43 H        0.8450    -2.5310    -2.3050 H     1 <1>   0.0800 
 44 H        1.9540    -1.1830    -2.1370 H     1 <1>   0.0800 
 45 H        0.7060    -1.4580    -0.9390 H     1 <1>   0.0800 
 46 H        2.8040    -4.0720    -2.4720 H     1 <1>   0.0800 
 47 H        4.0180    -4.0710    -1.2090 H     1 <1>   0.0800 
 48 H        3.8770    -2.7010    -2.2890 H     1 <1>   0.0800 
@<TRIPOS>BOND
  1   1   2  2   
  2   1   3  2   
  3   1   4  am  
  4   1   5  1   
  5   4   6  1   
  6   4   7  1   
  7   5   8  ar  
  8   5   9  ar  
  9   6  10  1   
 10   6  23  1   
 11   6  24  1   
 12   7  11  1   
 13   7  25  1   
 14   7  26  1   
 15   8  12  ar  
 16   8  27  1   
 17   9  13  ar  
 18   9  28  1   
 19  10  29  1   
 20  10  30  1   
 21  10  31  1   
 22  11  32  1   
 23  11  33  1   
 24  11  34  1   
 25  12  14  1   
 26  12  15  ar  
 27  13  15  ar  
 28  13  35  1   
 29  14  16  2   
 30  14  17  am  
 31  15  36  1   
 32  17  18  1   
 33  17  37  1   
 34  18  19  1   
 35  18  38  1   
 36  18  39  1   
 37  19  20  1   
 38  19  40  1   
 39  19  41  1   
 40  20  21  1   
 41  20  22  1   
 42  20  42  1   
 43  21  43  1   
 44  21  44  1   
 45  21  45  1   
 46  22  46  1   
 47  22  47  1   
 48  22  48  1   
@<TRIPOS>SUBSTRUCTURE
  1 ****   8 GROUP 4 **** **** 0

# MOE 2024.06 (io_trps.svl 2023.06)
