@<TRIPOS>MOLECULE
NONAME
39 40 1 0 0 
SMALL
USER_CHARGES


@<TRIPOS>ATOM
  1 I        1.2150    -0.1210     2.2510 I     1 <1>  -0.0810 
  2 C        0.4840    -1.8820     1.2840 C.ar  1 <1>   0.0810 
  3 C        1.2240    -2.5060     0.2900 C.ar  1 <1>   0.0830 
  4 C       -0.7490    -2.3580     1.6900 C.ar  1 <1>  -0.1500 
  5 O        2.4240    -2.0400    -0.1130 O.3   1 <1>  -0.5330 
  6 C        0.7130    -3.6530    -0.3100 C.ar  1 <1>   0.0830 
  7 C       -1.2670    -3.4930     1.0790 C.ar  1 <1>  -0.1430 
  8 O        1.4770    -4.2430    -1.2740 O.3   1 <1>  -0.3630 
  9 C       -0.5320    -4.1390     0.0880 C.ar  1 <1>  -0.1500 
 10 C       -2.6320    -4.0140     1.4920 C.3   1 <1>   0.4860 
 11 C        1.1650    -5.5170    -1.7940 C.3   1 <1>   0.0400 
 12 N       -3.6310    -3.6150     0.4640 N.4   1 <1>  -0.9590 
 13 C       -3.7830    -2.1300     0.3800 C.3   1 <1>   0.3430 
 14 C       -4.9390    -4.2960     0.6840 C.3   1 <1>   0.3430 
 15 C       -4.7140    -1.7720    -0.7780 C.3   1 <1>  -0.1600 
 16 C       -5.8880    -3.9760    -0.4700 C.3   1 <1>  -0.1600 
 17 C       -6.0790    -2.4620    -0.6440 C.3   1 <1>  -0.0800 
 18 C       -6.9570    -2.1650    -1.8650 C.3   1 <1>  -0.2400 
 19 H       -1.2810    -1.8410     2.4700 H     1 <1>   0.1500 
 20 H        2.7920    -2.6200    -0.8100 H     1 <1>   0.4500 
 21 H       -0.9320    -5.0230    -0.3720 H     1 <1>   0.1500 
 22 H       -2.9050    -3.6120     2.4540 H     1 <1>   0.0800 
 23 H       -2.5900    -5.0890     1.5710 H     1 <1>   0.0800 
 24 H        1.9530    -5.8060    -2.4660 H     1 <1>   0.0800 
 25 H        0.2350    -5.4600    -2.3320 H     1 <1>   0.0800 
 26 H        1.1030    -6.2230    -0.9840 H     1 <1>   0.0800 
 27 H       -3.2650    -3.9180    -0.4460 H     1 <1>   0.4500 
 28 H       -2.8230    -1.6650     0.2170 H     1 <1>   0.0800 
 29 H       -4.1930    -1.7500     1.3020 H     1 <1>   0.0800 
 30 H       -5.3760    -3.9580     1.6100 H     1 <1>   0.0800 
 31 H       -4.7980    -5.3630     0.7450 H     1 <1>   0.0800 
 32 H       -4.2460    -2.0450    -1.7070 H     1 <1>   0.0800 
 33 H       -4.8540    -0.7040    -0.7920 H     1 <1>   0.0800 
 34 H       -6.8420    -4.4350    -0.2730 H     1 <1>   0.0800 
 35 H       -5.5050    -4.4100    -1.3780 H     1 <1>   0.0800 
 36 H       -6.5790    -2.0740     0.2290 H     1 <1>   0.0800 
 37 H       -6.5020    -2.5330    -2.7680 H     1 <1>   0.0800 
 38 H       -7.1090    -1.1050    -1.9680 H     1 <1>   0.0800 
 39 H       -7.9210    -2.6300    -1.7560 H     1 <1>   0.0800 
@<TRIPOS>BOND
  1   1   2  1   
  2   2   3  ar  
  3   2   4  ar  
  4   3   5  1   
  5   3   6  ar  
  6   4   7  ar  
  7   4  19  1   
  8   5  20  1   
  9   6   8  1   
 10   6   9  ar  
 11   7   9  ar  
 12   7  10  1   
 13   8  11  1   
 14   9  21  1   
 15  10  12  1   
 16  10  22  1   
 17  10  23  1   
 18  11  24  1   
 19  11  25  1   
 20  11  26  1   
 21  12  13  1   
 22  12  14  1   
 23  12  27  1   
 24  13  15  1   
 25  13  28  1   
 26  13  29  1   
 27  14  16  1   
 28  14  30  1   
 29  14  31  1   
 30  15  17  1   
 31  15  32  1   
 32  15  33  1   
 33  16  17  1   
 34  16  34  1   
 35  16  35  1   
 36  17  18  1   
 37  17  36  1   
 38  18  37  1   
 39  18  38  1   
 40  18  39  1   
@<TRIPOS>SUBSTRUCTURE
  1 ****   7 GROUP 4 **** **** 0

# MOE 2024.06 (io_trps.svl 2023.06)
