@<TRIPOS>MOLECULE
NONAME
42 44 1 0 0 
SMALL
USER_CHARGES


@<TRIPOS>ATOM
  1 S        0.7120    -2.0270     1.0750 S.3   1 <1>  -0.0800 
  2 C       -1.0120    -1.9190     0.7580 C.2   1 <1>  -0.1400 
  3 C        1.0430    -2.4180    -0.6040 C.2   1 <1>  -0.1100 
  4 C       -1.2670    -2.1700    -0.5410 C.2   1 <1>  -0.1500 
  5 C       -1.9000    -1.5760     1.9440 C.3   1 <1>   0.3000 
  6 C       -0.0980    -2.4530    -1.3160 C.2   1 <1>  -0.1500 
  7 O       -3.2480    -1.4360     1.5340 O.3   1 <1>  -0.3630 
  8 C       -3.6970    -0.3660     0.8230 C.ar  1 <1>   0.0830 
  9 C       -5.0270    -0.3780     0.4090 C.ar  1 <1>  -0.1430 
 10 C       -2.8860     0.7200     0.4960 C.ar  1 <1>  -0.1500 
 11 C       -5.5300     0.6960    -0.3110 C.ar  1 <1>  -0.1500 
 12 C       -5.9470    -1.5460     0.7220 C.3   1 <1>   0.3530 
 13 C       -3.3990     1.7830    -0.2230 C.ar  1 <1>  -0.1500 
 14 C       -4.7220     1.7730    -0.6260 C.ar  1 <1>  -0.1500 
 15 N       -6.2820    -2.2200    -0.5500 N.pl3 1 <1>  -0.8530 
 16 C       -7.6310    -2.2970    -0.8670 C.2   1 <1>   0.2700 
 17 N       -8.2530    -1.4120    -1.5550 N.2   1 <1>  -0.3380 
 18 N       -8.4790    -3.2650    -0.5240 N.pl3 1 <1>   0.3140 
 19 N       -9.5150    -1.8370    -1.6280 N.2   1 <1>   0.0000 
 20 N       -9.6670    -2.9500    -1.0100 N.2   1 <1>  -0.4180 
 21 C       -8.2040    -4.5000     0.2340 C.3   1 <1>   0.0960 
 22 C       -7.7090    -5.6160    -0.6960 C.3   1 <1>  -0.1600 
 23 C       -7.4230    -6.9050     0.0820 C.3   1 <1>  -0.2400 
 24 H        2.0680    -2.5810    -0.8820 H     1 <1>   0.1500 
 25 H       -2.2440    -2.1670    -0.9940 H     1 <1>   0.1500 
 26 H       -1.5850    -0.6690     2.4270 H     1 <1>   0.0800 
 27 H       -1.8650    -2.3760     2.6610 H     1 <1>   0.0800 
 28 H       -0.1740    -2.6690    -2.3680 H     1 <1>   0.1500 
 29 H       -1.8530     0.7580     0.7850 H     1 <1>   0.1500 
 30 H       -6.5590     0.6970    -0.6340 H     1 <1>   0.1500 
 31 H       -6.8410    -1.1780     1.1970 H     1 <1>   0.0800 
 32 H       -5.4830    -2.2540     1.3850 H     1 <1>   0.0800 
 33 H       -2.7680     2.6190    -0.4730 H     1 <1>   0.1500 
 34 H       -5.1220     2.6010    -1.1860 H     1 <1>   0.1500 
 35 H       -5.7820    -1.7000    -1.2810 H     1 <1>   0.4000 
 36 H       -9.1090    -4.8030     0.7280 H     1 <1>   0.0800 
 37 H       -7.4600    -4.2840     0.9790 H     1 <1>   0.0800 
 38 H       -6.8070    -5.2960    -1.1900 H     1 <1>   0.0800 
 39 H       -8.4570    -5.8150    -1.4460 H     1 <1>   0.0800 
 40 H       -6.6610    -6.7390     0.8240 H     1 <1>   0.0800 
 41 H       -7.0790    -7.6710    -0.5910 H     1 <1>   0.0800 
 42 H       -8.3140    -7.2580     0.5710 H     1 <1>   0.0800 
@<TRIPOS>BOND
  1   1   2  1   
  2   1   3  1   
  3   2   4  2   
  4   2   5  1   
  5   3   6  2   
  6   3  24  1   
  7   4   6  1   
  8   4  25  1   
  9   5   7  1   
 10   5  26  1   
 11   5  27  1   
 12   6  28  1   
 13   7   8  1   
 14   8   9  ar  
 15   8  10  ar  
 16   9  11  ar  
 17   9  12  1   
 18  10  13  ar  
 19  10  29  1   
 20  11  14  ar  
 21  11  30  1   
 22  12  15  1   
 23  12  31  1   
 24  12  32  1   
 25  13  14  ar  
 26  13  33  1   
 27  14  34  1   
 28  15  16  1   
 29  15  35  1   
 30  16  17  2   
 31  16  18  1   
 32  17  19  1   
 33  18  20  1   
 34  18  21  1   
 35  19  20  2   
 36  21  22  1   
 37  21  36  1   
 38  21  37  1   
 39  22  23  1   
 40  22  38  1   
 41  22  39  1   
 42  23  40  1   
 43  23  41  1   
 44  23  42  1   
@<TRIPOS>SUBSTRUCTURE
  1 ****  12 GROUP 4 **** **** 0

# MOE 2024.06 (io_trps.svl 2023.06)
