@<TRIPOS>MOLECULE
NONAME
38 41 1 0 0 
SMALL
USER_CHARGES


@<TRIPOS>ATOM
  1 S        0.0480    -0.0480     1.1520 S.3   1 <1>  -0.0800 
  2 C        1.3120     0.9690     0.4590 C.2   1 <1>   0.1660 
  3 C       -1.1740     0.9860     0.4350 C.2   1 <1>  -0.1400 
  4 N        2.6260     0.7080     0.6350 N.2   1 <1>  -0.5760 
  5 C        0.7900     2.0040    -0.2560 C.2   1 <1>  -0.0860 
  6 C       -0.6430     1.9860    -0.2500 C.2   1 <1>  -0.1810 
  7 C       -2.6670     0.9200     0.4740 C.3   1 <1>   0.0200 
  8 C        3.4210     1.5560     0.0730 C.2   1 <1>   0.6510 
  9 C        1.7090     2.8970    -0.8690 C.2   1 <1>   0.7160 
 10 C       -1.7160     2.8540    -0.8510 C.3   1 <1>   0.0210 
 11 C       -3.0300     2.1600    -0.3860 C.3   1 <1>  -0.1600 
 12 S        5.1700     1.2220     0.2470 S.3   1 <1>  -0.3710 
 13 N        3.0530     2.6660    -0.6600 N.am  1 <1>  -0.4200 
 14 O        1.3330     3.8280    -1.5710 O.2   1 <1>  -0.5700 
 15 C        5.2630    -0.2980     1.2990 C.3   1 <1>  -0.0100 
 16 C        4.0400     3.6570    -1.1740 C.3   1 <1>   0.2840 
 17 C        4.3410     4.7090    -0.1140 C.ar  1 <1>  -0.1440 
 18 C        5.5180     4.6600     0.6190 C.ar  1 <1>  -0.1500 
 19 C        3.4400     5.7370     0.1260 C.ar  1 <1>  -0.1500 
 20 C        5.7880     5.6180     1.5800 C.ar  1 <1>  -0.1500 
 21 C        3.7080     6.6960     1.0880 C.ar  1 <1>  -0.1500 
 22 C        4.8830     6.6370     1.8160 C.ar  1 <1>  -0.1500 
 23 H       -3.0260     1.0140     1.4830 H     1 <1>   0.0800 
 24 H       -3.0200     0.0070     0.0290 H     1 <1>   0.0800 
 25 H       -1.6330     2.8650    -1.9230 H     1 <1>   0.0800 
 26 H       -1.6430     3.8570    -0.4690 H     1 <1>   0.0800 
 27 H       -3.6210     2.8480     0.1930 H     1 <1>   0.0800 
 28 H       -3.6030     1.8550    -1.2440 H     1 <1>   0.0800 
 29 H        6.3010    -0.5380     1.4420 H     1 <1>   0.0800 
 30 H        4.7510    -1.0900     0.7830 H     1 <1>   0.0800 
 31 H        4.7840    -0.0800     2.2370 H     1 <1>   0.0800 
 32 H        3.6510     4.1450    -2.0510 H     1 <1>   0.0800 
 33 H        4.9450     3.1660    -1.4820 H     1 <1>   0.0800 
 34 H        6.2360     3.8760     0.4490 H     1 <1>   0.1500 
 35 H        2.5230     5.8000    -0.4340 H     1 <1>   0.1500 
 36 H        6.7020     5.5700     2.1460 H     1 <1>   0.1500 
 37 H        3.0020     7.4880     1.2670 H     1 <1>   0.1500 
 38 H        5.0910     7.3820     2.5640 H     1 <1>   0.1500 
@<TRIPOS>BOND
  1   1   2  1   
  2   1   3  1   
  3   2   4  1   
  4   2   5  2   
  5   3   6  2   
  6   3   7  1   
  7   4   8  2   
  8   5   6  1   
  9   5   9  1   
 10   6  10  1   
 11   7  11  1   
 12   7  23  1   
 13   7  24  1   
 14   8  12  1   
 15   8  13  1   
 16   9  13  am  
 17   9  14  2   
 18  10  11  1   
 19  10  25  1   
 20  10  26  1   
 21  11  27  1   
 22  11  28  1   
 23  12  15  1   
 24  13  16  1   
 25  15  29  1   
 26  15  30  1   
 27  15  31  1   
 28  16  17  1   
 29  16  32  1   
 30  16  33  1   
 31  17  18  ar  
 32  17  19  ar  
 33  18  20  ar  
 34  18  34  1   
 35  19  21  ar  
 36  19  35  1   
 37  20  22  ar  
 38  20  36  1   
 39  21  22  ar  
 40  21  37  1   
 41  22  38  1   
@<TRIPOS>SUBSTRUCTURE
  1 ****   9 GROUP 4 **** **** 0

# MOE 2024.06 (io_trps.svl 2023.06)
