@<TRIPOS>MOLECULE
NONAME
31 33 1 0 0 
SMALL
USER_CHARGES


@<TRIPOS>ATOM
  1 S       -9.2130     2.8060     1.2290 S.3   1 <1>  -0.0800 
  2 C       -7.6740     3.6670     1.2610 C.ar  1 <1>   0.2970 
  3 C       -8.5590     1.5660     0.1550 C.2   1 <1>  -0.1400 
  4 N       -7.4870     4.7880     1.9240 N.ar  1 <1>  -0.5670 
  5 C       -6.7400     3.0050     0.5040 C.ar  1 <1>   0.0000 
  6 C       -7.2690     1.8220    -0.1260 C.2   1 <1>  -0.1500 
  7 C       -9.5040     0.4630    -0.2730 C.3   1 <1>  -0.0600 
  8 C       -6.2590     5.2500     1.7860 C.ar  1 <1>   0.4700 
  9 C       -5.4750     3.5950     0.4700 C.ar  1 <1>   0.4100 
 10 N       -5.2460     4.7340     1.1030 N.ar  1 <1>  -0.6200 
 11 N       -4.4190     3.0190    -0.2040 N.pl3 1 <1>  -0.8380 
 12 C       -3.9550     1.6530     0.1530 C.3   1 <1>   0.2090 
 13 C       -3.4220     3.8600    -0.9230 C.3   1 <1>   0.2090 
 14 C       -2.6570     1.7360     0.9630 C.3   1 <1>  -0.1600 
 15 C       -2.1200     3.9410    -0.1180 C.3   1 <1>  -0.1600 
 16 C       -1.5790     2.5490     0.2340 C.3   1 <1>  -0.1600 
 17 H       -6.6400     1.2320    -0.7670 H     1 <1>   0.1500 
 18 H       -9.8590    -0.0700     0.5900 H     1 <1>   0.0800 
 19 H       -8.9990    -0.2260    -0.9250 H     1 <1>   0.0800 
 20 H      -10.3450     0.8830    -0.7940 H     1 <1>   0.0800 
 21 H       -6.0470     6.1720     2.3000 H     1 <1>   0.1500 
 22 H       -3.7910     1.0910    -0.7490 H     1 <1>   0.0800 
 23 H       -4.7040     1.1470     0.7380 H     1 <1>   0.0800 
 24 H       -3.8180     4.8490    -1.0780 H     1 <1>   0.0800 
 25 H       -3.2290     3.4230    -1.8870 H     1 <1>   0.0800 
 26 H       -2.2950     0.7420     1.1560 H     1 <1>   0.0800 
 27 H       -2.8760     2.1970     1.9110 H     1 <1>   0.0800 
 28 H       -2.3140     4.4940     0.7850 H     1 <1>   0.0800 
 29 H       -1.3870     4.4850    -0.6850 H     1 <1>   0.0800 
 30 H       -1.2910     2.0370    -0.6680 H     1 <1>   0.0800 
 31 H       -0.7090     2.6440     0.8590 H     1 <1>   0.0800 
@<TRIPOS>BOND
  1   1   2  1   
  2   1   3  1   
  3   2   4  ar  
  4   2   5  ar  
  5   3   6  2   
  6   3   7  1   
  7   4   8  ar  
  8   5   6  1   
  9   5   9  ar  
 10   6  17  1   
 11   7  18  1   
 12   7  19  1   
 13   7  20  1   
 14   8  10  ar  
 15   8  21  1   
 16   9  10  ar  
 17   9  11  1   
 18  11  12  1   
 19  11  13  1   
 20  12  14  1   
 21  12  22  1   
 22  12  23  1   
 23  13  15  1   
 24  13  24  1   
 25  13  25  1   
 26  14  16  1   
 27  14  26  1   
 28  14  27  1   
 29  15  16  1   
 30  15  28  1   
 31  15  29  1   
 32  16  30  1   
 33  16  31  1   
@<TRIPOS>SUBSTRUCTURE
  1 ****   9 GROUP 4 **** **** 0

# MOE 2024.06 (io_trps.svl 2023.06)
