@<TRIPOS>MOLECULE
NONAME
35 36 1 0 0 
SMALL
USER_CHARGES


@<TRIPOS>ATOM
  1 CL       0.2990     0.4600     0.6150 Cl    1 <1>  -0.1770 
  2 C       -1.3290     1.0430     0.3710 C.ar  1 <1>   0.1770 
  3 C       -2.3940     0.3080     0.8570 C.ar  1 <1>  -0.1500 
  4 C       -1.5310     2.2300    -0.3070 C.ar  1 <1>  -0.1500 
  5 C       -3.6830     0.7730     0.6610 C.ar  1 <1>  -0.1500 
  6 C       -2.8230     2.6870    -0.4970 C.ar  1 <1>  -0.1500 
  7 C       -3.9150     1.9700    -0.0150 C.ar  1 <1>   0.1170 
  8 N       -5.1930     2.4940    -0.2500 N.am  1 <1>  -0.5470 
  9 C       -6.4280     2.2090     0.2720 C.2   1 <1>   0.5690 
 10 O       -6.6080     1.3480     1.1010 O.2   1 <1>  -0.5700 
 11 C       -7.6220     3.0310    -0.2370 C.3   1 <1>   0.2110 
 12 S       -7.5570     4.7280     0.5270 S.3   1 <1>  -0.2860 
 13 C       -9.0030     2.4170     0.0740 C.3   1 <1>  -0.1600 
 14 C       -6.2960     5.5870    -0.4200 C.2   1 <1>   0.2420 
 15 C      -10.1650     3.1520    -0.6110 C.3   1 <1>  -0.2400 
 16 N       -5.7230     5.1040    -1.4660 N.2   1 <1>  -0.3380 
 17 N       -5.8520     6.7950    -0.0810 N.pl3 1 <1>   0.0480 
 18 N       -4.8310     6.0210    -1.8490 N.2   1 <1>  -0.3380 
 19 C       -4.9270     7.0100    -1.0230 C.2   1 <1>   0.0360 
 20 C       -6.2620     7.6540     1.0450 C.3   1 <1>   0.0160 
 21 H       -2.2150    -0.6130     1.3810 H     1 <1>   0.1500 
 22 H       -0.6880     2.7840    -0.6790 H     1 <1>   0.1500 
 23 H       -4.5070     0.1960     1.0380 H     1 <1>   0.1500 
 24 H       -2.9870     3.6120    -1.0250 H     1 <1>   0.1500 
 25 H       -5.1860     3.3110    -0.8730 H     1 <1>   0.3700 
 26 H       -7.5270     3.1670    -1.2990 H     1 <1>   0.0800 
 27 H       -9.1550     2.4060     1.1400 H     1 <1>   0.0800 
 28 H       -9.0030     1.3940    -0.2600 H     1 <1>   0.0800 
 29 H      -10.2500     4.1620    -0.2510 H     1 <1>   0.0800 
 30 H      -11.0910     2.6440    -0.4030 H     1 <1>   0.0800 
 31 H      -10.0220     3.1750    -1.6780 H     1 <1>   0.0800 
 32 H       -4.3370     7.9080    -1.0720 H     1 <1>   0.1500 
 33 H       -7.3150     7.8590     0.9710 H     1 <1>   0.0800 
 34 H       -5.7140     8.5780     1.0170 H     1 <1>   0.0800 
 35 H       -6.0620     7.1460     1.9720 H     1 <1>   0.0800 
@<TRIPOS>BOND
  1   1   2  1   
  2   2   3  ar  
  3   2   4  ar  
  4   3   5  ar  
  5   3  21  1   
  6   4   6  ar  
  7   4  22  1   
  8   5   7  ar  
  9   5  23  1   
 10   6   7  ar  
 11   6  24  1   
 12   7   8  1   
 13   8   9  am  
 14   8  25  1   
 15   9  10  2   
 16   9  11  1   
 17  11  12  1   
 18  11  13  1   
 19  11  26  1   
 20  12  14  1   
 21  13  15  1   
 22  13  27  1   
 23  13  28  1   
 24  14  16  2   
 25  14  17  1   
 26  15  29  1   
 27  15  30  1   
 28  15  31  1   
 29  16  18  1   
 30  17  19  1   
 31  17  20  1   
 32  18  19  2   
 33  19  32  1   
 34  20  33  1   
 35  20  34  1   
 36  20  35  1   
@<TRIPOS>SUBSTRUCTURE
  1 ****   8 GROUP 4 **** **** 0

# MOE 2024.06 (io_trps.svl 2023.06)
