@<TRIPOS>MOLECULE
NONAME
39 41 1 0 0 
SMALL
USER_CHARGES


@<TRIPOS>ATOM
  1 O       -0.0840     0.7270     0.8880 O.2   1 <1>  -0.5700 
  2 C        0.0230     1.7360     0.2310 C.2   1 <1>   0.5690 
  3 N        1.2070     2.0600    -0.3600 N.am  1 <1>  -0.7300 
  4 C       -1.2040     2.6610     0.0660 C.3   1 <1>   0.0610 
  5 C        2.4550     1.2750    -0.2660 C.3   1 <1>   0.1400 
  6 C       -1.6850     3.1480     1.4560 C.3   1 <1>  -0.1600 
  7 C       -2.3630     1.8830    -0.6050 C.3   1 <1>  -0.1600 
  8 C       -0.9050     3.9160    -0.8020 C.3   1 <1>  -0.1600 
  9 C        3.5880     2.1960     0.1860 C.3   1 <1>  -0.1600 
 10 C       -2.9380     4.0360     1.3300 C.3   1 <1>  -0.0800 
 11 C       -3.6190     2.7640    -0.7410 C.3   1 <1>  -0.0800 
 12 C       -2.1540     4.8070    -0.9390 C.3   1 <1>  -0.0800 
 13 C        4.9130     1.4350     0.2990 C.3   1 <1>  -0.2400 
 14 C       -4.0630     3.2270     0.6590 C.3   1 <1>  -0.1600 
 15 C       -2.6060     5.2620     0.4610 C.3   1 <1>  -0.1600 
 16 C       -3.2830     3.9970    -1.6000 C.3   1 <1>  -0.1600 
 17 H        1.2620     2.9120    -0.9160 H     1 <1>   0.3700 
 18 H        2.6800     0.8510    -1.2290 H     1 <1>   0.0800 
 19 H        2.3320     0.4700     0.4400 H     1 <1>   0.0800 
 20 H       -0.8970     3.6970     1.9400 H     1 <1>   0.0800 
 21 H       -1.9120     2.2980     2.0760 H     1 <1>   0.0800 
 22 H       -2.6000     1.0130    -0.0170 H     1 <1>   0.0800 
 23 H       -2.0530     1.5390    -1.5770 H     1 <1>   0.0800 
 24 H       -0.5840     3.6130    -1.7840 H     1 <1>   0.0800 
 25 H       -0.1130     4.4910    -0.3530 H     1 <1>   0.0800 
 26 H        3.3400     2.6130     1.1480 H     1 <1>   0.0800 
 27 H        3.7040     3.0000    -0.5190 H     1 <1>   0.0800 
 28 H       -3.2550     4.3570     2.3080 H     1 <1>   0.0800 
 29 H       -4.4100     2.2010    -1.2060 H     1 <1>   0.0800 
 30 H       -1.9240     5.6690    -1.5430 H     1 <1>   0.0800 
 31 H        4.8270     0.6360     1.0150 H     1 <1>   0.0800 
 32 H        5.6940     2.1000     0.6230 H     1 <1>   0.0800 
 33 H        5.1920     1.0190    -0.6530 H     1 <1>   0.0800 
 34 H       -4.9490     3.8330     0.5780 H     1 <1>   0.0800 
 35 H       -4.3080     2.3720     1.2640 H     1 <1>   0.0800 
 36 H       -1.8270     5.8390     0.9280 H     1 <1>   0.0800 
 37 H       -3.4730     5.8930     0.3760 H     1 <1>   0.0800 
 38 H       -4.1580     4.6130    -1.7080 H     1 <1>   0.0800 
 39 H       -2.9810     3.6840    -2.5840 H     1 <1>   0.0800 
@<TRIPOS>BOND
  1   1   2  2   
  2   2   3  am  
  3   2   4  1   
  4   3   5  1   
  5   3  17  1   
  6   4   6  1   
  7   4   7  1   
  8   4   8  1   
  9   5   9  1   
 10   5  18  1   
 11   5  19  1   
 12   6  10  1   
 13   6  20  1   
 14   6  21  1   
 15   7  11  1   
 16   7  22  1   
 17   7  23  1   
 18   8  12  1   
 19   8  24  1   
 20   8  25  1   
 21   9  13  1   
 22   9  26  1   
 23   9  27  1   
 24  10  14  1   
 25  10  15  1   
 26  10  28  1   
 27  11  14  1   
 28  11  16  1   
 29  11  29  1   
 30  12  15  1   
 31  12  16  1   
 32  12  30  1   
 33  13  31  1   
 34  13  32  1   
 35  13  33  1   
 36  14  34  1   
 37  14  35  1   
 38  15  36  1   
 39  15  37  1   
 40  16  38  1   
 41  16  39  1   
@<TRIPOS>SUBSTRUCTURE
  1 ****   4 GROUP 4 **** **** 0

# MOE 2024.06 (io_trps.svl 2023.06)
