@<TRIPOS>MOLECULE
NONAME
39 42 1 0 0 
SMALL
USER_CHARGES


@<TRIPOS>ATOM
  1 S        0.4030     0.3100     1.5290 S.3   1 <1>  -0.3320 
  2 C        1.8520     0.9680     0.8000 C.ar  1 <1>   0.7720 
  3 C       -0.4180     1.9340     1.6750 C.3   1 <1>   0.1310 
  4 N        2.8190     0.1630     0.4710 N.ar  1 <1>  -0.6200 
  5 N        1.8110     2.2970     0.6480 N.ar  1 <1>  -0.1150 
  6 C        0.6080     2.8850     1.0820 C.2   1 <1>   0.9020 
  7 C        3.8800     0.7310    -0.0810 C.ar  1 <1>   0.1660 
  8 C        2.8950     2.9110     0.1010 C.ar  1 <1>   0.3610 
  9 O        0.3580     4.0520     1.0060 O.2   1 <1>  -0.5700 
 10 C        3.9660     2.1080    -0.2770 C.ar  1 <1>  -0.1440 
 11 C        4.9700    -0.2590    -0.4710 C.3   1 <1>  -0.0960 
 12 C        2.9350     4.3370    -0.0770 C.ar  1 <1>   0.0000 
 13 C        5.1830     2.7850    -0.9080 C.3   1 <1>   0.6240 
 14 C        3.3390     5.1740     0.9720 C.ar  1 <1>  -0.1500 
 15 C        2.5940     4.9200    -1.3090 C.ar  1 <1>  -0.1500 
 16 O        5.2220     2.4580    -2.2270 O.3   1 <1>  -0.6800 
 17 O        6.3560     2.2920    -0.3750 O.3   1 <1>  -0.5600 
 18 C        3.3780     6.5330     0.7590 C.ar  1 <1>   0.0820 
 19 C        2.6410     6.2910    -1.5020 C.ar  1 <1>  -0.1500 
 20 C        7.4550     3.1520    -0.4480 C.3   1 <1>   0.0400 
 21 O        3.7300     7.4930     1.6190 O.3   1 <1>  -0.3630 
 22 C        3.0380     7.0830    -0.4430 C.ar  1 <1>   0.0820 
 23 C        3.5910     8.7350     0.9270 C.3   1 <1>   0.4000 
 24 O        3.1600     8.4060    -0.3910 O.3   1 <1>  -0.3630 
 25 H       -0.6050     2.1340     2.7140 H     1 <1>   0.0800 
 26 H       -1.3290     1.9130     1.1040 H     1 <1>   0.0800 
 27 H        4.5730    -1.2570    -0.5330 H     1 <1>   0.0800 
 28 H        5.7500    -0.2530     0.2690 H     1 <1>   0.0800 
 29 H        5.3930    -0.0180    -1.4270 H     1 <1>   0.0800 
 30 H        5.1800     3.8590    -0.8150 H     1 <1>   0.0800 
 31 H        3.6200     4.7890     1.9370 H     1 <1>   0.1500 
 32 H        2.2920     4.2960    -2.1340 H     1 <1>   0.1500 
 33 H        6.1630     2.3740    -2.4670 H     1 <1>   0.4000 
 34 H        2.3790     6.7460    -2.4420 H     1 <1>   0.1500 
 35 H        8.3050     2.6440    -0.0240 H     1 <1>   0.0800 
 36 H        7.2520     4.0440     0.1200 H     1 <1>   0.0800 
 37 H        7.6610     3.3980    -1.4760 H     1 <1>   0.0800 
 38 H        4.5420     9.2360     0.8840 H     1 <1>   0.0800 
 39 H        2.8440     9.3380     1.4120 H     1 <1>   0.0800 
@<TRIPOS>BOND
  1   1   2  1   
  2   1   3  1   
  3   2   4  ar  
  4   2   5  ar  
  5   3   6  1   
  6   3  25  1   
  7   3  26  1   
  8   4   7  ar  
  9   5   6  1   
 10   5   8  ar  
 11   6   9  2   
 12   7  10  ar  
 13   7  11  1   
 14   8  10  ar  
 15   8  12  1   
 16  10  13  1   
 17  11  27  1   
 18  11  28  1   
 19  11  29  1   
 20  12  14  ar  
 21  12  15  ar  
 22  13  16  1   
 23  13  17  1   
 24  13  30  1   
 25  14  18  ar  
 26  14  31  1   
 27  15  19  ar  
 28  15  32  1   
 29  16  33  1   
 30  17  20  1   
 31  18  21  1   
 32  18  22  ar  
 33  19  22  ar  
 34  19  34  1   
 35  20  35  1   
 36  20  36  1   
 37  20  37  1   
 38  21  23  1   
 39  22  24  1   
 40  23  24  1   
 41  23  38  1   
 42  23  39  1   
@<TRIPOS>SUBSTRUCTURE
  1 ****  12 GROUP 4 **** **** 0

# MOE 2024.06 (io_trps.svl 2023.06)
