@<TRIPOS>MOLECULE
NONAME
45 47 1 0 0 
SMALL
USER_CHARGES


@<TRIPOS>ATOM
  1 BR       1.4770    -2.0550    -2.5290 Br    1 <1>  -0.1110 
  2 C       -0.0520    -2.4920    -1.4380 C.ar  1 <1>   0.1110 
  3 C        0.1070    -2.8640    -0.1000 C.ar  1 <1>   0.0860 
  4 C       -1.2860    -2.3970    -2.0540 C.ar  1 <1>  -0.1500 
  5 C        1.3890    -2.9900     0.5610 C.2   1 <1>   0.5440 
  6 C       -1.0680    -3.1190     0.6090 C.ar  1 <1>  -0.1500 
  7 C       -2.4270    -2.6710    -1.3220 C.ar  1 <1>  -0.1500 
  8 O        1.5590    -2.5310     1.6730 O.2   1 <1>  -0.5700 
  9 N        2.4360    -3.6480    -0.0230 N.am  1 <1>  -0.7300 
 10 C       -2.3140    -3.0290     0.0120 C.ar  1 <1>  -0.1500 
 11 C        3.7640    -3.7750     0.5860 C.3   1 <1>   0.2200 
 12 C        4.5830    -2.5290     0.2570 C.3   1 <1>  -0.1600 
 13 C        4.4550    -5.0320     0.0650 C.3   1 <1>  -0.1600 
 14 C        5.9880    -2.6530     0.8330 C.3   1 <1>   0.3430 
 15 C        5.8670    -5.1310     0.6360 C.3   1 <1>   0.3430 
 16 N        6.6390    -3.8910     0.3120 N.4   1 <1>  -0.9590 
 17 C        8.0510    -3.9930     0.7730 C.3   1 <1>   0.4860 
 18 C        8.7240    -5.1180     0.0130 C.ar  1 <1>  -0.1430 
 19 C        8.9960    -6.3240     0.6460 C.ar  1 <1>  -0.1500 
 20 C        9.0680    -4.9560    -1.3220 C.ar  1 <1>  -0.1500 
 21 C        9.5910    -7.3580    -0.0530 C.ar  1 <1>  -0.1500 
 22 C        9.6630    -5.9920    -2.0190 C.ar  1 <1>  -0.1500 
 23 C        9.9230    -7.1940    -1.3850 C.ar  1 <1>  -0.1500 
 24 H       -1.3560    -2.1090    -3.0880 H     1 <1>   0.1500 
 25 H       -0.9970    -3.3930     1.6480 H     1 <1>   0.1500 
 26 H       -3.3980    -2.6030    -1.7830 H     1 <1>   0.1500 
 27 H        2.3330    -3.9660    -0.9890 H     1 <1>   0.3700 
 28 H       -3.2010    -3.2360     0.5870 H     1 <1>   0.1500 
 29 H        3.6500    -3.8520     1.6570 H     1 <1>   0.0800 
 30 H        4.1050    -1.6690     0.6930 H     1 <1>   0.0800 
 31 H        4.6360    -2.3790    -0.8070 H     1 <1>   0.0800 
 32 H        4.5030    -5.0210    -1.0100 H     1 <1>   0.0800 
 33 H        3.8940    -5.8980     0.3710 H     1 <1>   0.0800 
 34 H        5.9290    -2.6950     1.9090 H     1 <1>   0.0800 
 35 H        6.5650    -1.7840     0.5580 H     1 <1>   0.0800 
 36 H        6.3600    -5.9950     0.2160 H     1 <1>   0.0800 
 37 H        5.8140    -5.2590     1.7050 H     1 <1>   0.0800 
 38 H        6.6810    -3.8300    -0.7130 H     1 <1>   0.4500 
 39 H        8.0880    -4.1870     1.8320 H     1 <1>   0.0800 
 40 H        8.5760    -3.0720     0.5750 H     1 <1>   0.0800 
 41 H        8.7530    -6.4750     1.6850 H     1 <1>   0.1500 
 42 H        8.8850    -4.0270    -1.8360 H     1 <1>   0.1500 
 43 H        9.8030    -8.2940     0.4380 H     1 <1>   0.1500 
 44 H        9.9300    -5.8670    -3.0550 H     1 <1>   0.1500 
 45 H       10.3880    -8.0000    -1.9290 H     1 <1>   0.1500 
@<TRIPOS>BOND
  1   1   2  1   
  2   2   3  ar  
  3   2   4  ar  
  4   3   5  1   
  5   3   6  ar  
  6   4   7  ar  
  7   4  24  1   
  8   5   8  2   
  9   5   9  am  
 10   6  10  ar  
 11   6  25  1   
 12   7  10  ar  
 13   7  26  1   
 14   9  11  1   
 15   9  27  1   
 16  10  28  1   
 17  11  12  1   
 18  11  13  1   
 19  11  29  1   
 20  12  14  1   
 21  12  30  1   
 22  12  31  1   
 23  13  15  1   
 24  13  32  1   
 25  13  33  1   
 26  14  16  1   
 27  14  34  1   
 28  14  35  1   
 29  15  16  1   
 30  15  36  1   
 31  15  37  1   
 32  16  17  1   
 33  16  38  1   
 34  17  18  1   
 35  17  39  1   
 36  17  40  1   
 37  18  19  ar  
 38  18  20  ar  
 39  19  21  ar  
 40  19  41  1   
 41  20  22  ar  
 42  20  42  1   
 43  21  23  ar  
 44  21  43  1   
 45  22  23  ar  
 46  22  44  1   
 47  23  45  1   
@<TRIPOS>SUBSTRUCTURE
  1 ****  11 GROUP 4 **** **** 0

# MOE 2024.06 (io_trps.svl 2023.06)
