@<TRIPOS>MOLECULE
NONAME
37 38 1 0 0 
SMALL
USER_CHARGES


@<TRIPOS>ATOM
  1 CL       0.4590    -0.8870     2.0590 Cl    1 <1>  -0.1770 
  2 C       -0.5570    -1.8010     0.9620 C.ar  1 <1>   0.1770 
  3 C        0.0280    -2.7480     0.1190 C.ar  1 <1>   0.1170 
  4 C       -1.9150    -1.5500     0.9650 C.ar  1 <1>  -0.1500 
  5 N        1.4200    -2.9490     0.1700 N.am  1 <1>  -0.5470 
  6 C       -0.8110    -3.4420    -0.7530 C.ar  1 <1>  -0.1500 
  7 C       -2.7150    -2.2640     0.0940 C.ar  1 <1>   0.1770 
  8 C        2.2220    -3.9700    -0.2530 C.2   1 <1>   0.6900 
  9 C       -2.1770    -3.2050    -0.7650 C.ar  1 <1>  -0.1500 
 10 CL      -4.4350    -1.9680     0.0750 Cl    1 <1>  -0.1770 
 11 O        1.7460    -4.9850    -0.7250 O.2   1 <1>  -0.5700 
 12 N        3.5800    -3.8430    -0.1080 N.am  1 <1>  -0.6600 
 13 C        4.2620    -2.5360     0.1480 C.3   1 <1>   0.1400 
 14 C        4.4580    -5.0340    -0.3250 C.3   1 <1>   0.1400 
 15 C        5.6580    -2.5090    -0.4930 C.3   1 <1>  -0.0800 
 16 C        5.7690    -4.8950     0.4650 C.3   1 <1>  -0.0800 
 17 C        6.5590    -3.6370     0.0490 C.3   1 <1>  -0.1600 
 18 C        6.3290    -1.1420    -0.3030 C.3   1 <1>  -0.2400 
 19 C        6.6360    -6.1530     0.3240 C.3   1 <1>  -0.2400 
 20 H       -2.3410    -0.8190     1.6260 H     1 <1>   0.1500 
 21 H        1.9210    -2.2840     0.7520 H     1 <1>   0.3700 
 22 H       -0.4030    -4.1720    -1.4290 H     1 <1>   0.1500 
 23 H       -2.8200    -3.7460    -1.4360 H     1 <1>   0.1500 
 24 H        4.3500    -2.3880     1.2110 H     1 <1>   0.0800 
 25 H        3.6750    -1.7330    -0.2640 H     1 <1>   0.0800 
 26 H        4.6690    -5.1260    -1.3770 H     1 <1>   0.0800 
 27 H        3.9410    -5.9230    -0.0080 H     1 <1>   0.0800 
 28 H        5.5220    -2.6610    -1.5510 H     1 <1>   0.0800 
 29 H        5.4990    -4.8010     1.5040 H     1 <1>   0.0800 
 30 H        7.1120    -3.2940     0.9060 H     1 <1>   0.0800 
 31 H        7.2750    -3.8840    -0.7160 H     1 <1>   0.0800 
 32 H        6.4630    -0.9250     0.7430 H     1 <1>   0.0800 
 33 H        5.7280    -0.3660    -0.7420 H     1 <1>   0.0800 
 34 H        7.2930    -1.1330    -0.7810 H     1 <1>   0.0800 
 35 H        6.9080    -6.3140    -0.7050 H     1 <1>   0.0800 
 36 H        6.1000    -7.0160     0.6760 H     1 <1>   0.0800 
 37 H        7.5350    -6.0520     0.9070 H     1 <1>   0.0800 
@<TRIPOS>BOND
  1   1   2  1   
  2   2   3  ar  
  3   2   4  ar  
  4   3   5  1   
  5   3   6  ar  
  6   4   7  ar  
  7   4  20  1   
  8   5   8  am  
  9   5  21  1   
 10   6   9  ar  
 11   6  22  1   
 12   7   9  ar  
 13   7  10  1   
 14   8  11  2   
 15   8  12  am  
 16   9  23  1   
 17  12  13  1   
 18  12  14  1   
 19  13  15  1   
 20  13  24  1   
 21  13  25  1   
 22  14  16  1   
 23  14  26  1   
 24  14  27  1   
 25  15  17  1   
 26  15  18  1   
 27  15  28  1   
 28  16  17  1   
 29  16  19  1   
 30  16  29  1   
 31  17  30  1   
 32  17  31  1   
 33  18  32  1   
 34  18  33  1   
 35  18  34  1   
 36  19  35  1   
 37  19  36  1   
 38  19  37  1   
@<TRIPOS>SUBSTRUCTURE
  1 ****   5 GROUP 4 **** **** 0

# MOE 2024.06 (io_trps.svl 2023.06)
