@<TRIPOS>MOLECULE
NONAME
53 54 1 0 0 
SMALL
USER_CHARGES


@<TRIPOS>ATOM
  1 S        0.3570    -0.3730    -1.3590 S.o2  1 <1>   1.3330 
  2 O        0.1970    -0.8340    -0.0050 O.2   1 <1>  -0.6500 
  3 O        1.6190    -0.5710    -2.0340 O.2   1 <1>  -0.6500 
  4 N        0.0410     1.3260    -1.3960 N.am  1 <1>  -0.6930 
  5 C       -0.9500    -1.0210    -2.3760 C.3   1 <1>  -0.1350 
  6 C       -0.9130     1.8640    -0.5350 C.ar  1 <1>   0.1990 
  7 C        1.1420     2.2040    -1.9140 C.3   1 <1>   0.3370 
  8 C       -0.6170     2.1240     0.7970 C.ar  1 <1>  -0.1500 
  9 C       -2.1880     2.1530    -1.0050 C.ar  1 <1>  -0.1500 
 10 C        2.2830     2.4290    -0.8900 C.2   1 <1>   0.5690 
 11 C        0.5460     3.5110    -2.4630 C.3   1 <1>  -0.2400 
 12 C       -1.5740     2.6600     1.6390 C.ar  1 <1>  -0.1500 
 13 C       -3.1510     2.6880    -0.1680 C.ar  1 <1>  -0.1500 
 14 O        2.3720     3.4940    -0.3230 O.2   1 <1>  -0.5700 
 15 N        3.1640     1.4010    -0.6680 N.am  1 <1>  -0.5470 
 16 C       -2.8450     2.9450     1.1660 C.ar  1 <1>   0.0830 
 17 C        4.3010     1.3220     0.1560 C.ar  1 <1>   0.1170 
 18 O       -3.7240     3.4690     2.0610 O.3   1 <1>  -0.3630 
 19 C        4.6720     0.0990     0.7280 C.ar  1 <1>  -0.1430 
 20 C        5.0850     2.4450     0.3900 C.ar  1 <1>  -0.1500 
 21 C       -5.0350     3.8070     1.6740 C.3   1 <1>   0.1200 
 22 C        5.8220     0.0220     1.5140 C.ar  1 <1>  -0.1440 
 23 C        3.7890    -1.1270     0.4800 C.3   1 <1>  -0.0970 
 24 C        6.2190     2.3690     1.1720 C.ar  1 <1>  -0.1500 
 25 C       -5.7560     4.3710     2.8950 C.3   1 <1>  -0.2400 
 26 C        6.5850     1.1600     1.7290 C.ar  1 <1>  -0.1500 
 27 C        6.2900    -1.2750     2.1610 C.3   1 <1>  -0.0970 
 28 H       -0.8550    -2.0850    -2.4620 H     1 <1>   0.0800 
 29 H       -0.9080    -0.5900    -3.3570 H     1 <1>   0.0800 
 30 H       -1.9030    -0.7960    -1.9380 H     1 <1>   0.0800 
 31 H        1.5880     1.7140    -2.7610 H     1 <1>   0.0800 
 32 H        0.3660     1.9030     1.1770 H     1 <1>   0.1500 
 33 H       -2.4220     1.9600    -2.0360 H     1 <1>   0.1500 
 34 H        0.1240     4.1000    -1.6680 H     1 <1>   0.0800 
 35 H       -0.2090     3.3010    -3.1980 H     1 <1>   0.0800 
 36 H        1.3230     4.0930    -2.9260 H     1 <1>   0.0800 
 37 H       -1.3390     2.8590     2.6690 H     1 <1>   0.1500 
 38 H       -4.1250     2.8980    -0.5670 H     1 <1>   0.1500 
 39 H        2.9120     0.5100    -1.1130 H     1 <1>   0.3700 
 40 H        4.8130     3.3890    -0.0440 H     1 <1>   0.1500 
 41 H       -5.5270     2.9170     1.3210 H     1 <1>   0.0800 
 42 H       -4.9810     4.5430     0.8910 H     1 <1>   0.0800 
 43 H        4.0920    -1.9870     1.0440 H     1 <1>   0.0800 
 44 H        2.7750    -0.9060     0.7610 H     1 <1>   0.0800 
 45 H        3.8140    -1.3910    -0.5620 H     1 <1>   0.0800 
 46 H        6.8140     3.2480     1.3450 H     1 <1>   0.1500 
 47 H       -5.7890     3.6330     3.6770 H     1 <1>   0.0800 
 48 H       -6.7620     4.6400     2.6320 H     1 <1>   0.0800 
 49 H       -5.2460     5.2480     3.2510 H     1 <1>   0.0800 
 50 H        7.4720     1.1150     2.3360 H     1 <1>   0.1500 
 51 H        6.4380    -2.0290     1.4100 H     1 <1>   0.0800 
 52 H        5.5570    -1.6160     2.8700 H     1 <1>   0.0800 
 53 H        7.2210    -1.1370     2.6810 H     1 <1>   0.0800 
@<TRIPOS>BOND
  1   1   2  2   
  2   1   3  2   
  3   1   4  am  
  4   1   5  1   
  5   4   6  1   
  6   4   7  1   
  7   5  28  1   
  8   5  29  1   
  9   5  30  1   
 10   6   8  ar  
 11   6   9  ar  
 12   7  10  1   
 13   7  11  1   
 14   7  31  1   
 15   8  12  ar  
 16   8  32  1   
 17   9  13  ar  
 18   9  33  1   
 19  10  14  2   
 20  10  15  am  
 21  11  34  1   
 22  11  35  1   
 23  11  36  1   
 24  12  16  ar  
 25  12  37  1   
 26  13  16  ar  
 27  13  38  1   
 28  15  17  1   
 29  15  39  1   
 30  16  18  1   
 31  17  19  ar  
 32  17  20  ar  
 33  18  21  1   
 34  19  22  ar  
 35  19  23  1   
 36  20  24  ar  
 37  20  40  1   
 38  21  25  1   
 39  21  41  1   
 40  21  42  1   
 41  22  26  ar  
 42  22  27  1   
 43  23  43  1   
 44  23  44  1   
 45  23  45  1   
 46  24  26  ar  
 47  24  46  1   
 48  25  47  1   
 49  25  48  1   
 50  25  49  1   
 51  26  50  1   
 52  27  51  1   
 53  27  52  1   
 54  27  53  1   
@<TRIPOS>SUBSTRUCTURE
  1 ****  10 GROUP 4 **** **** 0

# MOE 2024.06 (io_trps.svl 2023.06)
