@<TRIPOS>MOLECULE
NONAME
37 38 1 0 0 
SMALL
USER_CHARGES


@<TRIPOS>ATOM
  1 BR      -2.5570     1.2920     2.4170 Br    1 <1>  -0.1110 
  2 C       -1.2550     2.3320     1.4470 C.ar  1 <1>   0.1110 
  3 C       -1.3000     2.3690     0.0610 C.ar  1 <1>  -0.1440 
  4 C       -0.3080     3.0220     2.1780 C.ar  1 <1>  -0.1500 
  5 C       -0.3440     3.1260    -0.6030 C.ar  1 <1>  -0.1500 
  6 C       -2.3600     1.6070    -0.7080 C.3   1 <1>   0.4870 
  7 C        0.6330     3.7770     1.5010 C.ar  1 <1>  -0.1500 
  8 C        0.6140     3.8260     0.1160 C.ar  1 <1>  -0.1500 
  9 N       -3.6700     2.2840    -0.5320 N.4   1 <1>  -0.9590 
 10 C       -4.8360     1.5270    -1.0870 C.3   1 <1>   0.3430 
 11 C       -3.6970     3.7190    -0.9670 C.3   1 <1>   0.3430 
 12 C       -6.1740     2.2130    -0.7140 C.3   1 <1>   0.1100 
 13 C       -5.0600     4.3770    -0.6380 C.3   1 <1>   0.1100 
 14 N       -5.9800     3.4570     0.0760 N.3   1 <1>  -0.8100 
 15 C       -7.2600     4.1310     0.3820 C.3   1 <1>   0.1100 
 16 C       -8.0620     3.3750     1.4490 C.3   1 <1>   0.1200 
 17 O       -9.2280     4.0730     1.7190 O.3   1 <1>  -0.6800 
 18 H       -0.3040     2.9710     3.2540 H     1 <1>   0.1500 
 19 H       -0.3260     3.1800    -1.6790 H     1 <1>   0.1500 
 20 H       -2.4140     0.5970    -0.3330 H     1 <1>   0.0800 
 21 H       -2.1000     1.5690    -1.7520 H     1 <1>   0.0800 
 22 H        1.3830     4.3230     2.0490 H     1 <1>   0.1500 
 23 H        1.3550     4.4120    -0.4030 H     1 <1>   0.1500 
 24 H       -3.8670     2.3410     0.4810 H     1 <1>   0.4500 
 25 H       -4.8410     0.5220    -0.6970 H     1 <1>   0.0800 
 26 H       -4.7580     1.4630    -2.1600 H     1 <1>   0.0800 
 27 H       -3.5150     3.7910    -2.0260 H     1 <1>   0.0800 
 28 H       -2.9190     4.2690    -0.4630 H     1 <1>   0.0800 
 29 H       -6.7640     1.5130    -0.1480 H     1 <1>   0.0800 
 30 H       -6.7190     2.4340    -1.6170 H     1 <1>   0.0800 
 31 H       -5.5190     4.7140    -1.5530 H     1 <1>   0.0800 
 32 H       -4.8810     5.2480    -0.0300 H     1 <1>   0.0800 
 33 H       -7.8510     4.2270    -0.5130 H     1 <1>   0.0800 
 34 H       -7.0550     5.1170     0.7640 H     1 <1>   0.0800 
 35 H       -7.5010     3.2830     2.3630 H     1 <1>   0.0800 
 36 H       -8.3500     2.4000     1.0970 H     1 <1>   0.0800 
 37 H       -9.0430     4.8850     2.2300 H     1 <1>   0.4000 
@<TRIPOS>BOND
  1   1   2  1   
  2   2   3  ar  
  3   2   4  ar  
  4   3   5  ar  
  5   3   6  1   
  6   4   7  ar  
  7   4  18  1   
  8   5   8  ar  
  9   5  19  1   
 10   6   9  1   
 11   6  20  1   
 12   6  21  1   
 13   7   8  ar  
 14   7  22  1   
 15   8  23  1   
 16   9  10  1   
 17   9  11  1   
 18   9  24  1   
 19  10  12  1   
 20  10  25  1   
 21  10  26  1   
 22  11  13  1   
 23  11  27  1   
 24  11  28  1   
 25  12  14  1   
 26  12  29  1   
 27  12  30  1   
 28  13  14  1   
 29  13  31  1   
 30  13  32  1   
 31  14  15  1   
 32  15  16  1   
 33  15  33  1   
 34  15  34  1   
 35  16  17  1   
 36  16  35  1   
 37  16  36  1   
 38  17  37  1   
@<TRIPOS>SUBSTRUCTURE
  1 ****   9 GROUP 4 **** **** 0

# MOE 2024.06 (io_trps.svl 2023.06)
