@<TRIPOS>MOLECULE
NONAME
38 39 1 0 0 
SMALL
USER_CHARGES


@<TRIPOS>ATOM
  1 CL      -0.1960    -0.6070     2.0950 Cl    1 <1>  -0.1770 
  2 C        0.2710    -1.7800     0.8820 C.ar  1 <1>   0.1770 
  3 C        1.5540    -2.3140     0.8610 C.ar  1 <1>  -0.1440 
  4 C       -0.6900    -2.1450    -0.0420 C.ar  1 <1>  -0.1500 
  5 C        1.8600    -3.2650    -0.1190 C.ar  1 <1>   0.1170 
  6 C        2.5910    -1.8640     1.8910 C.3   1 <1>  -0.0960 
  7 C       -0.3780    -3.0720    -1.0170 C.ar  1 <1>  -0.1500 
  8 N        3.1170    -3.8760    -0.2240 N.am  1 <1>  -0.5470 
  9 C        0.8900    -3.6240    -1.0490 C.ar  1 <1>  -0.1500 
 10 C        3.7430    -4.6730     0.6900 C.2   1 <1>   0.5690 
 11 O        3.2680    -4.9570     1.7600 O.2   1 <1>  -0.5700 
 12 C        5.1070    -5.2280     0.3310 C.3   1 <1>  -0.0990 
 13 C        6.1900    -4.1370     0.3260 C.3   1 <1>  -0.1600 
 14 C        7.5590    -4.7110    -0.0520 C.3   1 <1>   0.1400 
 15 N        8.5460    -3.6180    -0.1680 N.am  1 <1>  -0.4200 
 16 C        9.4610    -3.3040     0.7860 C.2   1 <1>   0.5690 
 17 C        8.6650    -2.8140    -1.2560 C.2   1 <1>   0.5690 
 18 O        9.5890    -3.8500     1.8500 O.2   1 <1>  -0.5700 
 19 C       10.3280    -2.1500     0.3360 C.3   1 <1>  -0.0990 
 20 O        7.9790    -2.8630    -2.2440 O.2   1 <1>  -0.5700 
 21 C        9.7860    -1.8180    -1.0680 C.3   1 <1>  -0.0990 
 22 H       -1.6710    -1.7070     0.0080 H     1 <1>   0.1500 
 23 H        2.4430    -0.8390     2.1750 H     1 <1>   0.0800 
 24 H        3.5880    -1.9450     1.5000 H     1 <1>   0.0800 
 25 H        2.5160    -2.4810     2.7680 H     1 <1>   0.0800 
 26 H       -1.1170    -3.3650    -1.7430 H     1 <1>   0.1500 
 27 H        3.5830    -3.7670    -1.1230 H     1 <1>   0.3700 
 28 H        1.1270    -4.3520    -1.8030 H     1 <1>   0.1500 
 29 H        5.0460    -5.6960    -0.6350 H     1 <1>   0.0800 
 30 H        5.3650    -5.9870     1.0490 H     1 <1>   0.0800 
 31 H        6.2490    -3.6940     1.3070 H     1 <1>   0.0800 
 32 H        5.9190    -3.3710    -0.3800 H     1 <1>   0.0800 
 33 H        7.4970    -5.2230    -0.9970 H     1 <1>   0.0800 
 34 H        7.8850    -5.4150     0.6960 H     1 <1>   0.0800 
 35 H       11.3580    -2.4580     0.3010 H     1 <1>   0.0800 
 36 H       10.2130    -1.3220     1.0120 H     1 <1>   0.0800 
 37 H        9.3990    -0.8170    -1.1170 H     1 <1>   0.0800 
 38 H       10.5340    -1.9630    -1.8260 H     1 <1>   0.0800 
@<TRIPOS>BOND
  1   1   2  1   
  2   2   3  ar  
  3   2   4  ar  
  4   3   5  ar  
  5   3   6  1   
  6   4   7  ar  
  7   4  22  1   
  8   5   8  1   
  9   5   9  ar  
 10   6  23  1   
 11   6  24  1   
 12   6  25  1   
 13   7   9  ar  
 14   7  26  1   
 15   8  10  am  
 16   8  27  1   
 17   9  28  1   
 18  10  11  2   
 19  10  12  1   
 20  12  13  1   
 21  12  29  1   
 22  12  30  1   
 23  13  14  1   
 24  13  31  1   
 25  13  32  1   
 26  14  15  1   
 27  14  33  1   
 28  14  34  1   
 29  15  16  am  
 30  15  17  am  
 31  16  18  2   
 32  16  19  1   
 33  17  20  2   
 34  17  21  1   
 35  19  21  1   
 36  19  35  1   
 37  19  36  1   
 38  21  37  1   
 39  21  38  1   
@<TRIPOS>SUBSTRUCTURE
  1 ****  13 GROUP 4 **** **** 0

# MOE 2024.06 (io_trps.svl 2023.06)
