@<TRIPOS>MOLECULE
NONAME
58 61 1 0 0 
SMALL
USER_CHARGES


@<TRIPOS>ATOM
  1 O       -1.8020     1.5810    -0.1840 O.2   1 <1>  -0.5700 
  2 C       -1.2810     2.6430     0.1940 C.2   1 <1>   0.6160 
  3 N       -0.0780     3.1480    -0.2120 N.am  1 <1>  -0.1570 
  4 C       -1.8770     3.5550     1.0760 C.2   1 <1>  -0.1240 
  5 N        0.0390     4.4260     0.4240 N.pl3 1 <1>  -0.4890 
  6 C        1.0460     2.3220    -0.4000 C.ar  1 <1>   0.1170 
  7 C       -1.0560     4.6300     1.1920 C.2   1 <1>  -0.0380 
  8 C       -3.2120     3.2650     1.7130 C.3   1 <1>   0.4810 
  9 C        1.1170     5.3700     0.0270 C.3   1 <1>   0.1290 
 10 C        1.9900     2.1470     0.6080 C.ar  1 <1>  -0.1500 
 11 C        1.2270     1.6550    -1.6060 C.ar  1 <1>  -0.1500 
 12 C       -1.2500     5.8970     2.0050 C.3   1 <1>  -0.1020 
 13 N       -4.1680     2.7990     0.6770 N.4   1 <1>  -0.9590 
 14 C        3.0900     1.3320     0.4120 C.ar  1 <1>  -0.1500 
 15 C        2.3260     0.8390    -1.8060 C.ar  1 <1>  -0.1500 
 16 C       -4.4920     3.8740    -0.3290 C.3   1 <1>   0.3430 
 17 C       -5.4230     2.2190     1.2690 C.3   1 <1>   0.3430 
 18 C        3.2590     0.6780    -0.7960 C.ar  1 <1>  -0.1500 
 19 C       -5.4430     3.3810    -1.4380 C.3   1 <1>   0.2090 
 20 C       -6.3990     1.6920     0.1970 C.3   1 <1>   0.2090 
 21 N       -6.6460     2.6880    -0.8880 N.pl3 1 <1>  -0.8380 
 22 C       -7.8360     3.4250    -0.8220 C.ar  1 <1>   0.1000 
 23 C       -8.0820     4.4580     0.1020 C.ar  1 <1>   0.0830 
 24 C       -8.8260     3.1000    -1.7380 C.ar  1 <1>  -0.1500 
 25 O       -7.1010     4.7790     1.0070 O.3   1 <1>  -0.3630 
 26 C       -9.3050     5.1240     0.0750 C.ar  1 <1>  -0.1500 
 27 C      -10.0360     3.7660    -1.7580 C.ar  1 <1>  -0.1500 
 28 C       -7.2980     5.8170     1.9460 C.3   1 <1>   0.0400 
 29 C      -10.2760     4.7790    -0.8500 C.ar  1 <1>  -0.1500 
 30 H       -3.5920     4.1480     2.2000 H     1 <1>   0.0800 
 31 H       -3.0790     2.4940     2.4550 H     1 <1>   0.0800 
 32 H        2.0640     5.0120     0.3920 H     1 <1>   0.0800 
 33 H        0.9320     6.3480     0.4310 H     1 <1>   0.0800 
 34 H        1.1590     5.4350    -1.0460 H     1 <1>   0.0800 
 35 H        1.8600     2.6510     1.5480 H     1 <1>   0.1500 
 36 H        0.5000     1.7760    -2.3890 H     1 <1>   0.1500 
 37 H       -0.4180     6.0300     2.6740 H     1 <1>   0.0800 
 38 H       -2.1510     5.8530     2.5890 H     1 <1>   0.0800 
 39 H       -1.3060     6.7490     1.3510 H     1 <1>   0.0800 
 40 H       -3.6750     2.0420     0.1610 H     1 <1>   0.4500 
 41 H        3.8150     1.2040     1.1970 H     1 <1>   0.1500 
 42 H        2.4560     0.3280    -2.7440 H     1 <1>   0.1500 
 43 H       -3.5870     4.2340    -0.7870 H     1 <1>   0.0800 
 44 H       -4.9610     4.7050     0.1690 H     1 <1>   0.0800 
 45 H       -5.9340     2.9740     1.8420 H     1 <1>   0.0800 
 46 H       -5.1740     1.4110     1.9370 H     1 <1>   0.0800 
 47 H        4.1150     0.0420    -0.9510 H     1 <1>   0.1500 
 48 H       -4.9160     2.7030    -2.0880 H     1 <1>   0.0800 
 49 H       -5.7580     4.2210    -2.0330 H     1 <1>   0.0800 
 50 H       -7.3350     1.4380     0.6660 H     1 <1>   0.0800 
 51 H       -6.0020     0.7930    -0.2410 H     1 <1>   0.0800 
 52 H       -8.6380     2.3110    -2.4440 H     1 <1>   0.1500 
 53 H       -9.5370     5.9170     0.7600 H     1 <1>   0.1500 
 54 H      -10.7890     3.4960    -2.4780 H     1 <1>   0.1500 
 55 H       -6.4120     5.9040     2.5480 H     1 <1>   0.0800 
 56 H       -8.1390     5.5710     2.5700 H     1 <1>   0.0800 
 57 H       -7.4700     6.7390     1.4180 H     1 <1>   0.0800 
 58 H      -11.2190     5.2990    -0.8630 H     1 <1>   0.1500 
@<TRIPOS>BOND
  1   1   2  2   
  2   2   3  am  
  3   2   4  1   
  4   3   5  1   
  5   3   6  1   
  6   4   7  2   
  7   4   8  1   
  8   5   7  1   
  9   5   9  1   
 10   6  10  ar  
 11   6  11  ar  
 12   7  12  1   
 13   8  13  1   
 14   8  30  1   
 15   8  31  1   
 16   9  32  1   
 17   9  33  1   
 18   9  34  1   
 19  10  14  ar  
 20  10  35  1   
 21  11  15  ar  
 22  11  36  1   
 23  12  37  1   
 24  12  38  1   
 25  12  39  1   
 26  13  16  1   
 27  13  17  1   
 28  13  40  1   
 29  14  18  ar  
 30  14  41  1   
 31  15  18  ar  
 32  15  42  1   
 33  16  19  1   
 34  16  43  1   
 35  16  44  1   
 36  17  20  1   
 37  17  45  1   
 38  17  46  1   
 39  18  47  1   
 40  19  21  1   
 41  19  48  1   
 42  19  49  1   
 43  20  21  1   
 44  20  50  1   
 45  20  51  1   
 46  21  22  1   
 47  22  23  ar  
 48  22  24  ar  
 49  23  25  1   
 50  23  26  ar  
 51  24  27  ar  
 52  24  52  1   
 53  25  28  1   
 54  26  29  ar  
 55  26  53  1   
 56  27  29  ar  
 57  27  54  1   
 58  28  55  1   
 59  28  56  1   
 60  28  57  1   
 61  29  58  1   
@<TRIPOS>SUBSTRUCTURE
  1 ****  13 GROUP 4 **** **** 0

# MOE 2024.06 (io_trps.svl 2023.06)
