@<TRIPOS>MOLECULE
NONAME
46 49 1 0 0 
SMALL
USER_CHARGES


@<TRIPOS>ATOM
  1 O       -0.4600    -0.0120    -0.5870 O.2   1 <1>  -0.5700 
  2 C       -1.0420     1.0600    -0.5990 C.2   1 <1>   0.7160 
  3 N       -2.2890     1.1300    -1.1500 N.am  1 <1>  -0.7300 
  4 C       -0.4550     2.2660    -0.0340 C.2   1 <1>   0.2030 
  5 C       -3.1290    -0.0020    -1.6080 C.3   1 <1>   0.1400 
  6 N       -1.0430     3.4500     0.0260 N.2   1 <1>  -0.7070 
  7 C        0.8230     2.3360     0.5320 C.2   1 <1>  -0.1500 
  8 C       -4.4110    -0.1520    -0.7600 C.3   1 <1>   0.0000 
  9 N       -0.1570     4.2630     0.6170 N.pl3 1 <1>   0.3140 
 10 C        0.9780     3.6110     0.9330 C.2   1 <1>  -0.3020 
 11 C       -4.0710    -0.4350     0.7230 C.3   1 <1>  -0.1600 
 12 C       -5.2340    -1.3430    -1.3050 C.3   1 <1>  -0.1600 
 13 C       -5.2910     1.1210    -0.8330 C.3   1 <1>  -0.1600 
 14 C       -0.4440     5.6890     0.8710 C.3   1 <1>   0.0960 
 15 C       -5.3560    -0.6240     1.5510 C.3   1 <1>  -0.0800 
 16 C       -6.5250    -1.5390    -0.4880 C.3   1 <1>  -0.0800 
 17 C       -6.5820     0.9370    -0.0110 C.3   1 <1>  -0.0800 
 18 C        0.2180     6.5840    -0.1840 C.3   1 <1>  -0.2400 
 19 C       -6.1560    -1.8100     0.9820 C.3   1 <1>  -0.1600 
 20 C       -6.2100     0.6550     1.4570 C.3   1 <1>  -0.1600 
 21 C       -7.3750    -0.2580    -0.5720 C.3   1 <1>  -0.1600 
 22 H       -2.7390     2.0460    -1.0800 H     1 <1>   0.3700 
 23 H       -2.5590    -0.9150    -1.5570 H     1 <1>   0.0800 
 24 H       -3.3940     0.1620    -2.6380 H     1 <1>   0.0800 
 25 H        1.5070     1.5080     0.6080 H     1 <1>   0.1500 
 26 H        1.8140     4.0840     1.4140 H     1 <1>   0.1500 
 27 H       -3.5050     0.3820     1.1360 H     1 <1>   0.0800 
 28 H       -3.4600    -1.3170     0.7960 H     1 <1>   0.0800 
 29 H       -5.4890    -1.1720    -2.3360 H     1 <1>   0.0800 
 30 H       -4.6460    -2.2440    -1.2590 H     1 <1>   0.0800 
 31 H       -5.5440     1.3340    -1.8560 H     1 <1>   0.0800 
 32 H       -4.7530     1.9670    -0.4450 H     1 <1>   0.0800 
 33 H       -0.0860     5.9400     1.8530 H     1 <1>   0.0800 
 34 H       -1.5100     5.8250     0.8510 H     1 <1>   0.0800 
 35 H       -5.1010    -0.8160     2.5790 H     1 <1>   0.0800 
 36 H       -7.0830    -2.3720    -0.8820 H     1 <1>   0.0800 
 37 H       -7.1800     1.8300    -0.0690 H     1 <1>   0.0800 
 38 H        1.2870     6.4650    -0.1610 H     1 <1>   0.0800 
 39 H       -0.0170     7.6150     0.0120 H     1 <1>   0.0800 
 40 H       -0.1480     6.3300    -1.1630 H     1 <1>   0.0800 
 41 H       -7.0500    -1.9570     1.5610 H     1 <1>   0.0800 
 42 H       -5.5700    -2.7100     1.0510 H     1 <1>   0.0800 
 43 H       -7.1050     0.5380     2.0430 H     1 <1>   0.0800 
 44 H       -5.6610     1.4880     1.8600 H     1 <1>   0.0800 
 45 H       -8.2830    -0.3870    -0.0100 H     1 <1>   0.0800 
 46 H       -7.6480    -0.0670    -1.5950 H     1 <1>   0.0800 
@<TRIPOS>BOND
  1   1   2  2   
  2   2   3  am  
  3   2   4  1   
  4   3   5  1   
  5   3  22  1   
  6   4   6  2   
  7   4   7  1   
  8   5   8  1   
  9   5  23  1   
 10   5  24  1   
 11   6   9  1   
 12   7  10  2   
 13   7  25  1   
 14   8  11  1   
 15   8  12  1   
 16   8  13  1   
 17   9  10  1   
 18   9  14  1   
 19  10  26  1   
 20  11  15  1   
 21  11  27  1   
 22  11  28  1   
 23  12  16  1   
 24  12  29  1   
 25  12  30  1   
 26  13  17  1   
 27  13  31  1   
 28  13  32  1   
 29  14  18  1   
 30  14  33  1   
 31  14  34  1   
 32  15  19  1   
 33  15  20  1   
 34  15  35  1   
 35  16  19  1   
 36  16  21  1   
 37  16  36  1   
 38  17  20  1   
 39  17  21  1   
 40  17  37  1   
 41  18  38  1   
 42  18  39  1   
 43  18  40  1   
 44  19  41  1   
 45  19  42  1   
 46  20  43  1   
 47  20  44  1   
 48  21  45  1   
 49  21  46  1   
@<TRIPOS>SUBSTRUCTURE
  1 ****   3 GROUP 4 **** **** 0

# MOE 2024.06 (io_trps.svl 2023.06)
