@<TRIPOS>MOLECULE
NONAME
40 42 1 0 0 
SMALL
USER_CHARGES


@<TRIPOS>ATOM
  1 CL       1.1630    -0.2860     1.2310 Cl    1 <1>  -0.1770 
  2 C        0.0740    -1.5360     0.6750 C.ar  1 <1>   0.1770 
  3 C        0.5180    -2.8490     0.5010 C.ar  1 <1>   0.0540 
  4 C       -1.2280    -1.1590     0.4010 C.ar  1 <1>  -0.1500 
  5 C        1.8700    -3.2680     0.7980 C.2   1 <1>   0.4620 
  6 C       -0.4120    -3.7690     0.0150 C.ar  1 <1>  -0.1500 
  7 C       -2.1300    -2.0960    -0.0700 C.ar  1 <1>  -0.1500 
  8 N        2.5270    -3.0280     1.8750 N.2   1 <1>  -0.4100 
  9 N        2.5760    -4.0090    -0.0600 N.2   1 <1>  -0.5650 
 10 C       -1.7170    -3.4030    -0.2650 C.ar  1 <1>  -0.1500 
 11 O        3.6910    -3.5860     1.7620 O.3   1 <1>  -0.0190 
 12 C        3.6570    -4.1550     0.5850 C.2   1 <1>   0.2980 
 13 C        4.8800    -4.9140     0.1090 C.3   1 <1>   0.0200 
 14 C        6.0440    -3.9610    -0.1940 C.3   1 <1>  -0.0990 
 15 C        7.2790    -4.7280    -0.6110 C.2   1 <1>   0.5690 
 16 O        7.2060    -5.4810    -1.5500 O.2   1 <1>  -0.5700 
 17 N        8.4250    -4.5500     0.0900 N.am  1 <1>  -0.7300 
 18 C        9.7050    -5.2210    -0.1950 C.3   1 <1>   0.2200 
 19 C       10.1840    -5.9220     1.0690 C.3   1 <1>  -0.1600 
 20 C       10.7730    -4.1610    -0.4350 C.3   1 <1>  -0.1600 
 21 C       10.8610    -4.8400     1.9200 C.3   1 <1>  -0.1600 
 22 C       11.2320    -3.7060     0.9550 C.3   1 <1>  -0.1600 
 23 H       -1.5290    -0.1380     0.5530 H     1 <1>   0.1500 
 24 H       -0.1020    -4.7880    -0.1430 H     1 <1>   0.1500 
 25 H       -3.1460    -1.8110    -0.2860 H     1 <1>   0.1500 
 26 H       -2.4140    -4.1350    -0.6360 H     1 <1>   0.1500 
 27 H        4.6250    -5.4650    -0.7800 H     1 <1>   0.0800 
 28 H        5.1690    -5.6200     0.8660 H     1 <1>   0.0800 
 29 H        6.2620    -3.3640     0.6720 H     1 <1>   0.0800 
 30 H        5.7670    -3.3020    -0.9970 H     1 <1>   0.0800 
 31 H        8.4660    -3.8950     0.8690 H     1 <1>   0.3700 
 32 H        9.6060    -5.8990    -1.0280 H     1 <1>   0.0800 
 33 H       10.9200    -6.6560     0.7900 H     1 <1>   0.0800 
 34 H        9.3830    -6.4220     1.5870 H     1 <1>   0.0800 
 35 H       10.4120    -3.3500    -1.0440 H     1 <1>   0.0800 
 36 H       11.6020    -4.6260    -0.9410 H     1 <1>   0.0800 
 37 H       11.7310    -5.2340     2.4160 H     1 <1>   0.0800 
 38 H       10.1740    -4.4740     2.6640 H     1 <1>   0.0800 
 39 H       10.7130    -2.8060     1.2360 H     1 <1>   0.0800 
 40 H       12.2910    -3.5130     0.9640 H     1 <1>   0.0800 
@<TRIPOS>BOND
  1   1   2  1   
  2   2   3  ar  
  3   2   4  ar  
  4   3   5  1   
  5   3   6  ar  
  6   4   7  ar  
  7   4  23  1   
  8   5   8  2   
  9   5   9  1   
 10   6  10  ar  
 11   6  24  1   
 12   7  10  ar  
 13   7  25  1   
 14   8  11  1   
 15   9  12  2   
 16  10  26  1   
 17  11  12  1   
 18  12  13  1   
 19  13  14  1   
 20  13  27  1   
 21  13  28  1   
 22  14  15  1   
 23  14  29  1   
 24  14  30  1   
 25  15  16  2   
 26  15  17  am  
 27  17  18  1   
 28  17  31  1   
 29  18  19  1   
 30  18  20  1   
 31  18  32  1   
 32  19  21  1   
 33  19  33  1   
 34  19  34  1   
 35  20  22  1   
 36  20  35  1   
 37  20  36  1   
 38  21  22  1   
 39  21  37  1   
 40  21  38  1   
 41  22  39  1   
 42  22  40  1   
@<TRIPOS>SUBSTRUCTURE
  1 ****  12 GROUP 4 **** **** 0

# MOE 2024.06 (io_trps.svl 2023.06)
