@<TRIPOS>MOLECULE
NONAME
51 53 1 0 0 
SMALL
USER_CHARGES


@<TRIPOS>ATOM
  1 S        0.1250    -0.8590     0.6330 S.o2  1 <1>   1.4470 
  2 O        0.6220    -1.3710    -0.6230 O.2   1 <1>  -0.6500 
  3 O        0.7170    -1.2670     1.8870 O.2   1 <1>  -0.6500 
  4 N        0.2540     0.8690     0.5720 N.am  1 <1>  -0.6930 
  5 C       -1.6730    -1.0840     0.7400 C.ar  1 <1>  -0.0090 
  6 C       -0.3820     1.5940    -0.4300 C.ar  1 <1>   0.1990 
  7 C        1.4560     1.4610     1.2340 C.3   1 <1>   0.2570 
  8 C       -2.4760    -0.9880    -0.3900 C.ar  1 <1>  -0.1500 
  9 C       -2.3000    -1.3230     1.9580 C.ar  1 <1>  -0.1500 
 10 C       -1.4180     2.4820    -0.1290 C.ar  1 <1>  -0.1430 
 11 C        0.0090     1.4430    -1.7570 C.ar  1 <1>  -0.1500 
 12 C        2.7490     1.3720     0.4120 C.2   1 <1>   0.5690 
 13 C       -3.8510    -1.1240    -0.3110 C.ar  1 <1>  -0.1500 
 14 C       -3.6750    -1.4610     2.0450 C.ar  1 <1>  -0.1500 
 15 C       -2.0240     3.2020    -1.1460 C.ar  1 <1>  -0.1500 
 16 C       -1.9130     2.6580     1.3020 C.3   1 <1>  -0.0960 
 17 C       -0.6010     2.1620    -2.7660 C.ar  1 <1>  -0.1500 
 18 O        3.4940     0.4530     0.6590 O.2   1 <1>  -0.5700 
 19 N        3.0810     2.3130    -0.5390 N.am  1 <1>  -0.6600 
 20 C       -4.4590    -1.3590     0.9090 C.ar  1 <1>  -0.1430 
 21 C       -1.6180     3.0460    -2.4600 C.ar  1 <1>  -0.1500 
 22 C        4.3330     2.1910    -1.3460 C.3   1 <1>   0.1400 
 23 C        2.3030     3.5420    -0.8880 C.3   1 <1>   0.1400 
 24 C       -5.9660    -1.5100     0.9990 C.3   1 <1>  -0.0970 
 25 C        5.1350     3.5030    -1.3000 C.3   1 <1>   0.1200 
 26 C        3.2130     4.7810    -0.8580 C.3   1 <1>   0.1200 
 27 O        4.3340     4.5890    -1.6740 O.3   1 <1>  -0.5600 
 28 H        1.6270     0.9620     2.1710 H     1 <1>   0.0800 
 29 H        1.2580     2.4870     1.4720 H     1 <1>   0.0800 
 30 H       -2.0170    -0.8020    -1.3470 H     1 <1>   0.1500 
 31 H       -1.7050    -1.4030     2.8520 H     1 <1>   0.1500 
 32 H        0.8050     0.7600    -1.9980 H     1 <1>   0.1500 
 33 H       -4.4430    -1.0440    -1.2060 H     1 <1>   0.1500 
 34 H       -4.1300    -1.6490     3.0020 H     1 <1>   0.1500 
 35 H       -2.8240     3.8880    -0.9250 H     1 <1>   0.1500 
 36 H       -1.1210     3.0240     1.9280 H     1 <1>   0.0800 
 37 H       -2.2530     1.7140     1.6890 H     1 <1>   0.0800 
 38 H       -2.7320     3.3530     1.3470 H     1 <1>   0.0800 
 39 H       -0.2850     2.0330    -3.7870 H     1 <1>   0.1500 
 40 H       -2.0970     3.6090    -3.2430 H     1 <1>   0.1500 
 41 H        4.0760     1.9690    -2.3670 H     1 <1>   0.0800 
 42 H        4.9500     1.3890    -0.9800 H     1 <1>   0.0800 
 43 H        1.4780     3.6930    -0.2180 H     1 <1>   0.0800 
 44 H        1.9030     3.4360    -1.8810 H     1 <1>   0.0800 
 45 H       -6.2370    -2.5410     0.8600 H     1 <1>   0.0800 
 46 H       -6.4490    -0.9190     0.2420 H     1 <1>   0.0800 
 47 H       -6.3210    -1.1840     1.9600 H     1 <1>   0.0800 
 48 H        5.9640     3.4540    -1.9830 H     1 <1>   0.0800 
 49 H        5.5140     3.6780    -0.3080 H     1 <1>   0.0800 
 50 H        3.5480     4.9850     0.1440 H     1 <1>   0.0800 
 51 H        2.6830     5.6400    -1.2280 H     1 <1>   0.0800 
@<TRIPOS>BOND
  1   1   2  2   
  2   1   3  2   
  3   1   4  am  
  4   1   5  1   
  5   4   6  1   
  6   4   7  1   
  7   5   8  ar  
  8   5   9  ar  
  9   6  10  ar  
 10   6  11  ar  
 11   7  12  1   
 12   7  28  1   
 13   7  29  1   
 14   8  13  ar  
 15   8  30  1   
 16   9  14  ar  
 17   9  31  1   
 18  10  15  ar  
 19  10  16  1   
 20  11  17  ar  
 21  11  32  1   
 22  12  18  2   
 23  12  19  am  
 24  13  20  ar  
 25  13  33  1   
 26  14  20  ar  
 27  14  34  1   
 28  15  21  ar  
 29  15  35  1   
 30  16  36  1   
 31  16  37  1   
 32  16  38  1   
 33  17  21  ar  
 34  17  39  1   
 35  19  22  1   
 36  19  23  1   
 37  20  24  1   
 38  21  40  1   
 39  22  25  1   
 40  22  41  1   
 41  22  42  1   
 42  23  26  1   
 43  23  43  1   
 44  23  44  1   
 45  24  45  1   
 46  24  46  1   
 47  24  47  1   
 48  25  27  1   
 49  25  48  1   
 50  25  49  1   
 51  26  27  1   
 52  26  50  1   
 53  26  51  1   
@<TRIPOS>SUBSTRUCTURE
  1 ****   6 GROUP 4 **** **** 0

# MOE 2024.06 (io_trps.svl 2023.06)
