@<TRIPOS>MOLECULE
NONAME
25 25 1 0 0 
SMALL
USER_CHARGES


@<TRIPOS>ATOM
  1 F        1.2350    -0.1860    -2.3420 F     1 <1>  -0.3400 
  2 C        1.1360    -1.1330    -1.4100 C.3   1 <1>   1.0810 
  3 F        1.0780    -0.4890    -0.2450 F     1 <1>  -0.3400 
  4 F       -0.0700    -1.6740    -1.5760 F     1 <1>  -0.3400 
  5 C        2.3050    -2.1620    -1.4740 C.2   1 <1>   0.5940 
  6 O        2.0920    -3.2920    -1.8630 O.2   1 <1>  -0.5700 
  7 C        3.6430    -1.7640    -1.0830 C.2   1 <1>  -0.2370 
  8 N        4.7430    -2.5780    -0.7710 N.pl3 1 <1>   0.0480 
  9 C        4.0510    -0.4550    -0.9620 C.2   1 <1>  -0.1500 
 10 C        5.7700    -1.7270    -0.4730 C.2   1 <1>  -0.3020 
 11 C        4.8370    -4.1020    -0.6490 C.3   1 <1>   0.5360 
 12 C        5.3790    -0.4350    -0.5840 C.2   1 <1>  -0.1500 
 13 O        4.2480    -4.6580    -1.8290 O.3   1 <1>  -0.6800 
 14 C        6.3030    -4.6240    -0.5330 C.3   1 <1>   1.0200 
 15 C        4.1270    -4.5500     0.6610 C.3   1 <1>   1.0200 
 16 F        6.9370    -4.2830     0.5860 F     1 <1>  -0.3400 
 17 F        7.0810    -4.1810    -1.5190 F     1 <1>  -0.3400 
 18 F        6.4050    -5.9490    -0.5960 F     1 <1>  -0.3400 
 19 F        4.5860    -3.9480     1.7530 F     1 <1>  -0.3400 
 20 F        4.1950    -5.8530     0.9120 F     1 <1>  -0.3400 
 21 F        2.8270    -4.2740     0.6550 F     1 <1>  -0.3400 
 22 H        3.4820     0.4470    -1.1260 H     1 <1>   0.1500 
 23 H        6.7630    -2.0260    -0.1860 H     1 <1>   0.1500 
 24 H        5.9710     0.4500    -0.4130 H     1 <1>   0.1500 
 25 H        3.3300    -4.2900    -1.9510 H     1 <1>   0.4000 
@<TRIPOS>BOND
  1   1   2  1   
  2   2   3  1   
  3   2   4  1   
  4   2   5  1   
  5   5   6  2   
  6   5   7  1   
  7   7   8  1   
  8   7   9  2   
  9   8  10  1   
 10   8  11  1   
 11   9  12  1   
 12   9  22  1   
 13  10  12  2   
 14  10  23  1   
 15  11  13  1   
 16  11  14  1   
 17  11  15  1   
 18  12  24  1   
 19  13  25  1   
 20  14  16  1   
 21  14  17  1   
 22  14  18  1   
 23  15  19  1   
 24  15  20  1   
 25  15  21  1   
@<TRIPOS>SUBSTRUCTURE
  1 ****   8 GROUP 4 **** **** 0

# MOE 2024.06 (io_trps.svl 2023.06)
