@<TRIPOS>MOLECULE
NONAME
35 35 1 0 0 
SMALL
USER_CHARGES


@<TRIPOS>ATOM
  1 O       -3.2040     5.2750    -0.0090 O.3   1 <1>  -0.3630 
  2 C       -4.4340     5.8470    -0.0180 C.ar  1 <1>   0.0830 
  3 C       -2.0360     6.0540    -0.0090 C.3   1 <1>   0.1200 
  4 C       -5.5200     4.9860    -0.0140 C.ar  1 <1>  -0.1500 
  5 C       -4.6500     7.2230    -0.0290 C.ar  1 <1>  -0.1500 
  6 C       -0.8530     5.0840     0.0040 C.3   1 <1>   0.3430 
  7 C       -6.8140     5.4780    -0.0240 C.ar  1 <1>  -0.1440 
  8 C       -5.9420     7.7160    -0.0370 C.ar  1 <1>  -0.1500 
  9 N        0.4580     5.8020     0.0050 N.4   1 <1>  -0.9060 
 10 C       -7.0200     6.8480    -0.0330 C.ar  1 <1>  -0.1500 
 11 C       -8.0010     4.5310    -0.0190 C.3   1 <1>  -0.0970 
 12 C        1.6000     4.8370     0.0170 C.3   1 <1>   0.3430 
 13 C        2.9540     5.5510     0.0190 C.3   1 <1>   0.1200 
 14 O        3.9260     4.5650     0.0300 O.3   1 <1>  -0.5600 
 15 C        5.2370     5.0420     0.0330 C.3   1 <1>   0.0400 
 16 H       -2.0470     6.6680     0.8750 H     1 <1>   0.0800 
 17 H       -2.0380     6.6550    -0.9010 H     1 <1>   0.0800 
 18 H       -5.3450     3.9260    -0.0040 H     1 <1>   0.1500 
 19 H       -3.8400     7.9250    -0.0320 H     1 <1>   0.1500 
 20 H       -0.9190     4.4510    -0.8670 H     1 <1>   0.0800 
 21 H       -0.9280     4.4630     0.8830 H     1 <1>   0.0800 
 22 H       -6.1160     8.7790    -0.0450 H     1 <1>   0.1500 
 23 H        0.5190     6.4100     0.8320 H     1 <1>   0.4500 
 24 H        0.5270     6.3990    -0.8300 H     1 <1>   0.4500 
 25 H       -8.0210     7.2420    -0.0380 H     1 <1>   0.1500 
 26 H       -7.7090     3.5520    -0.3530 H     1 <1>   0.0800 
 27 H       -8.7710     4.8970    -0.6740 H     1 <1>   0.0800 
 28 H       -8.4000     4.4530     0.9770 H     1 <1>   0.0800 
 29 H        1.5500     4.2020    -0.8530 H     1 <1>   0.0800 
 30 H        1.5410     4.2150     0.8960 H     1 <1>   0.0800 
 31 H        3.0750     6.1550     0.9020 H     1 <1>   0.0800 
 32 H        3.0830     6.1430    -0.8720 H     1 <1>   0.0800 
 33 H        5.9010     4.1950     0.0420 H     1 <1>   0.0800 
 34 H        5.4020     5.6360     0.9150 H     1 <1>   0.0800 
 35 H        5.4100     5.6240    -0.8560 H     1 <1>   0.0800 
@<TRIPOS>BOND
  1   1   2  1   
  2   1   3  1   
  3   2   4  ar  
  4   2   5  ar  
  5   3   6  1   
  6   3  16  1   
  7   3  17  1   
  8   4   7  ar  
  9   4  18  1   
 10   5   8  ar  
 11   5  19  1   
 12   6   9  1   
 13   6  20  1   
 14   6  21  1   
 15   7  10  ar  
 16   7  11  1   
 17   8  10  ar  
 18   8  22  1   
 19   9  12  1   
 20   9  23  1   
 21   9  24  1   
 22  10  25  1   
 23  11  26  1   
 24  11  27  1   
 25  11  28  1   
 26  12  13  1   
 27  12  29  1   
 28  12  30  1   
 29  13  14  1   
 30  13  31  1   
 31  13  32  1   
 32  14  15  1   
 33  15  33  1   
 34  15  34  1   
 35  15  35  1   
@<TRIPOS>SUBSTRUCTURE
  1 ****   3 GROUP 4 **** **** 0

# MOE 2024.06 (io_trps.svl 2023.06)
