@<TRIPOS>MOLECULE
NONAME
44 48 1 0 0 
SMALL
USER_CHARGES


@<TRIPOS>ATOM
  1 O       -0.2230    -1.4810     2.5950 O.2   1 <1>  -0.5700 
  2 C       -0.0700    -2.4600     1.8950 C.2   1 <1>   0.7060 
  3 O       -1.0580    -3.2910     1.6420 O.3   1 <1>  -0.3000 
  4 C        1.0940    -2.9440     1.2150 C.2   1 <1>   0.1850 
  5 C       -0.5430    -4.2340     0.8540 C.2   1 <1>   0.5390 
  6 N        0.6890    -4.0940     0.5700 N.2   1 <1>  -0.6210 
  7 C        2.3340    -2.3850     1.1970 C.2   1 <1>  -0.1780 
  8 C       -1.4890    -5.3550     0.3930 C.3   1 <1>   0.0610 
  9 C        3.5610    -2.7850     0.5570 C.ar  1 <1>   0.0280 
 10 C       -2.6740    -4.7610    -0.4090 C.3   1 <1>  -0.1600 
 11 C       -2.0560    -6.1150     1.6180 C.3   1 <1>  -0.1600 
 12 C       -0.7560    -6.3770    -0.5140 C.3   1 <1>  -0.1600 
 13 C        4.6120    -1.8700     0.4700 C.ar  1 <1>  -0.1500 
 14 C        3.7810    -4.0530     0.0140 C.ar  1 <1>  -0.1500 
 15 C       -3.6390    -5.8720    -0.8630 C.3   1 <1>  -0.0800 
 16 C       -3.0190    -7.2310     1.1720 C.3   1 <1>  -0.0800 
 17 C       -1.7110    -7.4950    -0.9690 C.3   1 <1>  -0.0800 
 18 C        5.8140    -2.1970    -0.1300 C.ar  1 <1>  -0.1500 
 19 C        4.9800    -4.3870    -0.5880 C.ar  1 <1>  -0.1500 
 20 C       -4.1810    -6.6080     0.3760 C.3   1 <1>  -0.1600 
 21 C       -2.8790    -6.8710    -1.7540 C.3   1 <1>  -0.1600 
 22 C       -2.2620    -8.2230     0.2700 C.3   1 <1>  -0.1600 
 23 C        6.0020    -3.4590    -0.6630 C.ar  1 <1>  -0.1500 
 24 H        2.4370    -1.4700     1.7530 H     1 <1>   0.1500 
 25 H       -3.2110    -4.0520     0.1970 H     1 <1>   0.0800 
 26 H       -2.3010    -4.2350    -1.2710 H     1 <1>   0.0800 
 27 H       -1.2470    -6.5430     2.1850 H     1 <1>   0.0800 
 28 H       -2.5810    -5.4340     2.2640 H     1 <1>   0.0800 
 29 H       -0.3540    -5.8750    -1.3770 H     1 <1>   0.0800 
 30 H        0.0720    -6.8100     0.0210 H     1 <1>   0.0800 
 31 H        4.4880    -0.8830     0.8760 H     1 <1>   0.1500 
 32 H        3.0110    -4.7990     0.0630 H     1 <1>   0.1500 
 33 H       -4.4570    -5.4410    -1.4160 H     1 <1>   0.0800 
 34 H       -3.4050    -7.7470     2.0350 H     1 <1>   0.0800 
 35 H       -1.1830    -8.1930    -1.5970 H     1 <1>   0.0800 
 36 H        6.6060    -1.4700    -0.1840 H     1 <1>   0.1500 
 37 H        5.1180    -5.3720    -0.9990 H     1 <1>   0.1500 
 38 H       -4.8660    -7.3790     0.0700 H     1 <1>   0.0800 
 39 H       -4.7250    -5.9210     1.0010 H     1 <1>   0.0800 
 40 H       -3.5490    -7.6450    -2.0860 H     1 <1>   0.0800 
 41 H       -2.5040    -6.3690    -2.6290 H     1 <1>   0.0800 
 42 H       -2.9250    -9.0130    -0.0380 H     1 <1>   0.0800 
 43 H       -1.4530    -8.6730     0.8190 H     1 <1>   0.0800 
 44 H        6.9350    -3.7170    -1.1310 H     1 <1>   0.1500 
@<TRIPOS>BOND
  1   1   2  2   
  2   2   3  1   
  3   2   4  1   
  4   3   5  1   
  5   4   6  1   
  6   4   7  2   
  7   5   6  2   
  8   5   8  1   
  9   7   9  1   
 10   7  24  1   
 11   8  10  1   
 12   8  11  1   
 13   8  12  1   
 14   9  13  ar  
 15   9  14  ar  
 16  10  15  1   
 17  10  25  1   
 18  10  26  1   
 19  11  16  1   
 20  11  27  1   
 21  11  28  1   
 22  12  17  1   
 23  12  29  1   
 24  12  30  1   
 25  13  18  ar  
 26  13  31  1   
 27  14  19  ar  
 28  14  32  1   
 29  15  20  1   
 30  15  21  1   
 31  15  33  1   
 32  16  20  1   
 33  16  22  1   
 34  16  34  1   
 35  17  21  1   
 36  17  22  1   
 37  17  35  1   
 38  18  23  ar  
 39  18  36  1   
 40  19  23  ar  
 41  19  37  1   
 42  20  38  1   
 43  20  39  1   
 44  21  40  1   
 45  21  41  1   
 46  22  42  1   
 47  22  43  1   
 48  23  44  1   
@<TRIPOS>SUBSTRUCTURE
  1 ****   6 GROUP 4 **** **** 0

# MOE 2024.06 (io_trps.svl 2023.06)
