@<TRIPOS>MOLECULE
NONAME
42 42 1 0 0 
SMALL
USER_CHARGES


@<TRIPOS>ATOM
  1 S       -0.0860    -0.0300     0.1500 S.o2  1 <1>   1.4470 
  2 O       -0.4880    -0.2120    -1.2290 O.2   1 <1>  -0.6500 
  3 O       -0.5100    -0.9940     1.1420 O.2   1 <1>  -0.6500 
  4 N       -0.6860     1.4850     0.6350 N.am  1 <1>  -0.8490 
  5 C        1.7130     0.1780     0.2500 C.ar  1 <1>  -0.0090 
  6 C       -2.1100     1.4280     0.9710 C.3   1 <1>   0.1160 
  7 C       -0.4420     2.5420    -0.3510 C.3   1 <1>   0.1160 
  8 C        2.5450    -0.2030    -0.7970 C.ar  1 <1>  -0.1500 
  9 C        2.3110     0.7220     1.3810 C.ar  1 <1>  -0.1500 
 10 C        3.9160    -0.0360    -0.7220 C.ar  1 <1>  -0.1500 
 11 C        3.6810     0.8910     1.4600 C.ar  1 <1>  -0.1500 
 12 C        4.5070     0.5200     0.4060 C.ar  1 <1>   0.1170 
 13 N        5.8990     0.6700     0.4360 N.am  1 <1>  -0.5470 
 14 C        6.6880     1.5430     1.1330 C.2   1 <1>   0.5690 
 15 O        6.2560     2.3670     1.9010 O.2   1 <1>  -0.5700 
 16 C        8.1910     1.4520     0.9330 C.3   1 <1>  -0.0990 
 17 C        8.7450     2.2280    -0.2860 C.3   1 <1>   0.0000 
 18 C       10.2730     2.0690    -0.3130 C.3   1 <1>  -0.2400 
 19 C        8.4130     3.7240    -0.1730 C.3   1 <1>  -0.2400 
 20 C        8.1780     1.6890    -1.6080 C.3   1 <1>  -0.2400 
 21 H       -2.2720     0.7210     1.7680 H     1 <1>   0.0800 
 22 H       -2.6850     1.1200     0.1130 H     1 <1>   0.0800 
 23 H       -2.4530     2.3930     1.3020 H     1 <1>   0.0800 
 24 H        0.6120     2.6160    -0.5630 H     1 <1>   0.0800 
 25 H       -0.7750     3.4900     0.0340 H     1 <1>   0.0800 
 26 H       -0.9670     2.3320    -1.2690 H     1 <1>   0.0800 
 27 H        2.1100    -0.6350    -1.6830 H     1 <1>   0.1500 
 28 H        1.6900     1.0180     2.2100 H     1 <1>   0.1500 
 29 H        4.5300    -0.3380    -1.5510 H     1 <1>   0.1500 
 30 H        4.1060     1.3140     2.3530 H     1 <1>   0.1500 
 31 H        6.4050     0.0930    -0.2310 H     1 <1>   0.3700 
 32 H        8.4640     0.4160     0.8560 H     1 <1>   0.0800 
 33 H        8.6560     1.8300     1.8260 H     1 <1>   0.0800 
 34 H       10.5460     1.0330    -0.4060 H     1 <1>   0.0800 
 35 H       10.7100     2.4560     0.5910 H     1 <1>   0.0800 
 36 H       10.6950     2.6050    -1.1440 H     1 <1>   0.0800 
 37 H        8.7910     4.1260     0.7500 H     1 <1>   0.0800 
 38 H        7.3490     3.8850    -0.1960 H     1 <1>   0.0800 
 39 H        8.8510     4.2730    -0.9870 H     1 <1>   0.0800 
 40 H        8.3660     0.6340    -1.7020 H     1 <1>   0.0800 
 41 H        8.6440     2.1860    -2.4420 H     1 <1>   0.0800 
 42 H        7.1200     1.8660    -1.6770 H     1 <1>   0.0800 
@<TRIPOS>BOND
  1   1   2  2   
  2   1   3  2   
  3   1   4  am  
  4   1   5  1   
  5   4   6  1   
  6   4   7  1   
  7   5   8  ar  
  8   5   9  ar  
  9   6  21  1   
 10   6  22  1   
 11   6  23  1   
 12   7  24  1   
 13   7  25  1   
 14   7  26  1   
 15   8  10  ar  
 16   8  27  1   
 17   9  11  ar  
 18   9  28  1   
 19  10  12  ar  
 20  10  29  1   
 21  11  12  ar  
 22  11  30  1   
 23  12  13  1   
 24  13  14  am  
 25  13  31  1   
 26  14  15  2   
 27  14  16  1   
 28  16  17  1   
 29  16  32  1   
 30  16  33  1   
 31  17  18  1   
 32  17  19  1   
 33  17  20  1   
 34  18  34  1   
 35  18  35  1   
 36  18  36  1   
 37  19  37  1   
 38  19  38  1   
 39  19  39  1   
 40  20  40  1   
 41  20  41  1   
 42  20  42  1   
@<TRIPOS>SUBSTRUCTURE
  1 ****  12 GROUP 4 **** **** 0

# MOE 2024.06 (io_trps.svl 2023.06)
