@<TRIPOS>MOLECULE
NONAME
32 34 1 0 0 
SMALL
USER_CHARGES


@<TRIPOS>ATOM
  1 CL       6.6580    -5.2230     0.6580 Cl    1 <1>  -0.1770 
  2 C        6.6120    -3.5150     0.3390 C.ar  1 <1>   0.7970 
  3 N        7.7810    -2.9830    -0.0340 N.ar  1 <1>  -0.6200 
  4 N        5.4370    -2.9420     0.4970 N.ar  1 <1>  -0.5670 
  5 C        7.7570    -1.6980    -0.2840 C.ar  1 <1>   0.4100 
  6 C        5.4590    -1.6260     0.2420 C.ar  1 <1>   0.1050 
  7 N        8.9370    -1.1480    -0.6730 N.pl3 1 <1>  -0.9000 
  8 C        6.5780    -0.9410    -0.1520 C.ar  1 <1>   0.2270 
  9 N        4.4560    -0.7240     0.3040 N.pl3 1 <1>   0.0480 
 10 N        6.2810     0.3840    -0.3340 N.2   1 <1>  -0.5650 
 11 C        5.0240     0.4620    -0.0510 C.2   1 <1>   0.0370 
 12 C        3.0640    -1.0140     0.7010 C.3   1 <1>   0.4560 
 13 O        2.2670     0.1250     0.5480 O.3   1 <1>  -0.5600 
 14 C        2.4170    -2.1040    -0.1690 C.3   1 <1>   0.2000 
 15 C        0.9430    -0.2980     0.4390 C.3   1 <1>   0.2000 
 16 O        2.3950    -3.3390     0.5010 O.3   1 <1>  -0.6800 
 17 C        1.0100    -1.5580    -0.4260 C.3   1 <1>   0.2000 
 18 C        0.0680     0.8060    -0.1630 C.3   1 <1>   0.1200 
 19 O        0.0210    -2.4570    -0.0490 O.3   1 <1>  -0.6800 
 20 O       -1.2480     0.3640    -0.2300 O.3   1 <1>  -0.6800 
 21 H        9.7940    -1.7000    -0.6100 H     1 <1>   0.4000 
 22 H        9.0320    -0.1310    -0.7470 H     1 <1>   0.4000 
 23 H        4.4470     1.3720    -0.0830 H     1 <1>   0.1500 
 24 H        3.0330    -1.2970     1.7390 H     1 <1>   0.0800 
 25 H        2.9460    -2.2240    -1.0980 H     1 <1>   0.0800 
 26 H        0.6040    -0.5360     1.4340 H     1 <1>   0.0800 
 27 H        3.3140    -3.6860     0.5950 H     1 <1>   0.4000 
 28 H        0.8760    -1.3140    -1.4660 H     1 <1>   0.0800 
 29 H        0.3890     1.0480    -1.1610 H     1 <1>   0.0800 
 30 H        0.0870     1.6890     0.4510 H     1 <1>   0.0800 
 31 H        0.4860    -3.2450     0.3260 H     1 <1>   0.4000 
 32 H       -1.2850    -0.6070    -0.3830 H     1 <1>   0.4000 
@<TRIPOS>BOND
  1   1   2  1   
  2   2   3  ar  
  3   2   4  ar  
  4   3   5  ar  
  5   4   6  ar  
  6   5   7  1   
  7   5   8  ar  
  8   6   8  ar  
  9   6   9  1   
 10   7  21  1   
 11   7  22  1   
 12   8  10  1   
 13   9  11  1   
 14   9  12  1   
 15  10  11  2   
 16  11  23  1   
 17  12  13  1   
 18  12  14  1   
 19  12  24  1   
 20  13  15  1   
 21  14  16  1   
 22  14  17  1   
 23  14  25  1   
 24  15  17  1   
 25  15  18  1   
 26  15  26  1   
 27  16  27  1   
 28  17  19  1   
 29  17  28  1   
 30  18  20  1   
 31  18  29  1   
 32  18  30  1   
 33  19  31  1   
 34  20  32  1   
@<TRIPOS>SUBSTRUCTURE
  1 ****   9 GROUP 4 **** **** 0

# MOE 2024.06 (io_trps.svl 2023.06)
