@<TRIPOS>MOLECULE
NONAME
37 39 1 0 0 
SMALL
USER_CHARGES


@<TRIPOS>ATOM
  1 O       -0.0500    -1.6030    -0.4110 O.co2 1 <1>  -0.9000 
  2 C       -1.0500    -2.2860    -0.6710 C.2   1 <1>   0.9060 
  3 O       -0.9650    -3.4340    -1.1180 O.co2 1 <1>  -0.9000 
  4 C       -2.4480    -1.6820    -0.4200 C.3   1 <1>  -0.1060 
  5 C       -2.3310    -0.2140     0.0540 C.3   1 <1>  -0.1600 
  6 C       -3.3020    -1.7060    -1.7100 C.3   1 <1>  -0.1600 
  7 C       -3.1970    -2.4780     0.6770 C.3   1 <1>  -0.1600 
  8 C       -3.7080     0.4120     0.3270 C.3   1 <1>   0.5030 
  9 C       -4.6930    -1.0990    -1.4550 C.3   1 <1>  -0.0800 
 10 C       -4.5890    -1.8750     0.9450 C.3   1 <1>  -0.0800 
 11 N       -3.5150     1.8450     0.7360 N.4   1 <1>  -0.9590 
 12 C       -4.5300     0.3570    -0.9810 C.3   1 <1>  -0.1600 
 13 C       -4.4300    -0.4150     1.4130 C.3   1 <1>  -0.1600 
 14 C       -5.4070    -1.9100    -0.3590 C.3   1 <1>  -0.1600 
 15 C       -2.6130     2.0210     1.9230 C.3   1 <1>   0.2630 
 16 C       -4.7860     2.6030     0.9600 C.3   1 <1>   0.2630 
 17 H       -1.8050     0.3480    -0.6980 H     1 <1>   0.0800 
 18 H       -1.7290    -0.2260     0.9430 H     1 <1>   0.0800 
 19 H       -3.4030    -2.7250    -2.0470 H     1 <1>   0.0800 
 20 H       -2.7930    -1.1670    -2.4900 H     1 <1>   0.0800 
 21 H       -2.6110    -2.4870     1.5800 H     1 <1>   0.0800 
 22 H       -3.2970    -3.5030     0.3590 H     1 <1>   0.0800 
 23 H       -5.2690    -1.1300    -2.3640 H     1 <1>   0.0800 
 24 H       -5.0900    -2.4530     1.7030 H     1 <1>   0.0800 
 25 H       -3.0280     2.2620    -0.0690 H     1 <1>   0.4500 
 26 H       -4.0350     0.9190    -1.7530 H     1 <1>   0.0800 
 27 H       -5.5140     0.7620    -0.8370 H     1 <1>   0.0800 
 28 H       -5.4060    -0.0120     1.6130 H     1 <1>   0.0800 
 29 H       -3.8640    -0.4140     2.3270 H     1 <1>   0.0800 
 30 H       -5.5180    -2.9310    -0.6840 H     1 <1>   0.0800 
 31 H       -6.3940    -1.5170    -0.1880 H     1 <1>   0.0800 
 32 H       -3.0190     1.5130     2.7820 H     1 <1>   0.0800 
 33 H       -2.5050     3.0660     2.1590 H     1 <1>   0.0800 
 34 H       -1.6330     1.6220     1.7170 H     1 <1>   0.0800 
 35 H       -5.3480     2.1610     1.7650 H     1 <1>   0.0800 
 36 H       -5.3920     2.6000     0.0700 H     1 <1>   0.0800 
 37 H       -4.5680     3.6280     1.2150 H     1 <1>   0.0800 
@<TRIPOS>BOND
  1   1   2  ar  
  2   2   3  ar  
  3   2   4  1   
  4   4   5  1   
  5   4   6  1   
  6   4   7  1   
  7   5   8  1   
  8   5  17  1   
  9   5  18  1   
 10   6   9  1   
 11   6  19  1   
 12   6  20  1   
 13   7  10  1   
 14   7  21  1   
 15   7  22  1   
 16   8  11  1   
 17   8  12  1   
 18   8  13  1   
 19   9  12  1   
 20   9  14  1   
 21   9  23  1   
 22  10  13  1   
 23  10  14  1   
 24  10  24  1   
 25  11  15  1   
 26  11  16  1   
 27  11  25  1   
 28  12  26  1   
 29  12  27  1   
 30  13  28  1   
 31  13  29  1   
 32  14  30  1   
 33  14  31  1   
 34  15  32  1   
 35  15  33  1   
 36  15  34  1   
 37  16  35  1   
 38  16  36  1   
 39  16  37  1   
@<TRIPOS>SUBSTRUCTURE
  1 ****   5 GROUP 4 **** **** 0

# MOE 2024.06 (io_trps.svl 2023.06)
