@<TRIPOS>MOLECULE
NONAME
43 44 1 0 0 
SMALL
USER_CHARGES


@<TRIPOS>ATOM
  1 S        1.2390     0.5750    -1.3010 S.o2  1 <1>   1.3330 
  2 O        1.1960    -0.1530    -0.0590 O.2   1 <1>  -0.6500 
  3 O        2.4940     0.7440    -1.9970 O.2   1 <1>  -0.6500 
  4 N        0.6140     2.1640    -1.0270 N.am  1 <1>  -0.6930 
  5 C        0.0500    -0.1010    -2.4390 C.3   1 <1>  -0.1350 
  6 C       -0.5760     2.3490    -0.3360 C.ar  1 <1>   0.1990 
  7 C        1.6090     3.2820    -0.9710 C.3   1 <1>   0.2570 
  8 C       -1.7070     2.7920    -1.0100 C.ar  1 <1>  -0.1500 
  9 C       -0.6640     2.1050     1.0280 C.ar  1 <1>  -0.1500 
 10 C        2.6000     3.1970     0.1960 C.2   1 <1>   0.5690 
 11 C       -2.9010     2.9770    -0.3390 C.ar  1 <1>  -0.1500 
 12 C       -1.8570     2.2900     1.7020 C.ar  1 <1>  -0.1500 
 13 O        2.4720     3.9530     1.1300 O.2   1 <1>  -0.5700 
 14 N        3.6030     2.2840     0.1460 N.am  1 <1>  -0.7300 
 15 C       -2.9840     2.7250     1.0220 C.ar  1 <1>  -0.1430 
 16 C        4.5430     1.9750     1.2300 C.3   1 <1>   0.2200 
 17 C       -4.2910     2.9290     1.7650 C.3   1 <1>  -0.0970 
 18 C        5.9230     1.7500     0.6260 C.3   1 <1>  -0.1600 
 19 C        4.1860     0.6080     1.8020 C.3   1 <1>  -0.1600 
 20 C        5.9030     0.3210     0.0730 C.3   1 <1>  -0.1600 
 21 C        4.8000    -0.4180     0.8430 C.3   1 <1>  -0.1600 
 22 H        0.3350    -1.0950    -2.7190 H     1 <1>   0.0800 
 23 H       -0.0050     0.5060    -3.3210 H     1 <1>   0.0800 
 24 H       -0.9190    -0.1370    -1.9800 H     1 <1>   0.0800 
 25 H        1.0810     4.2140    -0.8880 H     1 <1>   0.0800 
 26 H        2.1650     3.3050    -1.8900 H     1 <1>   0.0800 
 27 H       -1.6450     2.9920    -2.0630 H     1 <1>   0.1500 
 28 H        0.2090     1.7690     1.5600 H     1 <1>   0.1500 
 29 H       -3.7680     3.3220    -0.8760 H     1 <1>   0.1500 
 30 H       -1.9020     2.0950     2.7590 H     1 <1>   0.1500 
 31 H        3.6210     1.6020    -0.6250 H     1 <1>   0.3700 
 32 H        4.5350     2.7520     1.9780 H     1 <1>   0.0800 
 33 H       -4.3220     3.9200     2.1810 H     1 <1>   0.0800 
 34 H       -4.3830     2.2140     2.5630 H     1 <1>   0.0800 
 35 H       -5.1270     2.8040     1.1010 H     1 <1>   0.0800 
 36 H        6.6530     1.8110     1.4140 H     1 <1>   0.0800 
 37 H        6.1630     2.4840    -0.1230 H     1 <1>   0.0800 
 38 H        3.1230     0.4810     1.9180 H     1 <1>   0.0800 
 39 H        4.6510     0.5100     2.7670 H     1 <1>   0.0800 
 40 H        6.8600    -0.1560     0.1970 H     1 <1>   0.0800 
 41 H        5.6560     0.3380    -0.9750 H     1 <1>   0.0800 
 42 H        4.0480    -0.7670     0.1550 H     1 <1>   0.0800 
 43 H        5.1920    -1.2620     1.3840 H     1 <1>   0.0800 
@<TRIPOS>BOND
  1   1   2  2   
  2   1   3  2   
  3   1   4  am  
  4   1   5  1   
  5   4   6  1   
  6   4   7  1   
  7   5  22  1   
  8   5  23  1   
  9   5  24  1   
 10   6   8  ar  
 11   6   9  ar  
 12   7  10  1   
 13   7  25  1   
 14   7  26  1   
 15   8  11  ar  
 16   8  27  1   
 17   9  12  ar  
 18   9  28  1   
 19  10  13  2   
 20  10  14  am  
 21  11  15  ar  
 22  11  29  1   
 23  12  15  ar  
 24  12  30  1   
 25  14  16  1   
 26  14  31  1   
 27  15  17  1   
 28  16  18  1   
 29  16  19  1   
 30  16  32  1   
 31  17  33  1   
 32  17  34  1   
 33  17  35  1   
 34  18  20  1   
 35  18  36  1   
 36  18  37  1   
 37  19  21  1   
 38  19  38  1   
 39  19  39  1   
 40  20  21  1   
 41  20  40  1   
 42  20  41  1   
 43  21  42  1   
 44  21  43  1   
@<TRIPOS>SUBSTRUCTURE
  1 ****   4 GROUP 4 **** **** 0

# MOE 2024.06 (io_trps.svl 2023.06)
