@<TRIPOS>MOLECULE
NONAME
49 50 1 0 0 
SMALL
USER_CHARGES


@<TRIPOS>ATOM
  1 S        0.0330    -0.2150    -0.5890 S.o2  1 <1>   1.3330 
  2 O       -1.2950    -0.7590    -0.7150 O.2   1 <1>  -0.6500 
  3 O        1.1770    -0.9590    -1.0640 O.2   1 <1>  -0.6500 
  4 N        0.0790     1.3150    -1.3990 N.am  1 <1>  -0.6930 
  5 C        0.3430     0.2500     1.1010 C.3   1 <1>  -0.1350 
  6 C       -0.7330     2.3910    -1.0390 C.ar  1 <1>   0.1990 
  7 C        1.0380     1.4680    -2.5400 C.3   1 <1>   0.2570 
  8 C       -0.1770     3.6400    -0.7800 C.ar  1 <1>  -0.1500 
  9 C       -2.1120     2.2500    -0.9210 C.ar  1 <1>  -0.1500 
 10 C        2.4580     1.8370    -2.1040 C.2   1 <1>   0.5690 
 11 C       -0.9690     4.7080    -0.4000 C.ar  1 <1>  -0.1500 
 12 C       -2.9060     3.3160    -0.5390 C.ar  1 <1>  -0.1500 
 13 O        2.8820     2.9300    -2.3940 O.2   1 <1>  -0.5700 
 14 N        3.1880     0.9300    -1.3860 N.am  1 <1>  -0.5470 
 15 C       -2.3390     4.5510    -0.2730 C.ar  1 <1>  -0.1430 
 16 C        4.4550     1.0910    -0.8140 C.ar  1 <1>   0.1170 
 17 C       -3.2100     5.7230     0.1430 C.3   1 <1>  -0.0970 
 18 C        4.7150     1.9680     0.2470 C.ar  1 <1>  -0.1430 
 19 C        5.4890     0.3170    -1.3270 C.ar  1 <1>  -0.1500 
 20 C        6.0110     2.0530     0.7420 C.ar  1 <1>  -0.1500 
 21 C        3.6210     2.8350     0.8860 C.3   1 <1>   0.0630 
 22 C        6.7700     0.4080    -0.8190 C.ar  1 <1>  -0.1500 
 23 C        7.0320     1.2820     0.2180 C.ar  1 <1>  -0.1500 
 24 C        3.8920     4.3230     0.6450 C.3   1 <1>  -0.2400 
 25 C        3.4840     2.5460     2.3860 C.3   1 <1>  -0.2400 
 26 H        0.3610    -0.6220     1.7240 H     1 <1>   0.0800 
 27 H       -0.4280     0.9070     1.4520 H     1 <1>   0.0800 
 28 H        1.2870     0.7500     1.1810 H     1 <1>   0.0800 
 29 H        0.6780     2.2410    -3.1950 H     1 <1>   0.0800 
 30 H        1.0700     0.5560    -3.1080 H     1 <1>   0.0800 
 31 H        0.8840     3.7860    -0.8710 H     1 <1>   0.1500 
 32 H       -2.5740     1.3050    -1.1360 H     1 <1>   0.1500 
 33 H       -0.5140     5.6640    -0.2060 H     1 <1>   0.1500 
 34 H       -3.9700     3.1800    -0.4550 H     1 <1>   0.1500 
 35 H        2.7650    -0.0040    -1.2840 H     1 <1>   0.3700 
 36 H       -3.5240     6.2690    -0.7280 H     1 <1>   0.0800 
 37 H       -2.6650     6.3850     0.7910 H     1 <1>   0.0800 
 38 H       -4.0810     5.3760     0.6690 H     1 <1>   0.0800 
 39 H        5.2880    -0.3600    -2.1370 H     1 <1>   0.1500 
 40 H        6.2380     2.7280     1.5470 H     1 <1>   0.1500 
 41 H        2.6700     2.6120     0.4430 H     1 <1>   0.0800 
 42 H        7.5610    -0.1960    -1.2300 H     1 <1>   0.1500 
 43 H        8.0290     1.3630     0.6160 H     1 <1>   0.1500 
 44 H        4.8060     4.6310     1.1200 H     1 <1>   0.0800 
 45 H        3.0840     4.9180     1.0290 H     1 <1>   0.0800 
 46 H        3.9790     4.5070    -0.4120 H     1 <1>   0.0800 
 47 H        4.3660     2.8480     2.9200 H     1 <1>   0.0800 
 48 H        3.3330     1.4930     2.5430 H     1 <1>   0.0800 
 49 H        2.6420     3.0780     2.7900 H     1 <1>   0.0800 
@<TRIPOS>BOND
  1   1   2  2   
  2   1   3  2   
  3   1   4  am  
  4   1   5  1   
  5   4   6  1   
  6   4   7  1   
  7   5  26  1   
  8   5  27  1   
  9   5  28  1   
 10   6   8  ar  
 11   6   9  ar  
 12   7  10  1   
 13   7  29  1   
 14   7  30  1   
 15   8  11  ar  
 16   8  31  1   
 17   9  12  ar  
 18   9  32  1   
 19  10  13  2   
 20  10  14  am  
 21  11  15  ar  
 22  11  33  1   
 23  12  15  ar  
 24  12  34  1   
 25  14  16  1   
 26  14  35  1   
 27  15  17  1   
 28  16  18  ar  
 29  16  19  ar  
 30  17  36  1   
 31  17  37  1   
 32  17  38  1   
 33  18  20  ar  
 34  18  21  1   
 35  19  22  ar  
 36  19  39  1   
 37  20  23  ar  
 38  20  40  1   
 39  21  24  1   
 40  21  25  1   
 41  21  41  1   
 42  22  23  ar  
 43  22  42  1   
 44  23  43  1   
 45  24  44  1   
 46  24  45  1   
 47  24  46  1   
 48  25  47  1   
 49  25  48  1   
 50  25  49  1   
@<TRIPOS>SUBSTRUCTURE
  1 ****  10 GROUP 4 **** **** 0

# MOE 2024.06 (io_trps.svl 2023.06)
