@<TRIPOS>MOLECULE
NONAME
50 53 1 0 0 
SMALL
USER_CHARGES


@<TRIPOS>ATOM
  1 O       -1.3860    -0.1940     0.3200 O.2   1 <1>  -0.5700 
  2 C       -1.8760     0.7870     0.8210 C.2   1 <1>   0.5690 
  3 N       -1.2680     2.0110     0.8540 N.am  1 <1>  -0.5470 
  4 C       -3.2310     0.6540     1.4940 C.3   1 <1>  -0.0990 
  5 C       -0.0560     2.4600     0.3030 C.ar  1 <1>   0.1170 
  6 C       -4.4440     1.0020     0.6010 C.3   1 <1>   0.0000 
  7 C        0.5940     1.8090    -0.7400 C.ar  1 <1>  -0.1500 
  8 C        0.5130     3.6230     0.8090 C.ar  1 <1>  -0.1500 
  9 C       -4.4150     2.4790     0.1360 C.3   1 <1>  -0.1600 
 10 C       -4.4920     0.0960    -0.6530 C.3   1 <1>  -0.1600 
 11 C       -5.7410     0.7750     1.4140 C.3   1 <1>  -0.1600 
 12 C        1.7770     2.3040    -1.2570 C.ar  1 <1>  -0.1500 
 13 C        1.6970     4.1240     0.2960 C.ar  1 <1>  -0.1500 
 14 C       -5.6550     2.8090    -0.7160 C.3   1 <1>  -0.0800 
 15 C       -5.7310     0.4150    -1.5110 C.3   1 <1>  -0.0800 
 16 C       -6.9870     1.0960     0.5680 C.3   1 <1>  -0.0800 
 17 C        2.3400     3.4620    -0.7460 C.ar  1 <1>   0.0830 
 18 C       -5.6760     1.8890    -1.9510 C.3   1 <1>  -0.1600 
 19 C       -6.9260     2.5670     0.1180 C.3   1 <1>  -0.1600 
 20 C       -7.0020     0.1840    -0.6730 C.3   1 <1>  -0.1600 
 21 O        3.5030     3.8760    -1.3180 O.3   1 <1>  -0.3630 
 22 C        4.2450     4.9760    -0.8360 C.3   1 <1>   0.1200 
 23 C        5.0470     4.5490     0.3960 C.3   1 <1>  -0.2400 
 24 H       -1.7860     2.7240     1.3610 H     1 <1>   0.3700 
 25 H       -3.2410     1.2710     2.3730 H     1 <1>   0.0800 
 26 H       -3.3250    -0.3640     1.8260 H     1 <1>   0.0800 
 27 H        0.1780     0.9110    -1.1600 H     1 <1>   0.1500 
 28 H        0.0310     4.1440     1.6150 H     1 <1>   0.1500 
 29 H       -3.5380     2.6660    -0.4590 H     1 <1>   0.0800 
 30 H       -4.3850     3.1340     0.9880 H     1 <1>   0.0800 
 31 H       -4.5160    -0.9380    -0.3570 H     1 <1>   0.0800 
 32 H       -3.6080     0.2390    -1.2500 H     1 <1>   0.0800 
 33 H       -5.7930    -0.2490     1.7420 H     1 <1>   0.0800 
 34 H       -5.7400     1.3980     2.2910 H     1 <1>   0.0800 
 35 H        2.2730     1.7930    -2.0620 H     1 <1>   0.1500 
 36 H        2.1010     5.0240     0.7180 H     1 <1>   0.1500 
 37 H       -5.6180     3.8370    -1.0310 H     1 <1>   0.0800 
 38 H       -5.7460    -0.2240    -2.3770 H     1 <1>   0.0800 
 39 H       -7.8770     0.9300     1.1510 H     1 <1>   0.0800 
 40 H       -6.5310     2.1180    -2.5620 H     1 <1>   0.0800 
 41 H       -4.7950     2.0570    -2.5470 H     1 <1>   0.0800 
 42 H       -7.7970     2.8030    -0.4690 H     1 <1>   0.0800 
 43 H       -6.9270     3.2120     0.9780 H     1 <1>   0.0800 
 44 H       -7.0550    -0.8470    -0.3680 H     1 <1>   0.0800 
 45 H       -7.8740     0.3930    -1.2680 H     1 <1>   0.0800 
 46 H        3.5810     5.7960    -0.6340 H     1 <1>   0.0800 
 47 H        4.9180     5.2700    -1.6230 H     1 <1>   0.0800 
 48 H        4.3940     4.2420     1.1920 H     1 <1>   0.0800 
 49 H        5.6430     5.3730     0.7420 H     1 <1>   0.0800 
 50 H        5.7030     3.7360     0.1410 H     1 <1>   0.0800 
@<TRIPOS>BOND
  1   1   2  2   
  2   2   3  am  
  3   2   4  1   
  4   3   5  1   
  5   3  24  1   
  6   4   6  1   
  7   4  25  1   
  8   4  26  1   
  9   5   7  ar  
 10   5   8  ar  
 11   6   9  1   
 12   6  10  1   
 13   6  11  1   
 14   7  12  ar  
 15   7  27  1   
 16   8  13  ar  
 17   8  28  1   
 18   9  14  1   
 19   9  29  1   
 20   9  30  1   
 21  10  15  1   
 22  10  31  1   
 23  10  32  1   
 24  11  16  1   
 25  11  33  1   
 26  11  34  1   
 27  12  17  ar  
 28  12  35  1   
 29  13  17  ar  
 30  13  36  1   
 31  14  18  1   
 32  14  19  1   
 33  14  37  1   
 34  15  18  1   
 35  15  20  1   
 36  15  38  1   
 37  16  19  1   
 38  16  20  1   
 39  16  39  1   
 40  17  21  1   
 41  18  40  1   
 42  18  41  1   
 43  19  42  1   
 44  19  43  1   
 45  20  44  1   
 46  20  45  1   
 47  21  22  1   
 48  22  23  1   
 49  22  46  1   
 50  22  47  1   
 51  23  48  1   
 52  23  49  1   
 53  23  50  1   
@<TRIPOS>SUBSTRUCTURE
  1 ****   3 GROUP 4 **** **** 0

# MOE 2024.06 (io_trps.svl 2023.06)
