@<TRIPOS>MOLECULE
NONAME
54 57 1 0 0 
SMALL
USER_CHARGES


@<TRIPOS>ATOM
  1 O        2.8930    -4.4840     1.0160 O.co2 1 <1>  -0.9000 
  2 C        2.0700    -3.5690     0.9430 C.2   1 <1>   0.9060 
  3 O        0.8850    -3.7890     1.2190 O.co2 1 <1>  -0.9000 
  4 C        2.4300    -2.1990     0.3850 C.3   1 <1>  -0.1860 
  5 C        3.4440    -2.1390    -0.9690 C.3   1 <1>  -0.0190 
  6 C        3.0640    -1.2210     1.5380 C.3   1 <1>  -0.0800 
  7 C        3.7670    -3.4860    -1.6570 C.2   1 <1>   0.5690 
  8 C        4.7490    -1.2250    -0.5400 C.3   1 <1>  -0.0800 
  9 C        3.8900    -1.2070     0.4880 C.3   1 <1>  -0.1600 
 10 C        4.3470    -0.2870     1.9230 C.3   1 <1>  -0.1600 
 11 O        4.9210    -3.8450    -1.7290 O.2   1 <1>  -0.5700 
 12 N        2.7890    -4.2640    -2.2420 N.am  1 <1>  -0.6600 
 13 C        5.3350    -0.1940     0.5810 C.3   1 <1>  -0.1600 
 14 C        3.0540    -5.7110    -2.4440 C.3   1 <1>   0.1400 
 15 C        1.3390    -3.9470    -2.3640 C.3   1 <1>   0.1400 
 16 C        2.4230    -6.4590    -1.2700 C.3   1 <1>   0.3430 
 17 C        0.4240    -4.8680    -1.5170 C.3   1 <1>   0.3430 
 18 N        0.9310    -6.2530    -1.1680 N.4   1 <1>  -0.9590 
 19 C        0.5670    -6.5230     0.2550 C.3   1 <1>   0.4860 
 20 C        0.6850    -8.0190     0.5040 C.ar  1 <1>  -0.1440 
 21 C        1.6700    -8.5350     1.3420 C.ar  1 <1>  -0.1440 
 22 C       -0.2070    -8.8820    -0.1210 C.ar  1 <1>  -0.1500 
 23 C        1.7630    -9.9070     1.5180 C.ar  1 <1>  -0.1500 
 24 C        2.6500    -7.6320     2.0870 C.3   1 <1>  -0.0970 
 25 C       -0.1070   -10.2490     0.0640 C.ar  1 <1>  -0.1500 
 26 C        0.8820   -10.7620     0.8810 C.ar  1 <1>  -0.1500 
 27 H        1.4840    -1.7790     0.0840 H     1 <1>   0.0800 
 28 H        2.9280    -1.5770    -1.7310 H     1 <1>   0.0800 
 29 H        2.2620    -0.5060     1.6500 H     1 <1>   0.0800 
 30 H        5.5680    -1.9280    -0.5720 H     1 <1>   0.0800 
 31 H        4.4480    -2.1380     0.9410 H     1 <1>   0.0800 
 32 H        3.3160    -0.2870     0.0330 H     1 <1>   0.0800 
 33 H        4.8850    -0.7310     2.7480 H     1 <1>   0.0800 
 34 H        4.0340     0.6980     2.2310 H     1 <1>   0.0800 
 35 H        5.3410     0.8130     0.1920 H     1 <1>   0.0800 
 36 H        6.3490    -0.4470     0.8440 H     1 <1>   0.0800 
 37 H        4.1110    -5.9140    -2.4620 H     1 <1>   0.0800 
 38 H        2.6370    -6.0430    -3.3770 H     1 <1>   0.0800 
 39 H        1.0620    -4.0470    -3.3980 H     1 <1>   0.0800 
 40 H        1.1490    -2.9260    -2.0880 H     1 <1>   0.0800 
 41 H        2.9010    -6.1050    -0.3740 H     1 <1>   0.0800 
 42 H        2.6380    -7.5110    -1.3490 H     1 <1>   0.0800 
 43 H       -0.5160    -4.9630    -2.0310 H     1 <1>   0.0800 
 44 H        0.1890    -4.3400    -0.6170 H     1 <1>   0.0800 
 45 H        0.4690    -6.9610    -1.7380 H     1 <1>   0.4500 
 46 H       -0.4410    -6.2000     0.4550 H     1 <1>   0.0800 
 47 H        1.2200    -5.9790     0.9150 H     1 <1>   0.0800 
 48 H       -0.9900    -8.5010    -0.7520 H     1 <1>   0.1500 
 49 H        2.5230   -10.3200     2.1580 H     1 <1>   0.1500 
 50 H        2.1300    -6.8370     2.5930 H     1 <1>   0.0800 
 51 H        3.3590    -7.1930     1.4090 H     1 <1>   0.0800 
 52 H        3.1980    -8.1850     2.8280 H     1 <1>   0.0800 
 53 H       -0.7990   -10.9160    -0.4230 H     1 <1>   0.1500 
 54 H        0.9640   -11.8250     1.0270 H     1 <1>   0.1500 
@<TRIPOS>BOND
  1   1   2  ar  
  2   2   3  ar  
  3   2   4  1   
  4   4   5  1   
  5   4   6  1   
  6   4  27  1   
  7   5   7  1   
  8   5   8  1   
  9   5  28  1   
 10   6   9  1   
 11   6  10  1   
 12   6  29  1   
 13   7  11  2   
 14   7  12  am  
 15   8   9  1   
 16   8  13  1   
 17   8  30  1   
 18   9  31  1   
 19   9  32  1   
 20  10  13  1   
 21  10  33  1   
 22  10  34  1   
 23  12  14  1   
 24  12  15  1   
 25  13  35  1   
 26  13  36  1   
 27  14  16  1   
 28  14  37  1   
 29  14  38  1   
 30  15  17  1   
 31  15  39  1   
 32  15  40  1   
 33  16  18  1   
 34  16  41  1   
 35  16  42  1   
 36  17  18  1   
 37  17  43  1   
 38  17  44  1   
 39  18  19  1   
 40  18  45  1   
 41  19  20  1   
 42  19  46  1   
 43  19  47  1   
 44  20  21  ar  
 45  20  22  ar  
 46  21  23  ar  
 47  21  24  1   
 48  22  25  ar  
 49  22  48  1   
 50  23  26  ar  
 51  23  49  1   
 52  24  50  1   
 53  24  51  1   
 54  24  52  1   
 55  25  26  ar  
 56  25  53  1   
 57  26  54  1   
@<TRIPOS>SUBSTRUCTURE
  1 ****   1 GROUP 4 **** **** 0

# MOE 2024.06 (io_trps.svl 2023.06)
