@<TRIPOS>MOLECULE
NONAME
43 43 1 0 0 
SMALL
USER_CHARGES


@<TRIPOS>ATOM
  1 O       -1.6440     2.9050     1.2830 O.2   1 <1>  -0.5700 
  2 C       -0.7210     2.9920     0.5060 C.2   1 <1>   0.9310 
  3 O        0.2160     2.0450     0.5440 O.3   1 <1>  -0.4300 
  4 N       -0.6180     3.9660    -0.4370 N.2   1 <1>  -0.6610 
  5 C        1.2690     1.9670    -0.3900 C.3   1 <1>   0.1200 
  6 C       -1.0970     5.1320    -0.2280 C.2   1 <1>   0.6600 
  7 C        2.1270     0.7580    -0.0320 C.3   1 <1>  -0.2400 
  8 O       -1.2860     5.7250     0.9580 O.3   1 <1>  -0.4300 
  9 N       -1.3700     5.9040    -1.3060 N.am  1 <1>  -0.4900 
 10 C       -0.5370     5.4910     2.1400 C.3   1 <1>   0.0400 
 11 C       -1.9130     7.1380    -1.4720 C.2   1 <1>   0.6900 
 12 O       -2.0020     7.5460    -2.6080 O.2   1 <1>  -0.5700 
 13 N       -2.3530     7.8630    -0.3990 N.am  1 <1>  -0.5470 
 14 C       -2.9290     9.1320    -0.2930 C.ar  1 <1>   0.1170 
 15 C       -2.8070    10.1150    -1.2710 C.ar  1 <1>  -0.1500 
 16 C       -3.6490     9.4460     0.8540 C.ar  1 <1>  -0.1500 
 17 C       -3.3960    11.3550    -1.1120 C.ar  1 <1>  -0.1500 
 18 C       -4.2370    10.6870     1.0110 C.ar  1 <1>  -0.1500 
 19 C       -4.1390    11.6710     0.0250 C.ar  1 <1>   0.0860 
 20 C       -4.7640    12.9700     0.1690 C.2   1 <1>   0.6340 
 21 O       -4.1680    14.0050    -0.0210 O.2   1 <1>  -0.5700 
 22 O       -6.0550    13.0690     0.5000 O.3   1 <1>  -0.4300 
 23 C       -7.0070    12.0920     0.1460 C.3   1 <1>   0.1200 
 24 C       -8.3920    12.6900     0.3690 C.3   1 <1>  -0.2400 
 25 H        0.8470     1.8590    -1.3750 H     1 <1>   0.0800 
 26 H        1.8470     2.8750    -0.3360 H     1 <1>   0.0800 
 27 H        1.5380    -0.1410    -0.0790 H     1 <1>   0.0800 
 28 H        2.5330     0.8700     0.9570 H     1 <1>   0.0800 
 29 H        2.9410     0.6690    -0.7290 H     1 <1>   0.0800 
 30 H       -1.1530     5.4650    -2.1930 H     1 <1>   0.3700 
 31 H       -1.0550     4.7720     2.7500 H     1 <1>   0.0800 
 32 H       -0.4550     6.4190     2.6760 H     1 <1>   0.0800 
 33 H        0.4450     5.1340     1.8810 H     1 <1>   0.0800 
 34 H       -2.2640     7.3400     0.4740 H     1 <1>   0.3700 
 35 H       -2.2420     9.9160    -2.1640 H     1 <1>   0.1500 
 36 H       -3.7490     8.7100     1.6320 H     1 <1>   0.1500 
 37 H       -3.2810    12.1000    -1.8810 H     1 <1>   0.1500 
 38 H       -4.7810    10.9060     1.9140 H     1 <1>   0.1500 
 39 H       -6.8670    11.8320    -0.8900 H     1 <1>   0.0800 
 40 H       -6.8680    11.2250     0.7670 H     1 <1>   0.0800 
 41 H       -8.5200    13.5630    -0.2460 H     1 <1>   0.0800 
 42 H       -8.5190    12.9580     1.4020 H     1 <1>   0.0800 
 43 H       -9.1470    11.9710     0.1050 H     1 <1>   0.0800 
@<TRIPOS>BOND
  1   1   2  2   
  2   2   3  1   
  3   2   4  1   
  4   3   5  1   
  5   4   6  2   
  6   5   7  1   
  7   5  25  1   
  8   5  26  1   
  9   6   8  1   
 10   6   9  1   
 11   7  27  1   
 12   7  28  1   
 13   7  29  1   
 14   8  10  1   
 15   9  11  am  
 16   9  30  1   
 17  10  31  1   
 18  10  32  1   
 19  10  33  1   
 20  11  12  2   
 21  11  13  am  
 22  13  14  1   
 23  13  34  1   
 24  14  15  ar  
 25  14  16  ar  
 26  15  17  ar  
 27  15  35  1   
 28  16  18  ar  
 29  16  36  1   
 30  17  19  ar  
 31  17  37  1   
 32  18  19  ar  
 33  18  38  1   
 34  19  20  1   
 35  20  21  2   
 36  20  22  1   
 37  22  23  1   
 38  23  24  1   
 39  23  39  1   
 40  23  40  1   
 41  24  41  1   
 42  24  42  1   
 43  24  43  1   
@<TRIPOS>SUBSTRUCTURE
  1 ****  13 GROUP 4 **** **** 0

# MOE 2024.06 (io_trps.svl 2023.06)
