@<TRIPOS>MOLECULE
NONAME
46 48 1 0 0 
SMALL
USER_CHARGES


@<TRIPOS>ATOM
  1 F       -0.7440     3.2280     1.9380 F     1 <1>  -0.1900 
  2 C        0.1420     2.8190     1.0600 C.ar  1 <1>   0.1900 
  3 C       -0.2760     2.4380    -0.2210 C.ar  1 <1>   0.1000 
  4 C        1.4650     2.7860     1.4580 C.ar  1 <1>  -0.1500 
  5 N       -1.6050     2.4510    -0.6650 N.pl3 1 <1>  -0.8380 
  6 C        0.7120     2.0150    -1.1010 C.ar  1 <1>  -0.1500 
  7 C        2.4250     2.3590     0.5550 C.ar  1 <1>  -0.1500 
  8 C       -2.2570     3.8030    -0.7510 C.3   1 <1>   0.2090 
  9 C       -2.4700     1.3670    -0.1050 C.3   1 <1>   0.2090 
 10 C        2.0450     1.9750    -0.7220 C.ar  1 <1>  -0.1500 
 11 C       -3.5380     3.9210     0.0960 C.3   1 <1>   0.1400 
 12 C       -3.9330     1.5030    -0.5620 C.3   1 <1>   0.1400 
 13 N       -4.5240     2.8360    -0.2140 N.am  1 <1>  -0.6600 
 14 C       -5.8620     3.0430    -0.0040 C.2   1 <1>   0.6900 
 15 O       -6.2410     4.0380     0.5840 O.2   1 <1>  -0.5700 
 16 N       -6.7490     2.1260    -0.4940 N.am  1 <1>  -0.5470 
 17 C       -8.1340     1.9910    -0.3280 C.ar  1 <1>   0.1170 
 18 C       -8.8590     1.2870    -1.2820 C.ar  1 <1>  -0.1500 
 19 C       -8.8190     2.5140     0.7640 C.ar  1 <1>  -0.1500 
 20 C      -10.2260     1.1130    -1.1540 C.ar  1 <1>  -0.1500 
 21 C      -10.1860     2.3420     0.8940 C.ar  1 <1>  -0.1500 
 22 C      -10.8990     1.6410    -0.0640 C.ar  1 <1>  -0.1430 
 23 C      -12.4010     1.4530     0.0790 C.3   1 <1>  -0.0170 
 24 C      -12.7120     0.1670     0.8470 C.3   1 <1>  -0.2400 
 25 H        1.7360     3.0890     2.4530 H     1 <1>   0.1500 
 26 H        0.4220     1.7180    -2.0920 H     1 <1>   0.1500 
 27 H        3.4610     2.3250     0.8440 H     1 <1>   0.1500 
 28 H       -2.5070     3.9970    -1.7800 H     1 <1>   0.0800 
 29 H       -1.5620     4.5630    -0.4400 H     1 <1>   0.0800 
 30 H       -2.4320     1.3920     0.9710 H     1 <1>   0.0800 
 31 H       -2.0840     0.4150    -0.4270 H     1 <1>   0.0800 
 32 H        2.7900     1.6430    -1.4250 H     1 <1>   0.1500 
 33 H       -3.9890     4.8820    -0.0850 H     1 <1>   0.0800 
 34 H       -3.2790     3.8730     1.1390 H     1 <1>   0.0800 
 35 H       -4.5110     0.7220    -0.1000 H     1 <1>   0.0800 
 36 H       -3.9700     1.3710    -1.6290 H     1 <1>   0.0800 
 37 H       -6.3330     1.5160    -1.1850 H     1 <1>   0.3700 
 38 H       -8.3550     0.8730    -2.1350 H     1 <1>   0.1500 
 39 H       -8.2840     3.0580     1.5210 H     1 <1>   0.1500 
 40 H      -10.7660     0.5640    -1.9050 H     1 <1>   0.1500 
 41 H      -10.6910     2.7570     1.7480 H     1 <1>   0.1500 
 42 H      -12.8560     1.4120    -0.8960 H     1 <1>   0.0800 
 43 H      -12.8220     2.2960     0.5990 H     1 <1>   0.0800 
 44 H      -12.3090    -0.6830     0.3250 H     1 <1>   0.0800 
 45 H      -13.7750     0.0420     0.9460 H     1 <1>   0.0800 
 46 H      -12.2730     0.2080     1.8280 H     1 <1>   0.0800 
@<TRIPOS>BOND
  1   1   2  1   
  2   2   3  ar  
  3   2   4  ar  
  4   3   5  1   
  5   3   6  ar  
  6   4   7  ar  
  7   4  25  1   
  8   5   8  1   
  9   5   9  1   
 10   6  10  ar  
 11   6  26  1   
 12   7  10  ar  
 13   7  27  1   
 14   8  11  1   
 15   8  28  1   
 16   8  29  1   
 17   9  12  1   
 18   9  30  1   
 19   9  31  1   
 20  10  32  1   
 21  11  13  1   
 22  11  33  1   
 23  11  34  1   
 24  12  13  1   
 25  12  35  1   
 26  12  36  1   
 27  13  14  am  
 28  14  15  2   
 29  14  16  am  
 30  16  17  1   
 31  16  37  1   
 32  17  18  ar  
 33  17  19  ar  
 34  18  20  ar  
 35  18  38  1   
 36  19  21  ar  
 37  19  39  1   
 38  20  22  ar  
 39  20  40  1   
 40  21  22  ar  
 41  21  41  1   
 42  22  23  1   
 43  23  24  1   
 44  23  42  1   
 45  23  43  1   
 46  24  44  1   
 47  24  45  1   
 48  24  46  1   
@<TRIPOS>SUBSTRUCTURE
  1 ****  13 GROUP 4 **** **** 0

# MOE 2024.06 (io_trps.svl 2023.06)
