@<TRIPOS>MOLECULE
NONAME
37 37 1 0 0 
SMALL
USER_CHARGES


@<TRIPOS>ATOM
  1 O        0.9340    -0.8570    -0.1290 O.3   1 <1>  -0.6800 
  2 C        2.0500    -0.1450    -0.5280 C.3   1 <1>   0.1200 
  3 C        2.7160     0.4150     0.7370 C.3   1 <1>   0.3430 
  4 N        3.9880     1.1490     0.4310 N.4   1 <1>  -0.9590 
  5 C        5.0880     0.6730     1.3140 C.3   1 <1>   0.4860 
  6 C        3.8530     2.6340     0.5160 C.3   1 <1>   0.3430 
  7 C        6.4040     1.1450     0.7250 C.ar  1 <1>  -0.1430 
  8 C        2.9350     3.1710    -0.5830 C.3   1 <1>  -0.1600 
  9 C        6.9680     0.5350    -0.3940 C.ar  1 <1>  -0.1430 
 10 C        7.0500     2.2190     1.3230 C.ar  1 <1>  -0.1500 
 11 C        2.9530     4.7040    -0.6060 C.3   1 <1>  -0.2400 
 12 C        8.1570     1.0320    -0.9060 C.ar  1 <1>  -0.1500 
 13 C        6.3420    -0.6710    -1.0850 C.3   1 <1>  -0.0970 
 14 C        8.2360     2.7020     0.8040 C.ar  1 <1>  -0.1500 
 15 C        8.7880     2.1090    -0.3140 C.ar  1 <1>  -0.1500 
 16 H        0.4450    -1.2300    -0.8950 H     1 <1>   0.4000 
 17 H        1.7260     0.6410    -1.1870 H     1 <1>   0.0800 
 18 H        2.7070    -0.8230    -1.0440 H     1 <1>   0.0800 
 19 H        2.9230    -0.4150     1.3920 H     1 <1>   0.0800 
 20 H        2.0240     1.0720     1.2370 H     1 <1>   0.0800 
 21 H        4.3070     0.9310    -0.5200 H     1 <1>   0.4500 
 22 H        5.0900    -0.4030     1.3640 H     1 <1>   0.0800 
 23 H        4.9650     1.0600     2.3120 H     1 <1>   0.0800 
 24 H        4.8240     3.0900     0.3930 H     1 <1>   0.0800 
 25 H        3.4710     2.9200     1.4820 H     1 <1>   0.0800 
 26 H        1.9220     2.8500    -0.4140 H     1 <1>   0.0800 
 27 H        3.2640     2.8130    -1.5430 H     1 <1>   0.0800 
 28 H        6.6430     2.6950     2.1990 H     1 <1>   0.1500 
 29 H        2.6090     5.1060     0.3320 H     1 <1>   0.0800 
 30 H        2.3040     5.0680    -1.3850 H     1 <1>   0.0800 
 31 H        3.9460     5.0720    -0.7980 H     1 <1>   0.0800 
 32 H        8.6100     0.5800    -1.7730 H     1 <1>   0.1500 
 33 H        5.9730    -1.3820    -0.3690 H     1 <1>   0.0800 
 34 H        7.0760    -1.1780    -1.6880 H     1 <1>   0.0800 
 35 H        5.5420    -0.3610    -1.7320 H     1 <1>   0.0800 
 36 H        8.7350     3.5360     1.2690 H     1 <1>   0.1500 
 37 H        9.7130     2.4830    -0.7220 H     1 <1>   0.1500 
@<TRIPOS>BOND
  1   1   2  1   
  2   1  16  1   
  3   2   3  1   
  4   2  17  1   
  5   2  18  1   
  6   3   4  1   
  7   3  19  1   
  8   3  20  1   
  9   4   5  1   
 10   4   6  1   
 11   4  21  1   
 12   5   7  1   
 13   5  22  1   
 14   5  23  1   
 15   6   8  1   
 16   6  24  1   
 17   6  25  1   
 18   7   9  ar  
 19   7  10  ar  
 20   8  11  1   
 21   8  26  1   
 22   8  27  1   
 23   9  12  ar  
 24   9  13  1   
 25  10  14  ar  
 26  10  28  1   
 27  11  29  1   
 28  11  30  1   
 29  11  31  1   
 30  12  15  ar  
 31  12  32  1   
 32  13  33  1   
 33  13  34  1   
 34  13  35  1   
 35  14  15  ar  
 36  14  36  1   
 37  15  37  1   
@<TRIPOS>SUBSTRUCTURE
  1 ****   4 GROUP 4 **** **** 0

# MOE 2024.06 (io_trps.svl 2023.06)
