@<TRIPOS>MOLECULE
NONAME
38 39 1 0 0 
SMALL
USER_CHARGES


@<TRIPOS>ATOM
  1 S        0.2480    -1.6990     0.5640 S.3   1 <1>  -0.2860 
  2 C       -1.4440    -1.1170     0.4120 C.2   1 <1>   0.2420 
  3 C        1.2140    -0.1120     0.6750 C.3   1 <1>   0.1310 
  4 N       -1.7630     0.1260     0.3760 N.2   1 <1>  -0.3380 
  5 N       -2.4880    -1.9410     0.3220 N.pl3 1 <1>   0.0480 
  6 C        2.7120    -0.3710     0.6880 C.2   1 <1>   0.5690 
  7 N       -3.0930     0.1530     0.2530 N.2   1 <1>  -0.3380 
  8 C       -3.5080    -1.0730     0.2210 C.2   1 <1>   0.0060 
  9 C       -2.4970    -3.4200     0.3350 C.3   1 <1>   0.0960 
 10 O        3.4290     0.4840     1.1460 O.2   1 <1>  -0.5700 
 11 N        3.1800    -1.5520     0.1770 N.am  1 <1>  -0.5470 
 12 C       -4.9650    -1.5060     0.0890 C.3   1 <1>   0.0200 
 13 C       -2.3270    -3.9760    -1.0820 C.3   1 <1>  -0.2400 
 14 C        4.4770    -2.0870     0.0270 C.ar  1 <1>   0.1170 
 15 C       -5.9290    -0.3330    -0.1310 C.3   1 <1>  -0.2400 
 16 C        4.6290    -3.4220    -0.3600 C.ar  1 <1>   0.1900 
 17 C        5.6430    -1.3500     0.2400 C.ar  1 <1>  -0.1500 
 18 F        3.5540    -4.1420    -0.5750 F     1 <1>  -0.1900 
 19 C        5.8560    -4.0310    -0.5320 C.ar  1 <1>  -0.1500 
 20 C        6.8930    -1.9300     0.0760 C.ar  1 <1>  -0.1500 
 21 C        6.9760    -3.2570    -0.3050 C.ar  1 <1>   0.1900 
 22 F        8.1560    -3.7970    -0.4570 F     1 <1>  -0.1900 
 23 H        0.9080     0.3830     1.5780 H     1 <1>   0.0800 
 24 H        0.9450     0.4870    -0.1750 H     1 <1>   0.0800 
 25 H       -3.4260    -3.7620     0.7560 H     1 <1>   0.0800 
 26 H       -1.6980    -3.7680     0.9650 H     1 <1>   0.0800 
 27 H        2.4380    -2.2030    -0.0980 H     1 <1>   0.3700 
 28 H       -5.2540    -2.0290     0.9830 H     1 <1>   0.0800 
 29 H       -5.0540    -2.1840    -0.7410 H     1 <1>   0.0800 
 30 H       -3.1270    -3.6420    -1.7190 H     1 <1>   0.0800 
 31 H       -2.3380    -5.0510    -1.0560 H     1 <1>   0.0800 
 32 H       -1.3860    -3.6580    -1.4980 H     1 <1>   0.0800 
 33 H       -5.8800     0.3490     0.7000 H     1 <1>   0.0800 
 34 H       -6.9380    -0.6910    -0.2260 H     1 <1>   0.0800 
 35 H       -5.6640     0.2010    -1.0270 H     1 <1>   0.0800 
 36 H        5.5890    -0.3170     0.5320 H     1 <1>   0.1500 
 37 H        5.9390    -5.0600    -0.8290 H     1 <1>   0.1500 
 38 H        7.7910    -1.3610     0.2420 H     1 <1>   0.1500 
@<TRIPOS>BOND
  1   1   2  1   
  2   1   3  1   
  3   2   4  2   
  4   2   5  1   
  5   3   6  1   
  6   3  23  1   
  7   3  24  1   
  8   4   7  1   
  9   5   8  1   
 10   5   9  1   
 11   6  10  2   
 12   6  11  am  
 13   7   8  2   
 14   8  12  1   
 15   9  13  1   
 16   9  25  1   
 17   9  26  1   
 18  11  14  1   
 19  11  27  1   
 20  12  15  1   
 21  12  28  1   
 22  12  29  1   
 23  13  30  1   
 24  13  31  1   
 25  13  32  1   
 26  14  16  ar  
 27  14  17  ar  
 28  15  33  1   
 29  15  34  1   
 30  15  35  1   
 31  16  18  1   
 32  16  19  ar  
 33  17  20  ar  
 34  17  36  1   
 35  19  21  ar  
 36  19  37  1   
 37  20  21  ar  
 38  20  38  1   
 39  21  22  1   
@<TRIPOS>SUBSTRUCTURE
  1 ****   1 GROUP 4 **** **** 0

# MOE 2024.06 (io_trps.svl 2023.06)
