@<TRIPOS>MOLECULE
NONAME
53 56 1 0 0 
SMALL
USER_CHARGES


@<TRIPOS>ATOM
  1 S       -0.1440    -0.7060     0.5490 S.o2  1 <1>   1.3330 
  2 O        1.2460    -1.0450     0.7350 O.2   1 <1>  -0.6500 
  3 O       -1.1750    -1.4530     1.2260 O.2   1 <1>  -0.6500 
  4 N       -0.3110     0.9590     0.9920 N.am  1 <1>  -0.6930 
  5 C       -0.4900    -0.6740    -1.1970 C.3   1 <1>  -0.1350 
  6 C       -1.4970     1.6690     0.8390 C.ar  1 <1>   0.1990 
  7 C        0.9110     1.6440     1.5230 C.3   1 <1>   0.2570 
  8 C       -1.5390     2.8090     0.0480 C.ar  1 <1>  -0.1500 
  9 C       -2.6680     1.2670     1.4640 C.ar  1 <1>  -0.1500 
 10 C        2.0240     1.9110     0.5050 C.2   1 <1>   0.6590 
 11 C       -2.7140     3.5190    -0.1130 C.ar  1 <1>  -0.1500 
 12 C       -3.8440     1.9760     1.3020 C.ar  1 <1>  -0.1500 
 13 O        3.1340     2.2100     0.8670 O.2   1 <1>  -0.5700 
 14 O        1.7110     1.8380    -0.7880 O.3   1 <1>  -0.4300 
 15 C       -3.8930     3.1200     0.5090 C.ar  1 <1>  -0.1430 
 16 C        2.6760     2.0570    -1.7960 C.3   1 <1>   0.0400 
 17 C       -5.1830     3.9450     0.2980 C.3   1 <1>   0.1430 
 18 C       -4.9670     5.3950     0.7950 C.3   1 <1>  -0.1600 
 19 C       -5.5440     3.9830    -1.2070 C.3   1 <1>  -0.1600 
 20 C       -6.4070     3.3690     1.0570 C.3   1 <1>  -0.1600 
 21 C       -6.2200     6.2600     0.5510 C.3   1 <1>  -0.0800 
 22 C       -6.7980     4.8430    -1.4570 C.3   1 <1>  -0.0800 
 23 C       -7.6700     4.2180     0.8220 C.3   1 <1>  -0.0800 
 24 C       -6.5370     6.2760    -0.9560 C.3   1 <1>  -0.1600 
 25 C       -7.4110     5.6530     1.3130 C.3   1 <1>  -0.1600 
 26 C       -7.9860     4.2440    -0.6840 C.3   1 <1>  -0.1600 
 27 H       -0.4180    -1.6640    -1.6020 H     1 <1>   0.0800 
 28 H        0.2100    -0.0430    -1.7060 H     1 <1>   0.0800 
 29 H       -1.4810    -0.3030    -1.3690 H     1 <1>   0.0800 
 30 H        1.3240     1.0450     2.3150 H     1 <1>   0.0800 
 31 H        0.6240     2.5860     1.9520 H     1 <1>   0.0800 
 32 H       -0.6480     3.1410    -0.4520 H     1 <1>   0.1500 
 33 H       -2.6580     0.3910     2.0880 H     1 <1>   0.1500 
 34 H       -2.6990     4.3960    -0.7350 H     1 <1>   0.1500 
 35 H       -4.7130     1.6080     1.8130 H     1 <1>   0.1500 
 36 H        2.2020     1.9490    -2.7550 H     1 <1>   0.0800 
 37 H        3.4630     1.3290    -1.6860 H     1 <1>   0.0800 
 38 H        3.0750     3.0510    -1.6880 H     1 <1>   0.0800 
 39 H       -4.1350     5.8460     0.2860 H     1 <1>   0.0800 
 40 H       -4.7340     5.3820     1.8450 H     1 <1>   0.0800 
 41 H       -5.7140     2.9810    -1.5580 H     1 <1>   0.0800 
 42 H       -4.7290     4.3900    -1.7770 H     1 <1>   0.0800 
 43 H       -6.2000     3.3410     2.1120 H     1 <1>   0.0800 
 44 H       -6.5990     2.3630     0.7270 H     1 <1>   0.0800 
 45 H       -6.0410     7.2640     0.8970 H     1 <1>   0.0800 
 46 H       -7.0220     4.8610    -2.5100 H     1 <1>   0.0800 
 47 H       -8.5000     3.7940     1.3600 H     1 <1>   0.0800 
 48 H       -5.7140     6.7080    -1.4980 H     1 <1>   0.0800 
 49 H       -7.4040     6.8880    -1.1380 H     1 <1>   0.0800 
 50 H       -8.2890     6.2560     1.1580 H     1 <1>   0.0800 
 51 H       -7.2020     5.6450     2.3690 H     1 <1>   0.0800 
 52 H       -8.1820     3.2450    -1.0330 H     1 <1>   0.0800 
 53 H       -8.8700     4.8320    -0.8610 H     1 <1>   0.0800 
@<TRIPOS>BOND
  1   1   2  2   
  2   1   3  2   
  3   1   4  am  
  4   1   5  1   
  5   4   6  1   
  6   4   7  1   
  7   5  27  1   
  8   5  28  1   
  9   5  29  1   
 10   6   8  ar  
 11   6   9  ar  
 12   7  10  1   
 13   7  30  1   
 14   7  31  1   
 15   8  11  ar  
 16   8  32  1   
 17   9  12  ar  
 18   9  33  1   
 19  10  13  2   
 20  10  14  1   
 21  11  15  ar  
 22  11  34  1   
 23  12  15  ar  
 24  12  35  1   
 25  14  16  1   
 26  15  17  1   
 27  16  36  1   
 28  16  37  1   
 29  16  38  1   
 30  17  18  1   
 31  17  19  1   
 32  17  20  1   
 33  18  21  1   
 34  18  39  1   
 35  18  40  1   
 36  19  22  1   
 37  19  41  1   
 38  19  42  1   
 39  20  23  1   
 40  20  43  1   
 41  20  44  1   
 42  21  24  1   
 43  21  25  1   
 44  21  45  1   
 45  22  24  1   
 46  22  26  1   
 47  22  46  1   
 48  23  25  1   
 49  23  26  1   
 50  23  47  1   
 51  24  48  1   
 52  24  49  1   
 53  25  50  1   
 54  25  51  1   
 55  26  52  1   
 56  26  53  1   
@<TRIPOS>SUBSTRUCTURE
  1 ****  11 GROUP 4 **** **** 0

# MOE 2024.06 (io_trps.svl 2023.06)
