@<TRIPOS>MOLECULE
NONAME
54 56 1 0 0 
SMALL
USER_CHARGES


@<TRIPOS>ATOM
  1 O       -1.0190    -2.5120     2.5650 O.2   1 <1>  -0.5700 
  2 C       -1.1070    -2.7110     1.3760 C.2   1 <1>   0.4950 
  3 C       -2.0800    -2.0670     0.5450 C.2   1 <1>   0.0290 
  4 C       -0.1150    -3.7110     0.8080 C.3   1 <1>  -0.0990 
  5 C       -2.1160    -2.4040    -0.8520 C.2   1 <1>   0.4950 
  6 C       -2.9440    -1.1500     1.1100 C.2   1 <1>  -0.0500 
  7 C        0.1910    -3.4790    -0.6780 C.3   1 <1>   0.0000 
  8 O       -2.9030    -1.9390    -1.6480 O.2   1 <1>  -0.5700 
  9 C       -1.1410    -3.4140    -1.4370 C.3   1 <1>  -0.0990 
 10 N       -3.9090    -0.4600     0.4550 N.pl3 1 <1>  -0.8690 
 11 C        1.0350    -4.6440    -1.2170 C.3   1 <1>  -0.2400 
 12 C        0.9880    -2.1740    -0.8690 C.3   1 <1>  -0.2400 
 13 C       -4.8330     0.5160     1.0260 C.3   1 <1>   0.2890 
 14 C       -6.2560     0.0140     0.8080 C.3   1 <1>  -0.1600 
 15 C       -4.6090     1.8550     0.3320 C.3   1 <1>  -0.1600 
 16 C       -7.2710     1.0580     1.2590 C.3   1 <1>   0.3430 
 17 C       -5.6440     2.8770     0.7880 C.3   1 <1>   0.3430 
 18 N       -7.0200     2.3450     0.5490 N.4   1 <1>  -0.9590 
 19 C       -8.0640     3.3570     0.8750 C.3   1 <1>   0.4860 
 20 C       -7.8940     4.5450    -0.0510 C.ar  1 <1>  -0.1430 
 21 C       -8.2640     4.4520    -1.3860 C.ar  1 <1>  -0.1500 
 22 C       -7.3620     5.7330     0.4290 C.ar  1 <1>  -0.1500 
 23 C       -8.0900     5.5320    -2.2330 C.ar  1 <1>  -0.1500 
 24 C       -7.1890     6.8120    -0.4200 C.ar  1 <1>  -0.1500 
 25 C       -7.5510     6.7110    -1.7510 C.ar  1 <1>  -0.1500 
 26 H        0.7960    -3.6580     1.3780 H     1 <1>   0.0800 
 27 H       -0.5260    -4.6940     0.9520 H     1 <1>   0.0800 
 28 H       -2.8530    -0.9530     2.1690 H     1 <1>   0.1500 
 29 H       -1.6210    -4.3760    -1.4230 H     1 <1>   0.0800 
 30 H       -0.9570    -3.1630    -2.4660 H     1 <1>   0.0800 
 31 H       -4.0080    -0.6380    -0.5640 H     1 <1>   0.4000 
 32 H        1.9700    -4.7110    -0.6880 H     1 <1>   0.0800 
 33 H        1.2510    -4.5020    -2.2620 H     1 <1>   0.0800 
 34 H        0.5170    -5.5800    -1.1050 H     1 <1>   0.0800 
 35 H        0.4500    -1.3150    -0.5100 H     1 <1>   0.0800 
 36 H        1.2050    -2.0160    -1.9120 H     1 <1>   0.0800 
 37 H        1.9230    -2.2240    -0.3400 H     1 <1>   0.0800 
 38 H       -4.6380     0.6150     2.0830 H     1 <1>   0.0800 
 39 H       -6.4150    -0.2180    -0.2310 H     1 <1>   0.0800 
 40 H       -6.4000    -0.8880     1.3760 H     1 <1>   0.0800 
 41 H       -3.6250     2.2170     0.5750 H     1 <1>   0.0800 
 42 H       -4.6660     1.7380    -0.7350 H     1 <1>   0.0800 
 43 H       -7.1840     1.2040     2.3240 H     1 <1>   0.0800 
 44 H       -8.2660     0.7020     1.0450 H     1 <1>   0.0800 
 45 H       -5.5000     3.7950     0.2370 H     1 <1>   0.0800 
 46 H       -5.5070     3.0870     1.8360 H     1 <1>   0.0800 
 47 H       -7.0940     2.1780    -0.4630 H     1 <1>   0.4500 
 48 H       -9.0470     2.9380     0.7320 H     1 <1>   0.0800 
 49 H       -7.9730     3.6730     1.9010 H     1 <1>   0.0800 
 50 H       -8.6940     3.5490    -1.7850 H     1 <1>   0.1500 
 51 H       -7.0780     5.8400     1.4630 H     1 <1>   0.1500 
 52 H       -8.3770     5.4620    -3.2690 H     1 <1>   0.1500 
 53 H       -6.7760     7.7350    -0.0480 H     1 <1>   0.1500 
 54 H       -7.4180     7.5530    -2.4110 H     1 <1>   0.1500 
@<TRIPOS>BOND
  1   1   2  2   
  2   2   3  1   
  3   2   4  1   
  4   3   5  1   
  5   3   6  2   
  6   4   7  1   
  7   4  26  1   
  8   4  27  1   
  9   5   8  2   
 10   5   9  1   
 11   6  10  1   
 12   6  28  1   
 13   7   9  1   
 14   7  11  1   
 15   7  12  1   
 16   9  29  1   
 17   9  30  1   
 18  10  13  1   
 19  10  31  1   
 20  11  32  1   
 21  11  33  1   
 22  11  34  1   
 23  12  35  1   
 24  12  36  1   
 25  12  37  1   
 26  13  14  1   
 27  13  15  1   
 28  13  38  1   
 29  14  16  1   
 30  14  39  1   
 31  14  40  1   
 32  15  17  1   
 33  15  41  1   
 34  15  42  1   
 35  16  18  1   
 36  16  43  1   
 37  16  44  1   
 38  17  18  1   
 39  17  45  1   
 40  17  46  1   
 41  18  19  1   
 42  18  47  1   
 43  19  20  1   
 44  19  48  1   
 45  19  49  1   
 46  20  21  ar  
 47  20  22  ar  
 48  21  23  ar  
 49  21  50  1   
 50  22  24  ar  
 51  22  51  1   
 52  23  25  ar  
 53  23  52  1   
 54  24  25  ar  
 55  24  53  1   
 56  25  54  1   
@<TRIPOS>SUBSTRUCTURE
  1 ****  10 GROUP 4 **** **** 0

# MOE 2024.06 (io_trps.svl 2023.06)
