@<TRIPOS>MOLECULE
NONAME
43 43 1 0 0 
SMALL
USER_CHARGES


@<TRIPOS>ATOM
  1 O        1.2100    -0.0440    -0.0590 O.3   1 <1>  -0.3630 
  2 C        0.0220    -0.6070    -0.4040 C.ar  1 <1>   0.0830 
  3 C        1.7020     1.1100    -0.6980 C.3   1 <1>   0.1200 
  4 C       -0.2940    -1.8600     0.1290 C.ar  1 <1>  -0.1440 
  5 C       -0.8670     0.0240    -1.2700 C.ar  1 <1>  -0.1500 
  6 C        3.1500     1.3000    -0.2460 C.3   1 <1>  -0.1600 
  7 C       -1.4850    -2.4800    -0.2400 C.ar  1 <1>  -0.1440 
  8 C        0.6590    -2.5510     1.1060 C.3   1 <1>  -0.0960 
  9 C       -2.0500    -0.5940    -1.6210 C.ar  1 <1>  -0.1500 
 10 C        3.9280     0.0000    -0.4380 C.3   1 <1>   0.3430 
 11 C       -2.3540    -1.8410    -1.1100 C.ar  1 <1>  -0.1500 
 12 C       -1.8790    -3.8560     0.2840 C.3   1 <1>  -0.0970 
 13 N        5.2990     0.1590     0.1120 N.4   1 <1>  -0.9060 
 14 C        6.1690    -1.0170     0.0410 C.3   1 <1>   0.5030 
 15 C        7.4930    -0.6060     0.6750 C.3   1 <1>  -0.2400 
 16 C        5.5500    -2.1700     0.8310 C.3   1 <1>  -0.2400 
 17 C        6.3920    -1.4090    -1.4200 C.3   1 <1>  -0.2400 
 18 H        1.0880     1.9480    -0.4130 H     1 <1>   0.0800 
 19 H        1.6500     0.9580    -1.7630 H     1 <1>   0.0800 
 20 H       -0.6660     0.9940    -1.6810 H     1 <1>   0.1500 
 21 H        3.1410     1.5820     0.7930 H     1 <1>   0.0800 
 22 H        3.5910     2.0940    -0.8200 H     1 <1>   0.0800 
 23 H        1.2390    -3.2890     0.5840 H     1 <1>   0.0800 
 24 H        0.1090    -3.0330     1.8930 H     1 <1>   0.0800 
 25 H        1.3260    -1.8520     1.5740 H     1 <1>   0.0800 
 26 H       -2.7380    -0.1080    -2.2910 H     1 <1>   0.1500 
 27 H        3.9680    -0.2470    -1.4870 H     1 <1>   0.0800 
 28 H        3.4160    -0.7980     0.0760 H     1 <1>   0.0800 
 29 H       -3.2780    -2.3110    -1.3970 H     1 <1>   0.1500 
 30 H       -2.1250    -3.7940     1.3280 H     1 <1>   0.0800 
 31 H       -1.0700    -4.5520     0.1510 H     1 <1>   0.0800 
 32 H       -2.7350    -4.2390    -0.2420 H     1 <1>   0.0800 
 33 H        5.2270     0.4250     1.0980 H     1 <1>   0.4500 
 34 H        5.7730     0.9260    -0.3710 H     1 <1>   0.4500 
 35 H        7.3610    -0.3220     1.7040 H     1 <1>   0.0800 
 36 H        7.9480     0.2080     0.1380 H     1 <1>   0.0800 
 37 H        8.1820    -1.4340     0.6530 H     1 <1>   0.0800 
 38 H        5.3410    -1.8770     1.8450 H     1 <1>   0.0800 
 39 H        6.2380    -2.9970     0.8640 H     1 <1>   0.0800 
 40 H        4.6470    -2.5280     0.3710 H     1 <1>   0.0800 
 41 H        6.7820    -0.5830    -1.9880 H     1 <1>   0.0800 
 42 H        5.4860    -1.7610    -1.8790 H     1 <1>   0.0800 
 43 H        7.1070    -2.2110    -1.4740 H     1 <1>   0.0800 
@<TRIPOS>BOND
  1   1   2  1   
  2   1   3  1   
  3   2   4  ar  
  4   2   5  ar  
  5   3   6  1   
  6   3  18  1   
  7   3  19  1   
  8   4   7  ar  
  9   4   8  1   
 10   5   9  ar  
 11   5  20  1   
 12   6  10  1   
 13   6  21  1   
 14   6  22  1   
 15   7  11  ar  
 16   7  12  1   
 17   8  23  1   
 18   8  24  1   
 19   8  25  1   
 20   9  11  ar  
 21   9  26  1   
 22  10  13  1   
 23  10  27  1   
 24  10  28  1   
 25  11  29  1   
 26  12  30  1   
 27  12  31  1   
 28  12  32  1   
 29  13  14  1   
 30  13  33  1   
 31  13  34  1   
 32  14  15  1   
 33  14  16  1   
 34  14  17  1   
 35  15  35  1   
 36  15  36  1   
 37  15  37  1   
 38  16  38  1   
 39  16  39  1   
 40  16  40  1   
 41  17  41  1   
 42  17  42  1   
 43  17  43  1   
@<TRIPOS>SUBSTRUCTURE
  1 ****   1 GROUP 4 **** **** 0

# MOE 2024.06 (io_trps.svl 2023.06)
