@<TRIPOS>MOLECULE
NONAME
44 46 1 0 0 
SMALL
USER_CHARGES


@<TRIPOS>ATOM
  1 O        1.5730    -0.9510    -1.9540 O.2   1 <1>  -0.5700 
  2 C        1.9590    -1.8880    -1.2770 C.2   1 <1>   0.7150 
  3 N        3.2720    -1.8860    -0.8430 N.am  1 <1>  -0.6600 
  4 C        1.0590    -2.9770    -0.9530 C.2   1 <1>   0.0550 
  5 C        4.2890    -0.9460    -1.4240 C.3   1 <1>   0.1400 
  6 C        3.7220    -2.6030     0.3940 C.3   1 <1>   0.1400 
  7 O       -0.2130    -2.7470    -0.6400 O.3   1 <1>  -0.2800 
  8 C        1.2740    -4.3230    -0.8990 C.2   1 <1>  -0.1500 
  9 C        4.8430     0.0090    -0.3580 C.3   1 <1>   0.1400 
 10 C        4.3210    -1.6270     1.4200 C.3   1 <1>   0.1400 
 11 C       -0.8060    -3.8920    -0.3920 C.2   1 <1>  -0.0100 
 12 C        0.0640    -4.9140    -0.5340 C.2   1 <1>  -0.1500 
 13 N        5.3780    -0.7810     0.7910 N.am  1 <1>  -0.6600 
 14 C        6.7280    -0.7900     1.0620 C.2   1 <1>   0.5690 
 15 O        7.4460     0.0850     0.6360 O.2   1 <1>  -0.5700 
 16 C        7.3860    -1.8730     1.9130 C.3   1 <1>   0.0440 
 17 C        8.5300    -2.5750     1.1850 C.ar  1 <1>  -0.1430 
 18 C        8.2800    -3.4510     0.1300 C.ar  1 <1>   0.0830 
 19 C        9.8380    -2.3350     1.5770 C.ar  1 <1>  -0.1500 
 20 O        6.9880    -3.6530    -0.2450 O.3   1 <1>  -0.3630 
 21 C        9.3450    -4.0840    -0.5060 C.ar  1 <1>  -0.1500 
 22 C       10.8920    -2.9630     0.9380 C.ar  1 <1>  -0.1500 
 23 C        6.6880    -4.1560    -1.5300 C.3   1 <1>   0.0400 
 24 C       10.6450    -3.8400    -0.1030 C.ar  1 <1>  -0.1500 
 25 H        3.8650    -0.3690    -2.2270 H     1 <1>   0.0800 
 26 H        5.1040    -1.5190    -1.8310 H     1 <1>   0.0800 
 27 H        4.4600    -3.3380     0.1330 H     1 <1>   0.0800 
 28 H        2.8970    -3.1140     0.8580 H     1 <1>   0.0800 
 29 H        2.1880    -4.8510    -1.1030 H     1 <1>   0.1500 
 30 H        4.0610     0.6630    -0.0160 H     1 <1>   0.0800 
 31 H        5.6140     0.6180    -0.7970 H     1 <1>   0.0800 
 32 H        4.6930    -2.1690     2.2670 H     1 <1>   0.0800 
 33 H        3.5360    -0.9840     1.7800 H     1 <1>   0.0800 
 34 H       -1.8490    -3.8920    -0.1230 H     1 <1>   0.1500 
 35 H       -0.1140    -5.9670    -0.4040 H     1 <1>   0.1500 
 36 H        6.6880    -2.6260     2.2090 H     1 <1>   0.0800 
 37 H        7.7520    -1.4060     2.8070 H     1 <1>   0.0800 
 38 H       10.0470    -1.6500     2.3800 H     1 <1>   0.1500 
 39 H        9.1840    -4.7720    -1.3130 H     1 <1>   0.1500 
 40 H       11.9030    -2.7670     1.2490 H     1 <1>   0.1500 
 41 H        5.6300    -4.0640    -1.6920 H     1 <1>   0.0800 
 42 H        6.9750    -5.1920    -1.5750 H     1 <1>   0.0800 
 43 H        7.2200    -3.5770    -2.2640 H     1 <1>   0.0800 
 44 H       11.4650    -4.3300    -0.5980 H     1 <1>   0.1500 
@<TRIPOS>BOND
  1   1   2  2   
  2   2   3  am  
  3   2   4  1   
  4   3   5  1   
  5   3   6  1   
  6   4   7  1   
  7   4   8  2   
  8   5   9  1   
  9   5  25  1   
 10   5  26  1   
 11   6  10  1   
 12   6  27  1   
 13   6  28  1   
 14   7  11  1   
 15   8  12  1   
 16   8  29  1   
 17   9  13  1   
 18   9  30  1   
 19   9  31  1   
 20  10  13  1   
 21  10  32  1   
 22  10  33  1   
 23  11  12  2   
 24  11  34  1   
 25  12  35  1   
 26  13  14  am  
 27  14  15  2   
 28  14  16  1   
 29  16  17  1   
 30  16  36  1   
 31  16  37  1   
 32  17  18  ar  
 33  17  19  ar  
 34  18  20  1   
 35  18  21  ar  
 36  19  22  ar  
 37  19  38  1   
 38  20  23  1   
 39  21  24  ar  
 40  21  39  1   
 41  22  24  ar  
 42  22  40  1   
 43  23  41  1   
 44  23  42  1   
 45  23  43  1   
 46  24  44  1   
@<TRIPOS>SUBSTRUCTURE
  1 ****   6 GROUP 4 **** **** 0

# MOE 2024.06 (io_trps.svl 2023.06)
