@<TRIPOS>MOLECULE
NONAME
58 61 1 0 0 
SMALL
USER_CHARGES


@<TRIPOS>ATOM
  1 O       -0.2460    -0.2320    -1.9450 O.2   1 <1>  -0.5700 
  2 C       -0.6430    -0.9550    -1.0630 C.2   1 <1>   0.4950 
  3 C        0.0490    -2.1040    -0.5830 C.2   1 <1>  -0.1240 
  4 C       -1.9850    -0.6240    -0.4310 C.3   1 <1>  -0.0990 
  5 C       -0.4840    -2.9890     0.2940 C.2   1 <1>  -0.0380 
  6 C        1.4750    -2.3090    -1.0990 C.3   1 <1>   0.3400 
  7 C       -2.7450    -1.8940    -0.0140 C.3   1 <1>  -0.1600 
  8 N        0.2060    -4.1040     0.7050 N.pl3 1 <1>  -0.6000 
  9 C       -1.8820    -2.8090     0.8700 C.3   1 <1>  -0.0220 
 10 C        2.0860    -3.6590    -0.7050 C.2   1 <1>  -0.1240 
 11 C        2.3720    -1.1980    -0.5430 C.ar  1 <1>  -0.1430 
 12 C        1.4230    -4.4660     0.1710 C.2   1 <1>  -0.0380 
 13 C        3.3570    -3.8820    -1.3240 C.2   1 <1>   0.7060 
 14 C        2.9940    -0.2980    -1.3930 C.ar  1 <1>  -0.1500 
 15 C        2.5800    -1.0770     0.8230 C.ar  1 <1>  -0.1500 
 16 C        1.8990    -5.8310     0.6450 C.3   1 <1>  -0.1020 
 17 O        3.6360    -3.4810    -2.4390 O.2   1 <1>  -0.5700 
 18 O        4.2940    -4.5410    -0.6360 O.3   1 <1>  -0.4300 
 19 C        3.8070     0.7000    -0.8880 C.ar  1 <1>  -0.1500 
 20 C        3.3940    -0.0770     1.3220 C.ar  1 <1>  -0.1500 
 21 C        5.5900    -4.7520    -1.1690 C.3   1 <1>   0.1200 
 22 C        4.0310     0.8390     0.4840 C.ar  1 <1>   0.0860 
 23 C        6.4510    -5.4840    -0.1360 C.3   1 <1>   0.2000 
 24 C        4.8820     1.8840     1.0260 C.2   1 <1>   0.6340 
 25 O        7.6750    -5.8110    -0.7040 O.3   1 <1>  -0.5600 
 26 C        5.8890    -6.8200     0.3300 C.3   1 <1>  -0.1600 
 27 O        5.0870     2.0250     2.2150 O.2   1 <1>  -0.5700 
 28 O        5.4650     2.7320     0.1710 O.3   1 <1>  -0.4300 
 29 C        8.2670    -6.8620    -0.0080 C.3   1 <1>   0.1200 
 30 C        7.1370    -7.6020     0.7050 C.3   1 <1>  -0.1600 
 31 C        6.3040     3.7800     0.6140 C.3   1 <1>   0.0400 
 32 H       -2.5760    -0.0650    -1.1340 H     1 <1>   0.0800 
 33 H       -1.8080    -0.0010     0.4260 H     1 <1>   0.0800 
 34 H        1.4400    -2.2490    -2.1740 H     1 <1>   0.0800 
 35 H       -3.0210    -2.4360    -0.9030 H     1 <1>   0.0800 
 36 H       -3.6500    -1.6300     0.5050 H     1 <1>   0.0800 
 37 H       -0.2370    -4.7380     1.3820 H     1 <1>   0.4000 
 38 H       -1.7960    -2.3870     1.8570 H     1 <1>   0.0800 
 39 H       -2.3690    -3.7650     0.9560 H     1 <1>   0.0800 
 40 H        2.8440    -0.3710    -2.4580 H     1 <1>   0.1500 
 41 H        2.1060    -1.7670     1.5010 H     1 <1>   0.1500 
 42 H        1.0740    -6.5190     0.6790 H     1 <1>   0.0800 
 43 H        2.3240    -5.7470     1.6290 H     1 <1>   0.0800 
 44 H        2.6340    -6.2500    -0.0160 H     1 <1>   0.0800 
 45 H        4.2750     1.3830    -1.5750 H     1 <1>   0.1500 
 46 H        3.5420    -0.0020     2.3860 H     1 <1>   0.1500 
 47 H        6.0220    -3.7950    -1.4040 H     1 <1>   0.0800 
 48 H        5.4940    -5.3420    -2.0640 H     1 <1>   0.0800 
 49 H        6.6500    -4.8400     0.7040 H     1 <1>   0.0800 
 50 H        5.3790    -7.3030    -0.4850 H     1 <1>   0.0800 
 51 H        5.2090    -6.7000     1.1540 H     1 <1>   0.0800 
 52 H        8.9700    -6.4470     0.6940 H     1 <1>   0.0800 
 53 H        8.7800    -7.4900    -0.7160 H     1 <1>   0.0800 
 54 H        7.0770    -8.6270     0.3830 H     1 <1>   0.0800 
 55 H        7.3040    -7.5760     1.7670 H     1 <1>   0.0800 
 56 H        6.6520     4.3250    -0.2450 H     1 <1>   0.0800 
 57 H        7.1360     3.3570     1.1490 H     1 <1>   0.0800 
 58 H        5.7380     4.4290     1.2610 H     1 <1>   0.0800 
@<TRIPOS>BOND
  1   1   2  2   
  2   2   3  1   
  3   2   4  1   
  4   3   5  2   
  5   3   6  1   
  6   4   7  1   
  7   4  32  1   
  8   4  33  1   
  9   5   8  1   
 10   5   9  1   
 11   6  10  1   
 12   6  11  1   
 13   6  34  1   
 14   7   9  1   
 15   7  35  1   
 16   7  36  1   
 17   8  12  1   
 18   8  37  1   
 19   9  38  1   
 20   9  39  1   
 21  10  12  2   
 22  10  13  1   
 23  11  14  ar  
 24  11  15  ar  
 25  12  16  1   
 26  13  17  2   
 27  13  18  1   
 28  14  19  ar  
 29  14  40  1   
 30  15  20  ar  
 31  15  41  1   
 32  16  42  1   
 33  16  43  1   
 34  16  44  1   
 35  18  21  1   
 36  19  22  ar  
 37  19  45  1   
 38  20  22  ar  
 39  20  46  1   
 40  21  23  1   
 41  21  47  1   
 42  21  48  1   
 43  22  24  1   
 44  23  25  1   
 45  23  26  1   
 46  23  49  1   
 47  24  27  2   
 48  24  28  1   
 49  25  29  1   
 50  26  30  1   
 51  26  50  1   
 52  26  51  1   
 53  28  31  1   
 54  29  30  1   
 55  29  52  1   
 56  29  53  1   
 57  30  54  1   
 58  30  55  1   
 59  31  56  1   
 60  31  57  1   
 61  31  58  1   
@<TRIPOS>SUBSTRUCTURE
  1 ****  11 GROUP 4 **** **** 0

# MOE 2024.06 (io_trps.svl 2023.06)
