@<TRIPOS>MOLECULE
NONAME
36 37 1 0 0 
SMALL
USER_CHARGES


@<TRIPOS>ATOM
  1 BR       0.7470     0.2040    -1.7300 Br    1 <1>  -0.1110 
  2 C        0.1430    -1.3120    -0.7010 C.ar  1 <1>   0.1110 
  3 C        0.7490    -1.6230     0.5080 C.ar  1 <1>   0.0830 
  4 C       -0.9060    -2.0560    -1.2050 C.ar  1 <1>  -0.1500 
  5 O        1.7590    -0.8830     1.0120 O.3   1 <1>  -0.3630 
  6 C        0.2800    -2.7100     1.2270 C.ar  1 <1>  -0.1500 
  7 C       -1.3770    -3.1410    -0.4760 C.ar  1 <1>  -0.1430 
  8 C        3.0570    -1.2190     0.5780 C.3   1 <1>   0.0400 
  9 C       -0.7730    -3.4660     0.7350 C.ar  1 <1>  -0.1500 
 10 C       -2.5500    -3.9550    -0.9890 C.3   1 <1>   0.4870 
 11 N       -3.7580    -3.5820    -0.2050 N.4   1 <1>  -0.9590 
 12 C       -4.8890    -4.5330    -0.4770 C.3   1 <1>   0.3430 
 13 C       -4.1540    -2.1590    -0.4410 C.3   1 <1>   0.3430 
 14 C       -6.1460    -4.1940     0.3460 C.3   1 <1>   0.2000 
 15 C       -5.3550    -1.7990     0.4380 C.3   1 <1>  -0.1600 
 16 O       -7.1770    -4.9790    -0.1240 O.3   1 <1>  -0.6800 
 17 C       -6.5550    -2.7270     0.1870 C.3   1 <1>  -0.1600 
 18 H       -1.3350    -1.7750    -2.1520 H     1 <1>   0.1500 
 19 H        0.7440    -2.9550     2.1670 H     1 <1>   0.1500 
 20 H        3.7530    -0.5540     1.0560 H     1 <1>   0.0800 
 21 H        3.1130    -1.1030    -0.4900 H     1 <1>   0.0800 
 22 H        3.2670    -2.2360     0.8580 H     1 <1>   0.0800 
 23 H       -1.1090    -4.3110     1.3130 H     1 <1>   0.1500 
 24 H       -2.3340    -5.0040    -0.8640 H     1 <1>   0.0800 
 25 H       -2.7080    -3.7600    -2.0370 H     1 <1>   0.0800 
 26 H       -3.4950    -3.6560     0.7860 H     1 <1>   0.4500 
 27 H       -4.5870    -5.5420    -0.2470 H     1 <1>   0.0800 
 28 H       -5.1510    -4.4850    -1.5210 H     1 <1>   0.0800 
 29 H       -4.4150    -2.0190    -1.4780 H     1 <1>   0.0800 
 30 H       -3.3320    -1.5010    -0.2070 H     1 <1>   0.0800 
 31 H       -5.9870    -4.4400     1.3820 H     1 <1>   0.0800 
 32 H       -5.6450    -0.7830     0.2290 H     1 <1>   0.0800 
 33 H       -5.0650    -1.8400     1.4740 H     1 <1>   0.0800 
 34 H       -8.0050    -4.8120     0.3730 H     1 <1>   0.4000 
 35 H       -7.3440    -2.4890     0.8800 H     1 <1>   0.0800 
 36 H       -6.9200    -2.5610    -0.8140 H     1 <1>   0.0800 
@<TRIPOS>BOND
  1   1   2  1   
  2   2   3  ar  
  3   2   4  ar  
  4   3   5  1   
  5   3   6  ar  
  6   4   7  ar  
  7   4  18  1   
  8   5   8  1   
  9   6   9  ar  
 10   6  19  1   
 11   7   9  ar  
 12   7  10  1   
 13   8  20  1   
 14   8  21  1   
 15   8  22  1   
 16   9  23  1   
 17  10  11  1   
 18  10  24  1   
 19  10  25  1   
 20  11  12  1   
 21  11  13  1   
 22  11  26  1   
 23  12  14  1   
 24  12  27  1   
 25  12  28  1   
 26  13  15  1   
 27  13  29  1   
 28  13  30  1   
 29  14  16  1   
 30  14  17  1   
 31  14  31  1   
 32  15  17  1   
 33  15  32  1   
 34  15  33  1   
 35  16  34  1   
 36  17  35  1   
 37  17  36  1   
@<TRIPOS>SUBSTRUCTURE
  1 ****   7 GROUP 4 **** **** 0

# MOE 2024.06 (io_trps.svl 2023.06)
