@<TRIPOS>MOLECULE
NONAME
53 55 1 0 0 
SMALL
USER_CHARGES


@<TRIPOS>ATOM
  1 O        0.3540     0.5770     0.3100 O.2   1 <1>  -0.5700 
  2 C        0.1790     1.6410    -0.2550 C.2   1 <1>   0.5440 
  3 N        1.2480     2.2440    -0.8930 N.am  1 <1>  -0.6600 
  4 C       -1.1410     2.2390    -0.2290 C.ar  1 <1>   0.0860 
  5 C        1.2640     3.6810    -1.2890 C.3   1 <1>   0.1400 
  6 C        2.5470     1.5380    -1.0690 C.3   1 <1>   0.1400 
  7 C       -1.7880     2.4920     0.9800 C.ar  1 <1>  -0.1500 
  8 C       -1.8140     2.5780    -1.4040 C.ar  1 <1>  -0.1500 
  9 C        2.3540     4.4160    -0.5050 C.3   1 <1>  -0.1600 
 10 C        3.6380     2.2600    -0.2740 C.3   1 <1>  -0.1600 
 11 C       -3.0420     3.0740     1.0220 C.ar  1 <1>  -0.1500 
 12 C       -3.0660     3.1610    -1.3710 C.ar  1 <1>  -0.1500 
 13 C        3.7350     3.7460    -0.6640 C.3   1 <1>  -0.0190 
 14 C       -3.6900     3.4180    -0.1610 C.ar  1 <1>   0.0820 
 15 C        4.8370     4.4520     0.1290 C.2   1 <1>   0.5690 
 16 O       -4.9130     3.9930    -0.2110 O.3   1 <1>  -0.3630 
 17 O        4.5430     5.1410     1.0760 O.2   1 <1>  -0.5700 
 18 N        6.1250     4.2470    -0.2840 N.am  1 <1>  -0.5470 
 19 C       -5.6520     4.2680     0.9580 C.3   1 <1>   0.0400 
 20 C        7.3490     4.7380     0.2010 C.ar  1 <1>   0.1170 
 21 C        8.5240     3.9990     0.0130 C.ar  1 <1>  -0.1430 
 22 C        7.4200     5.9700     0.8420 C.ar  1 <1>  -0.1500 
 23 C        9.7440     4.5130     0.4520 C.ar  1 <1>  -0.1430 
 24 C        8.4450     2.6310    -0.6730 C.3   1 <1>  -0.0970 
 25 C        8.6250     6.4700     1.2870 C.ar  1 <1>  -0.1500 
 26 C        9.7820     5.7440     1.0890 C.ar  1 <1>  -0.1500 
 27 C       11.0650     3.7770     0.2620 C.3   1 <1>  -0.0970 
 28 H        0.3170     4.1500    -1.0900 H     1 <1>   0.0800 
 29 H        1.4580     3.7510    -2.3460 H     1 <1>   0.0800 
 30 H        2.7970     1.5280    -2.1160 H     1 <1>   0.0800 
 31 H        2.4750     0.5160    -0.7390 H     1 <1>   0.0800 
 32 H       -1.2900     2.2210     1.8940 H     1 <1>   0.1500 
 33 H       -1.3430     2.3760    -2.3500 H     1 <1>   0.1500 
 34 H        2.0750     4.4320     0.5350 H     1 <1>   0.0800 
 35 H        2.4070     5.4370    -0.8400 H     1 <1>   0.0800 
 36 H        4.5780     1.7680    -0.4440 H     1 <1>   0.0800 
 37 H        3.4110     2.1750     0.7760 H     1 <1>   0.0800 
 38 H       -3.4970     3.2510     1.9780 H     1 <1>   0.1500 
 39 H       -3.5740     3.4200    -2.2830 H     1 <1>   0.1500 
 40 H        4.0020     3.8050    -1.7040 H     1 <1>   0.0800 
 41 H        6.2340     3.5760    -1.0390 H     1 <1>   0.3700 
 42 H       -6.5870     4.7100     0.6650 H     1 <1>   0.0800 
 43 H       -5.0960     4.9580     1.5690 H     1 <1>   0.0800 
 44 H       -5.8310     3.3460     1.4820 H     1 <1>   0.0800 
 45 H        6.5280     6.5500     0.9940 H     1 <1>   0.1500 
 46 H        7.6150     2.0670    -0.2870 H     1 <1>   0.0800 
 47 H        9.3230     2.0380    -0.5050 H     1 <1>   0.0800 
 48 H        8.3240     2.7630    -1.7330 H     1 <1>   0.0800 
 49 H        8.6630     7.4240     1.7840 H     1 <1>   0.1500 
 50 H       10.7160     6.1490     1.4380 H     1 <1>   0.1500 
 51 H       11.1960     3.5100    -0.7710 H     1 <1>   0.0800 
 52 H       11.0790     2.8870     0.8650 H     1 <1>   0.0800 
 53 H       11.8970     4.3930     0.5520 H     1 <1>   0.0800 
@<TRIPOS>BOND
  1   1   2  2   
  2   2   3  am  
  3   2   4  1   
  4   3   5  1   
  5   3   6  1   
  6   4   7  ar  
  7   4   8  ar  
  8   5   9  1   
  9   5  28  1   
 10   5  29  1   
 11   6  10  1   
 12   6  30  1   
 13   6  31  1   
 14   7  11  ar  
 15   7  32  1   
 16   8  12  ar  
 17   8  33  1   
 18   9  13  1   
 19   9  34  1   
 20   9  35  1   
 21  10  13  1   
 22  10  36  1   
 23  10  37  1   
 24  11  14  ar  
 25  11  38  1   
 26  12  14  ar  
 27  12  39  1   
 28  13  15  1   
 29  13  40  1   
 30  14  16  1   
 31  15  17  2   
 32  15  18  am  
 33  16  19  1   
 34  18  20  1   
 35  18  41  1   
 36  19  42  1   
 37  19  43  1   
 38  19  44  1   
 39  20  21  ar  
 40  20  22  ar  
 41  21  23  ar  
 42  21  24  1   
 43  22  25  ar  
 44  22  45  1   
 45  23  26  ar  
 46  23  27  1   
 47  24  46  1   
 48  24  47  1   
 49  24  48  1   
 50  25  26  ar  
 51  25  49  1   
 52  26  50  1   
 53  27  51  1   
 54  27  52  1   
 55  27  53  1   
@<TRIPOS>SUBSTRUCTURE
  1 ****   9 GROUP 4 **** **** 0

# MOE 2024.06 (io_trps.svl 2023.06)
