@<TRIPOS>MOLECULE
NONAME
33 34 1 0 0 
SMALL
USER_CHARGES


@<TRIPOS>ATOM
  1 F        0.7560     0.5860     1.5440 F     1 <1>  -0.1900 
  2 C        1.7710     1.1470     0.9370 C.ar  1 <1>   0.1900 
  3 C        2.6490     0.3480     0.2300 C.ar  1 <1>  -0.1500 
  4 C        1.9260     2.5170     1.0240 C.ar  1 <1>  -0.1500 
  5 C        3.7220     0.9470    -0.4060 C.ar  1 <1>  -0.1500 
  6 C        3.0030     3.1020     0.3820 C.ar  1 <1>  -0.1500 
  7 C        3.9150     2.3240    -0.3290 C.ar  1 <1>   0.1000 
  8 N        5.0050     2.9020    -0.9660 N.pl3 1 <1>  -0.8690 
  9 C        5.9570     3.6760    -0.1620 C.3   1 <1>   0.2890 
 10 C        6.1000     5.0570    -0.7910 C.3   1 <1>  -0.1600 
 11 C        7.2950     2.9460    -0.1350 C.3   1 <1>  -0.1600 
 12 C        7.1670     5.8700    -0.0660 C.3   1 <1>   0.3430 
 13 C        8.3440     3.7860     0.5870 C.3   1 <1>   0.3430 
 14 N        8.4610     5.1240    -0.0670 N.4   1 <1>  -0.9590 
 15 C        9.5400     5.9360     0.5740 C.3   1 <1>   0.2630 
 16 H        2.4900    -0.7140     0.1810 H     1 <1>   0.1500 
 17 H        1.2150     3.1050     1.5770 H     1 <1>   0.1500 
 18 H        4.4130     0.3430    -0.9650 H     1 <1>   0.1500 
 19 H        3.1340     4.1660     0.4220 H     1 <1>   0.1500 
 20 H        5.4650     2.2730    -1.6330 H     1 <1>   0.4000 
 21 H        5.5840     3.7750     0.8460 H     1 <1>   0.0800 
 22 H        5.1580     5.5730    -0.7240 H     1 <1>   0.0800 
 23 H        6.3570     4.9690    -1.8310 H     1 <1>   0.0800 
 24 H        7.6320     2.7360    -1.1350 H     1 <1>   0.0800 
 25 H        7.1770     2.0120     0.3860 H     1 <1>   0.0800 
 26 H        6.8510     6.0520     0.9500 H     1 <1>   0.0800 
 27 H        7.2870     6.8220    -0.5580 H     1 <1>   0.0800 
 28 H        9.2940     3.2760     0.5590 H     1 <1>   0.0800 
 29 H        8.0580     3.9090     1.6200 H     1 <1>   0.0800 
 30 H        8.7220     4.9660    -1.0520 H     1 <1>   0.4500 
 31 H        9.3040     6.1260     1.6090 H     1 <1>   0.0800 
 32 H        9.6500     6.8820     0.0670 H     1 <1>   0.0800 
 33 H       10.4820     5.4130     0.5270 H     1 <1>   0.0800 
@<TRIPOS>BOND
  1   1   2  1   
  2   2   3  ar  
  3   2   4  ar  
  4   3   5  ar  
  5   3  16  1   
  6   4   6  ar  
  7   4  17  1   
  8   5   7  ar  
  9   5  18  1   
 10   6   7  ar  
 11   6  19  1   
 12   7   8  1   
 13   8   9  1   
 14   8  20  1   
 15   9  10  1   
 16   9  11  1   
 17   9  21  1   
 18  10  12  1   
 19  10  22  1   
 20  10  23  1   
 21  11  13  1   
 22  11  24  1   
 23  11  25  1   
 24  12  14  1   
 25  12  26  1   
 26  12  27  1   
 27  13  14  1   
 28  13  28  1   
 29  13  29  1   
 30  14  15  1   
 31  14  30  1   
 32  15  31  1   
 33  15  32  1   
 34  15  33  1   
@<TRIPOS>SUBSTRUCTURE
  1 ****   9 GROUP 4 **** **** 0

# MOE 2024.06 (io_trps.svl 2023.06)
