@<TRIPOS>MOLECULE
NONAME
29 29 1 0 0 
SMALL
USER_CHARGES


@<TRIPOS>ATOM
  1 O        5.8240     1.0480    -1.9620 O.2   1 <1>  -0.5700 
  2 C        5.9180    -0.1350    -1.7320 C.2   1 <1>   0.5440 
  3 N        7.0720    -0.7430    -2.1150 N.am  1 <1>  -0.7300 
  4 C        4.8420    -0.8210    -1.0430 C.ar  1 <1>   0.0860 
  5 C        7.6110    -2.0660    -1.7260 C.3   1 <1>   0.1400 
  6 C        4.2820    -2.0110    -1.5040 C.ar  1 <1>  -0.1500 
  7 C        4.3070    -0.2960     0.1330 C.ar  1 <1>  -0.1500 
  8 C        7.8900    -2.0990    -0.2220 C.3   1 <1>  -0.1600 
  9 C        3.2670    -2.6340    -0.8080 C.ar  1 <1>   0.2110 
 10 C        3.2920    -0.9420     0.8050 C.ar  1 <1>   0.2110 
 11 C        8.3420    -3.4910     0.2150 C.3   1 <1>   0.1200 
 12 N        2.7830    -2.1050     0.3390 N.ar  1 <1>  -0.2100 
 13 O        8.2880    -3.5430     1.5920 O.3   1 <1>  -0.6800 
 14 C        1.6890    -2.7910     1.0800 C.3   1 <1>   0.2480 
 15 H        7.7400    -0.1120    -2.5700 H     1 <1>   0.3700 
 16 H        8.5230    -2.2470    -2.2710 H     1 <1>   0.0800 
 17 H        6.9080    -2.8340    -1.9930 H     1 <1>   0.0800 
 18 H        4.6490    -2.4390    -2.4220 H     1 <1>   0.1500 
 19 H        4.7030     0.6340     0.5100 H     1 <1>   0.1500 
 20 H        6.9930    -1.8510     0.3140 H     1 <1>   0.0800 
 21 H        8.6550    -1.3810     0.0160 H     1 <1>   0.0800 
 22 H        2.8470    -3.5560    -1.1810 H     1 <1>   0.1500 
 23 H        2.8960    -0.5170     1.7140 H     1 <1>   0.1500 
 24 H        9.3480    -3.7070    -0.1030 H     1 <1>   0.0800 
 25 H        7.6770    -4.2510    -0.1610 H     1 <1>   0.0800 
 26 H        8.9880    -2.9870     1.9900 H     1 <1>   0.4000 
 27 H        1.7290    -3.8530     0.9080 H     1 <1>   0.0800 
 28 H        0.7360    -2.4170     0.7470 H     1 <1>   0.0800 
 29 H        1.7870    -2.6130     2.1370 H     1 <1>   0.0800 
@<TRIPOS>BOND
  1   1   2  2   
  2   2   3  am  
  3   2   4  1   
  4   3   5  1   
  5   3  15  1   
  6   4   6  ar  
  7   4   7  ar  
  8   5   8  1   
  9   5  16  1   
 10   5  17  1   
 11   6   9  ar  
 12   6  18  1   
 13   7  10  ar  
 14   7  19  1   
 15   8  11  1   
 16   8  20  1   
 17   8  21  1   
 18   9  12  ar  
 19   9  22  1   
 20  10  12  ar  
 21  10  23  1   
 22  11  13  1   
 23  11  24  1   
 24  11  25  1   
 25  12  14  1   
 26  13  26  1   
 27  14  27  1   
 28  14  28  1   
 29  14  29  1   
@<TRIPOS>SUBSTRUCTURE
  1 ****   4 GROUP 4 **** **** 0

# MOE 2024.06 (io_trps.svl 2023.06)
