@<TRIPOS>MOLECULE
NONAME
25 25 1 0 0 
SMALL
USER_CHARGES


@<TRIPOS>ATOM
  1 BR       0.1840    -0.3790    -0.1380 Br    1 <1>  -0.1110 
  2 C       -1.7260    -0.1350    -0.1720 C.ar  1 <1>   0.1110 
  3 C       -2.5030    -1.0530    -0.8480 C.ar  1 <1>  -0.1500 
  4 C       -2.2720     0.9550     0.4800 C.ar  1 <1>  -0.1500 
  5 C       -3.8700    -0.8550    -0.8560 C.ar  1 <1>   0.1770 
  6 C       -3.6460     1.1310     0.4570 C.ar  1 <1>  -0.1500 
  7 CL      -4.8700    -2.0080    -1.7150 Cl    1 <1>  -0.1770 
  8 C       -4.4750     0.2270    -0.2100 C.ar  1 <1>   0.1170 
  9 N       -5.8790     0.3560    -0.2680 N.am  1 <1>  -0.5470 
 10 C       -6.7600     1.1700     0.3900 C.2   1 <1>   0.5690 
 11 O       -6.4240     1.9850     1.2150 O.2   1 <1>  -0.5700 
 12 C       -8.2490     1.0160     0.0580 C.3   1 <1>  -0.0190 
 13 C       -8.8630     2.3410    -0.4250 C.3   1 <1>  -0.2400 
 14 C       -9.0380     0.4790     1.2630 C.3   1 <1>  -0.2400 
 15 H       -2.0590    -1.8930    -1.3510 H     1 <1>   0.1500 
 16 H       -1.6360     1.6520     0.9960 H     1 <1>   0.1500 
 17 H       -4.0640     1.9830     0.9620 H     1 <1>   0.1500 
 18 H       -6.3180    -0.3230    -0.8910 H     1 <1>   0.3700 
 19 H       -8.3460     0.3030    -0.7410 H     1 <1>   0.0800 
 20 H       -8.8070     3.0830     0.3530 H     1 <1>   0.0800 
 21 H       -9.8940     2.2030    -0.6970 H     1 <1>   0.0800 
 22 H       -8.3260     2.7080    -1.2820 H     1 <1>   0.0800 
 23 H       -8.9790     1.1720     2.0850 H     1 <1>   0.0800 
 24 H       -8.6310    -0.4630     1.5840 H     1 <1>   0.0800 
 25 H      -10.0720     0.3360     1.0050 H     1 <1>   0.0800 
@<TRIPOS>BOND
  1   1   2  1   
  2   2   3  ar  
  3   2   4  ar  
  4   3   5  ar  
  5   3  15  1   
  6   4   6  ar  
  7   4  16  1   
  8   5   7  1   
  9   5   8  ar  
 10   6   8  ar  
 11   6  17  1   
 12   8   9  1   
 13   9  10  am  
 14   9  18  1   
 15  10  11  2   
 16  10  12  1   
 17  12  13  1   
 18  12  14  1   
 19  12  19  1   
 20  13  20  1   
 21  13  21  1   
 22  13  22  1   
 23  14  23  1   
 24  14  24  1   
 25  14  25  1   
@<TRIPOS>SUBSTRUCTURE
  1 ****   8 GROUP 4 **** **** 0

# MOE 2024.06 (io_trps.svl 2023.06)
