@<TRIPOS>MOLECULE
NONAME
43 45 1 0 0 
SMALL
USER_CHARGES


@<TRIPOS>ATOM
  1 O       -1.2150    -0.3390     1.0550 O.3   1 <1>  -0.3630 
  2 C       -2.2790     0.5150     1.0800 C.ar  1 <1>   0.0830 
  3 C       -1.1360    -1.3990     0.1300 C.3   1 <1>   0.0400 
  4 C       -2.3260     1.4850     2.0810 C.ar  1 <1>   0.0830 
  5 C       -3.3140     0.4600     0.1490 C.ar  1 <1>  -0.1500 
  6 O       -1.3480     1.5790     3.0080 O.3   1 <1>  -0.5330 
  7 C       -3.3820     2.3770     2.1410 C.ar  1 <1>  -0.1500 
  8 C       -4.3920     1.3350     0.2120 C.ar  1 <1>  -0.1440 
  9 C       -4.4030     2.3030     1.2100 C.ar  1 <1>  -0.1500 
 10 C       -5.5220     1.2640    -0.8280 C.3   1 <1>   0.0630 
 11 C       -6.9110     1.8050    -0.4090 C.3   1 <1>  -0.0800 
 12 C       -5.8790    -0.1460    -1.3560 C.3   1 <1>  -0.1600 
 13 C       -7.4450     1.0610     0.8420 C.3   1 <1>  -0.0800 
 14 C       -7.7790     1.2230    -1.5150 C.3   1 <1>  -0.1600 
 15 C       -7.4120    -0.2210    -1.2020 C.3   1 <1>  -0.0800 
 16 C       -7.8340    -0.3450     0.2890 C.3   1 <1>   0.0000 
 17 C       -8.5640     1.8640     1.5310 C.3   1 <1>  -0.2400 
 18 C       -9.3390    -0.6870     0.3690 C.3   1 <1>  -0.2400 
 19 C       -7.1000    -1.4600     1.0640 C.3   1 <1>  -0.2400 
 20 H       -0.2360    -1.9500     0.3340 H     1 <1>   0.0800 
 21 H       -1.0970    -0.9910    -0.8640 H     1 <1>   0.0800 
 22 H       -1.9930    -2.0360     0.2570 H     1 <1>   0.0800 
 23 H       -3.2800    -0.2630    -0.6400 H     1 <1>   0.1500 
 24 H       -1.4990     2.2930     3.6470 H     1 <1>   0.4500 
 25 H       -3.4170     3.1300     2.9060 H     1 <1>   0.1500 
 26 H       -5.2080     3.0120     1.2730 H     1 <1>   0.1500 
 27 H       -5.1920     1.8510    -1.6690 H     1 <1>   0.0800 
 28 H       -6.9460     2.8780    -0.3400 H     1 <1>   0.0800 
 29 H       -5.3820    -0.9460    -0.8440 H     1 <1>   0.0800 
 30 H       -5.6170    -0.2120    -2.3980 H     1 <1>   0.0800 
 31 H       -6.6580     0.9570     1.5670 H     1 <1>   0.0800 
 32 H       -7.4670     1.5300    -2.4990 H     1 <1>   0.0800 
 33 H       -8.8230     1.4480    -1.3910 H     1 <1>   0.0800 
 34 H       -7.8690    -0.9510    -1.8480 H     1 <1>   0.0800 
 35 H       -9.3760     2.0700     0.8590 H     1 <1>   0.0800 
 36 H       -8.1740     2.8030     1.8820 H     1 <1>   0.0800 
 37 H       -8.9400     1.3230     2.3810 H     1 <1>   0.0800 
 38 H       -9.9500     0.0320    -0.1420 H     1 <1>   0.0800 
 39 H       -9.6640    -0.7360     1.3930 H     1 <1>   0.0800 
 40 H       -9.5220    -1.6470    -0.0800 H     1 <1>   0.0800 
 41 H       -6.0550    -1.2410     1.1900 H     1 <1>   0.0800 
 42 H       -7.1960    -2.3990     0.5500 H     1 <1>   0.0800 
 43 H       -7.5200    -1.5650     2.0480 H     1 <1>   0.0800 
@<TRIPOS>BOND
  1   1   2  1   
  2   1   3  1   
  3   2   4  ar  
  4   2   5  ar  
  5   3  20  1   
  6   3  21  1   
  7   3  22  1   
  8   4   6  1   
  9   4   7  ar  
 10   5   8  ar  
 11   5  23  1   
 12   6  24  1   
 13   7   9  ar  
 14   7  25  1   
 15   8   9  ar  
 16   8  10  1   
 17   9  26  1   
 18  10  11  1   
 19  10  12  1   
 20  10  27  1   
 21  11  13  1   
 22  11  14  1   
 23  11  28  1   
 24  12  15  1   
 25  12  29  1   
 26  12  30  1   
 27  13  16  1   
 28  13  17  1   
 29  13  31  1   
 30  14  15  1   
 31  14  32  1   
 32  14  33  1   
 33  15  16  1   
 34  15  34  1   
 35  16  18  1   
 36  16  19  1   
 37  17  35  1   
 38  17  36  1   
 39  17  37  1   
 40  18  38  1   
 41  18  39  1   
 42  18  40  1   
 43  19  41  1   
 44  19  42  1   
 45  19  43  1   
@<TRIPOS>SUBSTRUCTURE
  1 ****   8 GROUP 4 **** **** 0

# MOE 2024.06 (io_trps.svl 2023.06)
