@<TRIPOS>MOLECULE
NONAME
52 55 1 0 0 
SMALL
USER_CHARGES


@<TRIPOS>ATOM
  1 O       -1.7580    -0.5560     0.5680 O.3   1 <1>  -0.3630 
  2 C       -2.4760    -1.5630     0.0070 C.ar  1 <1>   0.0830 
  3 C       -2.3150     0.7280     0.7330 C.3   1 <1>   0.0400 
  4 C       -3.7960    -1.4330    -0.4090 C.ar  1 <1>  -0.1500 
  5 C       -1.8280    -2.7790    -0.1470 C.ar  1 <1>  -0.1500 
  6 C       -4.4740    -2.5120    -0.9600 C.ar  1 <1>   0.1000 
  7 C       -2.4890    -3.8550    -0.7120 C.ar  1 <1>  -0.1500 
  8 N       -5.7990    -2.4060    -1.3680 N.pl3 1 <1>  -0.8690 
  9 C       -3.8040    -3.7190    -1.1180 C.ar  1 <1>  -0.1500 
 10 C       -6.9550    -2.3870    -0.4230 C.3   1 <1>   0.5490 
 11 C       -8.0470    -3.2790    -1.0450 C.2   1 <1>   0.0060 
 12 C       -6.5820    -2.9330     0.9730 C.3   1 <1>  -0.1600 
 13 C       -7.3060    -0.9020    -0.1900 C.3   1 <1>  -0.1600 
 14 N       -7.7830    -4.2620    -1.8310 N.2   1 <1>  -0.3380 
 15 N       -9.3690    -3.2070    -0.8500 N.pl3 1 <1>   0.5930 
 16 C       -6.3870    -1.7280     1.8930 C.3   1 <1>  -0.1600 
 17 C       -7.3180    -0.6650     1.3240 C.3   1 <1>  -0.1600 
 18 N       -8.9450    -4.8140    -2.1360 N.2   1 <1>   0.0000 
 19 N       -9.9010    -4.1970    -1.5540 N.2   1 <1>  -0.4180 
 20 C      -10.1940    -2.3030    -0.1160 C.ar  1 <1>  -0.0230 
 21 C      -10.4810    -2.5140     1.2380 C.ar  1 <1>  -0.1440 
 22 C      -10.7470    -1.1930    -0.7660 C.ar  1 <1>  -0.1430 
 23 C      -11.2380    -1.5850     1.9310 C.ar  1 <1>  -0.1500 
 24 C      -10.0280    -3.7450     2.0160 C.3   1 <1>  -0.0970 
 25 C      -11.5030    -0.2790    -0.0520 C.ar  1 <1>  -0.1500 
 26 C      -10.5570    -0.9670    -2.2650 C.3   1 <1>  -0.0970 
 27 C      -11.7400    -0.4670     1.2950 C.ar  1 <1>  -0.1500 
 28 H       -1.5710     1.3600     1.1820 H     1 <1>   0.0800 
 29 H       -3.1730     0.6570     1.3780 H     1 <1>   0.0800 
 30 H       -2.5900     1.1150    -0.2330 H     1 <1>   0.0800 
 31 H       -4.3180    -0.5050    -0.3170 H     1 <1>   0.1500 
 32 H       -0.8060    -2.8730     0.1750 H     1 <1>   0.1500 
 33 H       -1.9800    -4.7950    -0.8340 H     1 <1>   0.1500 
 34 H       -6.0360    -3.1240    -2.0640 H     1 <1>   0.4000 
 35 H       -4.3200    -4.5550    -1.5550 H     1 <1>   0.1500 
 36 H       -5.7280    -3.5840     0.9680 H     1 <1>   0.0800 
 37 H       -7.4020    -3.5060     1.3540 H     1 <1>   0.0800 
 38 H       -8.2310    -0.6060    -0.6320 H     1 <1>   0.0800 
 39 H       -6.5470    -0.2750    -0.6200 H     1 <1>   0.0800 
 40 H       -5.3680    -1.3880     1.8330 H     1 <1>   0.0800 
 41 H       -6.6160    -1.9590     2.9190 H     1 <1>   0.0800 
 42 H       -8.3130    -0.8130     1.7080 H     1 <1>   0.0800 
 43 H       -6.9940     0.3300     1.5770 H     1 <1>   0.0800 
 44 H      -11.4510    -1.7310     2.9760 H     1 <1>   0.1500 
 45 H       -9.6390    -4.5180     1.3780 H     1 <1>   0.0800 
 46 H      -10.8660    -4.1610     2.5480 H     1 <1>   0.0800 
 47 H       -9.2780    -3.4700     2.7350 H     1 <1>   0.0800 
 48 H      -11.9210     0.5840    -0.5400 H     1 <1>   0.1500 
 49 H       -9.5160    -0.9660    -2.5320 H     1 <1>   0.0800 
 50 H      -10.9810    -0.0280    -2.5710 H     1 <1>   0.0800 
 51 H      -11.0510    -1.7500    -2.8150 H     1 <1>   0.0800 
 52 H      -12.3250     0.2500     1.8440 H     1 <1>   0.1500 
@<TRIPOS>BOND
  1   1   2  1   
  2   1   3  1   
  3   2   4  ar  
  4   2   5  ar  
  5   3  28  1   
  6   3  29  1   
  7   3  30  1   
  8   4   6  ar  
  9   4  31  1   
 10   5   7  ar  
 11   5  32  1   
 12   6   8  1   
 13   6   9  ar  
 14   7   9  ar  
 15   7  33  1   
 16   8  10  1   
 17   8  34  1   
 18   9  35  1   
 19  10  11  1   
 20  10  12  1   
 21  10  13  1   
 22  11  14  2   
 23  11  15  1   
 24  12  16  1   
 25  12  36  1   
 26  12  37  1   
 27  13  17  1   
 28  13  38  1   
 29  13  39  1   
 30  14  18  1   
 31  15  19  1   
 32  15  20  1   
 33  16  17  1   
 34  16  40  1   
 35  16  41  1   
 36  17  42  1   
 37  17  43  1   
 38  18  19  2   
 39  20  21  ar  
 40  20  22  ar  
 41  21  23  ar  
 42  21  24  1   
 43  22  25  ar  
 44  22  26  1   
 45  23  27  ar  
 46  23  44  1   
 47  24  45  1   
 48  24  46  1   
 49  24  47  1   
 50  25  27  ar  
 51  25  48  1   
 52  26  49  1   
 53  26  50  1   
 54  26  51  1   
 55  27  52  1   
@<TRIPOS>SUBSTRUCTURE
  1 ****  10 GROUP 4 **** **** 0

# MOE 2024.06 (io_trps.svl 2023.06)
