@<TRIPOS>MOLECULE
NONAME
38 39 1 0 0 
SMALL
USER_CHARGES


@<TRIPOS>ATOM
  1 O        0.5950     0.1550    -1.1840 O.2   1 <1>  -0.5700 
  2 C        1.5680    -0.4920    -0.8850 C.2   1 <1>   0.5700 
  3 N        2.6070     0.0290    -0.1630 N.am  1 <1>  -0.6600 
  4 C        3.8720    -0.7140     0.0740 C.3   1 <1>   0.1400 
  5 C        2.5680     1.4220     0.3690 C.3   1 <1>   0.1400 
  6 C        5.0870     0.1230    -0.3790 C.3   1 <1>   0.3430 
  7 C        3.7980     2.2200    -0.1000 C.3   1 <1>   0.3430 
  8 N        5.1010     1.5170     0.2130 N.4   1 <1>  -0.9590 
  9 C        6.3010     2.2980    -0.2270 C.3   1 <1>   0.4230 
 10 C        7.5930     1.5170     0.1010 C.3   1 <1>  -0.1600 
 11 C        6.3370     3.6910     0.4260 C.3   1 <1>  -0.1600 
 12 C        8.8340     2.4060     0.3240 C.3   1 <1>  -0.0800 
 13 C        7.5170     4.5310    -0.1020 C.3   1 <1>  -0.1600 
 14 C        8.7380     3.6890    -0.5090 C.3   1 <1>  -0.1600 
 15 C       10.1210     1.6390     0.0040 C.3   1 <1>  -0.2400 
 16 H        1.6260    -1.5160    -1.2120 H     1 <1>   0.0600 
 17 H        3.8580    -1.6440    -0.4680 H     1 <1>   0.0800 
 18 H        3.9590    -0.9440     1.1220 H     1 <1>   0.0800 
 19 H        2.5390     1.3910     1.4440 H     1 <1>   0.0800 
 20 H        1.6760     1.9270     0.0360 H     1 <1>   0.0800 
 21 H        5.0680     0.1940    -1.4550 H     1 <1>   0.0800 
 22 H        5.9850    -0.4040    -0.1040 H     1 <1>   0.0800 
 23 H        3.7700     3.1840     0.3790 H     1 <1>   0.0800 
 24 H        3.7160     2.3770    -1.1630 H     1 <1>   0.0800 
 25 H        5.1650     1.4250     1.2340 H     1 <1>   0.4500 
 26 H        6.2570     2.4420    -1.2950 H     1 <1>   0.0800 
 27 H        7.7910     0.8530    -0.7220 H     1 <1>   0.0800 
 28 H        7.4640     0.9240     0.9890 H     1 <1>   0.0800 
 29 H        6.4450     3.5770     1.4910 H     1 <1>   0.0800 
 30 H        5.4420     4.2520     0.2340 H     1 <1>   0.0800 
 31 H        8.8740     2.6920     1.3640 H     1 <1>   0.0800 
 32 H        7.8090     5.2310     0.6640 H     1 <1>   0.0800 
 33 H        7.2040     5.1100    -0.9550 H     1 <1>   0.0800 
 34 H        8.6700     3.4310    -1.5530 H     1 <1>   0.0800 
 35 H        9.6310     4.2800    -0.3840 H     1 <1>   0.0800 
 36 H       10.1580     1.3600    -1.0340 H     1 <1>   0.0800 
 37 H       10.1890     0.7480     0.6040 H     1 <1>   0.0800 
 38 H       10.9800     2.2500     0.2200 H     1 <1>   0.0800 
@<TRIPOS>BOND
  1   1   2  2   
  2   2   3  am  
  3   2  16  1   
  4   3   4  1   
  5   3   5  1   
  6   4   6  1   
  7   4  17  1   
  8   4  18  1   
  9   5   7  1   
 10   5  19  1   
 11   5  20  1   
 12   6   8  1   
 13   6  21  1   
 14   6  22  1   
 15   7   8  1   
 16   7  23  1   
 17   7  24  1   
 18   8   9  1   
 19   8  25  1   
 20   9  10  1   
 21   9  11  1   
 22   9  26  1   
 23  10  12  1   
 24  10  27  1   
 25  10  28  1   
 26  11  13  1   
 27  11  29  1   
 28  11  30  1   
 29  12  14  1   
 30  12  15  1   
 31  12  31  1   
 32  13  14  1   
 33  13  32  1   
 34  13  33  1   
 35  14  34  1   
 36  14  35  1   
 37  15  36  1   
 38  15  37  1   
 39  15  38  1   
@<TRIPOS>SUBSTRUCTURE
  1 ****   8 GROUP 4 **** **** 0

# MOE 2024.06 (io_trps.svl 2023.06)
