@<TRIPOS>MOLECULE
NONAME
32 33 1 0 0 
SMALL
USER_CHARGES


@<TRIPOS>ATOM
  1 BR       0.3250     0.6140     1.9520 Br    1 <1>  -0.1110 
  2 C        2.0490     1.0880     1.2380 C.ar  1 <1>   0.1110 
  3 C        3.1180     1.2080     2.1040 C.ar  1 <1>  -0.1500 
  4 C        2.1740     1.2970    -0.1230 C.ar  1 <1>  -0.1500 
  5 C        4.3440     1.5480     1.5660 C.ar  1 <1>   0.1770 
  6 C        3.4140     1.6390    -0.6380 C.ar  1 <1>  -0.1500 
  7 CL       5.7150     1.6990     2.6480 Cl    1 <1>  -0.1770 
  8 C        4.5230     1.7690     0.1980 C.ar  1 <1>   0.1170 
  9 N        5.7960     2.1200    -0.2850 N.am  1 <1>  -0.5470 
 10 C        6.3780     2.0440    -1.5160 C.2   1 <1>   0.5690 
 11 O        5.8120     1.6640    -2.5120 O.2   1 <1>  -0.5700 
 12 C        7.8480     2.4650    -1.5980 C.3   1 <1>   0.1710 
 13 N        8.5460     2.4540    -0.2760 N.3   1 <1>  -0.8100 
 14 C        9.7980     3.2340    -0.3300 C.3   1 <1>   0.1100 
 15 C        8.8540     1.0740     0.1640 C.3   1 <1>   0.1100 
 16 C       10.5420     3.1760     1.0170 C.3   1 <1>   0.1200 
 17 C        9.6230     1.0790     1.4980 C.3   1 <1>   0.1200 
 18 O       10.7860     1.8490     1.3850 O.3   1 <1>  -0.5600 
 19 H        3.0000     1.0410     3.1580 H     1 <1>   0.1500 
 20 H        1.3180     1.1950    -0.7670 H     1 <1>   0.1500 
 21 H        3.5160     1.8070    -1.6950 H     1 <1>   0.1500 
 22 H        6.4870     2.3870     0.4290 H     1 <1>   0.3700 
 23 H        7.8650     3.4620    -2.0000 H     1 <1>   0.0800 
 24 H        8.3590     1.8210    -2.2920 H     1 <1>   0.0800 
 25 H        9.5730     4.2610    -0.5600 H     1 <1>   0.0800 
 26 H       10.4430     2.8480    -1.1010 H     1 <1>   0.0800 
 27 H        9.4540     0.5730    -0.5780 H     1 <1>   0.0800 
 28 H        7.9440     0.5130     0.2890 H     1 <1>   0.0800 
 29 H        9.9610     3.6470     1.7910 H     1 <1>   0.0800 
 30 H       11.4910     3.6750     0.9420 H     1 <1>   0.0800 
 31 H        9.9150     0.0800     1.7660 H     1 <1>   0.0800 
 32 H        9.0120     1.4870     2.2850 H     1 <1>   0.0800 
@<TRIPOS>BOND
  1   1   2  1   
  2   2   3  ar  
  3   2   4  ar  
  4   3   5  ar  
  5   3  19  1   
  6   4   6  ar  
  7   4  20  1   
  8   5   7  1   
  9   5   8  ar  
 10   6   8  ar  
 11   6  21  1   
 12   8   9  1   
 13   9  10  am  
 14   9  22  1   
 15  10  11  2   
 16  10  12  1   
 17  12  13  1   
 18  12  23  1   
 19  12  24  1   
 20  13  14  1   
 21  13  15  1   
 22  14  16  1   
 23  14  25  1   
 24  14  26  1   
 25  15  17  1   
 26  15  27  1   
 27  15  28  1   
 28  16  18  1   
 29  16  29  1   
 30  16  30  1   
 31  17  18  1   
 32  17  31  1   
 33  17  32  1   
@<TRIPOS>SUBSTRUCTURE
  1 ****   9 GROUP 4 **** **** 0

# MOE 2024.06 (io_trps.svl 2023.06)
