@<TRIPOS>MOLECULE
NONAME
47 49 1 0 0 
SMALL
USER_CHARGES


@<TRIPOS>ATOM
  1 O       -1.9740    -0.7240     1.6460 O.2   1 <1>  -0.5700 
  2 C       -1.0170    -1.4310     1.3810 C.2   1 <1>   0.5440 
  3 N        0.2480    -0.8990     1.5060 N.am  1 <1>  -0.6600 
  4 C       -1.2260    -2.7870     0.9120 C.ar  1 <1>   0.0860 
  5 C        1.4430    -1.4280     0.8070 C.3   1 <1>   0.1400 
  6 C        0.4910     0.4800     1.9910 C.3   1 <1>   0.1400 
  7 C       -2.0920    -3.0520    -0.1610 C.ar  1 <1>   0.1170 
  8 C       -0.5610    -3.8590     1.5090 C.ar  1 <1>  -0.1500 
  9 C        2.5270    -0.3780     1.0240 C.3   1 <1>  -0.1600 
 10 C        1.7690     0.9190     1.2870 C.3   1 <1>  -0.1600 
 11 N       -2.8220    -2.0020    -0.7320 N.am  1 <1>  -0.5470 
 12 C       -2.2300    -4.3590    -0.6210 C.ar  1 <1>  -0.1500 
 13 C       -0.7120    -5.1510     1.0470 C.ar  1 <1>  -0.1500 
 14 C       -3.2690    -1.7840    -2.0050 C.2   1 <1>   0.5690 
 15 C       -1.5460    -5.4010    -0.0280 C.ar  1 <1>  -0.1500 
 16 O       -3.1080    -2.5670    -2.9080 O.2   1 <1>  -0.5700 
 17 C       -3.9640    -0.4660    -2.3010 C.3   1 <1>   0.0440 
 18 C       -4.9180    -0.0410    -1.1890 C.ar  1 <1>  -0.1430 
 19 C       -4.4760     0.7580    -0.1450 C.ar  1 <1>  -0.1500 
 20 C       -6.2390    -0.4610    -1.2110 C.ar  1 <1>  -0.1500 
 21 C       -5.3470     1.1320     0.8620 C.ar  1 <1>  -0.1500 
 22 C       -7.1130    -0.0850    -0.2050 C.ar  1 <1>  -0.1500 
 23 C       -6.6690     0.7190     0.8400 C.ar  1 <1>   0.0830 
 24 O       -7.4580     1.1360     1.8620 O.3   1 <1>  -0.3630 
 25 C       -8.8090     0.7430     1.9510 C.3   1 <1>   0.0400 
 26 H        1.2230    -1.5320    -0.2420 H     1 <1>   0.0800 
 27 H        1.7430    -2.3790     1.2120 H     1 <1>   0.0800 
 28 H        0.6350     0.4530     3.0570 H     1 <1>   0.0800 
 29 H       -0.3320     1.1340     1.7550 H     1 <1>   0.0800 
 30 H        0.0820    -3.6680     2.3510 H     1 <1>   0.1500 
 31 H        3.1860    -0.3030     0.1770 H     1 <1>   0.0800 
 32 H        3.1040    -0.6450     1.8920 H     1 <1>   0.0800 
 33 H        2.3340     1.6140     1.8830 H     1 <1>   0.0800 
 34 H        1.5090     1.3880     0.3540 H     1 <1>   0.0800 
 35 H       -3.0160    -1.2370    -0.0690 H     1 <1>   0.3700 
 36 H       -2.8870    -4.5630    -1.4490 H     1 <1>   0.1500 
 37 H       -0.1860    -5.9640     1.5180 H     1 <1>   0.1500 
 38 H       -1.6660    -6.4050    -0.3990 H     1 <1>   0.1500 
 39 H       -4.5060    -0.5620    -3.2230 H     1 <1>   0.0800 
 40 H       -3.2130     0.2870    -2.4450 H     1 <1>   0.0800 
 41 H       -3.4530     1.0920    -0.1000 H     1 <1>   0.1500 
 42 H       -6.5950    -1.0870    -2.0110 H     1 <1>   0.1500 
 43 H       -5.0040     1.7460     1.6750 H     1 <1>   0.1500 
 44 H       -8.1290    -0.4270    -0.2520 H     1 <1>   0.1500 
 45 H       -9.2260     1.1800     2.8400 H     1 <1>   0.0800 
 46 H       -8.8570    -0.3300     2.0140 H     1 <1>   0.0800 
 47 H       -9.3350     1.1040     1.0850 H     1 <1>   0.0800 
@<TRIPOS>BOND
  1   1   2  2   
  2   2   3  am  
  3   2   4  1   
  4   3   5  1   
  5   3   6  1   
  6   4   7  ar  
  7   4   8  ar  
  8   5   9  1   
  9   5  26  1   
 10   5  27  1   
 11   6  10  1   
 12   6  28  1   
 13   6  29  1   
 14   7  11  1   
 15   7  12  ar  
 16   8  13  ar  
 17   8  30  1   
 18   9  10  1   
 19   9  31  1   
 20   9  32  1   
 21  10  33  1   
 22  10  34  1   
 23  11  14  am  
 24  11  35  1   
 25  12  15  ar  
 26  12  36  1   
 27  13  15  ar  
 28  13  37  1   
 29  14  16  2   
 30  14  17  1   
 31  15  38  1   
 32  17  18  1   
 33  17  39  1   
 34  17  40  1   
 35  18  19  ar  
 36  18  20  ar  
 37  19  21  ar  
 38  19  41  1   
 39  20  22  ar  
 40  20  42  1   
 41  21  23  ar  
 42  21  43  1   
 43  22  23  ar  
 44  22  44  1   
 45  23  24  1   
 46  24  25  1   
 47  25  45  1   
 48  25  46  1   
 49  25  47  1   
@<TRIPOS>SUBSTRUCTURE
  1 ****  11 GROUP 4 **** **** 0

# MOE 2024.06 (io_trps.svl 2023.06)
