@<TRIPOS>MOLECULE
NONAME
41 42 1 0 0 
SMALL
USER_CHARGES


@<TRIPOS>ATOM
  1 O        1.9830    -2.0510     0.9600 O.3   1 <1>  -0.3630 
  2 C        0.9710    -2.8340     0.5080 C.ar  1 <1>   0.0830 
  3 C        2.8110    -1.3430     0.0670 C.3   1 <1>   0.1200 
  4 C        0.2130    -3.4870     1.4660 C.ar  1 <1>  -0.1500 
  5 C        0.6660    -3.0090    -0.8390 C.ar  1 <1>  -0.1500 
  6 C        3.8370    -0.5620     0.8870 C.3   1 <1>  -0.1600 
  7 C       -0.8380    -4.3050     1.0920 C.ar  1 <1>  -0.1500 
  8 C       -0.3870    -3.8280    -1.2090 C.ar  1 <1>  -0.1500 
  9 C        4.7750     0.2420    -0.0230 C.3   1 <1>  -0.1600 
 10 C       -1.1450    -4.4780    -0.2480 C.ar  1 <1>  -0.1430 
 11 C        5.8100     1.0310     0.7870 C.3   1 <1>   0.0210 
 12 C       -2.2970    -5.3770    -0.6600 C.3   1 <1>  -0.0970 
 13 C        6.7120     1.8200    -0.1460 C.2   1 <1>  -0.1810 
 14 C        6.4990     3.1170    -0.6120 C.2   1 <1>   0.1080 
 15 C        7.8810     1.4410    -0.7090 C.2   1 <1>  -0.3320 
 16 N        7.4470     3.5200    -1.3960 N.2   1 <1>  -0.7070 
 17 C        5.3190     3.9980    -0.2710 C.3   1 <1>  -0.0590 
 18 N        8.3020     2.4840    -1.4540 N.pl3 1 <1>   0.3000 
 19 C        8.6510     0.1360    -0.6000 C.3   1 <1>  -0.0600 
 20 H        2.1950    -0.6740    -0.5090 H     1 <1>   0.0800 
 21 H        3.2990    -2.0520    -0.5790 H     1 <1>   0.0800 
 22 H        0.4520    -3.3500     2.5040 H     1 <1>   0.1500 
 23 H        1.2310    -2.5200    -1.6080 H     1 <1>   0.1500 
 24 H        4.4130    -1.2550     1.4760 H     1 <1>   0.0800 
 25 H        3.3170     0.1080     1.5500 H     1 <1>   0.0800 
 26 H       -1.4150    -4.8050     1.8490 H     1 <1>   0.1500 
 27 H       -0.6150    -3.9580    -2.2530 H     1 <1>   0.1500 
 28 H        4.2000     0.9280    -0.6210 H     1 <1>   0.0800 
 29 H        5.2930    -0.4250    -0.6910 H     1 <1>   0.0800 
 30 H        6.4050     0.3560     1.3740 H     1 <1>   0.0800 
 31 H        5.3160     1.7050     1.4640 H     1 <1>   0.0800 
 32 H       -1.9410    -6.3810    -0.8020 H     1 <1>   0.0800 
 33 H       -2.7350    -5.0300    -1.5780 H     1 <1>   0.0800 
 34 H       -3.0590    -5.3810     0.0980 H     1 <1>   0.0800 
 35 H        4.4040     3.4460    -0.3660 H     1 <1>   0.0800 
 36 H        5.2880     4.8390    -0.9400 H     1 <1>   0.0800 
 37 H        5.4180     4.3590     0.7360 H     1 <1>   0.0800 
 38 H        9.1620     2.5210    -2.0130 H     1 <1>   0.2700 
 39 H        8.1160    -0.5710     0.0070 H     1 <1>   0.0800 
 40 H        9.6130     0.3110    -0.1510 H     1 <1>   0.0800 
 41 H        8.7930    -0.2930    -1.5760 H     1 <1>   0.0800 
@<TRIPOS>BOND
  1   1   2  1   
  2   1   3  1   
  3   2   4  ar  
  4   2   5  ar  
  5   3   6  1   
  6   3  20  1   
  7   3  21  1   
  8   4   7  ar  
  9   4  22  1   
 10   5   8  ar  
 11   5  23  1   
 12   6   9  1   
 13   6  24  1   
 14   6  25  1   
 15   7  10  ar  
 16   7  26  1   
 17   8  10  ar  
 18   8  27  1   
 19   9  11  1   
 20   9  28  1   
 21   9  29  1   
 22  10  12  1   
 23  11  13  1   
 24  11  30  1   
 25  11  31  1   
 26  12  32  1   
 27  12  33  1   
 28  12  34  1   
 29  13  14  1   
 30  13  15  2   
 31  14  16  2   
 32  14  17  1   
 33  15  18  1   
 34  15  19  1   
 35  16  18  1   
 36  17  35  1   
 37  17  36  1   
 38  17  37  1   
 39  18  38  1   
 40  19  39  1   
 41  19  40  1   
 42  19  41  1   
@<TRIPOS>SUBSTRUCTURE
  1 ****   3 GROUP 4 **** **** 0

# MOE 2024.06 (io_trps.svl 2023.06)
