@<TRIPOS>MOLECULE
NONAME
30 30 1 0 0 
SMALL
USER_CHARGES


@<TRIPOS>ATOM
  1 O       -0.0880    -0.6070     0.9810 O.2   1 <1>  -0.5700 
  2 C       -0.8020    -1.5210     0.6320 C.2   1 <1>   0.5440 
  3 N       -0.2250    -2.7450     0.5950 N.am  1 <1>  -0.8000 
  4 C       -2.1880    -1.3090     0.2550 C.ar  1 <1>   0.0860 
  5 C       -3.1550    -2.3070     0.4090 C.ar  1 <1>  -0.1500 
  6 C       -2.6000    -0.0880    -0.2800 C.ar  1 <1>  -0.1500 
  7 C       -4.4800    -2.1060     0.0360 C.ar  1 <1>   0.0830 
  8 C       -3.9120     0.1300    -0.6530 C.ar  1 <1>  -0.1500 
  9 O       -5.4300    -3.0790     0.1550 O.3   1 <1>  -0.3630 
 10 C       -4.8570    -0.8670    -0.4910 C.ar  1 <1>   0.0830 
 11 C       -5.1230    -4.3760     0.6130 C.3   1 <1>   0.0400 
 12 O       -6.1240    -0.5920    -0.8800 O.3   1 <1>  -0.3630 
 13 C       -7.1350    -0.5430     0.1010 C.3   1 <1>   0.2000 
 14 C       -8.4560    -0.8730    -0.5900 C.3   1 <1>  -0.2400 
 15 C       -7.1510     0.8600     0.7080 C.3   1 <1>  -0.2400 
 16 H        0.7670    -2.8140     0.8250 H     1 <1>   0.3700 
 17 H       -0.6460    -3.5540     0.1430 H     1 <1>   0.3700 
 18 H       -2.8460    -3.2400     0.8330 H     1 <1>   0.1500 
 19 H       -1.8730     0.6970    -0.4030 H     1 <1>   0.1500 
 20 H       -4.2130     1.0740    -1.0700 H     1 <1>   0.1500 
 21 H       -6.0260    -4.9590     0.5930 H     1 <1>   0.0800 
 22 H       -4.7530    -4.3130     1.6210 H     1 <1>   0.0800 
 23 H       -4.3920    -4.8150    -0.0430 H     1 <1>   0.0800 
 24 H       -6.9290    -1.2750     0.8620 H     1 <1>   0.0800 
 25 H       -8.6600    -0.1610    -1.3690 H     1 <1>   0.0800 
 26 H       -9.2600    -0.8490     0.1220 H     1 <1>   0.0800 
 27 H       -8.4030    -1.8600    -1.0130 H     1 <1>   0.0800 
 28 H       -7.3180     1.5960    -0.0580 H     1 <1>   0.0800 
 29 H       -6.2160     1.0600     1.1990 H     1 <1>   0.0800 
 30 H       -7.9370     0.9350     1.4360 H     1 <1>   0.0800 
@<TRIPOS>BOND
  1   1   2  2   
  2   2   3  am  
  3   2   4  1   
  4   3  16  1   
  5   3  17  1   
  6   4   5  ar  
  7   4   6  ar  
  8   5   7  ar  
  9   5  18  1   
 10   6   8  ar  
 11   6  19  1   
 12   7   9  1   
 13   7  10  ar  
 14   8  10  ar  
 15   8  20  1   
 16   9  11  1   
 17  10  12  1   
 18  11  21  1   
 19  11  22  1   
 20  11  23  1   
 21  12  13  1   
 22  13  14  1   
 23  13  15  1   
 24  13  24  1   
 25  14  25  1   
 26  14  26  1   
 27  14  27  1   
 28  15  28  1   
 29  15  29  1   
 30  15  30  1   
@<TRIPOS>SUBSTRUCTURE
  1 ****   7 GROUP 4 **** **** 0

# MOE 2024.06 (io_trps.svl 2023.06)
