@<TRIPOS>MOLECULE
NONAME
31 31 1 0 0 
SMALL
USER_CHARGES


@<TRIPOS>ATOM
  1 CL      -0.3170     1.3870     2.0510 Cl    1 <1>  -0.1770 
  2 C        0.4120     2.0950     0.6280 C.ar  1 <1>   0.1770 
  3 C       -0.3510     2.8090    -0.3090 C.ar  1 <1>   0.0860 
  4 C        1.7720     1.8980     0.4800 C.ar  1 <1>  -0.1500 
  5 C       -1.7810     3.0450    -0.1840 C.2   1 <1>   0.5440 
  6 C        0.3310     3.3100    -1.4260 C.ar  1 <1>  -0.1500 
  7 C        2.3920     2.4220    -0.6350 C.ar  1 <1>   0.1900 
  8 O       -2.4760     3.1540    -1.1760 O.2   1 <1>  -0.5700 
  9 N       -2.4010     3.2110     1.0230 N.am  1 <1>  -0.7300 
 10 C        1.6920     3.1240    -1.5960 C.ar  1 <1>  -0.1500 
 11 F        3.6730     2.2460    -0.7870 F     1 <1>  -0.1900 
 12 C       -3.8650     3.0590     1.2890 C.3   1 <1>   0.1400 
 13 C       -4.6570     4.3540     1.0140 C.3   1 <1>   0.3430 
 14 N       -4.6090     4.7290    -0.4310 N.4   1 <1>  -0.9590 
 15 C       -4.6730     6.2040    -0.6420 C.3   1 <1>   0.2630 
 16 C       -5.6260     4.0050    -1.2490 C.3   1 <1>   0.2630 
 17 H        2.3380     1.3490     1.2110 H     1 <1>   0.1500 
 18 H       -0.2180     3.8530    -2.1780 H     1 <1>   0.1500 
 19 H       -1.8130     3.0620     1.8540 H     1 <1>   0.3700 
 20 H        2.2080     3.5140    -2.4570 H     1 <1>   0.1500 
 21 H       -3.9970     2.7850     2.3220 H     1 <1>   0.0800 
 22 H       -4.2570     2.2560     0.6890 H     1 <1>   0.0800 
 23 H       -4.2270     5.1410     1.6110 H     1 <1>   0.0800 
 24 H       -5.6820     4.2260     1.3230 H     1 <1>   0.0800 
 25 H       -3.6800     4.3820    -0.7660 H     1 <1>   0.4500 
 26 H       -5.6200     6.5910    -0.3010 H     1 <1>   0.0800 
 27 H       -4.5620     6.4330    -1.6900 H     1 <1>   0.0800 
 28 H       -3.8810     6.6920    -0.0990 H     1 <1>   0.0800 
 29 H       -6.6230     4.2700    -0.9360 H     1 <1>   0.0800 
 30 H       -5.4970     2.9400    -1.1440 H     1 <1>   0.0800 
 31 H       -5.5100     4.2560    -2.2910 H     1 <1>   0.0800 
@<TRIPOS>BOND
  1   1   2  1   
  2   2   3  ar  
  3   2   4  ar  
  4   3   5  1   
  5   3   6  ar  
  6   4   7  ar  
  7   4  17  1   
  8   5   8  2   
  9   5   9  am  
 10   6  10  ar  
 11   6  18  1   
 12   7  10  ar  
 13   7  11  1   
 14   9  12  1   
 15   9  19  1   
 16  10  20  1   
 17  12  13  1   
 18  12  21  1   
 19  12  22  1   
 20  13  14  1   
 21  13  23  1   
 22  13  24  1   
 23  14  15  1   
 24  14  16  1   
 25  14  25  1   
 26  15  26  1   
 27  15  27  1   
 28  15  28  1   
 29  16  29  1   
 30  16  30  1   
 31  16  31  1   
@<TRIPOS>SUBSTRUCTURE
  1 ****   5 GROUP 4 **** **** 0

# MOE 2024.06 (io_trps.svl 2023.06)
