@<TRIPOS>MOLECULE
NONAME
40 41 1 0 0 
SMALL
USER_CHARGES


@<TRIPOS>ATOM
  1 O        0.2200    -1.0330     1.4950 O.2   1 <1>  -0.5700 
  2 C        0.0050    -1.5620     0.4230 C.2   1 <1>   0.7160 
  3 N       -1.2170    -1.4220    -0.1520 N.am  1 <1>  -0.7300 
  4 C        1.0200    -2.3300    -0.2460 C.2   1 <1>  -0.0860 
  5 C       -2.4410    -1.0400     0.5600 C.3   1 <1>   0.3640 
  6 C        0.8960    -3.5640    -0.8720 C.2   1 <1>   0.1080 
  7 C        2.3310    -2.0720    -0.4360 C.2   1 <1>  -0.0400 
  8 C       -3.4280    -2.1900     0.3910 C.ar  1 <1>  -0.1440 
  9 C       -2.9840     0.2890     0.0120 C.3   1 <1>  -0.1600 
 10 N        2.0190    -3.9260    -1.3690 N.2   1 <1>  -0.4100 
 11 C       -0.3570    -4.4260    -0.9650 C.3   1 <1>   0.0210 
 12 O        2.9320    -3.0180    -1.1140 O.3   1 <1>  -0.0190 
 13 C        3.1570    -0.8810     0.0120 C.3   1 <1>  -0.0600 
 14 C       -3.7840    -2.9490     1.4970 C.ar  1 <1>  -0.1500 
 15 C       -3.9660    -2.5160    -0.8490 C.ar  1 <1>  -0.1500 
 16 C       -2.0380     1.4740     0.2630 C.3   1 <1>  -0.2400 
 17 C       -0.7930    -4.9530     0.4060 C.3   1 <1>  -0.2400 
 18 C       -4.6600    -4.0130     1.3690 C.ar  1 <1>  -0.1500 
 19 C       -4.8420    -3.5790    -0.9780 C.ar  1 <1>  -0.1500 
 20 C       -5.1890    -4.3290     0.1310 C.ar  1 <1>  -0.1500 
 21 H       -1.3830    -1.8630    -1.0510 H     1 <1>   0.3700 
 22 H       -2.2240    -0.9120     1.6080 H     1 <1>   0.0800 
 23 H       -3.9220     0.4920     0.4980 H     1 <1>   0.0800 
 24 H       -3.1760     0.2050    -1.0420 H     1 <1>   0.0800 
 25 H       -0.1520    -5.2630    -1.6090 H     1 <1>   0.0800 
 26 H       -1.1560    -3.8660    -1.4130 H     1 <1>   0.0800 
 27 H        2.5500    -0.1700     0.5410 H     1 <1>   0.0800 
 28 H        3.5920    -0.3970    -0.8440 H     1 <1>   0.0800 
 29 H        3.9460    -1.2130     0.6620 H     1 <1>   0.0800 
 30 H       -3.3760    -2.7200     2.4670 H     1 <1>   0.1500 
 31 H       -3.7090    -1.9460    -1.7240 H     1 <1>   0.1500 
 32 H       -1.8300     1.5730     1.3140 H     1 <1>   0.0800 
 33 H       -2.4870     2.3870    -0.0860 H     1 <1>   0.0800 
 34 H       -1.1060     1.3330    -0.2560 H     1 <1>   0.0800 
 35 H       -0.0040    -5.5410     0.8420 H     1 <1>   0.0800 
 36 H       -1.6680    -5.5690     0.3020 H     1 <1>   0.0800 
 37 H       -1.0270    -4.1420     1.0720 H     1 <1>   0.0800 
 38 H       -4.9290    -4.5950     2.2330 H     1 <1>   0.1500 
 39 H       -5.2560    -3.8230    -1.9410 H     1 <1>   0.1500 
 40 H       -5.8720    -5.1550     0.0320 H     1 <1>   0.1500 
@<TRIPOS>BOND
  1   1   2  2   
  2   2   3  am  
  3   2   4  1   
  4   3   5  1   
  5   3  21  1   
  6   4   6  1   
  7   4   7  2   
  8   5   8  1   
  9   5   9  1   
 10   5  22  1   
 11   6  10  2   
 12   6  11  1   
 13   7  12  1   
 14   7  13  1   
 15   8  14  ar  
 16   8  15  ar  
 17   9  16  1   
 18   9  23  1   
 19   9  24  1   
 20  10  12  1   
 21  11  17  1   
 22  11  25  1   
 23  11  26  1   
 24  13  27  1   
 25  13  28  1   
 26  13  29  1   
 27  14  18  ar  
 28  14  30  1   
 29  15  19  ar  
 30  15  31  1   
 31  16  32  1   
 32  16  33  1   
 33  16  34  1   
 34  17  35  1   
 35  17  36  1   
 36  17  37  1   
 37  18  20  ar  
 38  18  38  1   
 39  19  20  ar  
 40  19  39  1   
 41  20  40  1   
@<TRIPOS>SUBSTRUCTURE
  1 ****   3 GROUP 4 **** **** 0

# MOE 2024.06 (io_trps.svl 2023.06)
