@<TRIPOS>MOLECULE
NONAME
39 40 1 0 0 
SMALL
USER_CHARGES


@<TRIPOS>ATOM
  1 O       -7.1780     2.1100     0.7870 O.3   1 <1>  -0.3630 
  2 C       -6.0030     1.5070     0.4410 C.ar  1 <1>   0.0830 
  3 C       -7.3450     3.5110     0.7610 C.3   1 <1>   0.0400 
  4 C       -5.9750     0.1370     0.1430 C.ar  1 <1>   0.0830 
  5 C       -4.8190     2.2350     0.3630 C.ar  1 <1>  -0.1500 
  6 O       -7.0310    -0.7250     0.1890 O.3   1 <1>  -0.3630 
  7 C       -4.7810    -0.4400    -0.2460 C.ar  1 <1>  -0.1500 
  8 C       -3.6100     1.6560    -0.0160 C.ar  1 <1>  -0.1430 
  9 C       -8.1440    -0.5000     1.0250 C.3   1 <1>   0.0400 
 10 C       -3.6150     0.2980    -0.3280 C.ar  1 <1>  -0.1500 
 11 C       -2.3390     2.5320    -0.0780 C.3   1 <1>   0.1430 
 12 C       -2.5110     3.6340    -1.1510 C.3   1 <1>  -0.1600 
 13 C       -2.1340     3.2930     1.2590 C.3   1 <1>  -0.1600 
 14 C       -1.0890     1.6690    -0.3910 C.3   1 <1>   0.3430 
 15 C       -1.9770     4.9300    -0.5410 C.3   1 <1>  -0.1600 
 16 C       -2.2520     4.7890     0.9510 C.3   1 <1>  -0.1600 
 17 N        0.1720     2.4600    -0.5260 N.4   1 <1>  -0.8530 
 18 H       -6.7590     3.9490     1.5490 H     1 <1>   0.0800 
 19 H       -8.3860     3.7250     0.9220 H     1 <1>   0.0800 
 20 H       -7.0420     3.8820    -0.2020 H     1 <1>   0.0800 
 21 H       -4.8300     3.2800     0.6030 H     1 <1>   0.1500 
 22 H       -4.7750    -1.4890    -0.4860 H     1 <1>   0.1500 
 23 H       -8.6830    -1.4240     1.1210 H     1 <1>   0.0800 
 24 H       -8.7750     0.2430     0.5700 H     1 <1>   0.0800 
 25 H       -7.7990    -0.1710     1.9890 H     1 <1>   0.0800 
 26 H       -2.7400    -0.2380    -0.6400 H     1 <1>   0.1500 
 27 H       -3.5560     3.7810    -1.3660 H     1 <1>   0.0800 
 28 H       -2.0330     3.3980    -2.0850 H     1 <1>   0.0800 
 29 H       -1.1710     3.0940     1.6930 H     1 <1>   0.0800 
 30 H       -2.8640     3.0130     2.0000 H     1 <1>   0.0800 
 31 H       -1.2690     1.1360    -1.3100 H     1 <1>   0.0800 
 32 H       -0.9760     0.9400     0.3950 H     1 <1>   0.0800 
 33 H       -2.4720     5.7950    -0.9510 H     1 <1>   0.0800 
 34 H       -0.9200     5.0310    -0.7120 H     1 <1>   0.0800 
 35 H       -1.5800     5.3850     1.5460 H     1 <1>   0.0800 
 36 H       -3.2590     5.1140     1.1530 H     1 <1>   0.0800 
 37 H        0.0820     3.1390    -1.2900 H     1 <1>   0.4500 
 38 H        0.9790     1.8550    -0.7190 H     1 <1>   0.4500 
 39 H        0.3560     2.9880     0.3340 H     1 <1>   0.4500 
@<TRIPOS>BOND
  1   1   2  1   
  2   1   3  1   
  3   2   4  ar  
  4   2   5  ar  
  5   3  18  1   
  6   3  19  1   
  7   3  20  1   
  8   4   6  1   
  9   4   7  ar  
 10   5   8  ar  
 11   5  21  1   
 12   6   9  1   
 13   7  10  ar  
 14   7  22  1   
 15   8  10  ar  
 16   8  11  1   
 17   9  23  1   
 18   9  24  1   
 19   9  25  1   
 20  10  26  1   
 21  11  12  1   
 22  11  13  1   
 23  11  14  1   
 24  12  15  1   
 25  12  27  1   
 26  12  28  1   
 27  13  16  1   
 28  13  29  1   
 29  13  30  1   
 30  14  17  1   
 31  14  31  1   
 32  14  32  1   
 33  15  16  1   
 34  15  33  1   
 35  15  34  1   
 36  16  35  1   
 37  16  36  1   
 38  17  37  1   
 39  17  38  1   
 40  17  39  1   
@<TRIPOS>SUBSTRUCTURE
  1 ****   8 GROUP 4 **** **** 0

# MOE 2024.06 (io_trps.svl 2023.06)
