@<TRIPOS>MOLECULE
NONAME
51 53 1 0 0 
SMALL
USER_CHARGES


@<TRIPOS>ATOM
  1 O       -2.0270    -0.3440    -1.3500 O.3   1 <1>  -0.3630 
  2 C       -2.3830     0.7590    -0.6320 C.ar  1 <1>   0.0830 
  3 C       -0.8110    -0.4400    -2.0600 C.3   1 <1>   0.0400 
  4 C       -1.7490     2.0120    -0.6230 C.ar  1 <1>   0.0830 
  5 C       -3.5040     0.5750     0.1590 C.ar  1 <1>  -0.1500 
  6 O       -0.6570     2.2970    -1.3640 O.3   1 <1>  -0.5330 
  7 C       -2.2500     3.0320     0.1720 C.ar  1 <1>  -0.1500 
  8 C       -4.0150     1.5990     0.9430 C.ar  1 <1>  -0.1440 
  9 C       -3.3760     2.8300     0.9500 C.ar  1 <1>  -0.1500 
 10 C       -5.2650     1.3700     1.7700 C.3   1 <1>   0.4860 
 11 N       -6.4100     1.1640     0.8430 N.4   1 <1>  -0.9590 
 12 C       -6.6450     2.3680    -0.0380 C.3   1 <1>   0.3430 
 13 C       -7.6680     0.7720     1.5760 C.3   1 <1>   0.3430 
 14 C       -7.8270     2.1780    -1.0140 C.3   1 <1>   0.2090 
 15 C       -8.8520     0.5180     0.6210 C.3   1 <1>   0.2090 
 16 N       -9.0420     1.6560    -0.3210 N.pl3 1 <1>  -0.8380 
 17 C      -10.1020     2.5260    -0.0620 C.ar  1 <1>   0.1000 
 18 C      -11.3810     2.2940    -0.5830 C.ar  1 <1>  -0.1430 
 19 C       -9.8910     3.6360     0.7490 C.ar  1 <1>  -0.1500 
 20 C      -12.4240     3.1600    -0.2640 C.ar  1 <1>  -0.1430 
 21 C      -11.6290     1.0920    -1.4970 C.3   1 <1>  -0.0970 
 22 C      -10.9230     4.4990     1.0520 C.ar  1 <1>  -0.1500 
 23 C      -12.1860     4.2590     0.5480 C.ar  1 <1>  -0.1500 
 24 C      -13.8420     2.9470    -0.7780 C.3   1 <1>  -0.0970 
 25 H       -0.7220    -1.4400    -2.4410 H     1 <1>   0.0800 
 26 H        0.0030    -0.2290    -1.3900 H     1 <1>   0.0800 
 27 H       -0.8280     0.2610    -2.8760 H     1 <1>   0.0800 
 28 H       -3.9630    -0.3980     0.1460 H     1 <1>   0.1500 
 29 H       -0.3170     3.2000    -1.2270 H     1 <1>   0.4500 
 30 H       -1.7630     3.9910     0.1880 H     1 <1>   0.1500 
 31 H       -3.7410     3.6410     1.5580 H     1 <1>   0.1500 
 32 H       -5.4470     2.2200     2.4070 H     1 <1>   0.0800 
 33 H       -5.1250     0.4990     2.3900 H     1 <1>   0.0800 
 34 H       -6.1520     0.3940     0.2140 H     1 <1>   0.4500 
 35 H       -5.7580     2.5850    -0.6100 H     1 <1>   0.0800 
 36 H       -6.8550     3.2270     0.5760 H     1 <1>   0.0800 
 37 H       -7.9520     1.5610     2.2520 H     1 <1>   0.0800 
 38 H       -7.4950    -0.1170     2.1600 H     1 <1>   0.0800 
 39 H       -7.5460     1.4900    -1.7920 H     1 <1>   0.0800 
 40 H       -8.0590     3.1180    -1.4840 H     1 <1>   0.0800 
 41 H       -9.7510     0.3770     1.1980 H     1 <1>   0.0800 
 42 H       -8.6830    -0.3820     0.0570 H     1 <1>   0.0800 
 43 H       -8.9190     3.8280     1.1520 H     1 <1>   0.1500 
 44 H      -10.7300     0.7870    -1.9980 H     1 <1>   0.0800 
 45 H      -12.3450     1.3290    -2.2610 H     1 <1>   0.0800 
 46 H      -11.9980     0.2670    -0.9160 H     1 <1>   0.0800 
 47 H      -10.7520     5.3570     1.6790 H     1 <1>   0.1500 
 48 H      -12.9850     4.9360     0.7930 H     1 <1>   0.1500 
 49 H      -14.1550     1.9340    -0.6000 H     1 <1>   0.0800 
 50 H      -13.8840     3.1510    -1.8330 H     1 <1>   0.0800 
 51 H      -14.5360     3.6000    -0.2800 H     1 <1>   0.0800 
@<TRIPOS>BOND
  1   1   2  1   
  2   1   3  1   
  3   2   4  ar  
  4   2   5  ar  
  5   3  25  1   
  6   3  26  1   
  7   3  27  1   
  8   4   6  1   
  9   4   7  ar  
 10   5   8  ar  
 11   5  28  1   
 12   6  29  1   
 13   7   9  ar  
 14   7  30  1   
 15   8   9  ar  
 16   8  10  1   
 17   9  31  1   
 18  10  11  1   
 19  10  32  1   
 20  10  33  1   
 21  11  12  1   
 22  11  13  1   
 23  11  34  1   
 24  12  14  1   
 25  12  35  1   
 26  12  36  1   
 27  13  15  1   
 28  13  37  1   
 29  13  38  1   
 30  14  16  1   
 31  14  39  1   
 32  14  40  1   
 33  15  16  1   
 34  15  41  1   
 35  15  42  1   
 36  16  17  1   
 37  17  18  ar  
 38  17  19  ar  
 39  18  20  ar  
 40  18  21  1   
 41  19  22  ar  
 42  19  43  1   
 43  20  23  ar  
 44  20  24  1   
 45  21  44  1   
 46  21  45  1   
 47  21  46  1   
 48  22  23  ar  
 49  22  47  1   
 50  23  48  1   
 51  24  49  1   
 52  24  50  1   
 53  24  51  1   
@<TRIPOS>SUBSTRUCTURE
  1 ****  12 GROUP 4 **** **** 0

# MOE 2024.06 (io_trps.svl 2023.06)
