@<TRIPOS>MOLECULE
NONAME
33 34 1 0 0 
SMALL
USER_CHARGES


@<TRIPOS>ATOM
  1 S        0.4040     0.2130     0.6060 S.o2  1 <1>   1.4470 
  2 O       -0.5160     0.6440     1.6340 O.2   1 <1>  -0.6500 
  3 O        1.8100     0.1890     0.9500 O.2   1 <1>  -0.6500 
  4 N        0.2140     1.2340    -0.7480 N.am  1 <1>  -0.8490 
  5 C       -0.0030    -1.4250    -0.0300 C.ar  1 <1>  -0.0090 
  6 C       -1.1150     1.7700    -1.0780 C.3   1 <1>   0.2760 
  7 C        1.2410     2.2770    -0.8600 C.3   1 <1>   0.1960 
  8 C        0.6460    -1.9460    -1.1380 C.ar  1 <1>   0.1900 
  9 C       -0.9570    -2.2570     0.5390 C.ar  1 <1>   0.1900 
 10 C       -1.5090     2.9580    -0.1810 C.3   1 <1>  -0.1600 
 11 C       -2.1960     0.6900    -1.1130 C.3   1 <1>  -0.2400 
 12 C        0.9520     3.4360     0.1020 C.3   1 <1>  -0.1600 
 13 F        1.5730    -1.2460    -1.7350 F     1 <1>  -0.1900 
 14 C        0.3710    -3.1960    -1.6680 C.ar  1 <1>  -0.1500 
 15 F       -1.6170    -1.8720     1.5960 F     1 <1>  -0.1900 
 16 C       -1.2640    -3.5140     0.0430 C.ar  1 <1>  -0.1500 
 17 C       -0.4280     4.0480    -0.1700 C.3   1 <1>  -0.1600 
 18 C       -0.5960    -3.9880    -1.0720 C.ar  1 <1>  -0.1500 
 19 H       -1.0460     2.1550    -2.0820 H     1 <1>   0.0800 
 20 H        1.2450     2.6520    -1.8700 H     1 <1>   0.0800 
 21 H        2.2210     1.8710    -0.6740 H     1 <1>   0.0800 
 22 H       -1.6940     2.6240     0.8230 H     1 <1>   0.0800 
 23 H       -2.4280     3.3820    -0.5420 H     1 <1>   0.0800 
 24 H       -2.4260     0.3300    -0.1280 H     1 <1>   0.0800 
 25 H       -1.8910    -0.1240    -1.7450 H     1 <1>   0.0800 
 26 H       -3.0980     1.1060    -1.5240 H     1 <1>   0.0800 
 27 H        1.7090     4.1900    -0.0160 H     1 <1>   0.0800 
 28 H        1.0040     3.0810     1.1170 H     1 <1>   0.0800 
 29 H        0.9100    -3.5410    -2.5340 H     1 <1>   0.1500 
 30 H       -2.0180    -4.1100     0.5290 H     1 <1>   0.1500 
 31 H       -0.6580     4.7840     0.5810 H     1 <1>   0.0800 
 32 H       -0.4130     4.5400    -1.1270 H     1 <1>   0.0800 
 33 H       -0.8230    -4.9630    -1.4710 H     1 <1>   0.1500 
@<TRIPOS>BOND
  1   1   2  2   
  2   1   3  2   
  3   1   4  am  
  4   1   5  1   
  5   4   6  1   
  6   4   7  1   
  7   5   8  ar  
  8   5   9  ar  
  9   6  10  1   
 10   6  11  1   
 11   6  19  1   
 12   7  12  1   
 13   7  20  1   
 14   7  21  1   
 15   8  13  1   
 16   8  14  ar  
 17   9  15  1   
 18   9  16  ar  
 19  10  17  1   
 20  10  22  1   
 21  10  23  1   
 22  11  24  1   
 23  11  25  1   
 24  11  26  1   
 25  12  17  1   
 26  12  27  1   
 27  12  28  1   
 28  14  18  ar  
 29  14  29  1   
 30  16  18  ar  
 31  16  30  1   
 32  17  31  1   
 33  17  32  1   
 34  18  33  1   
@<TRIPOS>SUBSTRUCTURE
  1 ****   1 GROUP 4 **** **** 0

# MOE 2024.06 (io_trps.svl 2023.06)
