@<TRIPOS>MOLECULE
NONAME
44 46 1 0 0 
SMALL
USER_CHARGES


@<TRIPOS>ATOM
  1 BR      -1.6000    -0.0920    -3.1670 Br    1 <1>  -0.1110 
  2 C       -2.2650    -0.7610    -1.4830 C.ar  1 <1>   0.1110 
  3 C       -1.5620    -1.7540    -0.8140 C.ar  1 <1>   0.0820 
  4 C       -3.4370    -0.2190    -0.9990 C.ar  1 <1>  -0.1500 
  5 O       -0.4160    -2.2250    -1.3620 O.3   1 <1>  -0.3630 
  6 C       -2.0850    -2.2090     0.3930 C.ar  1 <1>  -0.1500 
  7 C       -3.9620    -0.6600     0.2190 C.ar  1 <1>   0.0860 
  8 C        0.3400    -3.2470    -0.7510 C.3   1 <1>   0.0400 
  9 C       -3.2600    -1.6690     0.8880 C.ar  1 <1>  -0.1500 
 10 C       -5.1800    -0.1020     0.7760 C.2   1 <1>   0.5440 
 11 O       -5.8490    -0.7430     1.5600 O.2   1 <1>  -0.5700 
 12 N       -5.5430     1.1890     0.4610 N.am  1 <1>  -0.4940 
 13 C       -6.7740     1.8290     0.5160 C.2   1 <1>   0.1040 
 14 S       -8.2460     0.8740     0.4840 S.3   1 <1>  -0.0800 
 15 C       -7.0660     3.1640     0.5380 C.2   1 <1>  -0.0860 
 16 C       -9.2490     2.3130     0.4880 C.2   1 <1>  -0.1400 
 17 C       -8.4900     3.4220     0.5230 C.2   1 <1>  -0.1810 
 18 C       -6.0480     4.1770     0.5850 C.2   1 <1>   0.7160 
 19 C      -10.7490     2.1100     0.4510 C.3   1 <1>   0.0200 
 20 C       -9.0980     4.8190     0.5600 C.3   1 <1>   0.0210 
 21 O       -6.0070     5.1190    -0.1780 O.2   1 <1>  -0.5700 
 22 N       -5.0550     4.1030     1.4980 N.am  1 <1>  -0.8000 
 23 C      -11.3910     2.8770    -0.7120 C.3   1 <1>  -0.1600 
 24 C      -10.0210     5.0780    -0.6390 C.3   1 <1>  -0.1600 
 25 C      -11.4020     4.4050    -0.5350 C.3   1 <1>  -0.1600 
 26 H       -3.9400     0.5340    -1.5770 H     1 <1>   0.1500 
 27 H       -1.5940    -2.9810     0.9560 H     1 <1>   0.1500 
 28 H        1.1910    -3.4500    -1.3740 H     1 <1>   0.0800 
 29 H       -0.2690    -4.1290    -0.6660 H     1 <1>   0.0800 
 30 H        0.6680    -2.9090     0.2160 H     1 <1>   0.0800 
 31 H       -3.6540    -2.0350     1.8230 H     1 <1>   0.1500 
 32 H       -4.7690     1.7770     0.1540 H     1 <1>   0.3700 
 33 H      -11.1770     2.4230     1.3870 H     1 <1>   0.0800 
 34 H      -10.9570     1.0620     0.3300 H     1 <1>   0.0800 
 35 H       -8.3290     5.5680     0.5580 H     1 <1>   0.0800 
 36 H       -9.6480     4.9410     1.4760 H     1 <1>   0.0800 
 37 H       -4.4240     4.8990     1.5860 H     1 <1>   0.3700 
 38 H       -5.1280     3.4780     2.3010 H     1 <1>   0.3700 
 39 H      -12.4100     2.5450    -0.8050 H     1 <1>   0.0800 
 40 H      -10.8860     2.6220    -1.6280 H     1 <1>   0.0800 
 41 H       -9.5260     4.7720    -1.5450 H     1 <1>   0.0800 
 42 H      -10.1780     6.1410    -0.7060 H     1 <1>   0.0800 
 43 H      -11.8620     4.6600     0.4040 H     1 <1>   0.0800 
 44 H      -12.0230     4.8180    -1.3110 H     1 <1>   0.0800 
@<TRIPOS>BOND
  1   1   2  1   
  2   2   3  ar  
  3   2   4  ar  
  4   3   5  1   
  5   3   6  ar  
  6   4   7  ar  
  7   4  26  1   
  8   5   8  1   
  9   6   9  ar  
 10   6  27  1   
 11   7   9  ar  
 12   7  10  1   
 13   8  28  1   
 14   8  29  1   
 15   8  30  1   
 16   9  31  1   
 17  10  11  2   
 18  10  12  am  
 19  12  13  1   
 20  12  32  1   
 21  13  14  1   
 22  13  15  2   
 23  14  16  1   
 24  15  17  1   
 25  15  18  1   
 26  16  17  2   
 27  16  19  1   
 28  17  20  1   
 29  18  21  2   
 30  18  22  am  
 31  19  23  1   
 32  19  33  1   
 33  19  34  1   
 34  20  24  1   
 35  20  35  1   
 36  20  36  1   
 37  22  37  1   
 38  22  38  1   
 39  23  25  1   
 40  23  39  1   
 41  23  40  1   
 42  24  25  1   
 43  24  41  1   
 44  24  42  1   
 45  25  43  1   
 46  25  44  1   
@<TRIPOS>SUBSTRUCTURE
  1 ****  12 GROUP 4 **** **** 0

# MOE 2024.06 (io_trps.svl 2023.06)
