@<TRIPOS>MOLECULE
NONAME
30 30 1 0 0 
SMALL
USER_CHARGES


@<TRIPOS>ATOM
  1 O        0.1370    -1.2140    -2.1660 O.2   1 <1>  -0.5700 
  2 C        0.0490    -2.0250    -1.2740 C.2   1 <1>   0.4950 
  3 C        1.1720    -2.6150    -0.6480 C.2   1 <1>  -0.1360 
  4 C       -1.3340    -2.4160    -0.7870 C.3   1 <1>  -0.0990 
  5 C        1.1150    -3.5420     0.3430 C.2   1 <1>  -0.0380 
  6 C       -1.3730    -3.8440    -0.2000 C.3   1 <1>   0.0000 
  7 N        2.1950    -4.1060     0.9710 N.pl3 1 <1>  -0.8690 
  8 C       -0.2430    -4.0220     0.8430 C.3   1 <1>  -0.0220 
  9 C       -2.7350    -4.0820     0.4700 C.3   1 <1>  -0.2400 
 10 C       -1.2100    -4.8780    -1.3310 C.3   1 <1>  -0.2400 
 11 C        3.6300    -3.8110     0.7120 C.3   1 <1>   0.2090 
 12 C        4.1550    -4.7100    -0.4110 C.3   1 <1>   0.1200 
 13 O        5.4780    -4.3880    -0.6930 O.3   1 <1>  -0.6800 
 14 H        2.1130    -2.2680    -1.0230 H     1 <1>   0.1500 
 15 H       -2.0290    -2.3320    -1.6030 H     1 <1>   0.0800 
 16 H       -1.6230    -1.7030    -0.0370 H     1 <1>   0.0800 
 17 H        2.0460    -4.8130     1.7030 H     1 <1>   0.4000 
 18 H       -0.4780    -3.4670     1.7340 H     1 <1>   0.0800 
 19 H       -0.1790    -5.0600     1.1170 H     1 <1>   0.0800 
 20 H       -2.8960    -3.3780     1.2680 H     1 <1>   0.0800 
 21 H       -2.7860    -5.0750     0.8820 H     1 <1>   0.0800 
 22 H       -3.5330    -3.9710    -0.2430 H     1 <1>   0.0800 
 23 H       -0.2620    -4.7710    -1.8270 H     1 <1>   0.0800 
 24 H       -1.9870    -4.7620    -2.0660 H     1 <1>   0.0800 
 25 H       -1.2670    -5.8790    -0.9390 H     1 <1>   0.0800 
 26 H        4.1940    -3.9900     1.6110 H     1 <1>   0.0800 
 27 H        3.7390    -2.7760     0.4390 H     1 <1>   0.0800 
 28 H        3.5750    -4.5800    -1.3080 H     1 <1>   0.0800 
 29 H        4.1250    -5.7410    -0.1050 H     1 <1>   0.0800 
 30 H        5.5360    -3.5310    -1.1590 H     1 <1>   0.4000 
@<TRIPOS>BOND
  1   1   2  2   
  2   2   3  1   
  3   2   4  1   
  4   3   5  2   
  5   3  14  1   
  6   4   6  1   
  7   4  15  1   
  8   4  16  1   
  9   5   7  1   
 10   5   8  1   
 11   6   8  1   
 12   6   9  1   
 13   6  10  1   
 14   7  11  1   
 15   7  17  1   
 16   8  18  1   
 17   8  19  1   
 18   9  20  1   
 19   9  21  1   
 20   9  22  1   
 21  10  23  1   
 22  10  24  1   
 23  10  25  1   
 24  11  12  1   
 25  11  26  1   
 26  11  27  1   
 27  12  13  1   
 28  12  28  1   
 29  12  29  1   
 30  13  30  1   
@<TRIPOS>SUBSTRUCTURE
  1 ****   5 GROUP 4 **** **** 0

# MOE 2024.06 (io_trps.svl 2023.06)
