@<TRIPOS>MOLECULE
NONAME
35 35 1 0 0 
SMALL
USER_CHARGES


@<TRIPOS>ATOM
  1 BR      -1.0130    -0.2740    -1.9860 Br    1 <1>  -0.1110 
  2 C       -1.3600     1.2950    -0.9280 C.ar  1 <1>   0.1110 
  3 C       -0.7330     2.4780    -1.2720 C.ar  1 <1>  -0.1500 
  4 C       -2.2250     1.1960     0.1440 C.ar  1 <1>  -0.1500 
  5 C       -0.9730     3.6200    -0.5190 C.ar  1 <1>  -0.1440 
  6 C       -2.4660     2.3290     0.8990 C.ar  1 <1>  -0.1500 
  7 C       -1.8480     3.5290     0.5680 C.ar  1 <1>   0.0830 
  8 C       -0.2820     4.9120    -0.9350 C.3   1 <1>   0.4870 
  9 O       -2.0870     4.6050     1.3440 O.3   1 <1>  -0.3630 
 10 N        0.2810     5.5980     0.2410 N.4   1 <1>  -0.9060 
 11 C       -3.3290     5.2780     1.1720 C.3   1 <1>   0.1810 
 12 C        1.4600     6.4320     0.0080 C.3   1 <1>   0.4230 
 13 C       -3.0830     6.7720     0.9690 C.2   1 <1>   0.5690 
 14 C        1.9410     6.9200     1.3670 C.3   1 <1>  -0.2400 
 15 C        1.0900     7.6100    -0.8890 C.3   1 <1>  -0.2400 
 16 O       -2.0320     7.1450     0.5000 O.2   1 <1>  -0.5700 
 17 N       -4.0250     7.6750     1.3040 N.am  1 <1>  -0.8000 
 18 H       -0.0730     2.4820    -2.1220 H     1 <1>   0.1500 
 19 H       -2.6920     0.2550     0.3810 H     1 <1>   0.1500 
 20 H       -3.1270     2.2790     1.7470 H     1 <1>   0.1500 
 21 H       -0.9880     5.5610    -1.4290 H     1 <1>   0.0800 
 22 H        0.5070     4.6780    -1.6290 H     1 <1>   0.0800 
 23 H        0.4490     4.9010     0.9710 H     1 <1>   0.4500 
 24 H       -0.4840     6.1970     0.6060 H     1 <1>   0.4500 
 25 H       -3.9180     5.1110     2.0550 H     1 <1>   0.0800 
 26 H       -3.8390     4.8750     0.3150 H     1 <1>   0.0800 
 27 H        2.2390     5.8480    -0.4570 H     1 <1>   0.0800 
 28 H        1.1830     7.5060     1.8580 H     1 <1>   0.0800 
 29 H        2.8120     7.5380     1.2430 H     1 <1>   0.0800 
 30 H        2.2150     6.0900     1.9950 H     1 <1>   0.0800 
 31 H        0.2980     8.1940    -0.4540 H     1 <1>   0.0800 
 32 H        0.7940     7.2790    -1.8680 H     1 <1>   0.0800 
 33 H        1.9450     8.2510    -1.0110 H     1 <1>   0.0800 
 34 H       -3.8450     8.6720     1.1620 H     1 <1>   0.3700 
 35 H       -4.9350     7.4530     1.7120 H     1 <1>   0.3700 
@<TRIPOS>BOND
  1   1   2  1   
  2   2   3  ar  
  3   2   4  ar  
  4   3   5  ar  
  5   3  18  1   
  6   4   6  ar  
  7   4  19  1   
  8   5   7  ar  
  9   5   8  1   
 10   6   7  ar  
 11   6  20  1   
 12   7   9  1   
 13   8  10  1   
 14   8  21  1   
 15   8  22  1   
 16   9  11  1   
 17  10  12  1   
 18  10  23  1   
 19  10  24  1   
 20  11  13  1   
 21  11  25  1   
 22  11  26  1   
 23  12  14  1   
 24  12  15  1   
 25  12  27  1   
 26  13  16  2   
 27  13  17  am  
 28  14  28  1   
 29  14  29  1   
 30  14  30  1   
 31  15  31  1   
 32  15  32  1   
 33  15  33  1   
 34  17  34  1   
 35  17  35  1   
@<TRIPOS>SUBSTRUCTURE
  1 ****   5 GROUP 4 **** **** 0

# MOE 2024.06 (io_trps.svl 2023.06)
