@<TRIPOS>MOLECULE
NONAME
29 30 1 0 0 
SMALL
USER_CHARGES


@<TRIPOS>ATOM
  1 F        0.0720    -0.1090    -0.2140 F     1 <1>  -0.3400 
  2 C       -0.0780    -1.3140     0.3250 C.3   1 <1>   1.1640 
  3 F       -0.3750    -1.1180     1.6020 F     1 <1>  -0.3400 
  4 F       -1.1610    -1.8370    -0.2360 F     1 <1>  -0.3400 
  5 C        1.1640    -2.2050     0.1540 C.ar  1 <1>  -0.1440 
  6 C        2.4230    -1.6500    -0.0360 C.ar  1 <1>  -0.1500 
  7 C        1.0500    -3.5910     0.2000 C.ar  1 <1>  -0.1500 
  8 C        3.5530    -2.4430    -0.1820 C.ar  1 <1>   0.1170 
  9 C        2.1610    -4.4150     0.0490 C.ar  1 <1>  -0.1440 
 10 N        4.7920    -1.8180    -0.3790 N.am  1 <1>  -0.5470 
 11 C        3.4040    -3.8240    -0.1410 C.ar  1 <1>  -0.1500 
 12 C        2.0150    -5.9460     0.1020 C.3   1 <1>   1.1640 
 13 C        6.0620    -2.2490    -0.1180 C.2   1 <1>   0.6300 
 14 F        2.9670    -6.5870    -0.5650 F     1 <1>  -0.3400 
 15 F        0.8630    -6.3600    -0.4130 F     1 <1>  -0.3400 
 16 F        2.0510    -6.4050     1.3460 F     1 <1>  -0.3400 
 17 O        6.3240    -3.3200     0.3700 O.2   1 <1>  -0.5700 
 18 C        7.1990    -1.3030    -0.4700 C.3   1 <1>  -0.1000 
 19 C        8.1070    -0.7720     0.6000 C.3   1 <1>  -0.2000 
 20 C        7.1640     0.1550    -0.1000 C.3   1 <1>  -0.2000 
 21 H        2.5390    -0.5800    -0.0670 H     1 <1>   0.1500 
 22 H        0.0790    -4.0370     0.3560 H     1 <1>   0.1500 
 23 H        4.7510    -0.8630    -0.7260 H     1 <1>   0.3700 
 24 H        4.2740    -4.4460    -0.2600 H     1 <1>   0.1500 
 25 H        7.6630    -1.5790    -1.4000 H     1 <1>   0.1000 
 26 H        9.1610    -0.7060     0.3910 H     1 <1>   0.1000 
 27 H        7.9090    -1.0550     1.6200 H     1 <1>   0.1000 
 28 H        6.3440     0.5510     0.4750 H     1 <1>   0.1000 
 29 H        7.5720     0.8770    -0.7870 H     1 <1>   0.1000 
@<TRIPOS>BOND
  1   1   2  1   
  2   2   3  1   
  3   2   4  1   
  4   2   5  1   
  5   5   6  ar  
  6   5   7  ar  
  7   6   8  ar  
  8   6  21  1   
  9   7   9  ar  
 10   7  22  1   
 11   8  10  1   
 12   8  11  ar  
 13   9  11  ar  
 14   9  12  1   
 15  10  13  am  
 16  10  23  1   
 17  11  24  1   
 18  12  14  1   
 19  12  15  1   
 20  12  16  1   
 21  13  17  2   
 22  13  18  1   
 23  18  19  1   
 24  18  20  1   
 25  18  25  1   
 26  19  20  1   
 27  19  26  1   
 28  19  27  1   
 29  20  28  1   
 30  20  29  1   
@<TRIPOS>SUBSTRUCTURE
  1 ****   8 GROUP 4 **** **** 0

# MOE 2024.06 (io_trps.svl 2023.06)
