@<TRIPOS>MOLECULE
NONAME
35 36 1 0 0 
SMALL
USER_CHARGES


@<TRIPOS>ATOM
  1 S       -0.0750    -0.3360    -0.2110 S.3   1 <1>  -0.0800 
  2 C        0.5450     1.3030    -0.0650 C.2   1 <1>   0.1040 
  3 C       -1.7340     0.2290    -0.2940 C.2   1 <1>  -0.1400 
  4 N        1.9030     1.5540     0.0460 N.am  1 <1>  -0.4940 
  5 C       -0.4840     2.2050    -0.0770 C.2   1 <1>  -0.0860 
  6 C       -1.7710     1.5690    -0.2110 C.2   1 <1>  -0.1500 
  7 C       -2.8120    -0.8240    -0.4410 C.3   1 <1>  -0.0600 
  8 C        3.0360     0.7640     0.0820 C.2   1 <1>   0.7160 
  9 C       -0.3180     3.6250     0.0360 C.2   1 <1>   0.8060 
 10 O        2.9390    -0.4380    -0.0890 O.2   1 <1>  -0.5700 
 11 C        4.3170     1.4170     0.3260 C.2   1 <1>   0.2030 
 12 O        0.7720     4.1560     0.1790 O.2   1 <1>  -0.5700 
 13 O       -1.4090     4.4000    -0.0150 O.3   1 <1>  -0.4300 
 14 N        5.5150     0.9540     0.0140 N.2   1 <1>  -0.7070 
 15 C        4.4490     2.6740     0.9400 C.2   1 <1>  -0.1500 
 16 C       -1.3310     5.8090     0.0880 C.3   1 <1>   0.0400 
 17 N        6.3900     1.8820     0.4130 N.pl3 1 <1>   0.3140 
 18 C        5.7690     2.9330     0.9760 C.2   1 <1>  -0.3020 
 19 C        7.8470     1.7120     0.2370 C.3   1 <1>   0.0960 
 20 C        8.3680     2.5550    -0.9330 C.3   1 <1>  -0.2400 
 21 H        2.1220     2.5520     0.1010 H     1 <1>   0.3700 
 22 H       -2.6730     2.1570    -0.2390 H     1 <1>   0.1500 
 23 H       -2.6540    -1.3850    -1.3440 H     1 <1>   0.0800 
 24 H       -3.7820    -0.3620    -0.4820 H     1 <1>   0.0800 
 25 H       -2.7810    -1.4970     0.3970 H     1 <1>   0.0800 
 26 H        3.6510     3.2940     1.3100 H     1 <1>   0.1500 
 27 H       -2.3260     6.2110     0.0200 H     1 <1>   0.0800 
 28 H       -0.7250     6.1850    -0.7180 H     1 <1>   0.0800 
 29 H       -0.8920     6.0660     1.0360 H     1 <1>   0.0800 
 30 H        6.2950     3.7870     1.3640 H     1 <1>   0.1500 
 31 H        8.0420     0.6700     0.0530 H     1 <1>   0.0800 
 32 H        8.3360     1.9950     1.1500 H     1 <1>   0.0800 
 33 H        7.8750     2.2630    -1.8450 H     1 <1>   0.0800 
 34 H        9.4250     2.4000    -1.0520 H     1 <1>   0.0800 
 35 H        8.1930     3.6010    -0.7530 H     1 <1>   0.0800 
@<TRIPOS>BOND
  1   1   2  1   
  2   1   3  1   
  3   2   4  1   
  4   2   5  2   
  5   3   6  2   
  6   3   7  1   
  7   4   8  am  
  8   4  21  1   
  9   5   6  1   
 10   5   9  1   
 11   6  22  1   
 12   7  23  1   
 13   7  24  1   
 14   7  25  1   
 15   8  10  2   
 16   8  11  1   
 17   9  12  2   
 18   9  13  1   
 19  11  14  2   
 20  11  15  1   
 21  13  16  1   
 22  14  17  1   
 23  15  18  2   
 24  15  26  1   
 25  16  27  1   
 26  16  28  1   
 27  16  29  1   
 28  17  18  1   
 29  17  19  1   
 30  18  30  1   
 31  19  20  1   
 32  19  31  1   
 33  19  32  1   
 34  20  33  1   
 35  20  34  1   
 36  20  35  1   
@<TRIPOS>SUBSTRUCTURE
  1 ****   4 GROUP 4 **** **** 0

# MOE 2024.06 (io_trps.svl 2023.06)
