@<TRIPOS>MOLECULE
NONAME
42 44 1 0 0 
SMALL
USER_CHARGES


@<TRIPOS>ATOM
  1 S       -0.0880    -0.4770    -0.2180 S.3   1 <1>  -0.0800 
  2 C        1.1640     0.7680    -0.1360 C.2   1 <1>   0.1040 
  3 C       -1.3350     0.7340    -0.1670 C.2   1 <1>  -0.1400 
  4 N        2.4430     0.2350    -0.1400 N.am  1 <1>  -0.4940 
  5 C        0.6130     2.0340    -0.1120 C.2   1 <1>  -0.0860 
  6 C       -0.8280     1.9520    -0.1140 C.2   1 <1>  -0.1810 
  7 C       -2.8240     0.6100    -0.1720 C.3   1 <1>   0.0200 
  8 C        3.5720     0.5370     0.5830 C.2   1 <1>   0.5440 
  9 C        1.2700     3.3220    -0.1370 C.2   1 <1>   0.7160 
 10 C       -1.9410     2.9700    -0.0740 C.3   1 <1>   0.0210 
 11 C       -3.2320     2.1010    -0.0660 C.3   1 <1>  -0.1600 
 12 O        3.4790     1.2950     1.5300 O.2   1 <1>  -0.5700 
 13 C        4.8290    -0.0790     0.2250 C.ar  1 <1>   0.0860 
 14 O        0.6630     4.3570    -0.3430 O.2   1 <1>  -0.5700 
 15 N        2.5900     3.4800     0.0650 N.am  1 <1>  -0.8000 
 16 C        4.9390    -1.4720     0.0940 C.ar  1 <1>   0.0830 
 17 C        5.9720     0.7010    -0.0060 C.ar  1 <1>   0.0830 
 18 O        3.8190    -2.2170     0.2740 O.3   1 <1>  -0.3630 
 19 C        6.1630    -2.0590    -0.2140 C.ar  1 <1>  -0.1500 
 20 O        5.8420     2.0500     0.0570 O.3   1 <1>  -0.3620 
 21 C        7.1890     0.0980    -0.3100 C.ar  1 <1>  -0.1500 
 22 C        3.8400    -3.6270     0.3470 C.3   1 <1>   0.0400 
 23 C        7.2830    -1.2760    -0.4090 C.ar  1 <1>  -0.1500 
 24 C        6.9330     2.9350    -0.0680 C.3   1 <1>   0.0400 
 25 H        2.5040    -0.7050    -0.5390 H     1 <1>   0.3700 
 26 H       -3.1650     0.0400     0.6740 H     1 <1>   0.0800 
 27 H       -3.1640     0.1670    -1.0920 H     1 <1>   0.0800 
 28 H       -1.9000     3.5990    -0.9450 H     1 <1>   0.0800 
 29 H       -1.8680     3.5750     0.8130 H     1 <1>   0.0800 
 30 H       -3.7700     2.2650     0.8510 H     1 <1>   0.0800 
 31 H       -3.8660     2.3730    -0.8910 H     1 <1>   0.0800 
 32 H        2.9480     4.4240     0.1680 H     1 <1>   0.3700 
 33 H        3.1080     2.7520     0.5760 H     1 <1>   0.3700 
 34 H        6.2670    -3.1230    -0.3090 H     1 <1>   0.1500 
 35 H        8.0760     0.6810    -0.4770 H     1 <1>   0.1500 
 36 H        2.8430    -3.9650     0.5700 H     1 <1>   0.0800 
 37 H        4.5100    -3.9270     1.1330 H     1 <1>   0.0800 
 38 H        4.1540    -4.0240    -0.6020 H     1 <1>   0.0800 
 39 H        8.2290    -1.7360    -0.6440 H     1 <1>   0.1500 
 40 H        6.5650     3.9370     0.0620 H     1 <1>   0.0800 
 41 H        7.3610     2.8280    -1.0490 H     1 <1>   0.0800 
 42 H        7.6550     2.7100     0.6980 H     1 <1>   0.0800 
@<TRIPOS>BOND
  1   1   2  1   
  2   1   3  1   
  3   2   4  1   
  4   2   5  2   
  5   3   6  2   
  6   3   7  1   
  7   4   8  am  
  8   4  25  1   
  9   5   6  1   
 10   5   9  1   
 11   6  10  1   
 12   7  11  1   
 13   7  26  1   
 14   7  27  1   
 15   8  12  2   
 16   8  13  1   
 17   9  14  2   
 18   9  15  am  
 19  10  11  1   
 20  10  28  1   
 21  10  29  1   
 22  11  30  1   
 23  11  31  1   
 24  13  16  ar  
 25  13  17  ar  
 26  15  32  1   
 27  15  33  1   
 28  16  18  1   
 29  16  19  ar  
 30  17  20  1   
 31  17  21  ar  
 32  18  22  1   
 33  19  23  ar  
 34  19  34  1   
 35  20  24  1   
 36  21  23  ar  
 37  21  35  1   
 38  22  36  1   
 39  22  37  1   
 40  22  38  1   
 41  23  39  1   
 42  24  40  1   
 43  24  41  1   
 44  24  42  1   
@<TRIPOS>SUBSTRUCTURE
  1 ****   4 GROUP 4 **** **** 0

# MOE 2024.06 (io_trps.svl 2023.06)
