@<TRIPOS>MOLECULE
NONAME
51 53 1 0 0 
SMALL
USER_CHARGES


@<TRIPOS>ATOM
  1 S       -0.0230    -0.2370    -1.4210 S.o2  1 <1>   1.4470 
  2 O        0.3810    -0.3060    -2.8080 O.2   1 <1>  -0.6500 
  3 O       -0.9870     0.7640    -1.0180 O.2   1 <1>  -0.6500 
  4 N        1.3760     0.0310    -0.5040 N.am  1 <1>  -0.8490 
  5 C       -0.5830    -1.8750    -0.8760 C.ar  1 <1>  -0.0090 
  6 C        1.1200     0.2560     0.9360 C.3   1 <1>   0.1960 
  7 C        2.2250     1.0910    -1.0580 C.3   1 <1>   0.1960 
  8 C       -1.9340    -2.1550    -0.7350 C.ar  1 <1>  -0.1500 
  9 C        0.3180    -2.8940    -0.6020 C.ar  1 <1>  -0.1500 
 10 C        2.2610     1.0040     1.6620 C.3   1 <1>   0.1200 
 11 C        3.5660     1.2010    -0.2940 C.3   1 <1>   0.1200 
 12 C       -2.4130    -3.3970    -0.3180 C.ar  1 <1>   0.0860 
 13 C       -0.1200    -4.1380    -0.1880 C.ar  1 <1>  -0.1500 
 14 O        3.4910     0.7730     1.0430 O.3   1 <1>  -0.5600 
 15 C       -1.4710    -4.3960    -0.0400 C.ar  1 <1>  -0.1440 
 16 C       -3.8460    -3.5960    -0.1890 C.2   1 <1>   0.5440 
 17 C       -1.9050    -5.7810     0.4250 C.3   1 <1>  -0.0960 
 18 O       -4.4070    -4.5310    -0.7250 O.2   1 <1>  -0.5700 
 19 N       -4.5940    -2.7080     0.5340 N.am  1 <1>  -0.7300 
 20 C       -6.0600    -2.8060     0.7400 C.3   1 <1>   0.1400 
 21 C       -6.7920    -1.9860    -0.3210 C.3   1 <1>  -0.0170 
 22 C       -8.2950    -2.0830    -0.1140 C.ar  1 <1>  -0.1440 
 23 C       -8.9920    -3.1750    -0.6090 C.ar  1 <1>  -0.1500 
 24 C       -8.9810    -1.0920     0.5710 C.ar  1 <1>  -0.1500 
 25 C      -10.3590    -3.2760    -0.4220 C.ar  1 <1>  -0.1500 
 26 C      -10.3490    -1.1920     0.7590 C.ar  1 <1>  -0.1500 
 27 C      -11.0390    -2.2840     0.2630 C.ar  1 <1>  -0.1500 
 28 H        0.9750    -0.6990     1.4110 H     1 <1>   0.0800 
 29 H        0.2180     0.8260     1.0800 H     1 <1>   0.0800 
 30 H        1.7040     2.0320    -1.0070 H     1 <1>   0.0800 
 31 H        2.4380     0.8950    -2.0950 H     1 <1>   0.0800 
 32 H       -2.6470    -1.3800    -0.9650 H     1 <1>   0.1500 
 33 H        1.3750    -2.7110    -0.7160 H     1 <1>   0.1500 
 34 H        2.3340     0.6740     2.6830 H     1 <1>   0.0800 
 35 H        2.0780     2.0640     1.6600 H     1 <1>   0.0800 
 36 H        3.9140     2.2190    -0.3040 H     1 <1>   0.0800 
 37 H        4.3060     0.5880    -0.7780 H     1 <1>   0.0800 
 38 H        0.6070    -4.9060     0.0170 H     1 <1>   0.1500 
 39 H       -2.6030    -5.7010     1.2390 H     1 <1>   0.0800 
 40 H       -1.0650    -6.3630     0.7570 H     1 <1>   0.0800 
 41 H       -2.3840    -6.3040    -0.3850 H     1 <1>   0.0800 
 42 H       -4.1290    -1.9280     0.9990 H     1 <1>   0.3700 
 43 H       -6.3100    -2.4460     1.7230 H     1 <1>   0.0800 
 44 H       -6.3680    -3.8360     0.6720 H     1 <1>   0.0800 
 45 H       -6.5420    -2.3650    -1.2970 H     1 <1>   0.0800 
 46 H       -6.4820    -0.9580    -0.2670 H     1 <1>   0.0800 
 47 H       -8.4690    -3.9510    -1.1420 H     1 <1>   0.1500 
 48 H       -8.4570    -0.2380     0.9620 H     1 <1>   0.1500 
 49 H      -10.8930    -4.1260    -0.8090 H     1 <1>   0.1500 
 50 H      -10.8770    -0.4200     1.2910 H     1 <1>   0.1500 
 51 H      -12.1020    -2.3620     0.4090 H     1 <1>   0.1500 
@<TRIPOS>BOND
  1   1   2  2   
  2   1   3  2   
  3   1   4  am  
  4   1   5  1   
  5   4   6  1   
  6   4   7  1   
  7   5   8  ar  
  8   5   9  ar  
  9   6  10  1   
 10   6  28  1   
 11   6  29  1   
 12   7  11  1   
 13   7  30  1   
 14   7  31  1   
 15   8  12  ar  
 16   8  32  1   
 17   9  13  ar  
 18   9  33  1   
 19  10  14  1   
 20  10  34  1   
 21  10  35  1   
 22  11  14  1   
 23  11  36  1   
 24  11  37  1   
 25  12  15  ar  
 26  12  16  1   
 27  13  15  ar  
 28  13  38  1   
 29  15  17  1   
 30  16  18  2   
 31  16  19  am  
 32  17  39  1   
 33  17  40  1   
 34  17  41  1   
 35  19  20  1   
 36  19  42  1   
 37  20  21  1   
 38  20  43  1   
 39  20  44  1   
 40  21  22  1   
 41  21  45  1   
 42  21  46  1   
 43  22  23  ar  
 44  22  24  ar  
 45  23  25  ar  
 46  23  47  1   
 47  24  26  ar  
 48  24  48  1   
 49  25  27  ar  
 50  25  49  1   
 51  26  27  ar  
 52  26  50  1   
 53  27  51  1   
@<TRIPOS>SUBSTRUCTURE
  1 ****   8 GROUP 4 **** **** 0

# MOE 2024.06 (io_trps.svl 2023.06)
