@<TRIPOS>MOLECULE
NONAME
41 42 1 0 0 
SMALL
USER_CHARGES


@<TRIPOS>ATOM
  1 CL       1.3360     1.1600     1.9270 Cl    1 <1>  -0.1770 
  2 C        0.4030     2.2460     0.9270 C.ar  1 <1>   0.1770 
  3 C       -0.9260     2.4660     1.2190 C.ar  1 <1>  -0.1500 
  4 C        1.0170     2.8680    -0.1410 C.ar  1 <1>  -0.1500 
  5 C       -1.6800     3.3280     0.4290 C.ar  1 <1>   0.1170 
  6 C        0.2770     3.7300    -0.9310 C.ar  1 <1>  -0.1500 
  7 N       -3.0340     3.5840     0.6900 N.am  1 <1>  -0.5470 
  8 C       -1.0620     3.9640    -0.6540 C.ar  1 <1>  -0.1430 
  9 C       -3.9720     3.0060     1.4970 C.2   1 <1>   0.5690 
 10 C       -1.8400     4.9210    -1.5500 C.3   1 <1>  -0.0960 
 11 O       -3.7630     2.0680     2.2280 O.2   1 <1>  -0.5700 
 12 C       -5.3720     3.6180     1.4340 C.3   1 <1>   0.1710 
 13 N       -5.6750     4.3000     0.1310 N.3   1 <1>  -0.8100 
 14 C       -6.9160     5.1020     0.2300 C.3   1 <1>   0.1100 
 15 C       -5.8280     3.3310    -0.9820 C.3   1 <1>   0.1100 
 16 C       -8.2390     4.2950     0.0960 C.3   1 <1>   0.2000 
 17 C       -7.1050     2.4480    -0.9020 C.3   1 <1>   0.2000 
 18 O       -8.0200     2.9140     0.0510 O.3   1 <1>  -0.5600 
 19 C       -9.0730     4.7060    -1.1220 C.3   1 <1>  -0.2400 
 20 C       -6.7890     0.9990    -0.5340 C.3   1 <1>  -0.2400 
 21 H       -1.3610     1.9630     2.0610 H     1 <1>   0.1500 
 22 H        2.0550     2.6800    -0.3470 H     1 <1>   0.1500 
 23 H        0.7560     4.2170    -1.7640 H     1 <1>   0.1500 
 24 H       -3.4660     4.3070     0.1080 H     1 <1>   0.3700 
 25 H       -2.1970     5.7570    -0.9750 H     1 <1>   0.0800 
 26 H       -2.6790     4.4140    -1.9930 H     1 <1>   0.0800 
 27 H       -1.2200     5.2990    -2.3430 H     1 <1>   0.0800 
 28 H       -5.4300     4.3390     2.2280 H     1 <1>   0.0800 
 29 H       -6.0970     2.8540     1.6440 H     1 <1>   0.0800 
 30 H       -6.8930     5.8490    -0.5440 H     1 <1>   0.0800 
 31 H       -6.9270     5.6410     1.1610 H     1 <1>   0.0800 
 32 H       -4.9570     2.7030    -1.0530 H     1 <1>   0.0800 
 33 H       -5.8730     3.8850    -1.9030 H     1 <1>   0.0800 
 34 H       -8.8320     4.4740     0.9770 H     1 <1>   0.0800 
 35 H       -7.5970     2.4530    -1.8590 H     1 <1>   0.0800 
 36 H       -8.5060     4.6150    -2.0300 H     1 <1>   0.0800 
 37 H       -9.3820     5.7300    -1.0210 H     1 <1>   0.0800 
 38 H       -9.9540     4.0920    -1.1840 H     1 <1>   0.0800 
 39 H       -6.3020     0.9450     0.4220 H     1 <1>   0.0800 
 40 H       -6.1420     0.5620    -1.2720 H     1 <1>   0.0800 
 41 H       -7.6990     0.4260    -0.4980 H     1 <1>   0.0800 
@<TRIPOS>BOND
  1   1   2  1   
  2   2   3  ar  
  3   2   4  ar  
  4   3   5  ar  
  5   3  21  1   
  6   4   6  ar  
  7   4  22  1   
  8   5   7  1   
  9   5   8  ar  
 10   6   8  ar  
 11   6  23  1   
 12   7   9  am  
 13   7  24  1   
 14   8  10  1   
 15   9  11  2   
 16   9  12  1   
 17  10  25  1   
 18  10  26  1   
 19  10  27  1   
 20  12  13  1   
 21  12  28  1   
 22  12  29  1   
 23  13  14  1   
 24  13  15  1   
 25  14  16  1   
 26  14  30  1   
 27  14  31  1   
 28  15  17  1   
 29  15  32  1   
 30  15  33  1   
 31  16  18  1   
 32  16  19  1   
 33  16  34  1   
 34  17  18  1   
 35  17  20  1   
 36  17  35  1   
 37  19  36  1   
 38  19  37  1   
 39  19  38  1   
 40  20  39  1   
 41  20  40  1   
 42  20  41  1   
@<TRIPOS>SUBSTRUCTURE
  1 ****   7 GROUP 4 **** **** 0

# MOE 2024.06 (io_trps.svl 2023.06)
