@<TRIPOS>MOLECULE
NONAME
39 41 1 0 0 
SMALL
USER_CHARGES


@<TRIPOS>ATOM
  1 N        0.2500     0.6940     0.5650 N.ar  1 <1>  -0.6200 
  2 C        1.4580     1.2110     0.4330 C.ar  1 <1>   0.4100 
  3 C        0.1650    -0.6120     0.3730 C.ar  1 <1>   0.1600 
  4 N        1.5100     2.5570     0.6280 N.pl3 1 <1>  -0.8690 
  5 C        2.5940     0.4680     0.1220 C.ar  1 <1>  -0.1500 
  6 C        1.2300    -1.4370     0.0550 C.ar  1 <1>  -0.1500 
  7 C        2.0010     3.4270    -0.4710 C.3   1 <1>   0.2090 
  8 C        2.4900    -0.8890    -0.0760 C.ar  1 <1>  -0.1500 
  9 C        1.8520     4.9320    -0.1360 C.3   1 <1>   0.1430 
 10 C        0.3700     5.2420     0.1590 C.ar  1 <1>  -0.1430 
 11 C        2.4080     5.7800    -1.2930 C.3   1 <1>  -0.1600 
 12 C        2.8020     5.3350     1.0070 C.3   1 <1>  -0.1600 
 13 C       -0.5180     5.5190    -0.8750 C.ar  1 <1>  -0.1500 
 14 C       -0.1240     5.2210     1.4590 C.ar  1 <1>  -0.1500 
 15 C        3.9270     5.8400    -1.1040 C.3   1 <1>  -0.1600 
 16 C        4.1820     5.5330     0.3740 C.3   1 <1>  -0.1600 
 17 C       -1.8520     5.7840    -0.6170 C.ar  1 <1>  -0.1500 
 18 C       -1.4570     5.4850     1.7200 C.ar  1 <1>  -0.1500 
 19 C       -2.3230     5.7700     0.6820 C.ar  1 <1>  -0.1500 
 20 H       -0.8130    -1.0500     0.4770 H     1 <1>   0.1500 
 21 H        0.5830     2.8790     0.9320 H     1 <1>   0.4000 
 22 H        3.5400     0.9670     0.0500 H     1 <1>   0.1500 
 23 H        1.0750    -2.4910    -0.0860 H     1 <1>   0.1500 
 24 H        1.4320     3.2080    -1.3590 H     1 <1>   0.0800 
 25 H        3.0310     3.1960    -0.6710 H     1 <1>   0.0800 
 26 H        3.3470    -1.4940    -0.3180 H     1 <1>   0.1500 
 27 H        2.0150     6.7800    -1.2090 H     1 <1>   0.0800 
 28 H        2.1440     5.3870    -2.2590 H     1 <1>   0.0800 
 29 H        2.8310     4.6050     1.7970 H     1 <1>   0.0800 
 30 H        2.4770     6.2750     1.4170 H     1 <1>   0.0800 
 31 H       -0.1860     5.5270    -1.8970 H     1 <1>   0.1500 
 32 H        0.5220     4.9900     2.2880 H     1 <1>   0.1500 
 33 H        4.3060     6.8110    -1.3730 H     1 <1>   0.0800 
 34 H        4.4080     5.0970    -1.7180 H     1 <1>   0.0800 
 35 H        4.7590     4.6290     0.4640 H     1 <1>   0.0800 
 36 H        4.7140     6.3340     0.8580 H     1 <1>   0.0800 
 37 H       -2.5230     5.9990    -1.4290 H     1 <1>   0.1500 
 38 H       -1.8190     5.4650     2.7330 H     1 <1>   0.1500 
 39 H       -3.3600     5.9750     0.8840 H     1 <1>   0.1500 
@<TRIPOS>BOND
  1   1   2  ar  
  2   1   3  ar  
  3   2   4  1   
  4   2   5  ar  
  5   3   6  ar  
  6   3  20  1   
  7   4   7  1   
  8   4  21  1   
  9   5   8  ar  
 10   5  22  1   
 11   6   8  ar  
 12   6  23  1   
 13   7   9  1   
 14   7  24  1   
 15   7  25  1   
 16   8  26  1   
 17   9  10  1   
 18   9  11  1   
 19   9  12  1   
 20  10  13  ar  
 21  10  14  ar  
 22  11  15  1   
 23  11  27  1   
 24  11  28  1   
 25  12  16  1   
 26  12  29  1   
 27  12  30  1   
 28  13  17  ar  
 29  13  31  1   
 30  14  18  ar  
 31  14  32  1   
 32  15  16  1   
 33  15  33  1   
 34  15  34  1   
 35  16  35  1   
 36  16  36  1   
 37  17  19  ar  
 38  17  37  1   
 39  18  19  ar  
 40  18  38  1   
 41  19  39  1   
@<TRIPOS>SUBSTRUCTURE
  1 ****   7 GROUP 4 **** **** 0

# MOE 2024.06 (io_trps.svl 2023.06)
