@<TRIPOS>MOLECULE
NONAME
49 50 1 0 0 
SMALL
USER_CHARGES


@<TRIPOS>ATOM
  1 O       -1.7090    -2.0960    -1.7250 O.2   1 <1>  -0.5700 
  2 C       -0.6110    -2.2530    -1.2170 C.2   1 <1>   0.5440 
  3 N        0.4260    -1.4320    -1.6220 N.am  1 <1>  -0.6600 
  4 C       -0.4300    -3.2700    -0.1990 C.ar  1 <1>   0.0860 
  5 C        0.3100    -0.5670    -2.8290 C.3   1 <1>   0.0600 
  6 C        1.6520    -1.1970    -0.8090 C.3   1 <1>   0.0600 
  7 C       -1.2920    -3.3500     0.9080 C.ar  1 <1>   0.1170 
  8 C        0.6150    -4.1900    -0.2960 C.ar  1 <1>  -0.1500 
  9 N       -2.3780    -2.4690     1.0000 N.am  1 <1>  -0.5470 
 10 C       -1.0630    -4.3200     1.8800 C.ar  1 <1>  -0.1500 
 11 C        0.8290    -5.1470     0.6750 C.ar  1 <1>  -0.1500 
 12 C       -3.0910    -1.9800     2.0620 C.2   1 <1>   0.5690 
 13 C       -0.0130    -5.2090     1.7710 C.ar  1 <1>  -0.1500 
 14 O       -2.8550    -2.2720     3.2110 O.2   1 <1>  -0.5700 
 15 C       -4.2250    -0.9870     1.7770 C.3   1 <1>   0.2610 
 16 O       -4.8820    -1.3020     0.5560 O.3   1 <1>  -0.3630 
 17 C       -3.6950     0.4540     1.6710 C.3   1 <1>  -0.1600 
 18 C       -5.5530    -2.4700     0.3700 C.ar  1 <1>   0.0820 
 19 C       -4.8030     1.4900     1.4290 C.3   1 <1>  -0.2400 
 20 C       -5.8510    -2.8360    -0.9400 C.ar  1 <1>  -0.1440 
 21 C       -5.9380    -3.3000     1.4220 C.ar  1 <1>  -0.1500 
 22 C       -6.5270    -4.0210    -1.1840 C.ar  1 <1>  -0.1500 
 23 C       -5.4310    -1.9520    -2.1070 C.3   1 <1>  -0.0970 
 24 C       -6.6120    -4.4800     1.1660 C.ar  1 <1>  -0.1500 
 25 C       -6.9070    -4.8410    -0.1360 C.ar  1 <1>  -0.1500 
 26 H       -0.4830    -0.9150    -3.4690 H     1 <1>   0.0800 
 27 H        1.2300    -0.5890    -3.3860 H     1 <1>   0.0800 
 28 H        0.0960     0.4440    -2.5320 H     1 <1>   0.0800 
 29 H        1.5350    -1.5900     0.1860 H     1 <1>   0.0800 
 30 H        1.8410    -0.1410    -0.7330 H     1 <1>   0.0800 
 31 H        2.4950    -1.6730    -1.2790 H     1 <1>   0.0800 
 32 H        1.2670    -4.1470    -1.1520 H     1 <1>   0.1500 
 33 H       -2.7040    -2.1270     0.0830 H     1 <1>   0.3700 
 34 H       -1.7180    -4.3880     2.7300 H     1 <1>   0.1500 
 35 H        1.6430    -5.8460     0.5830 H     1 <1>   0.1500 
 36 H        0.1460    -5.9520     2.5340 H     1 <1>   0.1500 
 37 H       -4.9500    -1.0330     2.5690 H     1 <1>   0.0800 
 38 H       -2.9700     0.5060     0.8770 H     1 <1>   0.0800 
 39 H       -3.1880     0.6970     2.5890 H     1 <1>   0.0800 
 40 H       -5.2980     1.3020     0.4910 H     1 <1>   0.0800 
 41 H       -4.3820     2.4800     1.3970 H     1 <1>   0.0800 
 42 H       -5.5340     1.4530     2.2180 H     1 <1>   0.0800 
 43 H       -5.7260    -3.0500     2.4440 H     1 <1>   0.1500 
 44 H       -6.7590    -4.3140    -2.1920 H     1 <1>   0.1500 
 45 H       -5.8200    -0.9590    -1.9720 H     1 <1>   0.0800 
 46 H       -5.7960    -2.3400    -3.0400 H     1 <1>   0.0800 
 47 H       -4.3590    -1.8990    -2.1550 H     1 <1>   0.0800 
 48 H       -6.9060    -5.1190     1.9800 H     1 <1>   0.1500 
 49 H       -7.4300    -5.7600    -0.3350 H     1 <1>   0.1500 
@<TRIPOS>BOND
  1   1   2  2   
  2   2   3  am  
  3   2   4  1   
  4   3   5  1   
  5   3   6  1   
  6   4   7  ar  
  7   4   8  ar  
  8   5  26  1   
  9   5  27  1   
 10   5  28  1   
 11   6  29  1   
 12   6  30  1   
 13   6  31  1   
 14   7   9  1   
 15   7  10  ar  
 16   8  11  ar  
 17   8  32  1   
 18   9  12  am  
 19   9  33  1   
 20  10  13  ar  
 21  10  34  1   
 22  11  13  ar  
 23  11  35  1   
 24  12  14  2   
 25  12  15  1   
 26  13  36  1   
 27  15  16  1   
 28  15  17  1   
 29  15  37  1   
 30  16  18  1   
 31  17  19  1   
 32  17  38  1   
 33  17  39  1   
 34  18  20  ar  
 35  18  21  ar  
 36  19  40  1   
 37  19  41  1   
 38  19  42  1   
 39  20  22  ar  
 40  20  23  1   
 41  21  24  ar  
 42  21  43  1   
 43  22  25  ar  
 44  22  44  1   
 45  23  45  1   
 46  23  46  1   
 47  23  47  1   
 48  24  25  ar  
 49  24  48  1   
 50  25  49  1   
@<TRIPOS>SUBSTRUCTURE
  1 ****   9 GROUP 4 **** **** 0

# MOE 2024.06 (io_trps.svl 2023.06)
