@<TRIPOS>MOLECULE
NONAME
27 28 1 0 0 
SMALL
USER_CHARGES


@<TRIPOS>ATOM
  1 S       -2.4190     1.3970     1.1140 S.3   1 <1>  -0.9360 
  2 C       -2.7460    -0.1770     0.8930 C.cat 1 <1>   0.7360 
  3 N       -2.3710    -1.1220     1.7260 N.pl3 1 <1>  -0.3930 
  4 N       -3.3860    -0.7510    -0.0920 N.pl3 1 <1>  -0.7000 
  5 N       -2.7740    -2.3500     1.2760 N.2   1 <1>  -0.2600 
  6 C       -3.3900    -2.0880     0.1730 C.2   1 <1>   0.4850 
  7 C       -4.0360    -3.1000    -0.7960 C.3   1 <1>   0.0880 
  8 C       -5.5540    -2.8760    -1.0020 C.3   1 <1>  -0.1860 
  9 C       -3.8080    -4.5780    -0.3750 C.3   1 <1>  -0.1600 
 10 C       -5.9030    -1.5900    -1.7420 C.2   1 <1>   0.9060 
 11 C       -6.3160    -3.0270     0.3370 C.3   1 <1>  -0.1600 
 12 C       -4.9460    -5.1800     0.4790 C.3   1 <1>  -0.1600 
 13 O       -7.0900    -1.2960    -1.8810 O.co2 1 <1>  -0.9000 
 14 O       -4.9940    -0.8850    -2.1990 O.co2 1 <1>  -0.9000 
 15 C       -5.7310    -4.1160     1.2590 C.3   1 <1>  -0.1600 
 16 H       -1.8550    -0.8940     2.5730 H     1 <1>   0.4500 
 17 H       -3.8750    -0.3300    -0.9080 H     1 <1>   0.4500 
 18 H       -3.5450    -2.9590    -1.7430 H     1 <1>   0.0800 
 19 H       -5.9010    -3.6520    -1.6580 H     1 <1>   0.0800 
 20 H       -2.8710    -4.6760     0.1440 H     1 <1>   0.0800 
 21 H       -3.7220    -5.1730    -1.2680 H     1 <1>   0.0800 
 22 H       -7.3440    -3.2570     0.1090 H     1 <1>   0.0800 
 23 H       -6.3150    -2.0850     0.8590 H     1 <1>   0.0800 
 24 H       -4.5430    -5.9110     1.1590 H     1 <1>   0.0800 
 25 H       -5.6360    -5.6920    -0.1710 H     1 <1>   0.0800 
 26 H       -6.5300    -4.5820     1.8100 H     1 <1>   0.0800 
 27 H       -5.0760    -3.6570     1.9790 H     1 <1>   0.0800 
@<TRIPOS>BOND
  1   1   2  1   
  2   2   3  ar  
  3   2   4  ar  
  4   3   5  1   
  5   3  16  1   
  6   4   6  1   
  7   4  17  1   
  8   5   6  2   
  9   6   7  1   
 10   7   8  1   
 11   7   9  1   
 12   7  18  1   
 13   8  10  1   
 14   8  11  1   
 15   8  19  1   
 16   9  12  1   
 17   9  20  1   
 18   9  21  1   
 19  10  13  ar  
 20  10  14  ar  
 21  11  15  1   
 22  11  22  1   
 23  11  23  1   
 24  12  15  1   
 25  12  24  1   
 26  12  25  1   
 27  15  26  1   
 28  15  27  1   
@<TRIPOS>SUBSTRUCTURE
  1 ****   6 GROUP 4 **** **** 0

# MOE 2024.06 (io_trps.svl 2023.06)
