@<TRIPOS>MOLECULE
NONAME
50 51 1 0 0 
SMALL
USER_CHARGES


@<TRIPOS>ATOM
  1 S        0.9230     2.6060    -1.5200 S.o2  1 <1>   1.3330 
  2 O        1.3980     1.2640    -1.2920 O.2   1 <1>  -0.6500 
  3 O        1.8410     3.6630    -1.8740 O.2   1 <1>  -0.6500 
  4 N        0.0880     3.1180    -0.1010 N.am  1 <1>  -0.6930 
  5 C       -0.3750     2.5860    -2.7380 C.3   1 <1>  -0.1350 
  6 C       -1.0550     2.4450     0.3380 C.ar  1 <1>   0.1990 
  7 C        0.8280     3.9720     0.8740 C.3   1 <1>   0.2570 
  8 C       -2.3380     2.9630     0.1110 C.ar  1 <1>   0.0830 
  9 C       -0.9270     1.2330     1.0040 C.ar  1 <1>  -0.1500 
 10 C        1.7750     3.2030     1.8110 C.2   1 <1>   0.5690 
 11 O       -2.4350     4.1500    -0.5620 O.3   1 <1>  -0.3630 
 12 C       -3.4550     2.2630     0.5590 C.ar  1 <1>  -0.1500 
 13 C       -2.0400     0.5430     1.4470 C.ar  1 <1>  -0.1500 
 14 O        1.3100     2.6760     2.7920 O.2   1 <1>  -0.5700 
 15 N        3.1150     3.1170     1.6170 N.am  1 <1>  -0.7300 
 16 C       -3.6630     4.8400    -0.6520 C.3   1 <1>   0.0400 
 17 C       -3.3040     1.0580     1.2250 C.ar  1 <1>  -0.1500 
 18 C        3.9780     3.6980     0.5740 C.3   1 <1>   0.2200 
 19 C        4.6660     2.5420    -0.1580 C.3   1 <1>  -0.1600 
 20 C        4.9390     4.6830     1.2520 C.3   1 <1>  -0.1600 
 21 C        5.6510     2.9730    -1.2570 C.3   1 <1>  -0.1600 
 22 C        5.6370     5.6040     0.2380 C.3   1 <1>  -0.1600 
 23 C        6.9580     3.5380    -0.6840 C.3   1 <1>  -0.1600 
 24 C        6.9340     5.0410    -0.3650 C.3   1 <1>  -0.1600 
 25 H        0.0240     2.3200    -3.6960 H     1 <1>   0.0800 
 26 H       -0.8290     3.5550    -2.8070 H     1 <1>   0.0800 
 27 H       -1.1270     1.8720    -2.4660 H     1 <1>   0.0800 
 28 H        0.1050     4.4730     1.4920 H     1 <1>   0.0800 
 29 H        1.3690     4.7350     0.3480 H     1 <1>   0.0800 
 30 H        0.0570     0.8320     1.1780 H     1 <1>   0.1500 
 31 H       -4.4500     2.6320     0.3990 H     1 <1>   0.1500 
 32 H       -1.9180    -0.3920     1.9650 H     1 <1>   0.1500 
 33 H        3.6090     2.5430     2.3010 H     1 <1>   0.3700 
 34 H       -3.4830     5.7790    -1.1440 H     1 <1>   0.0800 
 35 H       -4.0400     5.0140     0.3400 H     1 <1>   0.0800 
 36 H       -4.3530     4.2520    -1.2310 H     1 <1>   0.0800 
 37 H       -4.1700     0.5210     1.5710 H     1 <1>   0.1500 
 38 H        3.3780     4.2440    -0.1290 H     1 <1>   0.0800 
 39 H        3.9010     1.9440    -0.6210 H     1 <1>   0.0800 
 40 H        5.1770     1.9150     0.5510 H     1 <1>   0.0800 
 41 H        5.6640     4.1620     1.8510 H     1 <1>   0.0800 
 42 H        4.3580     5.3100     1.9060 H     1 <1>   0.0800 
 43 H        5.1870     3.6750    -1.9290 H     1 <1>   0.0800 
 44 H        5.8940     2.0960    -1.8330 H     1 <1>   0.0800 
 45 H        5.8790     6.5330     0.7250 H     1 <1>   0.0800 
 46 H        4.9510     5.8430    -0.5580 H     1 <1>   0.0800 
 47 H        7.7460     3.3700    -1.3990 H     1 <1>   0.0800 
 48 H        7.2270     2.9890     0.2020 H     1 <1>   0.0800 
 49 H        7.7460     5.2460     0.3120 H     1 <1>   0.0800 
 50 H        7.1390     5.5880    -1.2700 H     1 <1>   0.0800 
@<TRIPOS>BOND
  1   1   2  2   
  2   1   3  2   
  3   1   4  am  
  4   1   5  1   
  5   4   6  1   
  6   4   7  1   
  7   5  25  1   
  8   5  26  1   
  9   5  27  1   
 10   6   8  ar  
 11   6   9  ar  
 12   7  10  1   
 13   7  28  1   
 14   7  29  1   
 15   8  11  1   
 16   8  12  ar  
 17   9  13  ar  
 18   9  30  1   
 19  10  14  2   
 20  10  15  am  
 21  11  16  1   
 22  12  17  ar  
 23  12  31  1   
 24  13  17  ar  
 25  13  32  1   
 26  15  18  1   
 27  15  33  1   
 28  16  34  1   
 29  16  35  1   
 30  16  36  1   
 31  17  37  1   
 32  18  19  1   
 33  18  20  1   
 34  18  38  1   
 35  19  21  1   
 36  19  39  1   
 37  19  40  1   
 38  20  22  1   
 39  20  41  1   
 40  20  42  1   
 41  21  23  1   
 42  21  43  1   
 43  21  44  1   
 44  22  24  1   
 45  22  45  1   
 46  22  46  1   
 47  23  24  1   
 48  23  47  1   
 49  23  48  1   
 50  24  49  1   
 51  24  50  1   
@<TRIPOS>SUBSTRUCTURE
  1 ****   4 GROUP 4 **** **** 0

# MOE 2024.06 (io_trps.svl 2023.06)
