@<TRIPOS>MOLECULE
NONAME
35 36 1 0 0 
SMALL
USER_CHARGES


@<TRIPOS>ATOM
  1 S        0.4370    -0.4960     0.4470 S.3   1 <1>  -0.0800 
  2 C       -0.7140    -0.5720     1.7320 C.2   1 <1>   0.4340 
  3 C        1.6360    -0.9200     1.6300 C.2   1 <1>   0.4420 
  4 S       -2.4340    -0.2280     1.3570 S.3   1 <1>  -0.2860 
  5 N       -0.2190    -0.8730     2.8620 N.2   1 <1>  -0.3380 
  6 N        1.1360    -1.0740     2.8050 N.2   1 <1>  -0.3380 
  7 N        2.9320    -1.0240     1.1690 N.am  1 <1>  -0.4940 
  8 C       -2.4990     0.1360    -0.4530 C.3   1 <1>   0.0700 
  9 C        4.0850    -1.4220     1.7960 C.2   1 <1>   0.5440 
 10 C       -3.9530     0.4360    -0.8220 C.3   1 <1>  -0.1600 
 11 O        4.0130    -1.8630     2.9250 O.2   1 <1>  -0.5700 
 12 C        5.3760    -1.3110     1.1310 C.ar  1 <1>   0.0860 
 13 C       -4.0940     0.7500    -2.3150 C.3   1 <1>  -0.2400 
 14 C        5.5480    -1.1490    -0.2600 C.ar  1 <1>   0.0820 
 15 C        6.5370    -1.3660     1.9110 C.ar  1 <1>  -0.1500 
 16 O        4.4510    -1.1040    -1.0620 O.3   1 <1>  -0.3620 
 17 C        6.8290    -1.0420    -0.8020 C.ar  1 <1>  -0.1500 
 18 C        7.8000    -1.2620     1.3660 C.ar  1 <1>  -0.1500 
 19 C        4.5280    -1.0870    -2.4730 C.3   1 <1>   0.0400 
 20 C        7.9480    -1.0980     0.0030 C.ar  1 <1>  -0.1500 
 21 H        3.0730    -0.8040     0.1820 H     1 <1>   0.3700 
 22 H       -2.1330    -0.7320    -0.9730 H     1 <1>   0.0800 
 23 H       -1.8640     0.9850    -0.6370 H     1 <1>   0.0800 
 24 H       -4.3000     1.2770    -0.2460 H     1 <1>   0.0800 
 25 H       -4.5650    -0.4150    -0.5770 H     1 <1>   0.0800 
 26 H       -3.5050     1.6120    -2.5770 H     1 <1>   0.0800 
 27 H       -5.1240     0.9580    -2.5500 H     1 <1>   0.0800 
 28 H       -3.7720    -0.0870    -2.9090 H     1 <1>   0.0800 
 29 H        6.4440    -1.4940     2.9770 H     1 <1>   0.1500 
 30 H        6.9840    -0.9120    -1.8570 H     1 <1>   0.1500 
 31 H        8.6690    -1.3090     2.0020 H     1 <1>   0.1500 
 32 H        3.5280    -1.1200    -2.8670 H     1 <1>   0.0800 
 33 H        5.0770    -1.9520    -2.8050 H     1 <1>   0.0800 
 34 H        5.0130    -0.1800    -2.7880 H     1 <1>   0.0800 
 35 H        8.9320    -1.0150    -0.4250 H     1 <1>   0.1500 
@<TRIPOS>BOND
  1   1   2  1   
  2   1   3  1   
  3   2   4  1   
  4   2   5  2   
  5   3   6  2   
  6   3   7  1   
  7   4   8  1   
  8   5   6  1   
  9   7   9  am  
 10   7  21  1   
 11   8  10  1   
 12   8  22  1   
 13   8  23  1   
 14   9  11  2   
 15   9  12  1   
 16  10  13  1   
 17  10  24  1   
 18  10  25  1   
 19  12  14  ar  
 20  12  15  ar  
 21  13  26  1   
 22  13  27  1   
 23  13  28  1   
 24  14  16  1   
 25  14  17  ar  
 26  15  18  ar  
 27  15  29  1   
 28  16  19  1   
 29  17  20  ar  
 30  17  30  1   
 31  18  20  ar  
 32  18  31  1   
 33  19  32  1   
 34  19  33  1   
 35  19  34  1   
 36  20  35  1   
@<TRIPOS>SUBSTRUCTURE
  1 ****   7 GROUP 4 **** **** 0

# MOE 2024.06 (io_trps.svl 2023.06)
