@<TRIPOS>MOLECULE
NONAME
40 43 1 0 0 
SMALL
USER_CHARGES


@<TRIPOS>ATOM
  1 O       -1.0130    -1.1700     2.0110 O.2   1 <1>  -0.5700 
  2 C       -1.5630    -1.5050     0.9930 C.2   1 <1>   0.5690 
  3 N       -1.1840    -2.4920     0.0950 N.am  1 <1>  -0.2370 
  4 C       -2.7950    -0.8390     0.4440 C.3   1 <1>  -0.0190 
  5 C        0.0550    -3.1750     0.0890 C.ar  1 <1>   0.1170 
  6 C       -2.2270    -2.7020    -0.7930 C.2   1 <1>   0.5690 
  7 C       -3.8980     0.0650     1.0600 C.3   1 <1>   0.0580 
  8 C       -3.4520    -2.0520    -0.2140 C.3   1 <1>  -0.0190 
  9 C        0.1250    -4.5260    -0.2400 C.ar  1 <1>  -0.1500 
 10 C        1.2390    -2.5150     0.4110 C.ar  1 <1>  -0.1500 
 11 O       -2.2100    -3.3000    -1.8380 O.2   1 <1>  -0.5700 
 12 C       -5.1370    -0.7450     1.4600 C.2   1 <1>  -0.2880 
 13 C       -4.4370     0.8460    -0.1740 C.3   1 <1>  -0.1600 
 14 C       -4.8300    -1.6240    -0.7830 C.3   1 <1>   0.0580 
 15 C        1.3330    -5.2000    -0.2450 C.ar  1 <1>  -0.1500 
 16 C        2.4490    -3.1840     0.4090 C.ar  1 <1>  -0.1500 
 17 C       -5.6440    -1.5470     0.5120 C.2   1 <1>  -0.2880 
 18 C       -4.8030    -0.1630    -1.3200 C.3   1 <1>  -0.1600 
 19 C        2.5040    -4.5300     0.0870 C.ar  1 <1>   0.0830 
 20 O        3.7280    -5.1260     0.0950 O.3   1 <1>  -0.2330 
 21 C        4.0220    -6.3950     0.3680 C.2   1 <1>   0.6590 
 22 O        3.2190    -7.2170     0.7200 O.2   1 <1>  -0.5700 
 23 C        5.4780    -6.7600     0.2100 C.3   1 <1>  -0.1790 
 24 H       -2.3470    -0.2360    -0.3290 H     1 <1>   0.0800 
 25 H       -3.5350     0.7190     1.8350 H     1 <1>   0.0800 
 26 H       -3.6940    -2.7670     0.5590 H     1 <1>   0.0800 
 27 H       -0.7710    -5.0630    -0.4990 H     1 <1>   0.1500 
 28 H        1.2180    -1.4710     0.6710 H     1 <1>   0.1500 
 29 H       -5.5290    -0.5800     2.4500 H     1 <1>   0.1500 
 30 H       -3.7140     1.5630    -0.5240 H     1 <1>   0.0800 
 31 H       -5.3160     1.3960     0.1150 H     1 <1>   0.0800 
 32 H       -5.2270    -2.3400    -1.4830 H     1 <1>   0.0800 
 33 H        1.3510    -6.2410    -0.5130 H     1 <1>   0.1500 
 34 H        3.3550    -2.6610     0.6610 H     1 <1>   0.1500 
 35 H       -6.5310    -2.1550     0.5760 H     1 <1>   0.1500 
 36 H       -4.0900    -0.0920    -2.1230 H     1 <1>   0.0800 
 37 H       -5.7700     0.0890    -1.7180 H     1 <1>   0.0800 
 38 H        6.0720    -6.1600     0.8730 H     1 <1>   0.0800 
 39 H        5.7850    -6.5850    -0.8030 H     1 <1>   0.0800 
 40 H        5.6200    -7.7970     0.4490 H     1 <1>   0.0800 
@<TRIPOS>BOND
  1   1   2  2   
  2   2   3  am  
  3   2   4  1   
  4   3   5  1   
  5   3   6  am  
  6   4   7  1   
  7   4   8  1   
  8   4  24  1   
  9   5   9  ar  
 10   5  10  ar  
 11   6   8  1   
 12   6  11  2   
 13   7  12  1   
 14   7  13  1   
 15   7  25  1   
 16   8  14  1   
 17   8  26  1   
 18   9  15  ar  
 19   9  27  1   
 20  10  16  ar  
 21  10  28  1   
 22  12  17  2   
 23  12  29  1   
 24  13  18  1   
 25  13  30  1   
 26  13  31  1   
 27  14  17  1   
 28  14  18  1   
 29  14  32  1   
 30  15  19  ar  
 31  15  33  1   
 32  16  19  ar  
 33  16  34  1   
 34  17  35  1   
 35  18  36  1   
 36  18  37  1   
 37  19  20  1   
 38  20  21  1   
 39  21  22  2   
 40  21  23  1   
 41  23  38  1   
 42  23  39  1   
 43  23  40  1   
@<TRIPOS>SUBSTRUCTURE
  1 ****   3 GROUP 4 **** **** 0

# MOE 2024.06 (io_trps.svl 2023.06)
