@<TRIPOS>MOLECULE
NONAME
43 45 1 0 0 
SMALL
USER_CHARGES


@<TRIPOS>ATOM
  1 BR       0.2780     0.0160    -0.1830 Br    1 <1>  -0.0570 
  2 C       -0.5200    -1.7240     0.0520 C.2   1 <1>   0.0570 
  3 C        0.0760    -2.7530     0.6730 C.2   1 <1>  -0.1100 
  4 C       -1.8310    -1.9620    -0.4590 C.2   1 <1>  -0.1500 
  5 S       -1.0150    -4.1300     0.6540 S.3   1 <1>  -0.0800 
  6 C       -2.2550    -3.2210    -0.2140 C.2   1 <1>  -0.1400 
  7 C       -3.5240    -3.9940    -0.5180 C.3   1 <1>   0.5230 
  8 N       -4.6220    -3.0520    -0.8530 N.4   1 <1>  -0.9590 
  9 C       -5.0350    -2.2440     0.3600 C.3   1 <1>   0.3430 
 10 C       -5.8090    -3.7740    -1.4450 C.3   1 <1>   0.3430 
 11 C       -6.2000    -1.2790     0.0620 C.3   1 <1>   0.2090 
 12 C       -6.9830    -2.8240    -1.7630 C.3   1 <1>   0.2090 
 13 N       -7.3340    -2.0120    -0.5660 N.pl3 1 <1>  -0.8380 
 14 C       -8.5550    -1.3420    -0.6160 C.ar  1 <1>   0.1000 
 15 C       -9.6590    -1.7680     0.1330 C.ar  1 <1>  -0.1430 
 16 C       -8.6810    -0.2280    -1.4380 C.ar  1 <1>  -0.1500 
 17 C      -10.8660    -1.0820     0.0340 C.ar  1 <1>  -0.1430 
 18 C       -9.5500    -2.9850     1.0530 C.3   1 <1>  -0.0970 
 19 C       -9.8760     0.4560    -1.5270 C.ar  1 <1>  -0.1500 
 20 C      -10.9650     0.0270    -0.7930 C.ar  1 <1>  -0.1500 
 21 C      -12.1070    -1.5090     0.8080 C.3   1 <1>  -0.0970 
 22 H        1.0370    -2.8620     1.1440 H     1 <1>   0.1500 
 23 H       -2.3500    -1.1720    -0.9730 H     1 <1>   0.1500 
 24 H       -3.7990    -4.5850     0.3410 H     1 <1>   0.0800 
 25 H       -3.3360    -4.6620    -1.3430 H     1 <1>   0.0800 
 26 H       -4.2620    -2.4000    -1.5580 H     1 <1>   0.4500 
 27 H       -4.1970    -1.6770     0.7310 H     1 <1>   0.0800 
 28 H       -5.3520    -2.9100     1.1450 H     1 <1>   0.0800 
 29 H       -6.1660    -4.5140    -0.7480 H     1 <1>   0.0800 
 30 H       -5.5190    -4.2840    -2.3490 H     1 <1>   0.0800 
 31 H       -5.8680    -0.4910    -0.5920 H     1 <1>   0.0800 
 32 H       -6.5370    -0.8280     0.9800 H     1 <1>   0.0800 
 33 H       -7.8430    -3.4000    -2.0610 H     1 <1>   0.0800 
 34 H       -6.7220    -2.1730    -2.5800 H     1 <1>   0.0800 
 35 H       -7.8410     0.1070    -2.0140 H     1 <1>   0.1500 
 36 H      -10.0050    -3.8360     0.5790 H     1 <1>   0.0800 
 37 H      -10.0470    -2.7990     1.9870 H     1 <1>   0.0800 
 38 H       -8.5300    -3.2270     1.2820 H     1 <1>   0.0800 
 39 H       -9.9640     1.3180    -2.1650 H     1 <1>   0.1500 
 40 H      -11.8920     0.5660    -0.8720 H     1 <1>   0.1500 
 41 H      -11.9690    -1.3170     1.8570 H     1 <1>   0.0800 
 42 H      -12.2960    -2.5570     0.6620 H     1 <1>   0.0800 
 43 H      -12.9740    -0.9670     0.4770 H     1 <1>   0.0800 
@<TRIPOS>BOND
  1   1   2  1   
  2   2   3  2   
  3   2   4  1   
  4   3   5  1   
  5   3  22  1   
  6   4   6  2   
  7   4  23  1   
  8   5   6  1   
  9   6   7  1   
 10   7   8  1   
 11   7  24  1   
 12   7  25  1   
 13   8   9  1   
 14   8  10  1   
 15   8  26  1   
 16   9  11  1   
 17   9  27  1   
 18   9  28  1   
 19  10  12  1   
 20  10  29  1   
 21  10  30  1   
 22  11  13  1   
 23  11  31  1   
 24  11  32  1   
 25  12  13  1   
 26  12  33  1   
 27  12  34  1   
 28  13  14  1   
 29  14  15  ar  
 30  14  16  ar  
 31  15  17  ar  
 32  15  18  1   
 33  16  19  ar  
 34  16  35  1   
 35  17  20  ar  
 36  17  21  1   
 37  18  36  1   
 38  18  37  1   
 39  18  38  1   
 40  19  20  ar  
 41  19  39  1   
 42  20  40  1   
 43  21  41  1   
 44  21  42  1   
 45  21  43  1   
@<TRIPOS>SUBSTRUCTURE
  1 ****  11 GROUP 4 **** **** 0

# MOE 2024.06 (io_trps.svl 2023.06)
