@<TRIPOS>MOLECULE
NONAME
53 55 1 0 0 
SMALL
USER_CHARGES


@<TRIPOS>ATOM
  1 O        0.6090     0.9380     0.8640 O.3   1 <1>  -0.3570 
  2 C        0.6680     2.2570     0.5630 C.ar  1 <1>   0.0900 
  3 C        0.0870    -0.0070    -0.0440 C.3   1 <1>   0.1270 
  4 C        1.1070     3.1010     1.5690 C.ar  1 <1>  -0.1430 
  5 C        0.3150     2.7900    -0.6740 C.ar  1 <1>  -0.1430 
  6 C        0.1220    -1.3800     0.6270 C.3   1 <1>  -0.1530 
  7 C        1.2050     4.4630     1.3490 C.ar  1 <1>  -0.1430 
  8 C        0.4160     4.1530    -0.8920 C.ar  1 <1>  -0.1430 
  9 C       -0.4350    -2.4690    -0.3010 C.3   1 <1>  -0.1530 
 10 C        0.8700     4.9960     0.1120 C.ar  1 <1>   0.3170 
 11 C       -0.3960    -3.8410     0.3780 C.3   1 <1>  -0.2330 
 12 N        1.0070     6.3680    -0.1310 N.pl3 1 <1>  -0.8250 
 13 C        2.1200     7.0460    -0.2280 C.cat 1 <1>   1.2010 
 14 N        3.2700     6.4660    -0.1340 N.pl3 1 <1>  -0.8410 
 15 N        2.0660     8.3320    -0.4300 N.pl3 1 <1>  -0.9140 
 16 C        4.5520     7.0910    -0.2250 C.3   1 <1>   0.6590 
 17 C        3.1490     9.0420    -0.5370 C.cat 1 <1>   1.2010 
 18 N        4.3110     8.4880    -0.4450 N.pl3 1 <1>  -0.8410 
 19 C        5.3230     6.4960    -1.4080 C.3   1 <1>  -0.1530 
 20 C        5.3100     6.8870     1.0910 C.3   1 <1>  -0.1530 
 21 N        3.0380    10.3100    -0.7360 N.pl3 1 <1>  -0.9650 
 22 C        5.7030     5.0190    -1.1860 C.3   1 <1>  -0.1530 
 23 C        5.6880     5.4130     1.3350 C.3   1 <1>  -0.1530 
 24 C        6.4570     4.8300     0.1390 C.3   1 <1>  -0.1530 
 25 H        0.6980    -0.0020    -0.9300 H     1 <1>   0.0880 
 26 H       -0.9250     0.2730    -0.2830 H     1 <1>   0.0880 
 27 H        1.3640     2.6760     2.5260 H     1 <1>   0.1570 
 28 H       -0.0370     2.1600    -1.4710 H     1 <1>   0.1570 
 29 H       -0.4640    -1.3440     1.5290 H     1 <1>   0.0880 
 30 H        1.1400    -1.6170     0.8870 H     1 <1>   0.0880 
 31 H        1.5340     5.1020     2.1500 H     1 <1>   0.1570 
 32 H        0.1410     4.5550    -1.8510 H     1 <1>   0.1570 
 33 H        0.1460    -2.5080    -1.2070 H     1 <1>   0.0880 
 34 H       -1.4520    -2.2350    -0.5660 H     1 <1>   0.0880 
 35 H        0.6150    -4.1080     0.6330 H     1 <1>   0.0880 
 36 H       -0.7900    -4.5920    -0.2840 H     1 <1>   0.0880 
 37 H       -0.9890    -3.8350     1.2760 H     1 <1>   0.0880 
 38 H        0.1210     6.8530    -0.2550 H     1 <1>   0.4550 
 39 H        3.3110     5.4600     0.0080 H     1 <1>   0.4550 
 40 H        1.1770     8.7950    -0.4900 H     1 <1>   0.4550 
 41 H        5.1570     9.0440    -0.5300 H     1 <1>   0.4550 
 42 H        6.2360     7.0500    -1.5430 H     1 <1>   0.0880 
 43 H        4.7490     6.5870    -2.3140 H     1 <1>   0.0880 
 44 H        4.7270     7.2500     1.9200 H     1 <1>   0.0880 
 45 H        6.2230     7.4570     1.0600 H     1 <1>   0.0880 
 46 H        3.8420    10.9300    -0.8300 H     1 <1>   0.4550 
 47 H        2.1520    10.8060    -0.8200 H     1 <1>   0.4550 
 48 H        6.3300     4.6840    -1.9970 H     1 <1>   0.0880 
 49 H        4.8230     4.3980    -1.1910 H     1 <1>   0.0880 
 50 H        4.8070     4.8220     1.5190 H     1 <1>   0.0880 
 51 H        6.3050     5.3430     2.2170 H     1 <1>   0.0880 
 52 H        7.4200     5.3090     0.0700 H     1 <1>   0.0880 
 53 H        6.6380     3.7800     0.3040 H     1 <1>   0.0880 
@<TRIPOS>BOND
  1   1   2  1   
  2   1   3  1   
  3   2   4  ar  
  4   2   5  ar  
  5   3   6  1   
  6   3  25  1   
  7   3  26  1   
  8   4   7  ar  
  9   4  27  1   
 10   5   8  ar  
 11   5  28  1   
 12   6   9  1   
 13   6  29  1   
 14   6  30  1   
 15   7  10  ar  
 16   7  31  1   
 17   8  10  ar  
 18   8  32  1   
 19   9  11  1   
 20   9  33  1   
 21   9  34  1   
 22  10  12  1   
 23  11  35  1   
 24  11  36  1   
 25  11  37  1   
 26  12  13  ar  
 27  12  38  1   
 28  13  14  ar  
 29  13  15  ar  
 30  14  16  1   
 31  14  39  1   
 32  15  17  ar  
 33  15  40  1   
 34  16  18  1   
 35  16  19  1   
 36  16  20  1   
 37  17  18  ar  
 38  17  21  ar  
 39  18  41  1   
 40  19  22  1   
 41  19  42  1   
 42  19  43  1   
 43  20  23  1   
 44  20  44  1   
 45  20  45  1   
 46  21  46  1   
 47  21  47  1   
 48  22  24  1   
 49  22  48  1   
 50  22  49  1   
 51  23  24  1   
 52  23  50  1   
 53  23  51  1   
 54  24  52  1   
 55  24  53  1   
@<TRIPOS>SUBSTRUCTURE
  1 ****  10 GROUP 4 **** **** 0

# MOE 2024.06 (io_trps.svl 2023.06)
