@<TRIPOS>MOLECULE
NONAME
41 42 1 0 0 
SMALL
USER_CHARGES


@<TRIPOS>ATOM
  1 O       -1.4720     1.2510    -1.1180 O.3   1 <1>  -0.3630 
  2 C       -1.0490     2.0260    -0.0830 C.ar  1 <1>   0.0830 
  3 C       -0.6430     0.9450    -2.2180 C.3   1 <1>   0.0400 
  4 C       -1.9310     2.2250     0.9880 C.ar  1 <1>   0.0280 
  5 C        0.2130     2.6190    -0.0710 C.ar  1 <1>  -0.1500 
  6 C       -1.5080     3.0270     2.0460 C.ar  1 <1>  -0.1500 
  7 C       -3.2460     1.6180     1.0100 C.2   1 <1>  -0.1780 
  8 C        0.6050     3.4110     0.9910 C.ar  1 <1>  -0.1500 
  9 C       -0.2570     3.6160     2.0520 C.ar  1 <1>  -0.1500 
 10 C       -4.3500     2.0650     1.6330 C.2   1 <1>  -0.2880 
 11 C       -5.6990     1.3830     1.5880 C.3   1 <1>   0.2480 
 12 N       -6.6460     2.2450     0.8660 N.3   1 <1>  -0.8100 
 13 C       -6.2300     2.4550    -0.5480 C.3   1 <1>   0.1100 
 14 C       -8.0230     1.7030     0.9230 C.3   1 <1>   0.1100 
 15 C       -7.2490     3.2970    -1.3520 C.3   1 <1>   0.3430 
 16 C       -9.0430     2.6140     0.1950 C.3   1 <1>   0.3430 
 17 N       -8.3630     3.7750    -0.4690 N.4   1 <1>  -0.9590 
 18 C       -9.3020     4.7140    -1.1470 C.3   1 <1>   0.2630 
 19 H       -1.1920     0.3020    -2.8820 H     1 <1>   0.0800 
 20 H        0.2360     0.4370    -1.8620 H     1 <1>   0.0800 
 21 H       -0.3850     1.8580    -2.7250 H     1 <1>   0.0800 
 22 H        0.9040     2.4800    -0.8790 H     1 <1>   0.1500 
 23 H       -2.1630     3.1890     2.8820 H     1 <1>   0.1500 
 24 H       -3.2990     0.7080     0.4370 H     1 <1>   0.1500 
 25 H        1.5790     3.8680     0.9950 H     1 <1>   0.1500 
 26 H        0.0460     4.2310     2.8810 H     1 <1>   0.1500 
 27 H       -4.3730     2.9720     2.2100 H     1 <1>   0.1500 
 28 H       -6.0420     1.2210     2.5960 H     1 <1>   0.0800 
 29 H       -5.6170     0.4260     1.0980 H     1 <1>   0.0800 
 30 H       -5.2810     2.9660    -0.5740 H     1 <1>   0.0800 
 31 H       -6.0920     1.5060    -1.0380 H     1 <1>   0.0800 
 32 H       -8.0470     0.7210     0.4800 H     1 <1>   0.0800 
 33 H       -8.3240     1.6000     1.9520 H     1 <1>   0.0800 
 34 H       -7.6460     2.7000    -2.1560 H     1 <1>   0.0800 
 35 H       -6.7360     4.1380    -1.7900 H     1 <1>   0.0800 
 36 H       -9.7600     2.9750     0.9130 H     1 <1>   0.0800 
 37 H       -9.5780     2.0300    -0.5360 H     1 <1>   0.0800 
 38 H       -7.8650     4.2440     0.3080 H     1 <1>   0.4500 
 39 H       -9.8100     4.2160    -1.9570 H     1 <1>   0.0800 
 40 H       -8.7620     5.5580    -1.5440 H     1 <1>   0.0800 
 41 H      -10.0370     5.0760    -0.4470 H     1 <1>   0.0800 
@<TRIPOS>BOND
  1   1   2  1   
  2   1   3  1   
  3   2   4  ar  
  4   2   5  ar  
  5   3  19  1   
  6   3  20  1   
  7   3  21  1   
  8   4   6  ar  
  9   4   7  1   
 10   5   8  ar  
 11   5  22  1   
 12   6   9  ar  
 13   6  23  1   
 14   7  10  2   
 15   7  24  1   
 16   8   9  ar  
 17   8  25  1   
 18   9  26  1   
 19  10  11  1   
 20  10  27  1   
 21  11  12  1   
 22  11  28  1   
 23  11  29  1   
 24  12  13  1   
 25  12  14  1   
 26  13  15  1   
 27  13  30  1   
 28  13  31  1   
 29  14  16  1   
 30  14  32  1   
 31  14  33  1   
 32  15  17  1   
 33  15  34  1   
 34  15  35  1   
 35  16  17  1   
 36  16  36  1   
 37  16  37  1   
 38  17  18  1   
 39  17  38  1   
 40  18  39  1   
 41  18  40  1   
 42  18  41  1   
@<TRIPOS>SUBSTRUCTURE
  1 ****  10 GROUP 4 **** **** 0

# MOE 2024.06 (io_trps.svl 2023.06)
