@<TRIPOS>MOLECULE
NONAME
33 33 1 0 0 
SMALL
USER_CHARGES


@<TRIPOS>ATOM
  1 O       -0.7540    -0.7660     0.9270 O.2   1 <1>  -0.5700 
  2 C       -0.8670    -1.4620    -0.0470 C.2   1 <1>   0.6590 
  3 O        0.1680    -1.9070    -0.7410 O.3   1 <1>  -0.4300 
  4 C       -2.2260    -1.8820    -0.5520 C.3   1 <1>  -0.0990 
  5 C        1.4990    -1.5910    -0.3810 C.3   1 <1>   0.0400 
  6 C       -3.3010    -1.2900     0.3540 C.3   1 <1>   0.3430 
  7 N       -4.6570    -1.6790    -0.1170 N.4   1 <1>  -0.9060 
  8 C       -5.7480    -1.1770     0.7260 C.3   1 <1>   0.5660 
  9 C       -6.9790    -1.9790     0.3430 C.ar  1 <1>  -0.1440 
 10 C       -5.9290     0.3240     0.5120 C.3   1 <1>  -0.2400 
 11 C       -7.4840    -2.9000     1.2510 C.ar  1 <1>  -0.1500 
 12 C       -7.6040    -1.8330    -0.8910 C.ar  1 <1>  -0.1500 
 13 C       -8.5910    -3.6660     0.9300 C.ar  1 <1>  -0.1500 
 14 C       -8.7110    -2.6010    -1.2090 C.ar  1 <1>  -0.1500 
 15 C       -9.2040    -3.5180    -0.3000 C.ar  1 <1>  -0.1500 
 16 H       -2.2700    -2.9550    -0.5440 H     1 <1>   0.0800 
 17 H       -2.3350    -1.5220    -1.5580 H     1 <1>   0.0800 
 18 H        2.1640    -2.0580    -1.0850 H     1 <1>   0.0800 
 19 H        1.6910    -1.9610     0.6110 H     1 <1>   0.0800 
 20 H        1.6240    -0.5220    -0.4090 H     1 <1>   0.0800 
 21 H       -3.2030    -0.2150     0.3590 H     1 <1>   0.0800 
 22 H       -3.1440    -1.6400     1.3630 H     1 <1>   0.0800 
 23 H       -4.7630    -2.7010    -0.1360 H     1 <1>   0.4500 
 24 H       -4.8330    -1.3530    -1.0720 H     1 <1>   0.4500 
 25 H       -5.5250    -1.3640     1.7640 H     1 <1>   0.0800 
 26 H       -6.0650     0.5680    -0.5250 H     1 <1>   0.0800 
 27 H       -5.0900     0.8710     0.9020 H     1 <1>   0.0800 
 28 H       -6.8040     0.6500     1.0470 H     1 <1>   0.0800 
 29 H       -7.0310    -3.0360     2.2190 H     1 <1>   0.1500 
 30 H       -7.2540    -1.1260    -1.6230 H     1 <1>   0.1500 
 31 H       -8.9820    -4.3790     1.6380 H     1 <1>   0.1500 
 32 H       -9.1970    -2.4850    -2.1640 H     1 <1>   0.1500 
 33 H      -10.0660    -4.1140    -0.5480 H     1 <1>   0.1500 
@<TRIPOS>BOND
  1   1   2  2   
  2   2   3  1   
  3   2   4  1   
  4   3   5  1   
  5   4   6  1   
  6   4  16  1   
  7   4  17  1   
  8   5  18  1   
  9   5  19  1   
 10   5  20  1   
 11   6   7  1   
 12   6  21  1   
 13   6  22  1   
 14   7   8  1   
 15   7  23  1   
 16   7  24  1   
 17   8   9  1   
 18   8  10  1   
 19   8  25  1   
 20   9  11  ar  
 21   9  12  ar  
 22  10  26  1   
 23  10  27  1   
 24  10  28  1   
 25  11  13  ar  
 26  11  29  1   
 27  12  14  ar  
 28  12  30  1   
 29  13  15  ar  
 30  13  31  1   
 31  14  15  ar  
 32  14  32  1   
 33  15  33  1   
@<TRIPOS>SUBSTRUCTURE
  1 ****   7 GROUP 4 **** **** 0

# MOE 2024.06 (io_trps.svl 2023.06)
