@<TRIPOS>MOLECULE
NONAME
38 38 1 0 0 
SMALL
USER_CHARGES


@<TRIPOS>ATOM
  1 CL      -3.1290     0.0110     3.4090 Cl    1 <1>  -0.1770 
  2 C       -3.2690     0.8100     1.8660 C.ar  1 <1>   0.1770 
  3 C       -4.2700     0.4200     0.9980 C.ar  1 <1>  -0.1500 
  4 C       -2.3830     1.8170     1.5370 C.ar  1 <1>  -0.1500 
  5 C       -4.3980     1.0560    -0.2300 C.ar  1 <1>  -0.1440 
  6 C       -2.5050     2.4470     0.3110 C.ar  1 <1>  -0.1500 
  7 C       -3.5070     2.0670    -0.5680 C.ar  1 <1>  -0.1500 
  8 C       -5.5080     0.6550    -1.1820 C.3   1 <1>   0.4870 
  9 N       -6.7930     1.0740    -0.5720 N.4   1 <1>  -0.9590 
 10 C       -7.9870     0.3410    -1.0970 C.3   1 <1>   0.3430 
 11 C       -6.9610     2.5630    -0.5700 C.3   1 <1>   0.3430 
 12 C       -8.2900    -0.9050    -0.2260 C.3   1 <1>   0.2000 
 13 C       -7.8440     3.0580     0.5930 C.3   1 <1>   0.2000 
 14 O       -7.9480    -0.6270     1.0930 O.3   1 <1>  -0.6800 
 15 C       -7.5040    -2.1520    -0.6320 C.3   1 <1>  -0.2400 
 16 O       -8.0220     4.4120     0.4190 O.3   1 <1>  -0.6800 
 17 C       -7.2010     2.8580     1.9660 C.3   1 <1>  -0.2400 
 18 H       -4.9320    -0.3740     1.2990 H     1 <1>   0.1500 
 19 H       -1.6110     2.1000     2.2310 H     1 <1>   0.1500 
 20 H       -1.8170     3.2320     0.0420 H     1 <1>   0.1500 
 21 H       -3.5780     2.5730    -1.5180 H     1 <1>   0.1500 
 22 H       -5.4850    -0.4120    -1.3190 H     1 <1>   0.0800 
 23 H       -5.3740     1.1290    -2.1400 H     1 <1>   0.0800 
 24 H       -6.7490     0.7700     0.4190 H     1 <1>   0.4500 
 25 H       -7.8490     0.0570    -2.1270 H     1 <1>   0.0800 
 26 H       -8.8490     0.9860    -1.0520 H     1 <1>   0.0800 
 27 H       -7.3930     2.8840    -1.5030 H     1 <1>   0.0800 
 28 H       -5.9980     3.0350    -0.4630 H     1 <1>   0.0800 
 29 H       -9.3460    -1.1180    -0.2660 H     1 <1>   0.0800 
 30 H       -8.8170     2.5980     0.5540 H     1 <1>   0.0800 
 31 H       -8.2150    -1.3700     1.6780 H     1 <1>   0.4000 
 32 H       -6.4490    -2.0270    -0.4700 H     1 <1>   0.0800 
 33 H       -7.6710    -2.3740    -1.6710 H     1 <1>   0.0800 
 34 H       -7.8410    -3.0010    -0.0620 H     1 <1>   0.0800 
 35 H       -8.5030     4.8010     1.1790 H     1 <1>   0.4000 
 36 H       -6.2350     3.3320     2.0050 H     1 <1>   0.0800 
 37 H       -7.0720     1.8120     2.1750 H     1 <1>   0.0800 
 38 H       -7.8280     3.2690     2.7370 H     1 <1>   0.0800 
@<TRIPOS>BOND
  1   1   2  1   
  2   2   3  ar  
  3   2   4  ar  
  4   3   5  ar  
  5   3  18  1   
  6   4   6  ar  
  7   4  19  1   
  8   5   7  ar  
  9   5   8  1   
 10   6   7  ar  
 11   6  20  1   
 12   7  21  1   
 13   8   9  1   
 14   8  22  1   
 15   8  23  1   
 16   9  10  1   
 17   9  11  1   
 18   9  24  1   
 19  10  12  1   
 20  10  25  1   
 21  10  26  1   
 22  11  13  1   
 23  11  27  1   
 24  11  28  1   
 25  12  14  1   
 26  12  15  1   
 27  12  29  1   
 28  13  16  1   
 29  13  17  1   
 30  13  30  1   
 31  14  31  1   
 32  15  32  1   
 33  15  33  1   
 34  15  34  1   
 35  16  35  1   
 36  17  36  1   
 37  17  37  1   
 38  17  38  1   
@<TRIPOS>SUBSTRUCTURE
  1 ****   9 GROUP 4 **** **** 0

# MOE 2024.06 (io_trps.svl 2023.06)
