@<TRIPOS>MOLECULE
NONAME
45 47 1 0 0 
SMALL
USER_CHARGES


@<TRIPOS>ATOM
  1 S       -0.4080     0.1650     1.5700 S.o2  1 <1>   1.4470 
  2 O        0.1670    -0.8200     2.4630 O.2   1 <1>  -0.6500 
  3 O       -1.3130     1.1600     2.1010 O.2   1 <1>  -0.6500 
  4 N        0.8940     0.9860     0.8570 N.am  1 <1>  -0.8490 
  5 C       -1.1990    -0.6590     0.1570 C.ar  1 <1>  -0.0090 
  6 C        1.9650     0.0720     0.4500 C.3   1 <1>   0.1960 
  7 C        1.3970     2.0520     1.7280 C.3   1 <1>   0.1960 
  8 C       -1.5180     0.0590    -0.9940 C.ar  1 <1>  -0.1500 
  9 C       -1.5060    -2.0180     0.1960 C.ar  1 <1>  -0.1500 
 10 C        3.0490     0.8290    -0.3210 C.3   1 <1>  -0.1600 
 11 C        2.4680     2.8700     1.0020 C.3   1 <1>  -0.1600 
 12 C       -2.1210    -0.5540    -2.0810 C.ar  1 <1>  -0.1500 
 13 C       -2.1090    -2.6500    -0.8790 C.ar  1 <1>  -0.1500 
 14 C        3.6290     1.9800     0.5180 C.3   1 <1>  -0.0190 
 15 C       -2.4050    -1.9030    -2.0020 C.ar  1 <1>   0.1900 
 16 C        4.6930     2.7600    -0.2670 C.2   1 <1>   0.5690 
 17 F       -2.9720    -2.4900    -3.0200 F     1 <1>  -0.1900 
 18 O        4.3260     3.7020    -0.9310 O.2   1 <1>  -0.5700 
 19 N        6.0190     2.4010    -0.2230 N.am  1 <1>  -0.6600 
 20 C        6.5920     1.1800     0.4260 C.3   1 <1>   0.1400 
 21 C        7.0670     3.2430    -0.8840 C.3   1 <1>   0.1400 
 22 C        7.5420     0.4430    -0.5340 C.3   1 <1>   0.1200 
 23 C        7.9840     2.3850    -1.7690 C.3   1 <1>   0.1200 
 24 O        8.5120     1.3140    -1.0380 O.3   1 <1>  -0.5600 
 25 H        1.5620    -0.7010    -0.1840 H     1 <1>   0.0800 
 26 H        2.3970    -0.3990     1.3190 H     1 <1>   0.0800 
 27 H        1.7990     1.6270     2.6340 H     1 <1>   0.0800 
 28 H        0.5900     2.7140     1.9980 H     1 <1>   0.0800 
 29 H       -1.2890     1.1110    -1.0360 H     1 <1>   0.1500 
 30 H       -1.2710    -2.5880     1.0810 H     1 <1>   0.1500 
 31 H        2.6230     1.2220    -1.2280 H     1 <1>   0.0800 
 32 H        3.8310     0.1460    -0.5980 H     1 <1>   0.0800 
 33 H        2.8460     3.6300     1.6610 H     1 <1>   0.0800 
 34 H        2.0070     3.3660     0.1640 H     1 <1>   0.0800 
 35 H       -2.3660    -0.0010    -2.9700 H     1 <1>   0.1500 
 36 H       -2.3470    -3.6980    -0.8510 H     1 <1>   0.1500 
 37 H        4.0870     1.5740     1.4000 H     1 <1>   0.0800 
 38 H        5.8190     0.4990     0.7260 H     1 <1>   0.0800 
 39 H        7.1400     1.4730     1.3050 H     1 <1>   0.0800 
 40 H        7.6590     3.7260    -0.1270 H     1 <1>   0.0800 
 41 H        6.6180     4.0110    -1.4880 H     1 <1>   0.0800 
 42 H        6.9960     0.0220    -1.3600 H     1 <1>   0.0800 
 43 H        8.0530    -0.3500    -0.0170 H     1 <1>   0.0800 
 44 H        8.8080     2.9750    -2.1300 H     1 <1>   0.0800 
 45 H        7.4400     1.9970    -2.6120 H     1 <1>   0.0800 
@<TRIPOS>BOND
  1   1   2  2   
  2   1   3  2   
  3   1   4  am  
  4   1   5  1   
  5   4   6  1   
  6   4   7  1   
  7   5   8  ar  
  8   5   9  ar  
  9   6  10  1   
 10   6  25  1   
 11   6  26  1   
 12   7  11  1   
 13   7  27  1   
 14   7  28  1   
 15   8  12  ar  
 16   8  29  1   
 17   9  13  ar  
 18   9  30  1   
 19  10  14  1   
 20  10  31  1   
 21  10  32  1   
 22  11  14  1   
 23  11  33  1   
 24  11  34  1   
 25  12  15  ar  
 26  12  35  1   
 27  13  15  ar  
 28  13  36  1   
 29  14  16  1   
 30  14  37  1   
 31  15  17  1   
 32  16  18  2   
 33  16  19  am  
 34  19  20  1   
 35  19  21  1   
 36  20  22  1   
 37  20  38  1   
 38  20  39  1   
 39  21  23  1   
 40  21  40  1   
 41  21  41  1   
 42  22  24  1   
 43  22  42  1   
 44  22  43  1   
 45  23  24  1   
 46  23  44  1   
 47  23  45  1   
@<TRIPOS>SUBSTRUCTURE
  1 ****   6 GROUP 4 **** **** 0

# MOE 2024.06 (io_trps.svl 2023.06)
