@<TRIPOS>MOLECULE
NONAME
56 59 1 0 0 
SMALL
USER_CHARGES


@<TRIPOS>ATOM
  1 O        1.4780    -2.0450     0.1450 O.3   1 <1>  -0.3630 
  2 C        2.6930    -1.7450     0.6150 C.ar  1 <1>   0.0830 
  3 C        1.0610    -3.2300     0.8230 C.3   1 <1>   0.4000 
  4 C        3.0810    -2.6670     1.5420 C.ar  1 <1>   0.0830 
  5 C        3.5040    -0.6840     0.2670 C.ar  1 <1>  -0.1500 
  6 O        2.1280    -3.5910     1.6990 O.3   1 <1>  -0.3630 
  7 C        4.3040    -2.5810     2.1750 C.ar  1 <1>  -0.1500 
  8 C        4.7470    -0.5780     0.8840 C.ar  1 <1>  -0.1440 
  9 C        5.1370    -1.5230     1.8330 C.ar  1 <1>  -0.1500 
 10 C        5.6910     0.5550     0.5150 C.3   1 <1>   0.2540 
 11 N        6.8550     0.0170    -0.2130 N.3   1 <1>  -0.8100 
 12 C        6.4720    -0.6190    -1.5030 C.3   1 <1>   0.1100 
 13 C        7.9050     1.0400    -0.4260 C.3   1 <1>   0.1100 
 14 C        7.6920    -1.2000    -2.2580 C.3   1 <1>   0.3430 
 15 C        9.1520     0.4530    -1.1350 C.3   1 <1>   0.3430 
 16 N        8.9430    -0.9970    -1.4640 N.4   1 <1>  -0.9590 
 17 C       10.1430    -1.6930    -1.9850 C.3   1 <1>   0.4860 
 18 C       11.2520    -1.5580    -0.9590 C.ar  1 <1>  -0.1430 
 19 C       11.2400    -2.2650     0.2410 C.ar  1 <1>  -0.1430 
 20 C       12.2930    -0.6810    -1.2310 C.ar  1 <1>  -0.1500 
 21 C       12.2620    -2.0630     1.1540 C.ar  1 <1>  -0.1500 
 22 C       10.1420    -3.2610     0.5980 C.3   1 <1>  -0.0970 
 23 C       13.3130    -0.4820    -0.3190 C.ar  1 <1>  -0.1430 
 24 C       13.2990    -1.1740     0.8860 C.ar  1 <1>   0.0830 
 25 C       14.4450     0.4860    -0.6400 C.3   1 <1>  -0.0970 
 26 O       14.3170    -0.9420     1.7550 O.3   1 <1>  -0.3620 
 27 C       14.4410    -1.6500     2.9690 C.3   1 <1>   0.0400 
 28 H        0.8990    -4.0170     0.1080 H     1 <1>   0.0800 
 29 H        0.1760    -3.0240     1.3990 H     1 <1>   0.0800 
 30 H        3.1640     0.0260    -0.4650 H     1 <1>   0.1500 
 31 H        4.5890    -3.3160     2.9060 H     1 <1>   0.1500 
 32 H        6.0990    -1.4340     2.3080 H     1 <1>   0.1500 
 33 H        6.0210     1.0350     1.4210 H     1 <1>   0.0800 
 34 H        5.1800     1.2890    -0.0870 H     1 <1>   0.0800 
 35 H        5.9720     0.0980    -2.1330 H     1 <1>   0.0800 
 36 H        5.7790    -1.4230    -1.3200 H     1 <1>   0.0800 
 37 H        8.2100     1.4440     0.5250 H     1 <1>   0.0800 
 38 H        7.5130     1.8540    -1.0130 H     1 <1>   0.0800 
 39 H        7.7790    -0.7210    -3.2180 H     1 <1>   0.0800 
 40 H        7.5270    -2.2520    -2.4250 H     1 <1>   0.0800 
 41 H       10.0020     0.5610    -0.4810 H     1 <1>   0.0800 
 42 H        9.3530     1.0150    -2.0320 H     1 <1>   0.0800 
 43 H        8.7250    -1.4000    -0.5410 H     1 <1>   0.4500 
 44 H       10.4510    -1.2570    -2.9210 H     1 <1>   0.0800 
 45 H        9.9290    -2.7370    -2.1470 H     1 <1>   0.0800 
 46 H       12.3180    -0.1420    -2.1620 H     1 <1>   0.1500 
 47 H       12.2450    -2.6060     2.0790 H     1 <1>   0.1500 
 48 H        9.8780    -3.8690    -0.2480 H     1 <1>   0.0800 
 49 H        9.2690    -2.7450     0.9560 H     1 <1>   0.0800 
 50 H       10.4760    -3.9250     1.3770 H     1 <1>   0.0800 
 51 H       14.3170     0.9370    -1.6070 H     1 <1>   0.0800 
 52 H       15.3830    -0.0390    -0.6290 H     1 <1>   0.0800 
 53 H       14.4810     1.2630     0.1020 H     1 <1>   0.0800 
 54 H       15.3380    -1.3160     3.4590 H     1 <1>   0.0800 
 55 H       14.5130    -2.7010     2.7540 H     1 <1>   0.0800 
 56 H       13.5870    -1.4370     3.5870 H     1 <1>   0.0800 
@<TRIPOS>BOND
  1   1   2  1   
  2   1   3  1   
  3   2   4  ar  
  4   2   5  ar  
  5   3   6  1   
  6   3  28  1   
  7   3  29  1   
  8   4   6  1   
  9   4   7  ar  
 10   5   8  ar  
 11   5  30  1   
 12   7   9  ar  
 13   7  31  1   
 14   8   9  ar  
 15   8  10  1   
 16   9  32  1   
 17  10  11  1   
 18  10  33  1   
 19  10  34  1   
 20  11  12  1   
 21  11  13  1   
 22  12  14  1   
 23  12  35  1   
 24  12  36  1   
 25  13  15  1   
 26  13  37  1   
 27  13  38  1   
 28  14  16  1   
 29  14  39  1   
 30  14  40  1   
 31  15  16  1   
 32  15  41  1   
 33  15  42  1   
 34  16  17  1   
 35  16  43  1   
 36  17  18  1   
 37  17  44  1   
 38  17  45  1   
 39  18  19  ar  
 40  18  20  ar  
 41  19  21  ar  
 42  19  22  1   
 43  20  23  ar  
 44  20  46  1   
 45  21  24  ar  
 46  21  47  1   
 47  22  48  1   
 48  22  49  1   
 49  22  50  1   
 50  23  24  ar  
 51  23  25  1   
 52  24  26  1   
 53  25  51  1   
 54  25  52  1   
 55  25  53  1   
 56  26  27  1   
 57  27  54  1   
 58  27  55  1   
 59  27  56  1   
@<TRIPOS>SUBSTRUCTURE
  1 ****  11 GROUP 4 **** **** 0

# MOE 2024.06 (io_trps.svl 2023.06)
