@<TRIPOS>MOLECULE
NONAME
54 56 1 0 0 
SMALL
USER_CHARGES


@<TRIPOS>ATOM
  1 O        0.8620     0.2300     1.0760 O.co2 1 <1>  -0.9000 
  2 C        1.3610     0.5540    -0.0110 C.2   1 <1>   0.9060 
  3 O        1.1860     1.6700    -0.5010 O.co2 1 <1>  -0.9000 
  4 C        2.2110    -0.4580    -0.7710 C.3   1 <1>  -0.1860 
  5 C        1.5990    -1.8910    -0.8860 C.3   1 <1>  -0.0190 
  6 C        3.6420    -0.4720    -0.1740 C.3   1 <1>  -0.1600 
  7 C        0.0840    -1.9970    -1.1130 C.2   1 <1>   0.5690 
  8 C        2.0620    -2.7740     0.2890 C.3   1 <1>  -0.1600 
  9 C        4.3570    -1.8120    -0.3830 C.3   1 <1>  -0.1600 
 10 O       -0.2960    -2.5430    -2.1250 O.2   1 <1>  -0.5700 
 11 N       -0.7730    -1.5390    -0.1560 N.am  1 <1>  -0.5470 
 12 C        3.5930    -2.9600     0.3030 C.3   1 <1>  -0.1600 
 13 C       -2.1690    -1.5850    -0.0300 C.ar  1 <1>   0.1170 
 14 C       -2.9610    -2.5340    -0.6660 C.ar  1 <1>  -0.1500 
 15 C       -2.7880    -0.6510     0.7850 C.ar  1 <1>  -0.1500 
 16 C       -4.3370    -2.5580    -0.4960 C.ar  1 <1>  -0.1430 
 17 C       -4.1590    -0.6650     0.9640 C.ar  1 <1>  -0.1500 
 18 C       -4.9530    -1.6170     0.3320 C.ar  1 <1>   0.1170 
 19 C       -5.1480    -3.6240    -1.2260 C.3   1 <1>  -0.0970 
 20 N       -6.3500    -1.6620     0.4860 N.am  1 <1>  -0.5470 
 21 C       -7.2310    -1.0540     1.3370 C.2   1 <1>   0.5690 
 22 O       -6.9150    -0.2730     2.2000 O.2   1 <1>  -0.5700 
 23 C       -8.7070    -1.3900     1.1880 C.3   1 <1>   0.0440 
 24 C       -8.9610    -2.4900     0.1590 C.ar  1 <1>  -0.1430 
 25 C       -9.2080    -2.1660    -1.1670 C.ar  1 <1>  -0.1500 
 26 C       -8.9170    -3.8230     0.5370 C.ar  1 <1>  -0.1500 
 27 C       -9.4060    -3.1650    -2.1040 C.ar  1 <1>  -0.1500 
 28 C       -9.1150    -4.8220    -0.4000 C.ar  1 <1>  -0.1500 
 29 C       -9.3590    -4.4930    -1.7210 C.ar  1 <1>  -0.1500 
 30 H        2.2770    -0.0780    -1.7740 H     1 <1>   0.0800 
 31 H        2.0350    -2.3270    -1.7670 H     1 <1>   0.0800 
 32 H        3.5820    -0.2860     0.8860 H     1 <1>   0.0800 
 33 H        4.2130     0.3310    -0.6060 H     1 <1>   0.0800 
 34 H        1.5840    -3.7370     0.2370 H     1 <1>   0.0800 
 35 H        1.7520    -2.3060     1.2080 H     1 <1>   0.0800 
 36 H        5.3580    -1.7590     0.0080 H     1 <1>   0.0800 
 37 H        4.4280    -2.0050    -1.4400 H     1 <1>   0.0800 
 38 H       -0.3030    -0.9110     0.5280 H     1 <1>   0.3700 
 39 H        3.8480    -3.8820    -0.1880 H     1 <1>   0.0800 
 40 H        3.9140    -3.0380     1.3280 H     1 <1>   0.0800 
 41 H       -2.4840    -3.2590    -1.2980 H     1 <1>   0.1500 
 42 H       -2.1830     0.0930     1.2760 H     1 <1>   0.1500 
 43 H       -4.6020     0.0770     1.6000 H     1 <1>   0.1500 
 44 H       -4.5050    -4.2690    -1.7980 H     1 <1>   0.0800 
 45 H       -5.8440    -3.1610    -1.9020 H     1 <1>   0.0800 
 46 H       -5.6880    -4.2280    -0.5200 H     1 <1>   0.0800 
 47 H       -6.8040    -2.3210    -0.1500 H     1 <1>   0.3700 
 48 H       -9.2300    -0.4950     0.9060 H     1 <1>   0.0800 
 49 H       -9.0830    -1.6950     2.1470 H     1 <1>   0.0800 
 50 H       -9.2440    -1.1360    -1.4790 H     1 <1>   0.1500 
 51 H       -8.7260    -4.0920     1.5630 H     1 <1>   0.1500 
 52 H       -9.5980    -2.9080    -3.1320 H     1 <1>   0.1500 
 53 H       -9.0820    -5.8560    -0.1000 H     1 <1>   0.1500 
 54 H       -9.5150    -5.2700    -2.4500 H     1 <1>   0.1500 
@<TRIPOS>BOND
  1   1   2  ar  
  2   2   3  ar  
  3   2   4  1   
  4   4   5  1   
  5   4   6  1   
  6   4  30  1   
  7   5   7  1   
  8   5   8  1   
  9   5  31  1   
 10   6   9  1   
 11   6  32  1   
 12   6  33  1   
 13   7  10  2   
 14   7  11  am  
 15   8  12  1   
 16   8  34  1   
 17   8  35  1   
 18   9  12  1   
 19   9  36  1   
 20   9  37  1   
 21  11  13  1   
 22  11  38  1   
 23  12  39  1   
 24  12  40  1   
 25  13  14  ar  
 26  13  15  ar  
 27  14  16  ar  
 28  14  41  1   
 29  15  17  ar  
 30  15  42  1   
 31  16  18  ar  
 32  16  19  1   
 33  17  18  ar  
 34  17  43  1   
 35  18  20  1   
 36  19  44  1   
 37  19  45  1   
 38  19  46  1   
 39  20  21  am  
 40  20  47  1   
 41  21  22  2   
 42  21  23  1   
 43  23  24  1   
 44  23  48  1   
 45  23  49  1   
 46  24  25  ar  
 47  24  26  ar  
 48  25  27  ar  
 49  25  50  1   
 50  26  28  ar  
 51  26  51  1   
 52  27  29  ar  
 53  27  52  1   
 54  28  29  ar  
 55  28  53  1   
 56  29  54  1   
@<TRIPOS>SUBSTRUCTURE
  1 ****  14 GROUP 4 **** **** 0

# MOE 2024.06 (io_trps.svl 2023.06)
