@<TRIPOS>MOLECULE
NONAME
43 44 1 0 0 
SMALL
USER_CHARGES


@<TRIPOS>ATOM
  1 O        1.1320    -0.9090    -1.1610 O.2   1 <1>  -0.5700 
  2 C        1.4130    -1.4090    -0.1010 C.2   1 <1>   0.6590 
  3 O        2.2190    -0.7980     0.7610 O.3   1 <1>  -0.4300 
  4 C        0.8790    -2.7380     0.3520 C.3   1 <1>   0.0420 
  5 C        2.8200     0.4460     0.4650 C.3   1 <1>   0.0400 
  6 C        2.0090    -3.6970     0.0980 C.2   1 <1>   0.6590 
  7 C       -0.4100    -3.1860    -0.3640 C.3   1 <1>   0.3330 
  8 O        2.4730    -3.8690    -1.0020 O.2   1 <1>  -0.5700 
  9 O        2.4630    -4.3530     1.1600 O.3   1 <1>  -0.4300 
 10 N       -1.6470    -2.5390     0.1820 N.3   1 <1>  -0.8100 
 11 C       -0.5450    -4.7090    -0.2280 C.ar  1 <1>  -0.1430 
 12 C        3.4630    -5.3430     1.0460 C.3   1 <1>   0.0400 
 13 C       -1.6660    -1.0600     0.0600 C.3   1 <1>   0.1100 
 14 C       -2.8620    -3.0670    -0.4960 C.3   1 <1>   0.1100 
 15 C       -0.3290    -5.5280    -1.3270 C.ar  1 <1>  -0.1500 
 16 C       -0.8690    -5.2920     0.9910 C.ar  1 <1>  -0.1500 
 17 C       -2.9920    -0.4550     0.5560 C.3   1 <1>   0.1200 
 18 C       -4.1480    -2.4030     0.0250 C.3   1 <1>   0.1200 
 19 C       -0.4330    -6.9030    -1.2110 C.ar  1 <1>  -0.1500 
 20 C       -0.9740    -6.6660     1.1090 C.ar  1 <1>  -0.1500 
 21 O       -4.0760    -1.0170    -0.1200 O.3   1 <1>  -0.5600 
 22 C       -0.7560    -7.4730     0.0070 C.ar  1 <1>  -0.1500 
 23 H        0.6920    -2.7050     1.4070 H     1 <1>   0.0800 
 24 H        2.0480     1.1750     0.2940 H     1 <1>   0.0800 
 25 H        3.4290     0.3360    -0.4160 H     1 <1>   0.0800 
 26 H        3.4290     0.7380     1.3020 H     1 <1>   0.0800 
 27 H       -0.3260    -2.9480    -1.4120 H     1 <1>   0.0800 
 28 H        3.6700    -5.7330     2.0260 H     1 <1>   0.0800 
 29 H        4.3490    -4.8970     0.6270 H     1 <1>   0.0800 
 30 H        3.1010    -6.1270     0.4030 H     1 <1>   0.0800 
 31 H       -1.5110    -0.7700    -0.9660 H     1 <1>   0.0800 
 32 H       -0.8830    -0.6330     0.6570 H     1 <1>   0.0800 
 33 H       -2.9560    -4.1250    -0.3310 H     1 <1>   0.0800 
 34 H       -2.7920    -2.9020    -1.5580 H     1 <1>   0.0800 
 35 H       -0.0680    -5.0980    -2.2800 H     1 <1>   0.1500 
 36 H       -1.0460    -4.6690     1.8510 H     1 <1>   0.1500 
 37 H       -3.0070     0.6050     0.3740 H     1 <1>   0.0800 
 38 H       -3.1150    -0.6290     1.6100 H     1 <1>   0.0800 
 39 H       -4.2970    -2.6360     1.0650 H     1 <1>   0.0800 
 40 H       -4.9980    -2.7490    -0.5350 H     1 <1>   0.0800 
 41 H       -0.2610    -7.5280    -2.0700 H     1 <1>   0.1500 
 42 H       -1.2260    -7.1060     2.0580 H     1 <1>   0.1500 
 43 H       -0.8370    -8.5420     0.0970 H     1 <1>   0.1500 
@<TRIPOS>BOND
  1   1   2  2   
  2   2   3  1   
  3   2   4  1   
  4   3   5  1   
  5   4   6  1   
  6   4   7  1   
  7   4  23  1   
  8   5  24  1   
  9   5  25  1   
 10   5  26  1   
 11   6   8  2   
 12   6   9  1   
 13   7  10  1   
 14   7  11  1   
 15   7  27  1   
 16   9  12  1   
 17  10  13  1   
 18  10  14  1   
 19  11  15  ar  
 20  11  16  ar  
 21  12  28  1   
 22  12  29  1   
 23  12  30  1   
 24  13  17  1   
 25  13  31  1   
 26  13  32  1   
 27  14  18  1   
 28  14  33  1   
 29  14  34  1   
 30  15  19  ar  
 31  15  35  1   
 32  16  20  ar  
 33  16  36  1   
 34  17  21  1   
 35  17  37  1   
 36  17  38  1   
 37  18  21  1   
 38  18  39  1   
 39  18  40  1   
 40  19  22  ar  
 41  19  41  1   
 42  20  22  ar  
 43  20  42  1   
 44  22  43  1   
@<TRIPOS>SUBSTRUCTURE
  1 ****   7 GROUP 4 **** **** 0

# MOE 2024.06 (io_trps.svl 2023.06)
