@<TRIPOS>MOLECULE
NONAME
26 27 1 0 0 
SMALL
USER_CHARGES


@<TRIPOS>ATOM
  1 O        0.0430     1.2010    -1.8500 O.2   1 <1>  -0.5700 
  2 C        0.4220     1.7760    -0.8580 C.2   1 <1>   0.7200 
  3 O       -0.3700     2.5100    -0.0670 O.3   1 <1>  -0.0870 
  4 C        1.8810     1.7140    -0.4190 C.3   1 <1>  -0.1000 
  5 N       -1.6800     2.7060    -0.2890 N.2   1 <1>  -0.5130 
  6 C        2.7200     0.4850    -0.6290 C.3   1 <1>  -0.2000 
  7 C        2.3020     0.8760     0.7550 C.3   1 <1>  -0.2000 
  8 C       -2.3000     3.5250     0.4770 C.2   1 <1>   0.4140 
  9 N       -1.6170     4.1420     1.5160 N.pl3 1 <1>  -0.8500 
 10 C       -3.7260     3.8290     0.3230 C.ar  1 <1>   0.3960 
 11 N       -4.3570     4.4640     1.3300 N.ar  1 <1>  -0.6200 
 12 C       -4.4070     3.4600    -0.8410 C.ar  1 <1>  -0.1500 
 13 C       -5.6420     4.7230     1.1620 C.ar  1 <1>   0.1600 
 14 C       -5.7460     3.7350    -1.0000 C.ar  1 <1>  -0.1500 
 15 C       -6.3740     4.3870     0.0380 C.ar  1 <1>  -0.1500 
 16 H        2.3660     2.6630    -0.5520 H     1 <1>   0.1000 
 17 H        2.2610    -0.3730    -1.0920 H     1 <1>   0.1000 
 18 H        3.7490     0.6080    -0.9210 H     1 <1>   0.1000 
 19 H        3.0460     1.2650     1.4290 H     1 <1>   0.1000 
 20 H        1.5680     0.2670     1.2550 H     1 <1>   0.1000 
 21 H       -0.8790     3.5640     1.9130 H     1 <1>   0.4000 
 22 H       -2.2630     4.5260     2.2150 H     1 <1>   0.4000 
 23 H       -3.8720     2.9530    -1.6240 H     1 <1>   0.1500 
 24 H       -6.1450     5.2320     1.9670 H     1 <1>   0.1500 
 25 H       -6.2770     3.4540    -1.8940 H     1 <1>   0.1500 
 26 H       -7.4190     4.6330    -0.0220 H     1 <1>   0.1500 
@<TRIPOS>BOND
  1   1   2  2   
  2   2   3  1   
  3   2   4  1   
  4   3   5  1   
  5   4   6  1   
  6   4   7  1   
  7   4  16  1   
  8   5   8  2   
  9   6   7  1   
 10   6  17  1   
 11   6  18  1   
 12   7  19  1   
 13   7  20  1   
 14   8   9  1   
 15   8  10  1   
 16   9  21  1   
 17   9  22  1   
 18  10  11  ar  
 19  10  12  ar  
 20  11  13  ar  
 21  12  14  ar  
 22  12  23  1   
 23  13  15  ar  
 24  13  24  1   
 25  14  15  ar  
 26  14  25  1   
 27  15  26  1   
@<TRIPOS>SUBSTRUCTURE
  1 ****   5 GROUP 4 **** **** 0

# MOE 2024.06 (io_trps.svl 2023.06)
