@<TRIPOS>MOLECULE
NONAME
39 40 1 0 0 
SMALL
USER_CHARGES


@<TRIPOS>ATOM
  1 O       -0.2740     1.6950     2.2680 O.2   1 <1>  -0.5700 
  2 C        0.0240     1.9310     1.1100 C.2   1 <1>   0.7160 
  3 N        1.3190     1.7620     0.7230 N.am  1 <1>  -0.7300 
  4 C       -0.9710     2.3850     0.1550 C.2   1 <1>   0.2030 
  5 C        2.4410     1.4300     1.6020 C.3   1 <1>   0.3640 
  6 N       -0.7650     2.6690    -1.0980 N.2   1 <1>  -0.4100 
  7 C       -2.3150     2.5910     0.4310 C.2   1 <1>  -0.1500 
  8 C        3.6640     2.2120     1.1390 C.ar  1 <1>  -0.1430 
  9 C        2.6720    -0.0780     1.5570 C.3   1 <1>  -0.2400 
 10 O       -1.8840     3.0480    -1.6680 O.3   1 <1>  -0.0190 
 11 C       -2.8140     2.9980    -0.7390 C.2   1 <1>  -0.0400 
 12 C        4.2230     2.0090    -0.1150 C.ar  1 <1>  -0.1500 
 13 C        4.2390     3.1530     1.9780 C.ar  1 <1>  -0.1500 
 14 C       -4.2300     3.3870    -1.1080 C.3   1 <1>  -0.0600 
 15 C        5.3360     2.7170    -0.5370 C.ar  1 <1>   0.0830 
 16 C        5.3450     3.8790     1.5710 C.ar  1 <1>  -0.1500 
 17 O        5.7740     2.3900    -1.7870 O.3   1 <1>  -0.3630 
 18 C        5.9060     3.6810     0.3110 C.ar  1 <1>   0.0830 
 19 C        7.1330     2.5040    -2.1470 C.3   1 <1>   0.0400 
 20 O        6.9780     4.4170    -0.1080 O.3   1 <1>  -0.3620 
 21 C        7.4440     5.5390     0.6090 C.3   1 <1>   0.0400 
 22 H        1.5770     2.0520    -0.2220 H     1 <1>   0.3700 
 23 H        2.1960     1.7120     2.6140 H     1 <1>   0.0800 
 24 H       -2.7890     2.4410     1.3840 H     1 <1>   0.1500 
 25 H        2.8530    -0.4120     0.5520 H     1 <1>   0.0800 
 26 H        1.8130    -0.5890     1.9520 H     1 <1>   0.0800 
 27 H        3.5250    -0.3280     2.1620 H     1 <1>   0.0800 
 28 H        3.7990     1.2870    -0.7890 H     1 <1>   0.1500 
 29 H        3.8250     3.3310     2.9550 H     1 <1>   0.1500 
 30 H       -4.8760     3.2980    -0.2540 H     1 <1>   0.0800 
 31 H       -4.5920     2.7430    -1.8890 H     1 <1>   0.0800 
 32 H       -4.2490     4.4040    -1.4570 H     1 <1>   0.0800 
 33 H        5.7520     4.5950     2.2570 H     1 <1>   0.1500 
 34 H        7.3010     1.8950    -3.0160 H     1 <1>   0.0800 
 35 H        7.7430     2.1600    -1.3310 H     1 <1>   0.0800 
 36 H        7.3460     3.5320    -2.3780 H     1 <1>   0.0800 
 37 H        8.2250     6.0020     0.0320 H     1 <1>   0.0800 
 38 H        7.8360     5.2120     1.5550 H     1 <1>   0.0800 
 39 H        6.6310     6.2310     0.7430 H     1 <1>   0.0800 
@<TRIPOS>BOND
  1   1   2  2   
  2   2   3  am  
  3   2   4  1   
  4   3   5  1   
  5   3  22  1   
  6   4   6  2   
  7   4   7  1   
  8   5   8  1   
  9   5   9  1   
 10   5  23  1   
 11   6  10  1   
 12   7  11  2   
 13   7  24  1   
 14   8  12  ar  
 15   8  13  ar  
 16   9  25  1   
 17   9  26  1   
 18   9  27  1   
 19  10  11  1   
 20  11  14  1   
 21  12  15  ar  
 22  12  28  1   
 23  13  16  ar  
 24  13  29  1   
 25  14  30  1   
 26  14  31  1   
 27  14  32  1   
 28  15  17  1   
 29  15  18  ar  
 30  16  18  ar  
 31  16  33  1   
 32  17  19  1   
 33  18  20  1   
 34  19  34  1   
 35  19  35  1   
 36  19  36  1   
 37  20  21  1   
 38  21  37  1   
 39  21  38  1   
 40  21  39  1   
@<TRIPOS>SUBSTRUCTURE
  1 ****   3 GROUP 4 **** **** 0

# MOE 2024.06 (io_trps.svl 2023.06)
