@<TRIPOS>MOLECULE
NONAME
43 44 1 0 0 
SMALL
USER_CHARGES


@<TRIPOS>ATOM
  1 CL      -0.0930    -1.3220     0.0010 Cl    1 <1>  -0.1770 
  2 C        1.1260    -0.0710     0.1390 C.ar  1 <1>   0.1770 
  3 C        0.7730     1.2720     0.2890 C.ar  1 <1>   0.0830 
  4 C        2.4470    -0.4630     0.1140 C.ar  1 <1>  -0.1500 
  5 O       -0.5010     1.7200     0.3140 O.3   1 <1>  -0.3630 
  6 C        1.7770     2.2080     0.4350 C.ar  1 <1>  -0.1500 
  7 C        3.4790     0.4740     0.2480 C.ar  1 <1>   0.0280 
  8 C       -1.3640     1.4220    -0.7780 C.3   1 <1>   0.1810 
  9 C        3.1070     1.8200     0.4130 C.ar  1 <1>   0.0830 
 10 C        4.8830     0.1510     0.2310 C.2   1 <1>  -0.1670 
 11 C       -2.2730     2.6040    -1.1080 C.2   1 <1>   0.5690 
 12 O        4.0440     2.7830     0.5540 O.3   1 <1>  -0.2320 
 13 C        5.7660     1.1680     0.3760 C.2   1 <1>  -0.1360 
 14 C        5.2970    -1.3140     0.0500 C.3   1 <1>  -0.0220 
 15 O       -2.2060     3.0440    -2.2340 O.2   1 <1>  -0.5700 
 16 N       -3.1410     3.1330    -0.1770 N.am  1 <1>  -0.6600 
 17 C        5.3510     2.5220     0.5420 C.2   1 <1>   0.7060 
 18 C        6.8130    -1.5660     0.0370 C.3   1 <1>  -0.1600 
 19 C       -3.9770     4.3280    -0.4820 C.3   1 <1>   0.0600 
 20 C       -3.2790     2.6350     1.2210 C.3   1 <1>   0.0600 
 21 O        6.1270     3.4450     0.6720 O.2   1 <1>  -0.5700 
 22 C        7.1300    -3.0560    -0.1500 C.3   1 <1>  -0.1600 
 23 C        8.6410    -3.2980    -0.1620 C.3   1 <1>  -0.2400 
 24 H        2.6630    -1.5070    -0.0050 H     1 <1>   0.1500 
 25 H        1.5230     3.2460     0.5630 H     1 <1>   0.1500 
 26 H       -1.9630     0.5700    -0.5170 H     1 <1>   0.0800 
 27 H       -0.7660     1.1880    -1.6400 H     1 <1>   0.0800 
 28 H        6.8300     1.0380     0.3780 H     1 <1>   0.1500 
 29 H        4.8870    -1.6740    -0.8780 H     1 <1>   0.0800 
 30 H        4.8670    -1.8930     0.8500 H     1 <1>   0.0800 
 31 H        7.2400    -1.2310     0.9660 H     1 <1>   0.0800 
 32 H        7.2610    -1.0090    -0.7680 H     1 <1>   0.0800 
 33 H       -3.7890     4.6860    -1.4800 H     1 <1>   0.0800 
 34 H       -3.7480     5.1180     0.2110 H     1 <1>   0.0800 
 35 H       -5.0180     4.0740    -0.4010 H     1 <1>   0.0800 
 36 H       -4.3100     2.6850     1.5270 H     1 <1>   0.0800 
 37 H       -2.6860     3.2460     1.8790 H     1 <1>   0.0800 
 38 H       -2.9530     1.6150     1.3050 H     1 <1>   0.0800 
 39 H        6.7100    -3.4040    -1.0790 H     1 <1>   0.0800 
 40 H        6.6880    -3.6250     0.6500 H     1 <1>   0.0800 
 41 H        9.1040    -2.7570    -0.9690 H     1 <1>   0.0800 
 42 H        8.8450    -4.3460    -0.2940 H     1 <1>   0.0800 
 43 H        9.0820    -2.9800     0.7670 H     1 <1>   0.0800 
@<TRIPOS>BOND
  1   1   2  1   
  2   2   3  ar  
  3   2   4  ar  
  4   3   5  1   
  5   3   6  ar  
  6   4   7  ar  
  7   4  24  1   
  8   5   8  1   
  9   6   9  ar  
 10   6  25  1   
 11   7   9  ar  
 12   7  10  1   
 13   8  11  1   
 14   8  26  1   
 15   8  27  1   
 16   9  12  1   
 17  10  13  2   
 18  10  14  1   
 19  11  15  2   
 20  11  16  am  
 21  12  17  1   
 22  13  17  1   
 23  13  28  1   
 24  14  18  1   
 25  14  29  1   
 26  14  30  1   
 27  16  19  1   
 28  16  20  1   
 29  17  21  2   
 30  18  22  1   
 31  18  31  1   
 32  18  32  1   
 33  19  33  1   
 34  19  34  1   
 35  19  35  1   
 36  20  36  1   
 37  20  37  1   
 38  20  38  1   
 39  22  23  1   
 40  22  39  1   
 41  22  40  1   
 42  23  41  1   
 43  23  42  1   
 44  23  43  1   
@<TRIPOS>SUBSTRUCTURE
  1 ****   9 GROUP 4 **** **** 0

# MOE 2024.06 (io_trps.svl 2023.06)
