@<TRIPOS>MOLECULE
NONAME
51 53 1 0 0 
SMALL
USER_CHARGES


@<TRIPOS>ATOM
  1 CL       2.6370     0.1000    -3.0840 Cl    1 <1>  -0.1770 
  2 C        3.5100    -1.0200    -2.0680 C.ar  1 <1>   0.1770 
  3 C        3.2040    -1.0960    -0.7230 C.ar  1 <1>  -0.1500 
  4 C        4.4930    -1.8140    -2.6240 C.ar  1 <1>  -0.1500 
  5 C        3.8930    -1.9800     0.0940 C.ar  1 <1>  -0.1440 
  6 C        5.1830    -2.6930    -1.8110 C.ar  1 <1>  -0.1500 
  7 C        4.8990    -2.7860    -0.4500 C.ar  1 <1>   0.1990 
  8 C        3.5220    -2.0680     1.5690 C.3   1 <1>  -0.0960 
  9 N        5.6080    -3.6760     0.3490 N.am  1 <1>  -0.6930 
 10 S        5.4590    -5.3880     0.1080 S.o2  1 <1>   1.4470 
 11 C        6.8810    -3.2160     0.9840 C.3   1 <1>   0.2570 
 12 O        5.8370    -5.6600    -1.2600 O.2   1 <1>  -0.6500 
 13 O        6.1490    -6.0160     1.2120 O.2   1 <1>  -0.6500 
 14 C        3.6730    -5.6230     0.3270 C.ar  1 <1>  -0.0090 
 15 C        8.0780    -3.1310     0.0260 C.2   1 <1>   0.5690 
 16 C        2.7850    -5.3670    -0.7110 C.ar  1 <1>  -0.1500 
 17 C        3.1410    -6.0280     1.5460 C.ar  1 <1>  -0.1500 
 18 O        8.8220    -4.0830    -0.0060 O.2   1 <1>  -0.5700 
 19 N        8.3260    -2.0140    -0.7420 N.am  1 <1>  -0.6600 
 20 C        1.4180    -5.5050    -0.5400 C.ar  1 <1>  -0.1500 
 21 C        1.7760    -6.1700     1.7240 C.ar  1 <1>  -0.1500 
 22 C        9.4810    -1.9690    -1.6910 C.3   1 <1>   0.1400 
 23 C        7.5500    -0.7350    -0.7370 C.3   1 <1>   0.1400 
 24 C        0.9060    -5.9090     0.6800 C.ar  1 <1>  -0.1430 
 25 C       10.3170    -0.6990    -1.4650 C.3   1 <1>   0.1200 
 26 C        8.4920     0.4660    -0.5530 C.3   1 <1>   0.1200 
 27 C       -0.5920    -6.0610     0.8700 C.3   1 <1>  -0.0970 
 28 O        9.5080     0.4440    -1.5150 O.3   1 <1>  -0.5600 
 29 H        2.4260    -0.4660    -0.3310 H     1 <1>   0.1500 
 30 H        4.7130    -1.7420    -3.6750 H     1 <1>   0.1500 
 31 H        5.9560    -3.3130    -2.2330 H     1 <1>   0.1500 
 32 H        2.7460    -1.3660     1.8170 H     1 <1>   0.0800 
 33 H        4.3780    -1.8580     2.1840 H     1 <1>   0.0800 
 34 H        3.1660    -3.0560     1.7980 H     1 <1>   0.0800 
 35 H        7.1460    -3.8890     1.7800 H     1 <1>   0.0800 
 36 H        6.7220    -2.2590     1.4400 H     1 <1>   0.0800 
 37 H        3.1680    -5.0510    -1.6670 H     1 <1>   0.1500 
 38 H        3.8050    -6.2350     2.3690 H     1 <1>   0.1500 
 39 H        0.7570    -5.2960    -1.3630 H     1 <1>   0.1500 
 40 H        1.3950    -6.4850     2.6800 H     1 <1>   0.1500 
 41 H        9.1090    -1.9740    -2.7000 H     1 <1>   0.0800 
 42 H       10.1120    -2.8320    -1.5700 H     1 <1>   0.0800 
 43 H        6.8080    -0.7240     0.0390 H     1 <1>   0.0800 
 44 H        7.0410    -0.6290    -1.6790 H     1 <1>   0.0800 
 45 H       11.0640    -0.6060    -2.2330 H     1 <1>   0.0800 
 46 H       10.8080    -0.7350    -0.5080 H     1 <1>   0.0800 
 47 H        8.9420     0.4530     0.4240 H     1 <1>   0.0800 
 48 H        7.9490     1.3860    -0.6740 H     1 <1>   0.0800 
 49 H       -0.8040    -6.8120     1.6100 H     1 <1>   0.0800 
 50 H       -1.0610    -6.3530    -0.0520 H     1 <1>   0.0800 
 51 H       -1.0150    -5.1260     1.1940 H     1 <1>   0.0800 
@<TRIPOS>BOND
  1   1   2  1   
  2   2   3  ar  
  3   2   4  ar  
  4   3   5  ar  
  5   3  29  1   
  6   4   6  ar  
  7   4  30  1   
  8   5   7  ar  
  9   5   8  1   
 10   6   7  ar  
 11   6  31  1   
 12   7   9  1   
 13   8  32  1   
 14   8  33  1   
 15   8  34  1   
 16   9  10  am  
 17   9  11  1   
 18  10  12  2   
 19  10  13  2   
 20  10  14  1   
 21  11  15  1   
 22  11  35  1   
 23  11  36  1   
 24  14  16  ar  
 25  14  17  ar  
 26  15  18  2   
 27  15  19  am  
 28  16  20  ar  
 29  16  37  1   
 30  17  21  ar  
 31  17  38  1   
 32  19  22  1   
 33  19  23  1   
 34  20  24  ar  
 35  20  39  1   
 36  21  24  ar  
 37  21  40  1   
 38  22  25  1   
 39  22  41  1   
 40  22  42  1   
 41  23  26  1   
 42  23  43  1   
 43  23  44  1   
 44  24  27  1   
 45  25  28  1   
 46  25  45  1   
 47  25  46  1   
 48  26  28  1   
 49  26  47  1   
 50  26  48  1   
 51  27  49  1   
 52  27  50  1   
 53  27  51  1   
@<TRIPOS>SUBSTRUCTURE
  1 ****   7 GROUP 4 **** **** 0

# MOE 2024.06 (io_trps.svl 2023.06)
