@<TRIPOS>MOLECULE
NONAME
44 45 1 0 0 
SMALL
USER_CHARGES


@<TRIPOS>ATOM
  1 O        0.5260    -1.3650     0.8650 O.3   1 <1>  -0.3630 
  2 C       -0.7770    -1.3240     0.4770 C.ar  1 <1>   0.0830 
  3 C        1.5710    -1.0080    -0.0090 C.3   1 <1>   0.1200 
  4 C       -1.7390    -1.6960     1.4120 C.ar  1 <1>  -0.1440 
  5 C       -1.1750    -0.9310    -0.8000 C.ar  1 <1>  -0.1500 
  6 C        2.8930    -1.1670     0.7430 C.3   1 <1>  -0.1600 
  7 C       -3.0790    -1.6710     1.0620 C.ar  1 <1>  -0.1500 
  8 C       -1.3300    -2.1290     2.8130 C.3   1 <1>  -0.0970 
  9 C       -2.5170    -0.9060    -1.1440 C.ar  1 <1>  -0.1430 
 10 C        4.0890    -0.7970    -0.1450 C.3   1 <1>  -0.1600 
 11 C       -3.4660    -1.2790    -0.2080 C.ar  1 <1>  -0.1500 
 12 C       -2.9480    -0.4790    -2.5360 C.3   1 <1>  -0.0970 
 13 C        5.4100    -0.9570     0.6180 C.3   1 <1>  -0.1600 
 14 C        6.6070    -0.5850    -0.2680 C.3   1 <1>  -0.1600 
 15 C        7.9290    -0.7380     0.4940 C.3   1 <1>   0.0960 
 16 N        9.0680    -0.3750    -0.3710 N.pl3 1 <1>   0.0480 
 17 C        9.8560    -1.2010    -1.0960 C.2   1 <1>   0.0360 
 18 C        9.5510     0.8560    -0.6150 C.2   1 <1>  -0.3020 
 19 N       10.7830    -0.5940    -1.7640 N.2   1 <1>  -0.5650 
 20 C       10.5920     0.7040    -1.4620 C.2   1 <1>   0.0770 
 21 H        1.4250     0.0140    -0.3120 H     1 <1>   0.0800 
 22 H        1.5360    -1.6620    -0.8630 H     1 <1>   0.0800 
 23 H       -0.4530    -0.6420    -1.5370 H     1 <1>   0.1500 
 24 H        2.9870    -2.1890     1.0670 H     1 <1>   0.0800 
 25 H        2.8770    -0.5300     1.6100 H     1 <1>   0.0800 
 26 H       -3.8300    -1.9560     1.7750 H     1 <1>   0.1500 
 27 H       -0.6870    -2.9880     2.7530 H     1 <1>   0.0800 
 28 H       -2.1880    -2.3810     3.4090 H     1 <1>   0.0800 
 29 H       -0.7960    -1.3310     3.2970 H     1 <1>   0.0800 
 30 H        3.9860     0.2230    -0.4750 H     1 <1>   0.0800 
 31 H        4.0980    -1.4320    -1.0150 H     1 <1>   0.0800 
 32 H       -4.5110    -1.2670    -0.4620 H     1 <1>   0.1500 
 33 H       -2.2270     0.1940    -2.9650 H     1 <1>   0.0800 
 34 H       -3.8970     0.0240    -2.4950 H     1 <1>   0.0800 
 35 H       -3.0380    -1.3430    -3.1690 H     1 <1>   0.0800 
 36 H        5.5090    -1.9770     0.9480 H     1 <1>   0.0800 
 37 H        5.3960    -0.3230     1.4890 H     1 <1>   0.0800 
 38 H        6.5040     0.4350    -0.5970 H     1 <1>   0.0800 
 39 H        6.6220    -1.2240    -1.1350 H     1 <1>   0.0800 
 40 H        8.0550    -1.7540     0.8220 H     1 <1>   0.0800 
 41 H        7.9380    -0.0960     1.3570 H     1 <1>   0.0800 
 42 H        9.7100    -2.2670    -1.1040 H     1 <1>   0.1500 
 43 H        9.1410     1.7520    -0.1850 H     1 <1>   0.1500 
 44 H       11.2230     1.4710    -1.8780 H     1 <1>   0.1500 
@<TRIPOS>BOND
  1   1   2  1   
  2   1   3  1   
  3   2   4  ar  
  4   2   5  ar  
  5   3   6  1   
  6   3  21  1   
  7   3  22  1   
  8   4   7  ar  
  9   4   8  1   
 10   5   9  ar  
 11   5  23  1   
 12   6  10  1   
 13   6  24  1   
 14   6  25  1   
 15   7  11  ar  
 16   7  26  1   
 17   8  27  1   
 18   8  28  1   
 19   8  29  1   
 20   9  11  ar  
 21   9  12  1   
 22  10  13  1   
 23  10  30  1   
 24  10  31  1   
 25  11  32  1   
 26  12  33  1   
 27  12  34  1   
 28  12  35  1   
 29  13  14  1   
 30  13  36  1   
 31  13  37  1   
 32  14  15  1   
 33  14  38  1   
 34  14  39  1   
 35  15  16  1   
 36  15  40  1   
 37  15  41  1   
 38  16  17  1   
 39  16  18  1   
 40  17  19  2   
 41  17  42  1   
 42  18  20  2   
 43  18  43  1   
 44  19  20  1   
 45  20  44  1   
@<TRIPOS>SUBSTRUCTURE
  1 ****   6 GROUP 4 **** **** 0

# MOE 2024.06 (io_trps.svl 2023.06)
