@<TRIPOS>MOLECULE
NONAME
31 31 1 0 0 
SMALL
USER_CHARGES


@<TRIPOS>ATOM
  1 I       -0.1360    -0.4190     1.0430 I     1 <1>  -0.0810 
  2 C       -2.1670     0.0410     0.6280 C.ar  1 <1>   0.0810 
  3 C       -3.1360    -0.3300     1.5390 C.ar  1 <1>  -0.1500 
  4 C       -2.4760     0.6990    -0.5470 C.ar  1 <1>  -0.1500 
  5 C       -4.4550    -0.0230     1.2590 C.ar  1 <1>  -0.1500 
  6 C       -3.8010     0.9960    -0.8090 C.ar  1 <1>  -0.1500 
  7 C       -4.8210     0.6520     0.0880 C.ar  1 <1>   0.0860 
  8 C       -6.2140     0.9740    -0.1740 C.2   1 <1>   0.5440 
  9 O       -7.1160     0.3330     0.3280 O.2   1 <1>  -0.5700 
 10 N       -6.5660     2.0360    -0.9630 N.am  1 <1>  -0.7300 
 11 C       -7.9000     2.2600    -1.6020 C.3   1 <1>   0.1400 
 12 C       -8.9060     2.9480    -0.6550 C.3   1 <1>   0.3430 
 13 N       -9.2210     2.0910     0.5280 N.4   1 <1>  -0.9590 
 14 C      -10.2800     1.0790     0.2420 C.3   1 <1>   0.2630 
 15 C       -9.5290     2.8880     1.7500 C.3   1 <1>   0.2630 
 16 H       -2.8670    -0.8470     2.4440 H     1 <1>   0.1500 
 17 H       -1.6970     0.9680    -1.2410 H     1 <1>   0.1500 
 18 H       -5.2200    -0.3120     1.9600 H     1 <1>   0.1500 
 19 H       -4.0420     1.4940    -1.7310 H     1 <1>   0.1500 
 20 H       -5.8070     2.6230    -1.3230 H     1 <1>   0.3700 
 21 H       -8.3000     1.3170    -1.9330 H     1 <1>   0.0800 
 22 H       -7.7630     2.8770    -2.4730 H     1 <1>   0.0800 
 23 H       -9.8130     3.1760    -1.1910 H     1 <1>   0.0800 
 24 H       -8.4730     3.8780    -0.3260 H     1 <1>   0.0800 
 25 H       -8.3480     1.5390     0.7010 H     1 <1>   0.4500 
 26 H      -11.2130     1.5630     0.0070 H     1 <1>   0.0800 
 27 H      -10.4240     0.4420     1.0990 H     1 <1>   0.0800 
 28 H       -9.9860     0.4600    -0.5900 H     1 <1>   0.0800 
 29 H      -10.4240     3.4700     1.6030 H     1 <1>   0.0800 
 30 H       -8.7130     3.5540     1.9750 H     1 <1>   0.0800 
 31 H       -9.6770     2.2320     2.5930 H     1 <1>   0.0800 
@<TRIPOS>BOND
  1   1   2  1   
  2   2   3  ar  
  3   2   4  ar  
  4   3   5  ar  
  5   3  16  1   
  6   4   6  ar  
  7   4  17  1   
  8   5   7  ar  
  9   5  18  1   
 10   6   7  ar  
 11   6  19  1   
 12   7   8  1   
 13   8   9  2   
 14   8  10  am  
 15  10  11  1   
 16  10  20  1   
 17  11  12  1   
 18  11  21  1   
 19  11  22  1   
 20  12  13  1   
 21  12  23  1   
 22  12  24  1   
 23  13  14  1   
 24  13  15  1   
 25  13  25  1   
 26  14  26  1   
 27  14  27  1   
 28  14  28  1   
 29  15  29  1   
 30  15  30  1   
 31  15  31  1   
@<TRIPOS>SUBSTRUCTURE
  1 ****   8 GROUP 4 **** **** 0

# MOE 2024.06 (io_trps.svl 2023.06)
