@<TRIPOS>MOLECULE
NONAME
49 50 1 0 0 
SMALL
USER_CHARGES


@<TRIPOS>ATOM
  1 O        0.9100     2.7380    -2.4910 O.2   1 <1>  -0.5700 
  2 C        0.3670     2.5030    -1.4380 C.2   1 <1>   0.5690 
  3 N        0.9230     1.7120    -0.4700 N.am  1 <1>  -0.5470 
  4 C       -1.0020     3.1150    -1.1770 C.3   1 <1>   0.1810 
  5 C        2.1510     1.0190    -0.4380 C.ar  1 <1>   0.1170 
  6 O       -1.5740     2.5990     0.0190 O.3   1 <1>  -0.3630 
  7 C        3.3750     1.5820    -0.8440 C.ar  1 <1>   0.1170 
  8 C        2.1410    -0.2810     0.0500 C.ar  1 <1>  -0.1500 
  9 C       -2.7880     3.0230     0.4510 C.ar  1 <1>   0.0830 
 10 N        3.4430     2.9000    -1.3230 N.am  1 <1>  -0.5470 
 11 C        4.5320     0.8150    -0.7760 C.ar  1 <1>  -0.1500 
 12 C        3.3040    -1.0280     0.1260 C.ar  1 <1>  -0.1500 
 13 C       -3.5650     3.9630    -0.2230 C.ar  1 <1>  -0.1500 
 14 C       -3.2560     2.4730     1.6330 C.ar  1 <1>  -0.1500 
 15 C        4.1920     3.9650    -0.9380 C.2   1 <1>   0.5690 
 16 C        4.5020    -0.4790    -0.2910 C.ar  1 <1>  -0.1500 
 17 C       -4.7950     4.3430     0.2880 C.ar  1 <1>  -0.1430 
 18 C       -4.4840     2.8470     2.1490 C.ar  1 <1>  -0.1430 
 19 O        4.0550     5.0240    -1.4970 O.2   1 <1>  -0.5700 
 20 C        5.1990     3.8390     0.2010 C.3   1 <1>  -0.0990 
 21 C       -5.2490     3.7820     1.4700 C.ar  1 <1>  -0.1500 
 22 C       -5.6510     5.3650    -0.4400 C.3   1 <1>  -0.0970 
 23 C       -4.9980     2.2430     3.4430 C.3   1 <1>  -0.0970 
 24 C        5.3750     5.1340     1.0140 C.3   1 <1>  -0.1600 
 25 C        6.3660     4.9420     2.1660 C.3   1 <1>  -0.2400 
 26 H        0.2980     1.5460     0.3210 H     1 <1>   0.3700 
 27 H       -1.6570     2.8830    -1.9960 H     1 <1>   0.0800 
 28 H       -0.8990     4.1800    -1.0740 H     1 <1>   0.0800 
 29 H        1.2140    -0.7210     0.3690 H     1 <1>   0.1500 
 30 H        2.6970     3.1400    -1.9920 H     1 <1>   0.3700 
 31 H        5.4640     1.2330    -1.1110 H     1 <1>   0.1500 
 32 H        3.2750    -2.0360     0.5050 H     1 <1>   0.1500 
 33 H       -3.2320     4.4060    -1.1410 H     1 <1>   0.1500 
 34 H       -2.6500     1.7480     2.1440 H     1 <1>   0.1500 
 35 H        5.4080    -1.0590    -0.2420 H     1 <1>   0.1500 
 36 H        6.1430     3.5520    -0.2220 H     1 <1>   0.0800 
 37 H        4.8780     3.0610     0.8690 H     1 <1>   0.0800 
 38 H       -6.2060     4.0740     1.8660 H     1 <1>   0.1500 
 39 H       -5.0510     5.9680    -1.0970 H     1 <1>   0.0800 
 40 H       -6.1350     6.0150     0.2670 H     1 <1>   0.0800 
 41 H       -6.4030     4.8620    -1.0200 H     1 <1>   0.0800 
 42 H       -4.1950     1.7930     3.9990 H     1 <1>   0.0800 
 43 H       -5.7330     1.4890     3.2250 H     1 <1>   0.0800 
 44 H       -5.4500     3.0030     4.0540 H     1 <1>   0.0800 
 45 H        4.4200     5.4390     1.4080 H     1 <1>   0.0800 
 46 H        5.7290     5.9180     0.3660 H     1 <1>   0.0800 
 47 H        6.0190     4.1790     2.8410 H     1 <1>   0.0800 
 48 H        6.4720     5.8610     2.7150 H     1 <1>   0.0800 
 49 H        7.3330     4.6580     1.7880 H     1 <1>   0.0800 
@<TRIPOS>BOND
  1   1   2  2   
  2   2   3  am  
  3   2   4  1   
  4   3   5  1   
  5   3  26  1   
  6   4   6  1   
  7   4  27  1   
  8   4  28  1   
  9   5   7  ar  
 10   5   8  ar  
 11   6   9  1   
 12   7  10  1   
 13   7  11  ar  
 14   8  12  ar  
 15   8  29  1   
 16   9  13  ar  
 17   9  14  ar  
 18  10  15  am  
 19  10  30  1   
 20  11  16  ar  
 21  11  31  1   
 22  12  16  ar  
 23  12  32  1   
 24  13  17  ar  
 25  13  33  1   
 26  14  18  ar  
 27  14  34  1   
 28  15  19  2   
 29  15  20  1   
 30  16  35  1   
 31  17  21  ar  
 32  17  22  1   
 33  18  21  ar  
 34  18  23  1   
 35  20  24  1   
 36  20  36  1   
 37  20  37  1   
 38  21  38  1   
 39  22  39  1   
 40  22  40  1   
 41  22  41  1   
 42  23  42  1   
 43  23  43  1   
 44  23  44  1   
 45  24  25  1   
 46  24  45  1   
 47  24  46  1   
 48  25  47  1   
 49  25  48  1   
 50  25  49  1   
@<TRIPOS>SUBSTRUCTURE
  1 ****   3 GROUP 4 **** **** 0

# MOE 2024.06 (io_trps.svl 2023.06)
