@<TRIPOS>MOLECULE
NONAME
53 55 1 0 0 
SMALL
USER_CHARGES


@<TRIPOS>ATOM
  1 CL       3.0000    -0.1850     0.0330 Cl    1 <1>  -0.1770 
  2 C        1.7090     0.9890     0.1350 C.ar  1 <1>   0.1770 
  3 C        1.7390     1.9970     1.0890 C.ar  1 <1>  -0.1440 
  4 C        0.6610     0.8710    -0.7590 C.ar  1 <1>  -0.1500 
  5 C        0.6730     2.8860     1.1400 C.ar  1 <1>  -0.1500 
  6 C        2.8980     2.1360     2.0660 C.3   1 <1>   0.3390 
  7 C       -0.3890     1.7700    -0.7030 C.ar  1 <1>  -0.1500 
  8 C       -0.3820     2.7750     0.2490 C.ar  1 <1>  -0.1500 
  9 N        4.0230     2.8590     1.4350 N.am  1 <1>  -0.6930 
 10 S        3.8770     4.5740     1.2640 S.o2  1 <1>   1.3330 
 11 C        5.2430     2.2230     1.3000 C.ar  1 <1>   0.1990 
 12 O        2.8200     5.0110     2.1460 O.2   1 <1>  -0.6500 
 13 O        5.2020     5.1330     1.3720 O.2   1 <1>  -0.6500 
 14 C        3.3350     4.7360    -0.4230 C.3   1 <1>  -0.1350 
 15 C        6.0590     2.0050     2.4030 C.ar  1 <1>  -0.1500 
 16 C        5.6790     1.7740     0.0610 C.ar  1 <1>  -0.1500 
 17 C        7.2690     1.3520     2.2700 C.ar  1 <1>  -0.1500 
 18 C        6.8900     1.1220    -0.0700 C.ar  1 <1>  -0.1500 
 19 C        7.7220     0.8930     1.0300 C.ar  1 <1>   0.0860 
 20 C        8.9950     0.2070     0.9020 C.2   1 <1>   0.5440 
 21 O        9.5500    -0.2890     1.8660 O.2   1 <1>  -0.5700 
 22 N        9.6640     0.1300    -0.2980 N.am  1 <1>  -0.6600 
 23 C       10.2760     1.3760    -0.8380 C.3   1 <1>   0.1400 
 24 C       10.4720    -1.0930    -0.5760 C.3   1 <1>   0.1400 
 25 C       11.7150     1.5390    -0.2980 C.3   1 <1>   0.3430 
 26 C       11.8970    -0.9260    -0.0150 C.3   1 <1>   0.3430 
 27 N       12.5700     0.3180    -0.5430 N.4   1 <1>  -0.9590 
 28 C       13.9190     0.4840     0.0780 C.3   1 <1>   0.2630 
 29 H        0.6670     0.0800    -1.4880 H     1 <1>   0.1500 
 30 H        0.6550     3.6750     1.8750 H     1 <1>   0.1500 
 31 H        3.2270     1.1590     2.3770 H     1 <1>   0.0800 
 32 H        2.5810     2.6620     2.9500 H     1 <1>   0.0800 
 33 H       -1.2110     1.6860    -1.3940 H     1 <1>   0.1500 
 34 H       -1.2000     3.4730     0.2980 H     1 <1>   0.1500 
 35 H        2.4050     4.2230    -0.5710 H     1 <1>   0.0800 
 36 H        4.0670     4.3220    -1.0870 H     1 <1>   0.0800 
 37 H        3.1980     5.7710    -0.6650 H     1 <1>   0.0800 
 38 H        5.7390     2.3580     3.3670 H     1 <1>   0.1500 
 39 H        5.0530     1.9300    -0.7980 H     1 <1>   0.1500 
 40 H        7.8800     1.1910     3.1420 H     1 <1>   0.1500 
 41 H        7.1920     0.7740    -1.0420 H     1 <1>   0.1500 
 42 H        9.6870     2.2290    -0.5430 H     1 <1>   0.0800 
 43 H       10.2840     1.3380    -1.9130 H     1 <1>   0.0800 
 44 H       10.5030    -1.2760    -1.6360 H     1 <1>   0.0800 
 45 H       10.0050    -1.9450    -0.1080 H     1 <1>   0.0800 
 46 H       11.6530     1.7220     0.7630 H     1 <1>   0.0800 
 47 H       12.1680     2.4030    -0.7550 H     1 <1>   0.0800 
 48 H       12.4810    -1.7970    -0.2640 H     1 <1>   0.0800 
 49 H       11.8250    -0.8720     1.0600 H     1 <1>   0.0800 
 50 H       12.6810     0.2060    -1.5610 H     1 <1>   0.4500 
 51 H       13.8270     0.5950     1.1470 H     1 <1>   0.0800 
 52 H       14.4100     1.3570    -0.3190 H     1 <1>   0.0800 
 53 H       14.5340    -0.3780    -0.1260 H     1 <1>   0.0800 
@<TRIPOS>BOND
  1   1   2  1   
  2   2   3  ar  
  3   2   4  ar  
  4   3   5  ar  
  5   3   6  1   
  6   4   7  ar  
  7   4  29  1   
  8   5   8  ar  
  9   5  30  1   
 10   6   9  1   
 11   6  31  1   
 12   6  32  1   
 13   7   8  ar  
 14   7  33  1   
 15   8  34  1   
 16   9  10  am  
 17   9  11  1   
 18  10  12  2   
 19  10  13  2   
 20  10  14  1   
 21  11  15  ar  
 22  11  16  ar  
 23  14  35  1   
 24  14  36  1   
 25  14  37  1   
 26  15  17  ar  
 27  15  38  1   
 28  16  18  ar  
 29  16  39  1   
 30  17  19  ar  
 31  17  40  1   
 32  18  19  ar  
 33  18  41  1   
 34  19  20  1   
 35  20  21  2   
 36  20  22  am  
 37  22  23  1   
 38  22  24  1   
 39  23  25  1   
 40  23  42  1   
 41  23  43  1   
 42  24  26  1   
 43  24  44  1   
 44  24  45  1   
 45  25  27  1   
 46  25  46  1   
 47  25  47  1   
 48  26  27  1   
 49  26  48  1   
 50  26  49  1   
 51  27  28  1   
 52  27  50  1   
 53  28  51  1   
 54  28  52  1   
 55  28  53  1   
@<TRIPOS>SUBSTRUCTURE
  1 ****  16 GROUP 4 **** **** 0

# MOE 2024.06 (io_trps.svl 2023.06)
