@<TRIPOS>MOLECULE
NONAME
44 45 1 0 0 
SMALL
USER_CHARGES


@<TRIPOS>ATOM
  1 O        0.2630    -4.8550     0.4660 O.3   1 <1>  -0.3630 
  2 C       -0.9280    -5.4430     0.1890 C.ar  1 <1>   0.0830 
  3 C        1.4800    -5.5040     0.1950 C.3   1 <1>   0.1200 
  4 C       -2.0670    -4.7180     0.4940 C.ar  1 <1>  -0.1500 
  5 C       -1.0570    -6.7110    -0.3720 C.ar  1 <1>  -0.1500 
  6 C        2.6060    -4.5610     0.6260 C.3   1 <1>  -0.1600 
  7 C       -3.3230    -5.2430     0.2450 C.ar  1 <1>  -0.1500 
  8 C       -2.3150    -7.2330    -0.6200 C.ar  1 <1>  -0.1500 
  9 C        3.9930    -5.1710     0.3780 C.3   1 <1>  -0.1600 
 10 C       -3.4530    -6.5030    -0.3150 C.ar  1 <1>  -0.1430 
 11 C        5.0880    -4.2030     0.8220 C.3   1 <1>   0.3430 
 12 C       -4.8300    -7.0810    -0.5880 C.3   1 <1>  -0.0970 
 13 N        6.4120    -4.8180     0.5710 N.4   1 <1>  -0.9060 
 14 C        7.5520    -3.9660     0.9610 C.3   1 <1>   0.4230 
 15 C        7.7610    -2.8810    -0.0920 C.3   1 <1>  -0.1600 
 16 C        8.8210    -4.7990     0.8400 C.3   1 <1>  -0.1600 
 17 C        8.5080    -3.5570    -1.2490 C.3   1 <1>  -0.1600 
 18 C        9.1860    -4.7960    -0.6500 C.3   1 <1>  -0.1600 
 19 H        1.5260    -5.7070    -0.8620 H     1 <1>   0.0800 
 20 H        1.5050    -6.4220     0.7560 H     1 <1>   0.0800 
 21 H       -1.9650    -3.7400     0.9280 H     1 <1>   0.1500 
 22 H       -0.2000    -7.3050    -0.6210 H     1 <1>   0.1500 
 23 H        2.4850    -4.3460     1.6750 H     1 <1>   0.0800 
 24 H        2.5080    -3.6410     0.0750 H     1 <1>   0.0800 
 25 H       -4.1970    -4.6650     0.4900 H     1 <1>   0.1500 
 26 H       -2.4070    -8.2140    -1.0530 H     1 <1>   0.1500 
 27 H        4.0980    -5.3820    -0.6730 H     1 <1>   0.0800 
 28 H        4.0740    -6.0910     0.9310 H     1 <1>   0.0800 
 29 H        4.9740    -3.9860     1.8730 H     1 <1>   0.0800 
 30 H        4.9950    -3.2790     0.2730 H     1 <1>   0.0800 
 31 H       -5.5330    -6.2940    -0.7950 H     1 <1>   0.0800 
 32 H       -5.1690    -7.6330     0.2700 H     1 <1>   0.0800 
 33 H       -4.8000    -7.7400    -1.4360 H     1 <1>   0.0800 
 34 H        6.5260    -5.0280    -0.4270 H     1 <1>   0.4500 
 35 H        6.4820    -5.7080     1.0740 H     1 <1>   0.4500 
 36 H        7.4220    -3.5650     1.9550 H     1 <1>   0.0800 
 37 H        8.4030    -2.1260     0.3300 H     1 <1>   0.0800 
 38 H        6.8540    -2.3990    -0.4110 H     1 <1>   0.0800 
 39 H        8.7220    -5.7920     1.2430 H     1 <1>   0.0800 
 40 H        9.6050    -4.2960     1.3830 H     1 <1>   0.0800 
 41 H        9.2350    -2.8850    -1.6760 H     1 <1>   0.0800 
 42 H        7.8220    -3.8500    -2.0260 H     1 <1>   0.0800 
 43 H        8.8200    -5.6860    -1.1320 H     1 <1>   0.0800 
 44 H       10.2550    -4.7560    -0.7810 H     1 <1>   0.0800 
@<TRIPOS>BOND
  1   1   2  1   
  2   1   3  1   
  3   2   4  ar  
  4   2   5  ar  
  5   3   6  1   
  6   3  19  1   
  7   3  20  1   
  8   4   7  ar  
  9   4  21  1   
 10   5   8  ar  
 11   5  22  1   
 12   6   9  1   
 13   6  23  1   
 14   6  24  1   
 15   7  10  ar  
 16   7  25  1   
 17   8  10  ar  
 18   8  26  1   
 19   9  11  1   
 20   9  27  1   
 21   9  28  1   
 22  10  12  1   
 23  11  13  1   
 24  11  29  1   
 25  11  30  1   
 26  12  31  1   
 27  12  32  1   
 28  12  33  1   
 29  13  14  1   
 30  13  34  1   
 31  13  35  1   
 32  14  15  1   
 33  14  16  1   
 34  14  36  1   
 35  15  17  1   
 36  15  37  1   
 37  15  38  1   
 38  16  18  1   
 39  16  39  1   
 40  16  40  1   
 41  17  18  1   
 42  17  41  1   
 43  17  42  1   
 44  18  43  1   
 45  18  44  1   
@<TRIPOS>SUBSTRUCTURE
  1 ****   6 GROUP 4 **** **** 0

# MOE 2024.06 (io_trps.svl 2023.06)
