@<TRIPOS>MOLECULE
NONAME
47 48 1 0 0 
SMALL
USER_CHARGES


@<TRIPOS>ATOM
  1 O       -0.1910    -1.2730    -1.9800 O.2   1 <1>  -0.5700 
  2 C       -0.3500    -2.0970    -1.1070 C.2   1 <1>   0.5690 
  3 N        0.4900    -2.0860    -0.0100 N.am  1 <1>  -0.6600 
  4 C       -1.4840    -3.1260    -1.3360 C.3   1 <1>   0.2610 
  5 C        0.5090    -3.1300     1.0660 C.3   1 <1>   0.1400 
  6 C        1.3820    -0.9140     0.2590 C.3   1 <1>   0.1400 
  7 O       -1.9660    -3.7270    -0.1400 O.3   1 <1>  -0.3630 
  8 C       -1.0400    -4.2700    -2.2540 C.3   1 <1>  -0.2400 
  9 C        1.8530    -3.1690     1.8310 C.3   1 <1>   0.3430 
 10 C        2.8540    -1.3390     0.4660 C.3   1 <1>   0.3430 
 11 C       -3.1750    -3.3380     0.3380 C.ar  1 <1>   0.0820 
 12 N        3.0200    -2.7560     0.9700 N.4   1 <1>  -0.9590 
 13 C       -3.4640    -2.0160     0.6950 C.ar  1 <1>   0.0820 
 14 C       -4.1440    -4.3180     0.4730 C.ar  1 <1>  -0.1500 
 15 C        3.1940    -3.6900    -0.1670 C.3   1 <1>   0.4810 
 16 O       -2.4940    -1.0680     0.5930 O.3   1 <1>  -0.3630 
 17 C       -4.7330    -1.7010     1.1680 C.ar  1 <1>  -0.1500 
 18 C       -5.4050    -3.9940     0.9430 C.ar  1 <1>  -0.1500 
 19 C        4.6290    -3.5640    -0.6220 C.2   1 <1>  -0.2880 
 20 C       -2.8410     0.2450     0.2110 C.3   1 <1>   0.0400 
 21 C       -5.6990    -2.6870     1.2870 C.ar  1 <1>  -0.1500 
 22 C        5.5950    -4.4570    -0.3810 C.2   1 <1>  -0.3000 
 23 H       -2.3070    -2.6110    -1.8010 H     1 <1>   0.0800 
 24 H        0.3400    -4.0970     0.6270 H     1 <1>   0.0800 
 25 H       -0.2950    -2.9430     1.7590 H     1 <1>   0.0800 
 26 H        1.0300    -0.4160     1.1460 H     1 <1>   0.0800 
 27 H        1.3350    -0.1920    -0.5390 H     1 <1>   0.0800 
 28 H       -0.2290    -4.8170    -1.8110 H     1 <1>   0.0800 
 29 H       -0.7120    -3.8690    -3.1960 H     1 <1>   0.0800 
 30 H       -1.8660    -4.9340    -2.4370 H     1 <1>   0.0800 
 31 H        2.0080    -4.1610     2.2250 H     1 <1>   0.0800 
 32 H        1.7810    -2.4980     2.6710 H     1 <1>   0.0800 
 33 H        3.3050    -0.6510     1.1620 H     1 <1>   0.0800 
 34 H        3.3750    -1.2250    -0.4700 H     1 <1>   0.0800 
 35 H        3.8950    -2.8190     1.5080 H     1 <1>   0.4500 
 36 H       -3.9120    -5.3330     0.2050 H     1 <1>   0.1500 
 37 H        2.5080    -3.4610    -0.9680 H     1 <1>   0.0800 
 38 H        3.0190    -4.7020     0.1610 H     1 <1>   0.0800 
 39 H       -4.9800    -0.6980     1.4580 H     1 <1>   0.1500 
 40 H       -6.1560    -4.7590     1.0410 H     1 <1>   0.1500 
 41 H        4.8160    -2.6650    -1.1850 H     1 <1>   0.1500 
 42 H       -1.9410     0.7570    -0.0820 H     1 <1>   0.0800 
 43 H       -3.2920     0.7480     1.0470 H     1 <1>   0.0800 
 44 H       -3.5200     0.2010    -0.6230 H     1 <1>   0.0800 
 45 H       -6.6800    -2.4370     1.6540 H     1 <1>   0.1500 
 46 H        6.6120    -4.3450    -0.7240 H     1 <1>   0.1500 
 47 H        5.4690    -5.3760     0.1670 H     1 <1>   0.1500 
@<TRIPOS>BOND
  1   1   2  2   
  2   2   3  am  
  3   2   4  1   
  4   3   5  1   
  5   3   6  1   
  6   4   7  1   
  7   4   8  1   
  8   4  23  1   
  9   5   9  1   
 10   5  24  1   
 11   5  25  1   
 12   6  10  1   
 13   6  26  1   
 14   6  27  1   
 15   7  11  1   
 16   8  28  1   
 17   8  29  1   
 18   8  30  1   
 19   9  12  1   
 20   9  31  1   
 21   9  32  1   
 22  10  12  1   
 23  10  33  1   
 24  10  34  1   
 25  11  13  ar  
 26  11  14  ar  
 27  12  15  1   
 28  12  35  1   
 29  13  16  1   
 30  13  17  ar  
 31  14  18  ar  
 32  14  36  1   
 33  15  19  1   
 34  15  37  1   
 35  15  38  1   
 36  16  20  1   
 37  17  21  ar  
 38  17  39  1   
 39  18  21  ar  
 40  18  40  1   
 41  19  22  2   
 42  19  41  1   
 43  20  42  1   
 44  20  43  1   
 45  20  44  1   
 46  21  45  1   
 47  22  46  1   
 48  22  47  1   
@<TRIPOS>SUBSTRUCTURE
  1 ****   3 GROUP 4 **** **** 0

# MOE 2024.06 (io_trps.svl 2023.06)
