@<TRIPOS>MOLECULE
NONAME
43 43 1 0 0 
SMALL
USER_CHARGES


@<TRIPOS>ATOM
  1 O       -8.6650     0.4250     0.5890 O.3   1 <1>  -0.3630 
  2 C       -9.8800    -0.1150     0.3220 C.ar  1 <1>   0.0830 
  3 C       -7.4880    -0.1310     0.0610 C.3   1 <1>   0.1200 
  4 C      -10.0770    -1.2160    -0.5070 C.ar  1 <1>  -0.1500 
  5 C      -10.9740     0.4840     0.9240 C.ar  1 <1>  -0.1500 
  6 C       -6.3190     0.7100     0.5810 C.3   1 <1>   0.3430 
  7 C      -11.3560    -1.7010    -0.7200 C.ar  1 <1>  -0.1500 
  8 C      -12.2490    -0.0060     0.7070 C.ar  1 <1>  -0.1500 
  9 N       -4.9820     0.2640     0.0580 N.4   1 <1>  -0.9590 
 10 C      -12.4530    -1.1040    -0.1180 C.ar  1 <1>  -0.1430 
 11 C       -4.6080    -1.0920     0.5500 C.3   1 <1>   0.3430 
 12 C       -3.9510     1.2770     0.4080 C.3   1 <1>   0.3430 
 13 C      -13.8550    -1.6560    -0.3680 C.3   1 <1>   0.0630 
 14 C       -4.6650    -2.0630    -0.6210 C.3   1 <1>  -0.2400 
 15 C       -2.7210     1.0820    -0.4730 C.3   1 <1>  -0.2400 
 16 C      -14.7430    -0.6080    -1.0460 C.3   1 <1>  -0.2400 
 17 C      -14.4910    -2.1460     0.9370 C.3   1 <1>  -0.2400 
 18 H       -7.5500    -0.0840    -1.0120 H     1 <1>   0.0800 
 19 H       -7.4220    -1.1490     0.4030 H     1 <1>   0.0800 
 20 H       -9.2610    -1.7110    -0.9960 H     1 <1>   0.1500 
 21 H      -10.8260     1.3340     1.5640 H     1 <1>   0.1500 
 22 H       -6.3170     0.6690     1.6580 H     1 <1>   0.0800 
 23 H       -6.4920     1.7320     0.2840 H     1 <1>   0.0800 
 24 H      -11.4950    -2.5530    -1.3630 H     1 <1>   0.1500 
 25 H      -13.0840     0.4750     1.1840 H     1 <1>   0.1500 
 26 H       -5.0280     0.2250    -0.9690 H     1 <1>   0.4500 
 27 H       -5.2810    -1.4110     1.3310 H     1 <1>   0.0800 
 28 H       -3.6090    -1.0820     0.9550 H     1 <1>   0.0800 
 29 H       -3.6820     1.1950     1.4490 H     1 <1>   0.0800 
 30 H       -4.3420     2.2690     0.2390 H     1 <1>   0.0800 
 31 H      -13.7810    -2.5010    -1.0320 H     1 <1>   0.0800 
 32 H       -5.6540    -2.1210    -1.0370 H     1 <1>   0.0800 
 33 H       -4.3940    -3.0460    -0.2770 H     1 <1>   0.0800 
 34 H       -3.9650    -1.7790    -1.3870 H     1 <1>   0.0800 
 35 H       -2.2490     0.1340    -0.2900 H     1 <1>   0.0800 
 36 H       -2.0040     1.8520    -0.2480 H     1 <1>   0.0800 
 37 H       -2.9780     1.1650    -1.5140 H     1 <1>   0.0800 
 38 H      -14.8950     0.2400    -0.4040 H     1 <1>   0.0800 
 39 H      -15.7020    -1.0320    -1.2870 H     1 <1>   0.0800 
 40 H      -14.2800    -0.2710    -1.9560 H     1 <1>   0.0800 
 41 H      -14.6360    -1.3300     1.6230 H     1 <1>   0.0800 
 42 H      -13.8530    -2.8750     1.4030 H     1 <1>   0.0800 
 43 H      -15.4440    -2.6020     0.7390 H     1 <1>   0.0800 
@<TRIPOS>BOND
  1   1   2  1   
  2   1   3  1   
  3   2   4  ar  
  4   2   5  ar  
  5   3   6  1   
  6   3  18  1   
  7   3  19  1   
  8   4   7  ar  
  9   4  20  1   
 10   5   8  ar  
 11   5  21  1   
 12   6   9  1   
 13   6  22  1   
 14   6  23  1   
 15   7  10  ar  
 16   7  24  1   
 17   8  10  ar  
 18   8  25  1   
 19   9  11  1   
 20   9  12  1   
 21   9  26  1   
 22  10  13  1   
 23  11  14  1   
 24  11  27  1   
 25  11  28  1   
 26  12  15  1   
 27  12  29  1   
 28  12  30  1   
 29  13  16  1   
 30  13  17  1   
 31  13  31  1   
 32  14  32  1   
 33  14  33  1   
 34  14  34  1   
 35  15  35  1   
 36  15  36  1   
 37  15  37  1   
 38  16  38  1   
 39  16  39  1   
 40  16  40  1   
 41  17  41  1   
 42  17  42  1   
 43  17  43  1   
@<TRIPOS>SUBSTRUCTURE
  1 ****   2 GROUP 4 **** **** 0

# MOE 2024.06 (io_trps.svl 2023.06)
