@<TRIPOS>MOLECULE
NONAME
50 52 1 0 0 
SMALL
USER_CHARGES


@<TRIPOS>ATOM
  1 F        1.8460     3.0660     2.1010 F     1 <1>  -0.3400 
  2 C        1.9270     1.9500     1.3880 C.3   1 <1>   1.1640 
  3 F        2.0490     0.9570     2.2620 F     1 <1>  -0.3400 
  4 F        0.7430     1.7910     0.8090 F     1 <1>  -0.3400 
  5 C        3.0740     2.0020     0.3660 C.ar  1 <1>  -0.1440 
  6 C        4.2420     1.2680     0.5420 C.ar  1 <1>  -0.1500 
  7 C        2.9590     2.8040    -0.7660 C.ar  1 <1>  -0.1500 
  8 C        5.2760     1.3190    -0.3820 C.ar  1 <1>   0.1000 
  9 C        3.9840     2.8640    -1.6950 C.ar  1 <1>  -0.1500 
 10 N        6.4230     0.5640    -0.1670 N.pl3 1 <1>  -0.8380 
 11 C        5.1350     2.1250    -1.5040 C.ar  1 <1>  -0.1500 
 12 C        7.6890     1.3250     0.0590 C.3   1 <1>   0.2090 
 13 C        6.5800    -0.6470    -1.0220 C.3   1 <1>   0.2090 
 14 C        8.7980     0.3970     0.5990 C.3   1 <1>   0.3430 
 15 C        7.6920    -1.5660    -0.4720 C.3   1 <1>   0.3430 
 16 N        8.9950    -0.8370    -0.2550 N.4   1 <1>  -0.9590 
 17 C       10.0440    -1.7290     0.3070 C.3   1 <1>   0.4860 
 18 C       11.3620    -0.9790     0.3030 C.ar  1 <1>  -0.1430 
 19 C       12.0110    -0.7120    -0.8950 C.ar  1 <1>  -0.1500 
 20 C       11.9280    -0.5390     1.4920 C.ar  1 <1>  -0.1500 
 21 C       13.1930     0.0040    -0.9000 C.ar  1 <1>  -0.1500 
 22 C       13.1130     0.1740     1.4780 C.ar  1 <1>  -0.1500 
 23 C       13.7580     0.4660     0.2830 C.ar  1 <1>   0.1170 
 24 N       14.9520     1.1990     0.3030 N.am  1 <1>  -0.5470 
 25 C       15.4390     2.0790    -0.6220 C.2   1 <1>   0.5690 
 26 O       14.8490     2.3890    -1.6250 O.2   1 <1>  -0.5700 
 27 C       16.7850     2.7010    -0.3500 C.3   1 <1>  -0.1790 
 28 H        4.3720     0.6400     1.4060 H     1 <1>   0.1500 
 29 H        2.0680     3.3870    -0.9310 H     1 <1>   0.1500 
 30 H        3.8800     3.4870    -2.5670 H     1 <1>   0.1500 
 31 H        5.9250     2.1750    -2.2290 H     1 <1>   0.1500 
 32 H        7.5050     2.1130     0.7710 H     1 <1>   0.0800 
 33 H        8.0100     1.7800    -0.8610 H     1 <1>   0.0800 
 34 H        6.8140    -0.3500    -2.0300 H     1 <1>   0.0800 
 35 H        5.6480    -1.1860    -1.0440 H     1 <1>   0.0800 
 36 H        8.5260     0.1020     1.5990 H     1 <1>   0.0800 
 37 H        9.7190     0.9540     0.6590 H     1 <1>   0.0800 
 38 H        7.8370    -2.3860    -1.1550 H     1 <1>   0.0800 
 39 H        7.3480    -1.9730     0.4650 H     1 <1>   0.0800 
 40 H        9.3430    -0.5080    -1.1640 H     1 <1>   0.4500 
 41 H       10.1410    -2.6180    -0.2960 H     1 <1>   0.0800 
 42 H        9.7880    -2.0230     1.3120 H     1 <1>   0.0800 
 43 H       11.6150    -1.0540    -1.8360 H     1 <1>   0.1500 
 44 H       11.4560    -0.7450     2.4390 H     1 <1>   0.1500 
 45 H       13.6870     0.2050    -1.8350 H     1 <1>   0.1500 
 46 H       13.5410     0.5120     2.4050 H     1 <1>   0.1500 
 47 H       15.5170     1.0950     1.1430 H     1 <1>   0.3700 
 48 H       16.7360     3.3030     0.5380 H     1 <1>   0.0800 
 49 H       17.0670     3.3260    -1.1770 H     1 <1>   0.0800 
 50 H       17.5260     1.9340    -0.2280 H     1 <1>   0.0800 
@<TRIPOS>BOND
  1   1   2  1   
  2   2   3  1   
  3   2   4  1   
  4   2   5  1   
  5   5   6  ar  
  6   5   7  ar  
  7   6   8  ar  
  8   6  28  1   
  9   7   9  ar  
 10   7  29  1   
 11   8  10  1   
 12   8  11  ar  
 13   9  11  ar  
 14   9  30  1   
 15  10  12  1   
 16  10  13  1   
 17  11  31  1   
 18  12  14  1   
 19  12  32  1   
 20  12  33  1   
 21  13  15  1   
 22  13  34  1   
 23  13  35  1   
 24  14  16  1   
 25  14  36  1   
 26  14  37  1   
 27  15  16  1   
 28  15  38  1   
 29  15  39  1   
 30  16  17  1   
 31  16  40  1   
 32  17  18  1   
 33  17  41  1   
 34  17  42  1   
 35  18  19  ar  
 36  18  20  ar  
 37  19  21  ar  
 38  19  43  1   
 39  20  22  ar  
 40  20  44  1   
 41  21  23  ar  
 42  21  45  1   
 43  22  23  ar  
 44  22  46  1   
 45  23  24  1   
 46  24  25  am  
 47  24  47  1   
 48  25  26  2   
 49  25  27  1   
 50  27  48  1   
 51  27  49  1   
 52  27  50  1   
@<TRIPOS>SUBSTRUCTURE
  1 ****  12 GROUP 4 **** **** 0

# MOE 2024.06 (io_trps.svl 2023.06)
