@<TRIPOS>MOLECULE
NONAME
53 56 1 0 0 
SMALL
USER_CHARGES


@<TRIPOS>ATOM
  1 S       -1.5840     0.4550    -2.5370 S.3   1 <1>  -0.0800 
  2 C       -0.5260    -0.5150    -1.5040 C.2   1 <1>   0.1040 
  3 C       -2.8790     0.3100    -1.3770 C.2   1 <1>  -0.1400 
  4 N        0.7690    -0.7960    -1.9110 N.am  1 <1>  -0.4940 
  5 C       -1.1700    -0.9000    -0.3530 C.2   1 <1>  -0.0860 
  6 C       -2.5230    -0.4040    -0.3230 C.2   1 <1>  -0.1810 
  7 C       -4.2710     0.8510    -1.4010 C.3   1 <1>   0.0200 
  8 C        1.5450    -0.3940    -2.9660 C.2   1 <1>   0.5690 
  9 C       -0.5780    -1.6900     0.6910 C.2   1 <1>   0.8060 
 10 C       -3.6760    -0.4990     0.6460 C.3   1 <1>   0.0210 
 11 C       -4.8060     0.3130    -0.0490 C.3   1 <1>  -0.1600 
 12 O        1.2030     0.3930    -3.8140 O.2   1 <1>  -0.5700 
 13 C        2.9470    -1.0020    -3.0450 C.3   1 <1>   0.1710 
 14 O        0.5780    -2.0730     0.6640 O.2   1 <1>  -0.5700 
 15 O       -1.3310    -2.0210     1.7480 O.3   1 <1>  -0.4300 
 16 N        3.4200    -1.6010    -1.7620 N.3   1 <1>  -0.8100 
 17 C       -0.8160    -2.7970     2.8060 C.3   1 <1>   0.1200 
 18 C        4.5280    -2.5390    -2.0010 C.3   1 <1>   0.1100 
 19 C        3.8150    -0.5530    -0.8000 C.3   1 <1>   0.1100 
 20 C       -1.9280    -2.9890     3.8330 C.3   1 <1>  -0.2400 
 21 C        4.8870    -3.2540    -0.6980 C.3   1 <1>  -0.1600 
 22 C        4.1440    -1.1910     0.5500 C.3   1 <1>  -0.1600 
 23 C        5.2400    -2.2430     0.3830 C.3   1 <1>   0.5600 
 24 O        6.4510    -1.6340     0.0620 O.3   1 <1>  -0.5600 
 25 O        5.4720    -2.9090     1.5770 O.3   1 <1>  -0.5600 
 26 C        7.1750    -1.4220     1.2200 C.3   1 <1>   0.1200 
 27 C        6.4610    -2.2450     2.2750 C.3   1 <1>   0.1200 
 28 H        1.3080    -1.4120    -1.2820 H     1 <1>   0.3700 
 29 H       -4.8190     0.4540    -2.2370 H     1 <1>   0.0800 
 30 H       -4.2610     1.9260    -1.4300 H     1 <1>   0.0800 
 31 H       -3.4090    -0.0630     1.5930 H     1 <1>   0.0800 
 32 H       -3.9650    -1.5260     0.7860 H     1 <1>   0.0800 
 33 H       -5.6600    -0.3180    -0.2190 H     1 <1>   0.0800 
 34 H       -5.1060     1.1340     0.5780 H     1 <1>   0.0800 
 35 H        3.6380    -0.2470    -3.3770 H     1 <1>   0.0800 
 36 H        2.9070    -1.7660    -3.8010 H     1 <1>   0.0800 
 37 H        0.0230    -2.2760     3.2370 H     1 <1>   0.0800 
 38 H       -0.4890    -3.7440     2.4090 H     1 <1>   0.0800 
 39 H        5.3880    -2.0080    -2.3770 H     1 <1>   0.0800 
 40 H        4.2320    -3.2740    -2.7310 H     1 <1>   0.0800 
 41 H        3.0120     0.1520    -0.6660 H     1 <1>   0.0800 
 42 H        4.6760    -0.0200    -1.1710 H     1 <1>   0.0800 
 43 H       -2.2510    -2.0360     4.2130 H     1 <1>   0.0800 
 44 H       -1.5630    -3.5790     4.6540 H     1 <1>   0.0800 
 45 H       -2.7610    -3.5010     3.3860 H     1 <1>   0.0800 
 46 H        5.7170    -3.9160    -0.8550 H     1 <1>   0.0800 
 47 H        4.0400    -3.8320    -0.3780 H     1 <1>   0.0800 
 48 H        3.2580    -1.6640     0.9300 H     1 <1>   0.0800 
 49 H        4.4510    -0.4340     1.2450 H     1 <1>   0.0800 
 50 H        7.1640    -0.3730     1.4580 H     1 <1>   0.0800 
 51 H        8.1850    -1.7600     1.0650 H     1 <1>   0.0800 
 52 H        7.1100    -2.9650     2.7400 H     1 <1>   0.0800 
 53 H        6.0020    -1.6190     3.0200 H     1 <1>   0.0800 
@<TRIPOS>BOND
  1   1   2  1   
  2   1   3  1   
  3   2   4  1   
  4   2   5  2   
  5   3   6  2   
  6   3   7  1   
  7   4   8  am  
  8   4  28  1   
  9   5   6  1   
 10   5   9  1   
 11   6  10  1   
 12   7  11  1   
 13   7  29  1   
 14   7  30  1   
 15   8  12  2   
 16   8  13  1   
 17   9  14  2   
 18   9  15  1   
 19  10  11  1   
 20  10  31  1   
 21  10  32  1   
 22  11  33  1   
 23  11  34  1   
 24  13  16  1   
 25  13  35  1   
 26  13  36  1   
 27  15  17  1   
 28  16  18  1   
 29  16  19  1   
 30  17  20  1   
 31  17  37  1   
 32  17  38  1   
 33  18  21  1   
 34  18  39  1   
 35  18  40  1   
 36  19  22  1   
 37  19  41  1   
 38  19  42  1   
 39  20  43  1   
 40  20  44  1   
 41  20  45  1   
 42  21  23  1   
 43  21  46  1   
 44  21  47  1   
 45  22  23  1   
 46  22  48  1   
 47  22  49  1   
 48  23  24  1   
 49  23  25  1   
 50  24  26  1   
 51  25  27  1   
 52  26  27  1   
 53  26  50  1   
 54  26  51  1   
 55  27  52  1   
 56  27  53  1   
@<TRIPOS>SUBSTRUCTURE
  1 ****  14 GROUP 4 **** **** 0

# MOE 2024.06 (io_trps.svl 2023.06)
