@<TRIPOS>MOLECULE
NONAME
55 56 1 0 0 
SMALL
USER_CHARGES


@<TRIPOS>ATOM
  1 O       -0.5410     5.1590     0.5450 O.3   1 <1>  -0.3630 
  2 C        0.6870     5.6760     0.2890 C.ar  1 <1>   0.0830 
  3 C       -1.7130     5.8350     0.1640 C.3   1 <1>   0.1200 
  4 C        1.7760     4.9350     0.7150 C.ar  1 <1>  -0.1500 
  5 C        0.9010     6.8850    -0.3640 C.ar  1 <1>  -0.1500 
  6 C       -2.9020     4.9770     0.6030 C.3   1 <1>  -0.1600 
  7 C        3.0640     5.3890     0.4950 C.ar  1 <1>  -0.1500 
  8 C        2.1910     7.3360    -0.5820 C.ar  1 <1>  -0.1500 
  9 C       -4.2440     5.6320     0.2460 C.3   1 <1>  -0.1600 
 10 C        3.2850     6.5950    -0.1560 C.ar  1 <1>  -0.1430 
 11 C       -5.4060     4.7400     0.6860 C.3   1 <1>   0.3430 
 12 C        4.7140     7.0840    -0.3900 C.3   1 <1>   0.0640 
 13 N       -6.7040     5.3180     0.2520 N.4   1 <1>  -0.9590 
 14 C        4.9580     8.3970     0.3770 C.3   1 <1>  -0.1600 
 15 C        4.9880     7.2200    -1.8950 C.3   1 <1>  -0.2400 
 16 C       -7.0990     6.5920     0.9460 C.3   1 <1>   0.3430 
 17 C       -7.8330     4.3310     0.3050 C.3   1 <1>   0.3430 
 18 C        6.4230     8.8560     0.3590 C.3   1 <1>  -0.2400 
 19 C       -8.4190     7.1610     0.3670 C.3   1 <1>   0.1100 
 20 C       -9.1260     4.9290    -0.3050 C.3   1 <1>   0.1100 
 21 N       -8.9460     6.3330    -0.7420 N.3   1 <1>  -0.8100 
 22 C      -10.1940     6.8900    -1.2810 C.3   1 <1>   0.0300 
 23 H       -1.6990     5.9590    -0.9060 H     1 <1>   0.0800 
 24 H       -1.7240     6.7930     0.6540 H     1 <1>   0.0800 
 25 H        1.6090     4.0010     1.2190 H     1 <1>   0.1500 
 26 H        0.0840     7.4880    -0.7100 H     1 <1>   0.1500 
 27 H       -2.8410     4.8300     1.6680 H     1 <1>   0.0800 
 28 H       -2.8250     4.0180     0.1190 H     1 <1>   0.0800 
 29 H        3.8940     4.7960     0.8350 H     1 <1>   0.1500 
 30 H        2.3410     8.2720    -1.0890 H     1 <1>   0.1500 
 31 H       -4.2880     5.7810    -0.8190 H     1 <1>   0.0800 
 32 H       -4.3020     6.5870     0.7370 H     1 <1>   0.0800 
 33 H       -5.3940     4.6200     1.7580 H     1 <1>   0.0800 
 34 H       -5.2810     3.7660     0.2390 H     1 <1>   0.0800 
 35 H        5.3920     6.3430    -0.0010 H     1 <1>   0.0800 
 36 H       -6.6670     5.5840    -0.7460 H     1 <1>   0.4500 
 37 H        4.6600     8.2500     1.4010 H     1 <1>   0.0800 
 38 H        4.3390     9.1770    -0.0290 H     1 <1>   0.0800 
 39 H        4.4140     8.0240    -2.3170 H     1 <1>   0.0800 
 40 H        4.7170     6.3070    -2.3960 H     1 <1>   0.0800 
 41 H        6.0300     7.4050    -2.0760 H     1 <1>   0.0800 
 42 H       -6.3250     7.3320     0.8270 H     1 <1>   0.0800 
 43 H       -7.2220     6.4150     2.0010 H     1 <1>   0.0800 
 44 H       -8.0240     4.0450     1.3260 H     1 <1>   0.0800 
 45 H       -7.5710     3.4410    -0.2420 H     1 <1>   0.0800 
 46 H        7.0660     8.0800     0.7360 H     1 <1>   0.0800 
 47 H        6.5390     9.7260     0.9810 H     1 <1>   0.0800 
 48 H        6.7330     9.1130    -0.6380 H     1 <1>   0.0800 
 49 H       -8.2390     8.1610     0.0100 H     1 <1>   0.0800 
 50 H       -9.1500     7.2270     1.1550 H     1 <1>   0.0800 
 51 H       -9.9190     4.8690     0.4230 H     1 <1>   0.0800 
 52 H       -9.4200     4.3300    -1.1510 H     1 <1>   0.0800 
 53 H      -10.0270     7.8940    -1.6340 H     1 <1>   0.0800 
 54 H      -10.9630     6.9080    -0.5270 H     1 <1>   0.0800 
 55 H      -10.5340     6.2950    -2.1130 H     1 <1>   0.0800 
@<TRIPOS>BOND
  1   1   2  1   
  2   1   3  1   
  3   2   4  ar  
  4   2   5  ar  
  5   3   6  1   
  6   3  23  1   
  7   3  24  1   
  8   4   7  ar  
  9   4  25  1   
 10   5   8  ar  
 11   5  26  1   
 12   6   9  1   
 13   6  27  1   
 14   6  28  1   
 15   7  10  ar  
 16   7  29  1   
 17   8  10  ar  
 18   8  30  1   
 19   9  11  1   
 20   9  31  1   
 21   9  32  1   
 22  10  12  1   
 23  11  13  1   
 24  11  33  1   
 25  11  34  1   
 26  12  14  1   
 27  12  15  1   
 28  12  35  1   
 29  13  16  1   
 30  13  17  1   
 31  13  36  1   
 32  14  18  1   
 33  14  37  1   
 34  14  38  1   
 35  15  39  1   
 36  15  40  1   
 37  15  41  1   
 38  16  19  1   
 39  16  42  1   
 40  16  43  1   
 41  17  20  1   
 42  17  44  1   
 43  17  45  1   
 44  18  46  1   
 45  18  47  1   
 46  18  48  1   
 47  19  21  1   
 48  19  49  1   
 49  19  50  1   
 50  20  21  1   
 51  20  51  1   
 52  20  52  1   
 53  21  22  1   
 54  22  53  1   
 55  22  54  1   
 56  22  55  1   
@<TRIPOS>SUBSTRUCTURE
  1 ****   3 GROUP 4 **** **** 0

# MOE 2024.06 (io_trps.svl 2023.06)
