@<TRIPOS>MOLECULE
NONAME
47 50 1 0 0 
SMALL
USER_CHARGES


@<TRIPOS>ATOM
  1 S       -0.7480    -0.3780    -0.4620 S.o2  1 <1>   1.3330 
  2 O       -1.5650     0.5290     0.3060 O.2   1 <1>  -0.6500 
  3 O       -1.2930    -1.0410    -1.6210 O.2   1 <1>  -0.6500 
  4 N       -0.2370    -1.6160     0.6320 N.am  1 <1>  -0.6930 
  5 C        0.7750     0.4510    -0.8670 C.3   1 <1>  -0.1350 
  6 C        0.8340    -2.4820     0.3810 C.ar  1 <1>   0.1990 
  7 C       -1.1840    -1.9200     1.7590 C.3   1 <1>   0.2570 
  8 C        1.0570    -3.0240    -0.8860 C.ar  1 <1>  -0.1500 
  9 C        1.7070    -2.8170     1.4230 C.ar  1 <1>  -0.1500 
 10 C       -1.4260    -3.4160     2.0080 C.2   1 <1>   0.5690 
 11 C        2.1370    -3.8620    -1.0650 C.ar  1 <1>   0.0820 
 12 C        2.7870    -3.6660     1.2260 C.ar  1 <1>  -0.1500 
 13 O       -1.0700    -3.8550     3.0790 O.2   1 <1>  -0.5700 
 14 N       -2.0150    -4.2200     1.0620 N.am  1 <1>  -0.6600 
 15 O        2.5290    -4.4770    -2.1860 O.3   1 <1>  -0.3630 
 16 C        2.9790    -4.1760    -0.0410 C.ar  1 <1>   0.0830 
 17 C       -2.5260    -3.7320    -0.2540 C.3   1 <1>   0.2840 
 18 C       -2.1560    -5.6860     1.2610 C.3   1 <1>   0.1400 
 19 C        3.6890    -5.2380    -1.8530 C.3   1 <1>   0.4000 
 20 O        3.9420    -5.0040    -0.4680 O.3   1 <1>  -0.3630 
 21 C       -3.8080    -4.4380    -0.6880 C.ar  1 <1>  -0.1430 
 22 C       -3.6380    -6.0540     1.2510 C.3   1 <1>  -0.0170 
 23 C       -4.3320    -5.5250     0.0050 C.ar  1 <1>  -0.1430 
 24 C       -4.4630    -3.9720    -1.8180 C.ar  1 <1>  -0.1500 
 25 C       -5.4990    -6.1270    -0.4380 C.ar  1 <1>  -0.1500 
 26 C       -5.6270    -4.5770    -2.2580 C.ar  1 <1>  -0.1500 
 27 C       -6.1460    -5.6560    -1.5670 C.ar  1 <1>  -0.1500 
 28 H        1.2430     0.8200     0.0250 H     1 <1>   0.0800 
 29 H        0.5800     1.2790    -1.5200 H     1 <1>   0.0800 
 30 H        1.4500    -0.2210    -1.3590 H     1 <1>   0.0800 
 31 H       -2.1410    -1.4670     1.5760 H     1 <1>   0.0800 
 32 H       -0.7940    -1.4830     2.6600 H     1 <1>   0.0800 
 33 H        0.4130    -2.8180    -1.7180 H     1 <1>   0.1500 
 34 H        1.5360    -2.4110     2.4040 H     1 <1>   0.1500 
 35 H        3.4570    -3.9280     2.0260 H     1 <1>   0.1500 
 36 H       -1.7680    -3.8920    -1.0010 H     1 <1>   0.0800 
 37 H       -2.7310    -2.6790    -0.2070 H     1 <1>   0.0800 
 38 H       -1.7100    -5.9940     2.1910 H     1 <1>   0.0800 
 39 H       -1.6490    -6.1970     0.4600 H     1 <1>   0.0800 
 40 H        4.5250    -4.8960    -2.4360 H     1 <1>   0.0800 
 41 H        3.4930    -6.2830    -2.0120 H     1 <1>   0.0800 
 42 H       -4.1090    -5.6390     2.1240 H     1 <1>   0.0800 
 43 H       -3.7320    -7.1240     1.2980 H     1 <1>   0.0800 
 44 H       -4.0660    -3.1320    -2.3630 H     1 <1>   0.1500 
 45 H       -5.9110    -6.9660     0.0960 H     1 <1>   0.1500 
 46 H       -6.1260    -4.2080    -3.1360 H     1 <1>   0.1500 
 47 H       -7.0510    -6.1280    -1.9060 H     1 <1>   0.1500 
@<TRIPOS>BOND
  1   1   2  2   
  2   1   3  2   
  3   1   4  am  
  4   1   5  1   
  5   4   6  1   
  6   4   7  1   
  7   5  28  1   
  8   5  29  1   
  9   5  30  1   
 10   6   8  ar  
 11   6   9  ar  
 12   7  10  1   
 13   7  31  1   
 14   7  32  1   
 15   8  11  ar  
 16   8  33  1   
 17   9  12  ar  
 18   9  34  1   
 19  10  13  2   
 20  10  14  am  
 21  11  15  1   
 22  11  16  ar  
 23  12  16  ar  
 24  12  35  1   
 25  14  17  1   
 26  14  18  1   
 27  15  19  1   
 28  16  20  1   
 29  17  21  1   
 30  17  36  1   
 31  17  37  1   
 32  18  22  1   
 33  18  38  1   
 34  18  39  1   
 35  19  20  1   
 36  19  40  1   
 37  19  41  1   
 38  21  23  ar  
 39  21  24  ar  
 40  22  23  1   
 41  22  42  1   
 42  22  43  1   
 43  23  25  ar  
 44  24  26  ar  
 45  24  44  1   
 46  25  27  ar  
 47  25  45  1   
 48  26  27  ar  
 49  26  46  1   
 50  27  47  1   
@<TRIPOS>SUBSTRUCTURE
  1 ****  17 GROUP 4 **** **** 0

# MOE 2024.06 (io_trps.svl 2023.06)
