@<TRIPOS>MOLECULE
NONAME
45 46 1 0 0 
SMALL
USER_CHARGES


@<TRIPOS>ATOM
  1 O       -1.8220     0.3970     1.3720 O.3   1 <1>  -0.5600 
  2 C       -2.2840     1.1030     0.2530 C.3   1 <1>   0.1200 
  3 C       -1.3720    -0.9010     1.0870 C.3   1 <1>   0.1200 
  4 C       -3.4640     0.3660    -0.4230 C.3   1 <1>   0.3430 
  5 C       -2.4720    -1.7380     0.3900 C.3   1 <1>   0.3430 
  6 N       -3.7460    -0.9550     0.2410 N.4   1 <1>  -0.9590 
  7 C       -4.8280    -1.7500    -0.4010 C.3   1 <1>   0.3430 
  8 C       -6.1840    -1.0660    -0.2110 C.3   1 <1>  -0.1600 
  9 C       -7.3090    -1.9410    -0.7840 C.3   1 <1>  -0.1600 
 10 C       -8.6830    -1.2770    -0.6280 C.3   1 <1>   0.1200 
 11 O       -9.6540    -2.0840    -1.2560 O.3   1 <1>  -0.3630 
 12 C      -10.1230    -3.2360    -0.7120 C.ar  1 <1>   0.0820 
 13 C      -10.8610    -4.0600    -1.5460 C.ar  1 <1>  -0.1500 
 14 C       -9.9080    -3.6230     0.6080 C.ar  1 <1>  -0.1500 
 15 C      -11.3720    -5.2580    -1.0800 C.ar  1 <1>  -0.1500 
 16 C      -10.4210    -4.8230     1.0720 C.ar  1 <1>  -0.1500 
 17 C      -11.1530    -5.6480     0.2320 C.ar  1 <1>  -0.1440 
 18 C      -11.7150    -6.9640     0.7460 C.3   1 <1>  -0.0170 
 19 C      -13.1150    -6.7580     1.3290 C.3   1 <1>  -0.2400 
 20 H       -1.4670     1.2300    -0.4360 H     1 <1>   0.0800 
 21 H       -2.5970     2.0780     0.5850 H     1 <1>   0.0800 
 22 H       -1.0900    -1.3610     2.0180 H     1 <1>   0.0800 
 23 H       -0.4940    -0.8330     0.4670 H     1 <1>   0.0800 
 24 H       -3.2310     0.2140    -1.4640 H     1 <1>   0.0800 
 25 H       -4.3370     0.9950    -0.3760 H     1 <1>   0.0800 
 26 H       -2.6500    -2.6300     0.9680 H     1 <1>   0.0800 
 27 H       -2.1140    -2.0460    -0.5780 H     1 <1>   0.0800 
 28 H       -4.0210    -0.7170     1.2070 H     1 <1>   0.4500 
 29 H       -4.8700    -2.7290     0.0490 H     1 <1>   0.0800 
 30 H       -4.6230    -1.8740    -1.4520 H     1 <1>   0.0800 
 31 H       -6.1960    -0.1170    -0.7180 H     1 <1>   0.0800 
 32 H       -6.3660    -0.9070     0.8380 H     1 <1>   0.0800 
 33 H       -7.3170    -2.8930    -0.2810 H     1 <1>   0.0800 
 34 H       -7.1340    -2.1130    -1.8320 H     1 <1>   0.0800 
 35 H       -8.6970    -0.3270    -1.1340 H     1 <1>   0.0800 
 36 H       -8.9600    -1.1190     0.3980 H     1 <1>   0.0800 
 37 H      -11.0320    -3.7570    -2.5630 H     1 <1>   0.1500 
 38 H       -9.3550    -3.0090     1.2890 H     1 <1>   0.1500 
 39 H      -11.9440    -5.8850    -1.7420 H     1 <1>   0.1500 
 40 H      -10.2530    -5.1130     2.0940 H     1 <1>   0.1500 
 41 H      -11.0640    -7.3660     1.5020 H     1 <1>   0.0800 
 42 H      -11.7610    -7.6770    -0.0590 H     1 <1>   0.0800 
 43 H      -13.0770    -6.0580     2.1450 H     1 <1>   0.0800 
 44 H      -13.5070    -7.6920     1.6900 H     1 <1>   0.0800 
 45 H      -13.7770    -6.3710     0.5750 H     1 <1>   0.0800 
@<TRIPOS>BOND
  1   1   2  1   
  2   1   3  1   
  3   2   4  1   
  4   2  20  1   
  5   2  21  1   
  6   3   5  1   
  7   3  22  1   
  8   3  23  1   
  9   4   6  1   
 10   4  24  1   
 11   4  25  1   
 12   5   6  1   
 13   5  26  1   
 14   5  27  1   
 15   6   7  1   
 16   6  28  1   
 17   7   8  1   
 18   7  29  1   
 19   7  30  1   
 20   8   9  1   
 21   8  31  1   
 22   8  32  1   
 23   9  10  1   
 24   9  33  1   
 25   9  34  1   
 26  10  11  1   
 27  10  35  1   
 28  10  36  1   
 29  11  12  1   
 30  12  13  ar  
 31  12  14  ar  
 32  13  15  ar  
 33  13  37  1   
 34  14  16  ar  
 35  14  38  1   
 36  15  17  ar  
 37  15  39  1   
 38  16  17  ar  
 39  16  40  1   
 40  17  18  1   
 41  18  19  1   
 42  18  41  1   
 43  18  42  1   
 44  19  43  1   
 45  19  44  1   
 46  19  45  1   
@<TRIPOS>SUBSTRUCTURE
  1 ****   9 GROUP 4 **** **** 0

# MOE 2024.06 (io_trps.svl 2023.06)
