@<TRIPOS>MOLECULE
NONAME
53 54 1 0 0 
SMALL
USER_CHARGES


@<TRIPOS>ATOM
  1 CL       2.9620     2.9620    -2.0990 Cl    1 <1>  -0.1770 
  2 C        1.7400     3.3070    -0.8930 C.ar  1 <1>   0.1770 
  3 C        2.0180     3.1130     0.4550 C.ar  1 <1>   0.0820 
  4 C        0.5160     3.7890    -1.3130 C.ar  1 <1>  -0.1500 
  5 O        3.2340     2.6340     0.8080 O.3   1 <1>  -0.3630 
  6 C        1.0330     3.4160     1.3870 C.ar  1 <1>  -0.1500 
  7 C       -0.4750     4.0980    -0.3870 C.ar  1 <1>  -0.0090 
  8 C        3.8400     3.0410     2.0270 C.3   1 <1>   0.1810 
  9 C       -0.1920     3.9020     0.9610 C.ar  1 <1>  -0.1500 
 10 S       -2.0880     4.7400    -0.9070 S.o2  1 <1>   1.4470 
 11 C        5.2910     2.5660     2.1240 C.2   1 <1>   0.5690 
 12 O       -3.1220     3.9360    -0.2980 O.2   1 <1>  -0.6500 
 13 O       -2.0790     4.9780    -2.3320 O.2   1 <1>  -0.6500 
 14 N       -2.0830     6.2840    -0.2440 N.am  1 <1>  -0.9140 
 15 O        5.6510     2.1510     3.1990 O.2   1 <1>  -0.5700 
 16 N        6.1740     2.6080     1.0630 N.am  1 <1>  -0.6600 
 17 C       -3.3330     6.9090     0.1460 C.3   1 <1>   0.2760 
 18 C        5.8700     3.2160    -0.2730 C.3   1 <1>   0.1400 
 19 C        7.4690     1.8580     1.1410 C.3   1 <1>   0.1400 
 20 C       -3.8290     6.3600     1.4810 C.3   1 <1>  -0.2400 
 21 C       -4.3900     6.8390    -0.9550 C.3   1 <1>  -0.2400 
 22 C        7.0820     3.9590    -0.8680 C.3   1 <1>   0.3430 
 23 C        8.6370     2.6560     0.5370 C.3   1 <1>   0.3430 
 24 N        8.3320     3.1230    -0.8620 N.4   1 <1>  -0.9590 
 25 C        9.4650     3.8660    -1.4730 C.3   1 <1>   0.3430 
 26 C       10.5920     2.8970    -1.8110 C.3   1 <1>  -0.2400 
 27 H        0.3350     3.9240    -2.3660 H     1 <1>   0.1500 
 28 H        1.1960     3.2680     2.4390 H     1 <1>   0.1500 
 29 H        3.2820     2.6130     2.8390 H     1 <1>   0.0800 
 30 H        3.8050     4.1130     2.0890 H     1 <1>   0.0800 
 31 H       -0.9540     4.1340     1.6890 H     1 <1>   0.1500 
 32 H       -1.7260     6.8440    -1.0150 H     1 <1>   0.4200 
 33 H       -3.1150     7.9530     0.3090 H     1 <1>   0.0800 
 34 H        5.0640     3.9220    -0.1880 H     1 <1>   0.0800 
 35 H        5.5540     2.4380    -0.9480 H     1 <1>   0.0800 
 36 H        7.3630     0.9220     0.6200 H     1 <1>   0.0800 
 37 H        7.7110     1.6260     2.1650 H     1 <1>   0.0800 
 38 H       -4.2000     5.3570     1.3880 H     1 <1>   0.0800 
 39 H       -4.6360     6.9710     1.8420 H     1 <1>   0.0800 
 40 H       -3.0380     6.3830     2.2080 H     1 <1>   0.0800 
 41 H       -4.7540     5.8360    -1.0890 H     1 <1>   0.0800 
 42 H       -3.9930     7.2020    -1.8860 H     1 <1>   0.0800 
 43 H       -5.2290     7.4550    -0.6850 H     1 <1>   0.0800 
 44 H        7.2470     4.8550    -0.2920 H     1 <1>   0.0800 
 45 H        6.8460     4.2570    -1.8770 H     1 <1>   0.0800 
 46 H        9.5160     2.0330     0.5360 H     1 <1>   0.0800 
 47 H        8.8340     3.5050     1.1700 H     1 <1>   0.0800 
 48 H        8.1490     2.2900    -1.4380 H     1 <1>   0.4500 
 49 H        9.8190     4.6290    -0.7980 H     1 <1>   0.0800 
 50 H        9.1360     4.3460    -2.3820 H     1 <1>   0.0800 
 51 H       11.0200     2.4630    -0.9260 H     1 <1>   0.0800 
 52 H       11.3740     3.4340    -2.3180 H     1 <1>   0.0800 
 53 H       10.2460     2.1200    -2.4690 H     1 <1>   0.0800 
@<TRIPOS>BOND
  1   1   2  1   
  2   2   3  ar  
  3   2   4  ar  
  4   3   5  1   
  5   3   6  ar  
  6   4   7  ar  
  7   4  27  1   
  8   5   8  1   
  9   6   9  ar  
 10   6  28  1   
 11   7   9  ar  
 12   7  10  1   
 13   8  11  1   
 14   8  29  1   
 15   8  30  1   
 16   9  31  1   
 17  10  12  2   
 18  10  13  2   
 19  10  14  am  
 20  11  15  2   
 21  11  16  am  
 22  14  17  1   
 23  14  32  1   
 24  16  18  1   
 25  16  19  1   
 26  17  20  1   
 27  17  21  1   
 28  17  33  1   
 29  18  22  1   
 30  18  34  1   
 31  18  35  1   
 32  19  23  1   
 33  19  36  1   
 34  19  37  1   
 35  20  38  1   
 36  20  39  1   
 37  20  40  1   
 38  21  41  1   
 39  21  42  1   
 40  21  43  1   
 41  22  24  1   
 42  22  44  1   
 43  22  45  1   
 44  23  24  1   
 45  23  46  1   
 46  23  47  1   
 47  24  25  1   
 48  24  48  1   
 49  25  26  1   
 50  25  49  1   
 51  25  50  1   
 52  26  51  1   
 53  26  52  1   
 54  26  53  1   
@<TRIPOS>SUBSTRUCTURE
  1 ****   3 GROUP 4 **** **** 0

# MOE 2024.06 (io_trps.svl 2023.06)
