@<TRIPOS>MOLECULE
NONAME
53 55 1 0 0 
SMALL
USER_CHARGES


@<TRIPOS>ATOM
  1 O       -0.3790     0.2280     1.0610 O.2   1 <1>  -0.5700 
  2 C       -0.8470     1.1890     0.4840 C.2   1 <1>   0.6900 
  3 N       -2.1740     1.1740     0.1210 N.am  1 <1>  -0.6600 
  4 N       -0.0890     2.2910     0.2110 N.am  1 <1>  -0.5470 
  5 C       -3.0410     0.0480     0.5950 C.3   1 <1>   0.1400 
  6 C       -2.7070     1.9400    -1.0480 C.3   1 <1>   0.1400 
  7 C        1.3000     2.4800     0.2580 C.ar  1 <1>   0.1170 
  8 C       -4.5040     0.4870     0.7720 C.3   1 <1>   0.3430 
  9 C       -4.1840     2.3360    -0.8440 C.3   1 <1>   0.3430 
 10 C        2.2060     1.4330     0.1280 C.ar  1 <1>  -0.1500 
 11 C        1.7960     3.7680     0.4170 C.ar  1 <1>  -0.1500 
 12 N       -5.0460     1.1620    -0.4650 N.4   1 <1>  -0.9590 
 13 C        3.5710     1.6610     0.1580 C.ar  1 <1>  -0.1430 
 14 C        3.1590     4.0120     0.4470 C.ar  1 <1>  -0.1430 
 15 C       -6.4860     1.5430    -0.3790 C.3   1 <1>   0.4230 
 16 C        4.0420     2.9540     0.3160 C.ar  1 <1>  -0.1500 
 17 C        4.5460     0.5060     0.0180 C.3   1 <1>  -0.0970 
 18 C        3.6970     5.4210     0.6220 C.3   1 <1>  -0.0970 
 19 C       -6.7960     2.4330     0.8380 C.3   1 <1>  -0.1600 
 20 C       -7.3630     0.2840    -0.3760 C.3   1 <1>  -0.1600 
 21 C       -8.2830     2.8160     0.8610 C.3   1 <1>  -0.1600 
 22 C       -8.8520     0.6600    -0.3530 C.3   1 <1>  -0.1600 
 23 C       -9.1780     1.5700     0.8390 C.3   1 <1>  -0.1600 
 24 H       -0.6230     3.1420     0.1020 H     1 <1>   0.3700 
 25 H       -2.6800    -0.3190     1.5420 H     1 <1>   0.0800 
 26 H       -2.9820    -0.7640    -0.1090 H     1 <1>   0.0800 
 27 H       -2.6180     1.3310    -1.9320 H     1 <1>   0.0800 
 28 H       -2.1290     2.8310    -1.2130 H     1 <1>   0.0800 
 29 H       -4.5530     1.1650     1.6080 H     1 <1>   0.0800 
 30 H       -5.0990    -0.3780     1.0140 H     1 <1>   0.0800 
 31 H       -4.5550     2.7830    -1.7520 H     1 <1>   0.0800 
 32 H       -4.2300     3.0820    -0.0680 H     1 <1>   0.0800 
 33 H        1.8420     0.4300    -0.0010 H     1 <1>   0.1500 
 34 H        1.1120     4.5880     0.5220 H     1 <1>   0.1500 
 35 H       -4.9730     0.4770    -1.2280 H     1 <1>   0.4500 
 36 H       -6.7430     2.1040    -1.2630 H     1 <1>   0.0800 
 37 H        5.1020     3.1370     0.3380 H     1 <1>   0.1500 
 38 H        4.0820    -0.4170     0.3150 H     1 <1>   0.0800 
 39 H        5.4070     0.6670     0.6400 H     1 <1>   0.0800 
 40 H        4.8630     0.4210    -1.0050 H     1 <1>   0.0800 
 41 H        2.9020     6.1180     0.8120 H     1 <1>   0.0800 
 42 H        4.2180     5.7250    -0.2680 H     1 <1>   0.0800 
 43 H        4.3800     5.4500     1.4520 H     1 <1>   0.0800 
 44 H       -6.2150     3.3370     0.8030 H     1 <1>   0.0800 
 45 H       -6.5750     1.9150     1.7540 H     1 <1>   0.0800 
 46 H       -7.1580    -0.3180     0.4910 H     1 <1>   0.0800 
 47 H       -7.1710    -0.3010    -1.2570 H     1 <1>   0.0800 
 48 H       -8.5140     3.4350     0.0100 H     1 <1>   0.0800 
 49 H       -8.4960     3.3920     1.7470 H     1 <1>   0.0800 
 50 H       -9.4520    -0.2340    -0.2930 H     1 <1>   0.0800 
 51 H       -9.1160     1.1650    -1.2680 H     1 <1>   0.0800 
 52 H      -10.2110     1.8710     0.7880 H     1 <1>   0.0800 
 53 H       -9.0490     1.0190     1.7560 H     1 <1>   0.0800 
@<TRIPOS>BOND
  1   1   2  2   
  2   2   3  am  
  3   2   4  am  
  4   3   5  1   
  5   3   6  1   
  6   4   7  1   
  7   4  24  1   
  8   5   8  1   
  9   5  25  1   
 10   5  26  1   
 11   6   9  1   
 12   6  27  1   
 13   6  28  1   
 14   7  10  ar  
 15   7  11  ar  
 16   8  12  1   
 17   8  29  1   
 18   8  30  1   
 19   9  12  1   
 20   9  31  1   
 21   9  32  1   
 22  10  13  ar  
 23  10  33  1   
 24  11  14  ar  
 25  11  34  1   
 26  12  15  1   
 27  12  35  1   
 28  13  16  ar  
 29  13  17  1   
 30  14  16  ar  
 31  14  18  1   
 32  15  19  1   
 33  15  20  1   
 34  15  36  1   
 35  16  37  1   
 36  17  38  1   
 37  17  39  1   
 38  17  40  1   
 39  18  41  1   
 40  18  42  1   
 41  18  43  1   
 42  19  21  1   
 43  19  44  1   
 44  19  45  1   
 45  20  22  1   
 46  20  46  1   
 47  20  47  1   
 48  21  23  1   
 49  21  48  1   
 50  21  49  1   
 51  22  23  1   
 52  22  50  1   
 53  22  51  1   
 54  23  52  1   
 55  23  53  1   
@<TRIPOS>SUBSTRUCTURE
  1 ****   3 GROUP 4 **** **** 0

# MOE 2024.06 (io_trps.svl 2023.06)
