@<TRIPOS>MOLECULE
NONAME
57 58 1 0 0 
SMALL
USER_CHARGES


@<TRIPOS>ATOM
  1 BR       2.1650     1.5260     2.9560 Br    1 <1>  -0.1110 
  2 C        1.1870     2.5640     1.6540 C.ar  1 <1>   0.1110 
  3 C        1.8310     2.9880     0.5000 C.ar  1 <1>   0.0830 
  4 C       -0.1380     2.8540     1.9160 C.ar  1 <1>  -0.1500 
  5 O        3.1360     2.6510     0.3330 O.3   1 <1>  -0.3630 
  6 C        1.0980     3.7330    -0.4180 C.ar  1 <1>  -0.1500 
  7 C       -0.8630     3.5980     0.9970 C.ar  1 <1>  -0.1430 
  8 C        3.8680     3.0450    -0.8190 C.3   1 <1>   0.1810 
  9 C       -0.2330     4.0310    -0.1650 C.ar  1 <1>  -0.1500 
 10 C       -2.3280     3.9260     1.2750 C.3   1 <1>   0.0640 
 11 C        5.3010     2.5310    -0.7380 C.2   1 <1>   0.5690 
 12 C       -3.2370     3.3160     0.2030 C.3   1 <1>  -0.2400 
 13 C       -2.5400     5.4400     1.3720 C.3   1 <1>  -0.2400 
 14 O        6.0620     2.7800    -1.6430 O.2   1 <1>  -0.5700 
 15 N        5.6820     1.8050     0.3530 N.am  1 <1>  -0.7300 
 16 C        6.9940     1.2050     0.6590 C.3   1 <1>   0.2200 
 17 C        8.0600     2.2990     0.7540 C.3   1 <1>  -0.1600 
 18 C        7.3650     0.1800    -0.4140 C.3   1 <1>  -0.1600 
 19 C        9.4640     1.7350     0.9950 C.3   1 <1>   0.5030 
 20 C        8.7550    -0.4260    -0.1960 C.3   1 <1>   0.5030 
 21 N        9.7490     0.6240     0.0740 N.4   1 <1>  -0.9060 
 22 C        9.6680     1.2960     2.4480 C.3   1 <1>  -0.2400 
 23 C       10.5060     2.8060     0.6750 C.3   1 <1>  -0.2400 
 24 C        8.7600    -1.4720     0.9220 C.3   1 <1>  -0.2400 
 25 C        9.2220    -1.1070    -1.4820 C.3   1 <1>  -0.2400 
 26 H       -0.5860     2.5000     2.8270 H     1 <1>   0.1500 
 27 H        1.5360     4.0920    -1.3300 H     1 <1>   0.1500 
 28 H        3.8750     4.1180    -0.8700 H     1 <1>   0.0800 
 29 H        3.3880     2.6340    -1.6870 H     1 <1>   0.0800 
 30 H       -0.7830     4.6090    -0.8870 H     1 <1>   0.1500 
 31 H       -2.6060     3.4960     2.2220 H     1 <1>   0.0800 
 32 H       -3.0400     3.7500    -0.7610 H     1 <1>   0.0800 
 33 H       -4.2700     3.4860     0.4510 H     1 <1>   0.0800 
 34 H       -3.0700     2.2550     0.1430 H     1 <1>   0.0800 
 35 H       -2.3280     5.9200     0.4330 H     1 <1>   0.0800 
 36 H       -1.8900     5.8530     2.1230 H     1 <1>   0.0800 
 37 H       -3.5570     5.6570     1.6450 H     1 <1>   0.0800 
 38 H        4.9470     1.6580     1.0570 H     1 <1>   0.3700 
 39 H        6.9090     0.7090     1.6110 H     1 <1>   0.0800 
 40 H        7.8030     2.9780     1.5470 H     1 <1>   0.0800 
 41 H        8.0710     2.8650    -0.1600 H     1 <1>   0.0800 
 42 H        7.3450     0.6520    -1.3790 H     1 <1>   0.0800 
 43 H        6.6280    -0.6040    -0.4280 H     1 <1>   0.0800 
 44 H       10.6220     0.1800     0.3610 H     1 <1>   0.4500 
 45 H        9.9330     1.0630    -0.8320 H     1 <1>   0.4500 
 46 H        8.8720     0.6760     2.8060 H     1 <1>   0.0800 
 47 H        9.6840     2.1620     3.0870 H     1 <1>   0.0800 
 48 H       10.6050     0.7830     2.5730 H     1 <1>   0.0800 
 49 H       10.4290     3.1360    -0.3470 H     1 <1>   0.0800 
 50 H       11.5040     2.4470     0.8550 H     1 <1>   0.0800 
 51 H       10.3510     3.6670     1.3030 H     1 <1>   0.0800 
 52 H        8.2820    -1.1230     1.8140 H     1 <1>   0.0800 
 53 H        9.7610    -1.7920     1.1540 H     1 <1>   0.0800 
 54 H        8.2080    -2.3400     0.6050 H     1 <1>   0.0800 
 55 H        9.2660    -0.4110    -2.3010 H     1 <1>   0.0800 
 56 H        8.5310    -1.8850    -1.7570 H     1 <1>   0.0800 
 57 H       10.1890    -1.5620    -1.3540 H     1 <1>   0.0800 
@<TRIPOS>BOND
  1   1   2  1   
  2   2   3  ar  
  3   2   4  ar  
  4   3   5  1   
  5   3   6  ar  
  6   4   7  ar  
  7   4  26  1   
  8   5   8  1   
  9   6   9  ar  
 10   6  27  1   
 11   7   9  ar  
 12   7  10  1   
 13   8  11  1   
 14   8  28  1   
 15   8  29  1   
 16   9  30  1   
 17  10  12  1   
 18  10  13  1   
 19  10  31  1   
 20  11  14  2   
 21  11  15  am  
 22  12  32  1   
 23  12  33  1   
 24  12  34  1   
 25  13  35  1   
 26  13  36  1   
 27  13  37  1   
 28  15  16  1   
 29  15  38  1   
 30  16  17  1   
 31  16  18  1   
 32  16  39  1   
 33  17  19  1   
 34  17  40  1   
 35  17  41  1   
 36  18  20  1   
 37  18  42  1   
 38  18  43  1   
 39  19  21  1   
 40  19  22  1   
 41  19  23  1   
 42  20  21  1   
 43  20  24  1   
 44  20  25  1   
 45  21  44  1   
 46  21  45  1   
 47  22  46  1   
 48  22  47  1   
 49  22  48  1   
 50  23  49  1   
 51  23  50  1   
 52  23  51  1   
 53  24  52  1   
 54  24  53  1   
 55  24  54  1   
 56  25  55  1   
 57  25  56  1   
 58  25  57  1   
@<TRIPOS>SUBSTRUCTURE
  1 ****   5 GROUP 4 **** **** 0

# MOE 2024.06 (io_trps.svl 2023.06)
