@<TRIPOS>MOLECULE
NONAME
48 50 1 0 0 
SMALL
USER_CHARGES


@<TRIPOS>ATOM
  1 BR       1.6140    -2.6130     3.4410 Br    1 <1>  -0.1110 
  2 C        0.5500    -2.8330     1.8520 C.ar  1 <1>   0.1110 
  3 C       -0.6310    -3.5430     1.9390 C.ar  1 <1>  -0.1500 
  4 C        0.9940    -2.2750     0.6700 C.ar  1 <1>  -0.1500 
  5 C       -1.4020    -3.7000     0.7970 C.ar  1 <1>  -0.1440 
  6 C        0.2240    -2.4340    -0.4690 C.ar  1 <1>  -0.1500 
  7 C       -0.9760    -3.1460    -0.4110 C.ar  1 <1>   0.0830 
  8 C       -2.7050    -4.4740     0.8640 C.3   1 <1>   0.4870 
  9 O       -1.7770    -3.3250    -1.4970 O.3   1 <1>  -0.3630 
 10 N       -3.8110    -3.5670     0.4810 N.4   1 <1>  -0.9590 
 11 C       -1.3270    -2.9960    -2.7980 C.3   1 <1>   0.0400 
 12 C       -3.9800    -2.4190     1.4450 C.3   1 <1>   0.3430 
 13 C       -5.1090    -4.2930     0.2530 C.3   1 <1>   0.3430 
 14 C       -5.1130    -1.4630     1.0240 C.3   1 <1>   0.2090 
 15 C       -6.2440    -3.3410    -0.1730 C.3   1 <1>   0.2090 
 16 N       -6.3850    -2.2100     0.7920 N.pl3 1 <1>  -0.8380 
 17 C       -7.5050    -1.3950     0.5710 C.ar  1 <1>   0.1000 
 18 C       -7.6690    -0.5740    -0.5610 C.ar  1 <1>   0.0830 
 19 C       -8.5020    -1.4100     1.5360 C.ar  1 <1>  -0.1500 
 20 O       -6.6780    -0.5640    -1.5090 O.3   1 <1>  -0.3630 
 21 C       -8.8210     0.1990    -0.6860 C.ar  1 <1>  -0.1500 
 22 C       -9.6420    -0.6390     1.4030 C.ar  1 <1>  -0.1500 
 23 C       -6.7710     0.2570    -2.6530 C.3   1 <1>   0.0400 
 24 C       -9.8010     0.1660     0.2910 C.ar  1 <1>  -0.1500 
 25 H       -0.9210    -3.9600     2.8890 H     1 <1>   0.1500 
 26 H        1.9220    -1.7290     0.6450 H     1 <1>   0.1500 
 27 H        0.5770    -1.9950    -1.3840 H     1 <1>   0.1500 
 28 H       -2.8620    -4.8600     1.8580 H     1 <1>   0.0800 
 29 H       -2.6530    -5.3020     0.1750 H     1 <1>   0.0800 
 30 H       -3.5050    -3.1610    -0.4190 H     1 <1>   0.4500 
 31 H       -2.0760    -3.3050    -3.5040 H     1 <1>   0.0800 
 32 H       -0.4060    -3.5180    -2.9940 H     1 <1>   0.0800 
 33 H       -1.1840    -1.9310    -2.8640 H     1 <1>   0.0800 
 34 H       -3.0610    -1.8610     1.5160 H     1 <1>   0.0800 
 35 H       -4.2120    -2.8010     2.4250 H     1 <1>   0.0800 
 36 H       -5.4120    -4.7860     1.1610 H     1 <1>   0.0800 
 37 H       -4.9810    -5.0450    -0.5080 H     1 <1>   0.0800 
 38 H       -4.8250    -0.9380     0.1300 H     1 <1>   0.0800 
 39 H       -5.2700    -0.7320     1.7980 H     1 <1>   0.0800 
 40 H       -7.1730    -3.8850    -0.2130 H     1 <1>   0.0800 
 41 H       -6.0440    -2.9600    -1.1590 H     1 <1>   0.0800 
 42 H       -8.3780    -2.0360     2.4000 H     1 <1>   0.1500 
 43 H       -8.9830     0.8360    -1.5340 H     1 <1>   0.1500 
 44 H      -10.4030    -0.6660     2.1630 H     1 <1>   0.1500 
 45 H       -5.8850     0.1110    -3.2450 H     1 <1>   0.0800 
 46 H       -6.8340     1.2850    -2.3420 H     1 <1>   0.0800 
 47 H       -7.6390    -0.0280    -3.2200 H     1 <1>   0.0800 
 48 H      -10.6880     0.7660     0.1860 H     1 <1>   0.1500 
@<TRIPOS>BOND
  1   1   2  1   
  2   2   3  ar  
  3   2   4  ar  
  4   3   5  ar  
  5   3  25  1   
  6   4   6  ar  
  7   4  26  1   
  8   5   7  ar  
  9   5   8  1   
 10   6   7  ar  
 11   6  27  1   
 12   7   9  1   
 13   8  10  1   
 14   8  28  1   
 15   8  29  1   
 16   9  11  1   
 17  10  12  1   
 18  10  13  1   
 19  10  30  1   
 20  11  31  1   
 21  11  32  1   
 22  11  33  1   
 23  12  14  1   
 24  12  34  1   
 25  12  35  1   
 26  13  15  1   
 27  13  36  1   
 28  13  37  1   
 29  14  16  1   
 30  14  38  1   
 31  14  39  1   
 32  15  16  1   
 33  15  40  1   
 34  15  41  1   
 35  16  17  1   
 36  17  18  ar  
 37  17  19  ar  
 38  18  20  1   
 39  18  21  ar  
 40  19  22  ar  
 41  19  42  1   
 42  20  23  1   
 43  21  24  ar  
 44  21  43  1   
 45  22  24  ar  
 46  22  44  1   
 47  23  45  1   
 48  23  46  1   
 49  23  47  1   
 50  24  48  1   
@<TRIPOS>SUBSTRUCTURE
  1 ****  12 GROUP 4 **** **** 0

# MOE 2024.06 (io_trps.svl 2023.06)
