@<TRIPOS>MOLECULE
NONAME
41 43 1 0 0 
SMALL
USER_CHARGES


@<TRIPOS>ATOM
  1 O        0.9220     0.4320    -0.6250 O.2   1 <1>  -0.5700 
  2 C        1.5620    -0.4920    -0.2210 C.2   1 <1>   0.4480 
  3 C        1.3290    -1.9320    -0.6540 C.3   1 <1>  -0.0190 
  4 C        2.6870    -0.3560     0.7960 C.3   1 <1>  -0.0190 
  5 C        2.6330    -2.4760    -1.2740 C.3   1 <1>  -0.1600 
  6 C        0.9700    -2.7580     0.5970 C.3   1 <1>  -0.1600 
  7 C        3.9800    -0.9150     0.1720 C.3   1 <1>  -0.1600 
  8 C        2.3250    -1.1900     2.0390 C.3   1 <1>  -0.1600 
  9 C        3.8150    -2.3980    -0.2660 C.3   1 <1>   0.0610 
 10 C        2.1110    -2.6600     1.6310 C.3   1 <1>  -0.0800 
 11 C        5.1420    -2.8350    -0.9530 C.2   1 <1>   0.5690 
 12 C        3.4030    -3.2050     0.9950 C.3   1 <1>  -0.1600 
 13 O        5.4220    -2.2540    -1.9790 O.2   1 <1>  -0.5700 
 14 N        6.0280    -3.7620    -0.4390 N.am  1 <1>  -0.6600 
 15 C        5.6750    -5.1470    -0.0180 C.3   1 <1>   0.1400 
 16 C        7.4840    -3.5820    -0.7030 C.3   1 <1>   0.1400 
 17 C        4.8790    -5.8540    -1.1140 C.3   1 <1>  -0.2400 
 18 C        8.2180    -3.3830     0.6220 C.3   1 <1>  -0.2400 
 19 H        0.5280    -1.9680    -1.3710 H     1 <1>   0.0800 
 20 H        2.8130     0.6790     1.0600 H     1 <1>   0.0800 
 21 H        2.8660    -1.8950    -2.1510 H     1 <1>   0.0800 
 22 H        2.4880    -3.4920    -1.5930 H     1 <1>   0.0800 
 23 H        0.8060    -3.7860     0.3220 H     1 <1>   0.0800 
 24 H        0.0560    -2.3830     1.0260 H     1 <1>   0.0800 
 25 H        4.7890    -0.8340     0.8770 H     1 <1>   0.0800 
 26 H        4.2390    -0.3120    -0.6830 H     1 <1>   0.0800 
 27 H        3.1120    -1.1200     2.7700 H     1 <1>   0.0800 
 28 H        1.4260    -0.8000     2.4850 H     1 <1>   0.0800 
 29 H        1.8600    -3.2430     2.5010 H     1 <1>   0.0800 
 30 H        4.1980    -3.1760     1.7200 H     1 <1>   0.0800 
 31 H        3.2230    -4.2290     0.7290 H     1 <1>   0.0800 
 32 H        5.1400    -5.1380     0.9130 H     1 <1>   0.0800 
 33 H        6.5760    -5.7110     0.1550 H     1 <1>   0.0800 
 34 H        7.6530    -2.7190    -1.3240 H     1 <1>   0.0800 
 35 H        7.8700    -4.4410    -1.2260 H     1 <1>   0.0800 
 36 H        4.6960    -6.8730    -0.8280 H     1 <1>   0.0800 
 37 H        3.9320    -5.3750    -1.2760 H     1 <1>   0.0800 
 38 H        5.4370    -5.8520    -2.0330 H     1 <1>   0.0800 
 39 H        7.8290    -2.5200     1.1310 H     1 <1>   0.0800 
 40 H        9.2640    -3.2240     0.4320 H     1 <1>   0.0800 
 41 H        8.1150    -4.2470     1.2520 H     1 <1>   0.0800 
@<TRIPOS>BOND
  1   1   2  2   
  2   2   3  1   
  3   2   4  1   
  4   3   5  1   
  5   3   6  1   
  6   3  19  1   
  7   4   7  1   
  8   4   8  1   
  9   4  20  1   
 10   5   9  1   
 11   5  21  1   
 12   5  22  1   
 13   6  10  1   
 14   6  23  1   
 15   6  24  1   
 16   7   9  1   
 17   7  25  1   
 18   7  26  1   
 19   8  10  1   
 20   8  27  1   
 21   8  28  1   
 22   9  11  1   
 23   9  12  1   
 24  10  12  1   
 25  10  29  1   
 26  11  13  2   
 27  11  14  am  
 28  12  30  1   
 29  12  31  1   
 30  14  15  1   
 31  14  16  1   
 32  15  17  1   
 33  15  32  1   
 34  15  33  1   
 35  16  18  1   
 36  16  34  1   
 37  16  35  1   
 38  17  36  1   
 39  17  37  1   
 40  17  38  1   
 41  18  39  1   
 42  18  40  1   
 43  18  41  1   
@<TRIPOS>SUBSTRUCTURE
  1 ****   9 GROUP 4 **** **** 0

# MOE 2024.06 (io_trps.svl 2023.06)
