@<TRIPOS>MOLECULE
NONAME
39 40 1 0 0 
SMALL
USER_CHARGES


@<TRIPOS>ATOM
  1 O       -0.3970    -0.3070    -0.0170 O.3   1 <1>  -0.3630 
  2 C       -1.5770    -0.9210     0.2370 C.ar  1 <1>   0.0830 
  3 C        0.4260    -0.6990    -1.0910 C.3   1 <1>   0.1200 
  4 C       -2.1210    -1.9230    -0.5600 C.ar  1 <1>  -0.1500 
  5 C       -2.2610    -0.5060     1.3670 C.ar  1 <1>  -0.1500 
  6 C        1.6840     0.1630    -1.0610 C.3   1 <1>  -0.2400 
  7 C       -3.3380    -2.4910    -0.2260 C.ar  1 <1>  -0.1500 
  8 C       -3.4760    -1.0740     1.7030 C.ar  1 <1>  -0.1500 
  9 C       -4.0270    -2.0650     0.9020 C.ar  1 <1>  -0.1430 
 10 C       -5.3730    -2.6660     1.2540 C.3   1 <1>   0.4860 
 11 N       -6.3980    -2.1110     0.3260 N.4   1 <1>  -0.9590 
 12 C       -6.5330    -0.6290     0.4850 C.3   1 <1>   0.3430 
 13 C       -7.6990    -2.8280     0.4630 C.3   1 <1>   0.3430 
 14 C       -7.5080    -0.0810    -0.5530 C.3   1 <1>  -0.1600 
 15 C       -8.6890    -2.3110    -0.5770 C.3   1 <1>  -0.1600 
 16 C       -8.8490    -0.8000    -0.4450 C.3   1 <1>   0.2000 
 17 O       -9.6700    -0.3550    -1.4510 O.3   1 <1>  -0.6800 
 18 H       -0.1150    -0.5490    -2.0090 H     1 <1>   0.0800 
 19 H        0.6760    -1.7390    -0.9680 H     1 <1>   0.0800 
 20 H       -1.6080    -2.2700    -1.4380 H     1 <1>   0.1500 
 21 H       -1.8260     0.2630     1.9810 H     1 <1>   0.1500 
 22 H        1.4240     1.2010    -1.1670 H     1 <1>   0.0800 
 23 H        2.3350    -0.1120    -1.8700 H     1 <1>   0.0800 
 24 H        2.2090     0.0180    -0.1340 H     1 <1>   0.0800 
 25 H       -3.7320    -3.2700    -0.8570 H     1 <1>   0.1500 
 26 H       -3.9770    -0.7320     2.5930 H     1 <1>   0.1500 
 27 H       -5.6250    -2.4320     2.2760 H     1 <1>   0.0800 
 28 H       -5.3180    -3.7380     1.1520 H     1 <1>   0.0800 
 29 H       -6.0340    -2.2710    -0.6220 H     1 <1>   0.4500 
 30 H       -5.5740    -0.1510     0.3560 H     1 <1>   0.0800 
 31 H       -6.8940    -0.3980     1.4750 H     1 <1>   0.0800 
 32 H       -8.1020    -2.6670     1.4510 H     1 <1>   0.0800 
 33 H       -7.5570    -3.8890     0.3250 H     1 <1>   0.0800 
 34 H       -7.0870    -0.2020    -1.5350 H     1 <1>   0.0800 
 35 H       -7.6530     0.9700    -0.3740 H     1 <1>   0.0800 
 36 H       -9.6430    -2.7840    -0.4170 H     1 <1>   0.0800 
 37 H       -8.3430    -2.5730    -1.5610 H     1 <1>   0.0800 
 38 H       -9.3300    -0.5560     0.4890 H     1 <1>   0.0800 
 39 H       -9.2920    -0.5220    -2.3360 H     1 <1>   0.4000 
@<TRIPOS>BOND
  1   1   2  1   
  2   1   3  1   
  3   2   4  ar  
  4   2   5  ar  
  5   3   6  1   
  6   3  18  1   
  7   3  19  1   
  8   4   7  ar  
  9   4  20  1   
 10   5   8  ar  
 11   5  21  1   
 12   6  22  1   
 13   6  23  1   
 14   6  24  1   
 15   7   9  ar  
 16   7  25  1   
 17   8   9  ar  
 18   8  26  1   
 19   9  10  1   
 20  10  11  1   
 21  10  27  1   
 22  10  28  1   
 23  11  12  1   
 24  11  13  1   
 25  11  29  1   
 26  12  14  1   
 27  12  30  1   
 28  12  31  1   
 29  13  15  1   
 30  13  32  1   
 31  13  33  1   
 32  14  16  1   
 33  14  34  1   
 34  14  35  1   
 35  15  16  1   
 36  15  36  1   
 37  15  37  1   
 38  16  17  1   
 39  16  38  1   
 40  17  39  1   
@<TRIPOS>SUBSTRUCTURE
  1 ****   9 GROUP 4 **** **** 0

# MOE 2024.06 (io_trps.svl 2023.06)
