@<TRIPOS>MOLECULE
NONAME
26 27 1 0 0 
SMALL
USER_CHARGES


@<TRIPOS>ATOM
  1 N       -1.8080     1.5920    -0.0320 N.ar  1 <1>  -0.5670 
  2 C       -3.0830     1.8680     0.0460 C.ar  1 <1>   0.1670 
  3 C       -1.0040     2.6730    -0.0780 C.ar  1 <1>   0.1050 
  4 C       -3.6090     3.1700     0.0810 C.ar  1 <1>  -0.1500 
  5 C       -4.0260     0.6830     0.0990 C.3   1 <1>  -0.0960 
  6 N        0.3550     2.6930    -0.1590 N.pl3 1 <1>   0.3140 
  7 C       -1.4080     3.9930    -0.0500 C.ar  1 <1>   0.0000 
  8 C       -2.7810     4.2630     0.0340 C.ar  1 <1>  -0.1440 
  9 N        0.8450     3.9540    -0.1860 N.2   1 <1>  -0.7070 
 10 C        1.2270     1.5150    -0.2150 C.3   1 <1>   0.0160 
 11 C       -0.1960     4.7140    -0.1210 C.2   1 <1>   0.1080 
 12 C       -3.3230     5.6810     0.0700 C.3   1 <1>  -0.0970 
 13 C       -0.0740     6.2210    -0.1240 C.3   1 <1>  -0.0590 
 14 H       -4.6730     3.2980     0.1450 H     1 <1>   0.1500 
 15 H       -3.7940     0.0810     0.9590 H     1 <1>   0.0800 
 16 H       -3.9000     0.0860    -0.7850 H     1 <1>   0.0800 
 17 H       -5.0500     1.0010     0.1620 H     1 <1>   0.0800 
 18 H        0.9710     0.9330    -1.0800 H     1 <1>   0.0800 
 19 H        1.0780     0.9290     0.6730 H     1 <1>   0.0800 
 20 H        2.2500     1.8330    -0.2770 H     1 <1>   0.0800 
 21 H       -4.3960     5.6770     0.1350 H     1 <1>   0.0800 
 22 H       -3.0390     6.2050    -0.8240 H     1 <1>   0.0800 
 23 H       -2.9330     6.2010     0.9260 H     1 <1>   0.0800 
 24 H       -0.5930     6.6270    -0.9720 H     1 <1>   0.0800 
 25 H        0.9610     6.5030    -0.1860 H     1 <1>   0.0800 
 26 H       -0.4870     6.6230     0.7810 H     1 <1>   0.0800 
@<TRIPOS>BOND
  1   1   2  ar  
  2   1   3  ar  
  3   2   4  ar  
  4   2   5  1   
  5   3   6  1   
  6   3   7  ar  
  7   4   8  ar  
  8   4  14  1   
  9   5  15  1   
 10   5  16  1   
 11   5  17  1   
 12   6   9  1   
 13   6  10  1   
 14   7   8  ar  
 15   7  11  1   
 16   8  12  1   
 17   9  11  2   
 18  10  18  1   
 19  10  19  1   
 20  10  20  1   
 21  11  13  1   
 22  12  21  1   
 23  12  22  1   
 24  12  23  1   
 25  13  24  1   
 26  13  25  1   
 27  13  26  1   
@<TRIPOS>SUBSTRUCTURE
  1 ****   7 GROUP 4 **** **** 0

# MOE 2024.06 (io_trps.svl 2023.06)
