@<TRIPOS>MOLECULE
NONAME
50 52 1 0 0 
SMALL
USER_CHARGES


@<TRIPOS>ATOM
  1 O       -6.4980    -0.7240    -1.7110 O.3   1 <1>  -0.6800 
  2 C       -6.2080    -1.4740    -0.5980 C.3   1 <1>   0.7670 
  3 C       -5.0000    -2.2760    -0.9560 C.1   1 <1>  -0.2000 
  4 C       -5.7730    -0.5640     0.5670 C.ar  1 <1>  -0.1440 
  5 C       -7.4720    -2.2950    -0.2990 C.ar  1 <1>  -0.1440 
  6 C       -3.9090    -2.7260    -1.1090 C.1   1 <1>  -0.2000 
  7 C       -5.3830     0.7600     0.3770 C.ar  1 <1>  -0.1500 
  8 C       -5.7310    -1.0830     1.8580 C.ar  1 <1>  -0.1500 
  9 C       -7.5680    -3.6580    -0.5690 C.ar  1 <1>  -0.1500 
 10 C       -8.5770    -1.6530     0.2510 C.ar  1 <1>  -0.1500 
 11 C       -2.4490    -3.0190    -1.1420 C.3   1 <1>   0.7030 
 12 C       -4.9640     1.5370     1.4430 C.ar  1 <1>  -0.1500 
 13 C       -5.3100    -0.3090     2.9240 C.ar  1 <1>  -0.1500 
 14 C       -8.7310    -4.3550    -0.2880 C.ar  1 <1>  -0.1500 
 15 C       -9.7390    -2.3480     0.5320 C.ar  1 <1>  -0.1500 
 16 N       -1.7300    -1.8810    -0.5100 N.4   1 <1>  -0.9590 
 17 C       -1.9740    -3.1810    -2.5850 C.3   1 <1>  -0.2400 
 18 C       -2.1520    -4.2980    -0.3610 C.3   1 <1>  -0.2400 
 19 C       -4.9260     1.0030     2.7180 C.ar  1 <1>  -0.1500 
 20 C       -9.8170    -3.7020     0.2630 C.ar  1 <1>  -0.1500 
 21 C       -2.0970    -1.6140     0.9090 C.3   1 <1>   0.3430 
 22 C       -1.9210    -0.5690    -1.1900 C.3   1 <1>   0.3430 
 23 C       -1.5390    -0.2290     1.1910 C.3   1 <1>  -0.1600 
 24 C       -1.4860     0.4720    -0.1670 C.3   1 <1>  -0.1600 
 25 H       -7.1770    -1.2190    -2.2040 H     1 <1>   0.4000 
 26 H       -5.4080     1.2020    -0.6050 H     1 <1>   0.1500 
 27 H       -6.0330    -2.1010     2.0430 H     1 <1>   0.1500 
 28 H       -6.7470    -4.2030    -1.0020 H     1 <1>   0.1500 
 29 H       -8.5380    -0.5970     0.4660 H     1 <1>   0.1500 
 30 H       -4.6750     2.5610     1.2810 H     1 <1>   0.1500 
 31 H       -5.2920    -0.7230     3.9180 H     1 <1>   0.1500 
 32 H       -8.7930    -5.4090    -0.4990 H     1 <1>   0.1500 
 33 H      -10.5840    -1.8360     0.9600 H     1 <1>   0.1500 
 34 H       -0.7320    -2.1030    -0.5360 H     1 <1>   0.4500 
 35 H       -0.9100    -3.3240    -2.6270 H     1 <1>   0.0800 
 36 H       -2.2490    -2.3350    -3.1880 H     1 <1>   0.0800 
 37 H       -2.4430    -4.0450    -3.0230 H     1 <1>   0.0800 
 38 H       -1.0950    -4.4870    -0.3180 H     1 <1>   0.0800 
 39 H       -2.6190    -5.1350    -0.8500 H     1 <1>   0.0800 
 40 H       -2.5510    -4.2540     0.6370 H     1 <1>   0.0800 
 41 H       -4.6070     1.6100     3.5480 H     1 <1>   0.1500 
 42 H      -10.7210    -4.2440     0.4820 H     1 <1>   0.1500 
 43 H       -1.6890    -2.3530     1.5800 H     1 <1>   0.0800 
 44 H       -3.1710    -1.5880     1.0150 H     1 <1>   0.0800 
 45 H       -2.9650    -0.4220    -1.4200 H     1 <1>   0.0800 
 46 H       -1.3440    -0.5000    -2.0990 H     1 <1>   0.0800 
 47 H       -0.5520    -0.3120     1.6120 H     1 <1>   0.0800 
 48 H       -2.1680     0.2950     1.8890 H     1 <1>   0.0800 
 49 H       -2.1510     1.3180    -0.2000 H     1 <1>   0.0800 
 50 H       -0.4870     0.8120    -0.3830 H     1 <1>   0.0800 
@<TRIPOS>BOND
  1   1   2  1   
  2   1  25  1   
  3   2   3  1   
  4   2   4  1   
  5   2   5  1   
  6   3   6  3   
  7   4   7  ar  
  8   4   8  ar  
  9   5   9  ar  
 10   5  10  ar  
 11   6  11  1   
 12   7  12  ar  
 13   7  26  1   
 14   8  13  ar  
 15   8  27  1   
 16   9  14  ar  
 17   9  28  1   
 18  10  15  ar  
 19  10  29  1   
 20  11  16  1   
 21  11  17  1   
 22  11  18  1   
 23  12  19  ar  
 24  12  30  1   
 25  13  19  ar  
 26  13  31  1   
 27  14  20  ar  
 28  14  32  1   
 29  15  20  ar  
 30  15  33  1   
 31  16  21  1   
 32  16  22  1   
 33  16  34  1   
 34  17  35  1   
 35  17  36  1   
 36  17  37  1   
 37  18  38  1   
 38  18  39  1   
 39  18  40  1   
 40  19  41  1   
 41  20  42  1   
 42  21  23  1   
 43  21  43  1   
 44  21  44  1   
 45  22  24  1   
 46  22  45  1   
 47  22  46  1   
 48  23  24  1   
 49  23  47  1   
 50  23  48  1   
 51  24  49  1   
 52  24  50  1   
@<TRIPOS>SUBSTRUCTURE
  1 ****   3 GROUP 4 **** **** 0

# MOE 2024.06 (io_trps.svl 2023.06)
