@<TRIPOS>MOLECULE
NONAME
34 35 1 0 0 
SMALL
USER_CHARGES


@<TRIPOS>ATOM
  1 S       -0.1400    -0.7960    -1.1280 S.3   1 <1>  -0.2860 
  2 C        0.1810    -0.4220     0.5990 C.2   1 <1>   0.2420 
  3 C        1.4560    -0.3720    -1.9820 C.3   1 <1>   0.1310 
  4 N        1.2660     0.0840     1.0380 N.2   1 <1>  -0.3380 
  5 N       -0.6810    -0.6480     1.5700 N.pl3 1 <1>   0.3140 
  6 C        2.4410    -1.5260    -1.8900 C.2   1 <1>   0.5690 
  7 N        1.0720     0.1850     2.3510 N.2   1 <1>   0.0000 
  8 N       -0.0930    -0.2580     2.6840 N.2   1 <1>  -0.4180 
  9 C       -2.0320    -1.2250     1.5100 C.3   1 <1>   0.0160 
 10 O        2.8290    -2.0080    -2.9260 O.2   1 <1>  -0.5700 
 11 N        2.8530    -1.9410    -0.6500 N.am  1 <1>  -0.5470 
 12 C        3.7100    -2.9800    -0.2420 C.ar  1 <1>   0.1170 
 13 C        4.2620    -2.9550     1.0410 C.ar  1 <1>  -0.1430 
 14 C        4.0130    -4.0550    -1.0740 C.ar  1 <1>  -0.1500 
 15 C        5.0960    -3.9820     1.4550 C.ar  1 <1>  -0.1500 
 16 C        3.9710    -1.8220     2.0180 C.3   1 <1>  -0.0970 
 17 C        4.8490    -5.0770    -0.6620 C.ar  1 <1>  -0.1430 
 18 C        5.3900    -5.0370     0.6110 C.ar  1 <1>  -0.1500 
 19 C        5.1680    -6.2350    -1.5900 C.3   1 <1>  -0.0970 
 20 H        1.8540     0.5160    -1.5290 H     1 <1>   0.0800 
 21 H        1.2150    -0.1760    -3.0110 H     1 <1>   0.0800 
 22 H       -2.4510    -1.2560     2.5000 H     1 <1>   0.0800 
 23 H       -1.9750    -2.2220     1.1130 H     1 <1>   0.0800 
 24 H       -2.6500    -0.6160     0.8770 H     1 <1>   0.0800 
 25 H        2.5020    -1.3780     0.1290 H     1 <1>   0.3700 
 26 H        3.5890    -4.1020    -2.0580 H     1 <1>   0.1500 
 27 H        5.5240    -3.9700     2.4410 H     1 <1>   0.1500 
 28 H        4.0980    -0.8670     1.5390 H     1 <1>   0.0800 
 29 H        4.6380    -1.8590     2.8600 H     1 <1>   0.0800 
 30 H        2.9640    -1.9070     2.3830 H     1 <1>   0.0800 
 31 H        6.0400    -5.8250     0.9480 H     1 <1>   0.1500 
 32 H        5.0040    -5.9540    -2.6150 H     1 <1>   0.0800 
 33 H        4.5380    -7.0740    -1.3550 H     1 <1>   0.0800 
 34 H        6.1970    -6.5280    -1.4800 H     1 <1>   0.0800 
@<TRIPOS>BOND
  1   1   2  1   
  2   1   3  1   
  3   2   4  2   
  4   2   5  1   
  5   3   6  1   
  6   3  20  1   
  7   3  21  1   
  8   4   7  1   
  9   5   8  1   
 10   5   9  1   
 11   6  10  2   
 12   6  11  am  
 13   7   8  2   
 14   9  22  1   
 15   9  23  1   
 16   9  24  1   
 17  11  12  1   
 18  11  25  1   
 19  12  13  ar  
 20  12  14  ar  
 21  13  15  ar  
 22  13  16  1   
 23  14  17  ar  
 24  14  26  1   
 25  15  18  ar  
 26  15  27  1   
 27  16  28  1   
 28  16  29  1   
 29  16  30  1   
 30  17  18  ar  
 31  17  19  1   
 32  18  31  1   
 33  19  32  1   
 34  19  33  1   
 35  19  34  1   
@<TRIPOS>SUBSTRUCTURE
  1 ****  11 GROUP 4 **** **** 0

# MOE 2024.06 (io_trps.svl 2023.06)
