@<TRIPOS>MOLECULE
NONAME
34 35 1 0 0 
SMALL
USER_CHARGES


@<TRIPOS>ATOM
  1 F       -0.7700    -0.7530     1.5320 F     1 <1>  -0.1900 
  2 C       -0.4150    -1.6850     0.6800 C.ar  1 <1>   0.1900 
  3 C       -1.4090    -2.4890     0.1140 C.ar  1 <1>   0.1170 
  4 C        0.9330    -1.8160     0.3950 C.ar  1 <1>  -0.1500 
  5 N       -2.7580    -2.2860     0.4670 N.am  1 <1>  -0.5470 
  6 C       -0.9890    -3.4760    -0.7750 C.ar  1 <1>  -0.1500 
  7 C        1.3310    -2.7990    -0.4960 C.ar  1 <1>  -0.1500 
  8 C       -3.9200    -2.6740    -0.1280 C.2   1 <1>   0.6900 
  9 C        0.3580    -3.6080    -1.0590 C.ar  1 <1>   0.1900 
 10 O       -3.9350    -3.2580    -1.1930 O.2   1 <1>  -0.5700 
 11 N       -5.0760    -2.3750     0.5120 N.am  1 <1>  -0.7300 
 12 F        0.7350    -4.5380    -1.8950 F     1 <1>  -0.1900 
 13 C       -6.4240    -2.6980     0.0170 C.3   1 <1>   0.2200 
 14 C       -7.2680    -1.4190     0.0120 C.3   1 <1>  -0.1600 
 15 C       -7.0410    -3.7680     0.9230 C.3   1 <1>  -0.1600 
 16 C       -8.7200    -1.7150    -0.3940 C.3   1 <1>  -0.1600 
 17 C       -8.4920    -4.0680     0.5200 C.3   1 <1>  -0.1600 
 18 C       -9.3410    -2.7890     0.5100 C.3   1 <1>  -0.1600 
 19 H        1.6520    -1.1650     0.8610 H     1 <1>   0.1500 
 20 H       -2.8900    -1.6270     1.2290 H     1 <1>   0.3700 
 21 H       -1.6900    -4.1410    -1.2440 H     1 <1>   0.1500 
 22 H        2.3660    -2.9410    -0.7510 H     1 <1>   0.1500 
 23 H       -5.0470    -1.9920     1.4520 H     1 <1>   0.3700 
 24 H       -6.3640    -3.0810    -0.9890 H     1 <1>   0.0800 
 25 H       -6.8420    -0.7170    -0.6830 H     1 <1>   0.0800 
 26 H       -7.2630    -0.9780     0.9930 H     1 <1>   0.0800 
 27 H       -7.0240    -3.4320     1.9450 H     1 <1>   0.0800 
 28 H       -6.4590    -4.6710     0.8500 H     1 <1>   0.0800 
 29 H       -8.7410    -2.0540    -1.4160 H     1 <1>   0.0800 
 30 H       -9.3030    -0.8110    -0.3340 H     1 <1>   0.0800 
 31 H       -8.9180    -4.7800     1.2060 H     1 <1>   0.0800 
 32 H       -8.5040    -4.5100    -0.4620 H     1 <1>   0.0800 
 33 H      -10.3340    -3.0190     0.1650 H     1 <1>   0.0800 
 34 H       -9.4220    -2.4070     1.5130 H     1 <1>   0.0800 
@<TRIPOS>BOND
  1   1   2  1   
  2   2   3  ar  
  3   2   4  ar  
  4   3   5  1   
  5   3   6  ar  
  6   4   7  ar  
  7   4  19  1   
  8   5   8  am  
  9   5  20  1   
 10   6   9  ar  
 11   6  21  1   
 12   7   9  ar  
 13   7  22  1   
 14   8  10  2   
 15   8  11  am  
 16   9  12  1   
 17  11  13  1   
 18  11  23  1   
 19  13  14  1   
 20  13  15  1   
 21  13  24  1   
 22  14  16  1   
 23  14  25  1   
 24  14  26  1   
 25  15  17  1   
 26  15  27  1   
 27  15  28  1   
 28  16  18  1   
 29  16  29  1   
 30  16  30  1   
 31  17  18  1   
 32  17  31  1   
 33  17  32  1   
 34  18  33  1   
 35  18  34  1   
@<TRIPOS>SUBSTRUCTURE
  1 ****   8 GROUP 4 **** **** 0

# MOE 2024.06 (io_trps.svl 2023.06)
