@<TRIPOS>MOLECULE
NONAME
40 42 1 0 0 
SMALL
USER_CHARGES


@<TRIPOS>ATOM
  1 F       -0.1850    -2.2610    -1.6980 F     1 <1>  -0.1900 
  2 C       -1.2190    -2.0330    -0.9200 C.ar  1 <1>   0.1900 
  3 C       -1.2060    -2.5050     0.3980 C.ar  1 <1>   0.1000 
  4 C       -2.2790    -1.3290    -1.4560 C.ar  1 <1>  -0.1500 
  5 N       -0.1500    -3.2220     0.9790 N.pl3 1 <1>  -0.8380 
  6 C       -2.3280    -2.2340     1.1710 C.ar  1 <1>  -0.1500 
  7 C       -3.3830    -1.0760    -0.6580 C.ar  1 <1>  -0.1500 
  8 C        0.0370    -4.6400     0.5430 C.3   1 <1>   0.2090 
  9 C        1.0930    -2.4610     1.3130 C.3   1 <1>   0.2090 
 10 C       -3.4030    -1.5290     0.6520 C.ar  1 <1>  -0.1500 
 11 C        1.1730    -4.7900    -0.4920 C.3   1 <1>   0.3430 
 12 C        2.2070    -2.6660     0.2620 C.3   1 <1>   0.3430 
 13 N        2.4500    -4.1210    -0.0570 N.4   1 <1>  -0.9590 
 14 C        3.5200    -4.2830    -1.0760 C.3   1 <1>   0.4860 
 15 C        4.8400    -3.8310    -0.4910 C.ar  1 <1>  -0.1430 
 16 C        5.4810    -4.5520     0.5000 C.ar  1 <1>   0.1900 
 17 C        5.4700    -2.6780    -0.9220 C.ar  1 <1>   0.1900 
 18 F        4.9110    -5.6370     0.9520 F     1 <1>  -0.1900 
 19 C        6.6950    -4.1640     1.0420 C.ar  1 <1>  -0.1500 
 20 F        4.8910    -1.9560    -1.8430 F     1 <1>  -0.1900 
 21 C        6.6830    -2.2510    -0.4100 C.ar  1 <1>  -0.1500 
 22 C        7.2990    -3.0030     0.5800 C.ar  1 <1>  -0.1500 
 23 H       -2.2460    -0.9850    -2.4740 H     1 <1>   0.1500 
 24 H       -2.3530    -2.5810     2.1880 H     1 <1>   0.1500 
 25 H       -4.2230    -0.5290    -1.0520 H     1 <1>   0.1500 
 26 H       -0.8820    -5.0050     0.1150 H     1 <1>   0.0800 
 27 H        0.2520    -5.2450     1.4070 H     1 <1>   0.0800 
 28 H        1.4460    -2.7760     2.2790 H     1 <1>   0.0800 
 29 H        0.8620    -1.4110     1.3820 H     1 <1>   0.0800 
 30 H       -4.2610    -1.3320     1.2730 H     1 <1>   0.1500 
 31 H        0.8390    -4.3570    -1.4200 H     1 <1>   0.0800 
 32 H        1.3480    -5.8390    -0.6650 H     1 <1>   0.0800 
 33 H        3.1130    -2.2110     0.6270 H     1 <1>   0.0800 
 34 H        1.9210    -2.1440    -0.6360 H     1 <1>   0.0800 
 35 H        2.7770    -4.5840     0.8030 H     1 <1>   0.4500 
 36 H        3.2850    -3.7060    -1.9570 H     1 <1>   0.0800 
 37 H        3.6030    -5.3190    -1.3610 H     1 <1>   0.0800 
 38 H        7.1600    -4.7580     1.8110 H     1 <1>   0.1500 
 39 H        7.1390    -1.3480    -0.7790 H     1 <1>   0.1500 
 40 H        8.2450    -2.6870     0.9890 H     1 <1>   0.1500 
@<TRIPOS>BOND
  1   1   2  1   
  2   2   3  ar  
  3   2   4  ar  
  4   3   5  1   
  5   3   6  ar  
  6   4   7  ar  
  7   4  23  1   
  8   5   8  1   
  9   5   9  1   
 10   6  10  ar  
 11   6  24  1   
 12   7  10  ar  
 13   7  25  1   
 14   8  11  1   
 15   8  26  1   
 16   8  27  1   
 17   9  12  1   
 18   9  28  1   
 19   9  29  1   
 20  10  30  1   
 21  11  13  1   
 22  11  31  1   
 23  11  32  1   
 24  12  13  1   
 25  12  33  1   
 26  12  34  1   
 27  13  14  1   
 28  13  35  1   
 29  14  15  1   
 30  14  36  1   
 31  14  37  1   
 32  15  16  ar  
 33  15  17  ar  
 34  16  18  1   
 35  16  19  ar  
 36  17  20  1   
 37  17  21  ar  
 38  19  22  ar  
 39  19  38  1   
 40  21  22  ar  
 41  21  39  1   
 42  22  40  1   
@<TRIPOS>SUBSTRUCTURE
  1 ****  12 GROUP 4 **** **** 0

# MOE 2024.06 (io_trps.svl 2023.06)
