@<TRIPOS>MOLECULE
NONAME
40 41 1 0 0 
SMALL
USER_CHARGES


@<TRIPOS>ATOM
  1 O       -0.6260     0.7690    -1.4550 O.2   1 <1>  -0.5700 
  2 C       -1.0240     1.5230    -0.5920 C.2   1 <1>   0.5440 
  3 N       -0.1290     2.3390     0.0640 N.am  1 <1>  -0.5390 
  4 C       -2.4320     1.5780    -0.2620 C.ar  1 <1>   0.0860 
  5 C        1.2700     2.2840     0.0660 C.2   1 <1>  -0.0290 
  6 C       -3.0980     2.7880    -0.0660 C.ar  1 <1>  -0.1500 
  7 C       -3.1610     0.3990    -0.1300 C.ar  1 <1>  -0.1500 
  8 C        2.1030     1.2320     0.0130 C.2   1 <1>  -0.0730 
  9 C        2.0130     3.5940     0.1630 C.3   1 <1>  -0.0220 
 10 C       -4.4450     2.8250     0.2730 C.ar  1 <1>   0.0830 
 11 C       -4.5070     0.4080     0.2120 C.ar  1 <1>   0.0830 
 12 C        1.8440    -0.1750    -0.0200 C.1   1 <1>   0.4920 
 13 C        3.5510     1.6690     0.0340 C.3   1 <1>  -0.0220 
 14 C        3.4880     3.2040    -0.0270 C.3   1 <1>  -0.1600 
 15 O       -5.1230     3.9940     0.4630 O.3   1 <1>  -0.3630 
 16 C       -5.1480     1.6300     0.4210 C.ar  1 <1>   0.0830 
 17 O       -5.2350    -0.7390     0.3540 O.3   1 <1>  -0.3630 
 18 N        1.7100    -1.3080     0.0130 N.1   1 <1>  -0.5570 
 19 C       -4.5180     5.2540     0.2780 C.3   1 <1>   0.0400 
 20 O       -6.4550     1.6640     0.7850 O.3   1 <1>  -0.3630 
 21 C       -4.6350    -2.0120     0.2500 C.3   1 <1>   0.0400 
 22 C       -7.3880     1.5460    -0.2610 C.3   1 <1>   0.0400 
 23 H       -0.5520     3.0900     0.6070 H     1 <1>   0.3700 
 24 H       -2.5450     3.6970    -0.1950 H     1 <1>   0.1500 
 25 H       -2.6370    -0.5230    -0.3030 H     1 <1>   0.1500 
 26 H        1.8560     4.0380     1.1310 H     1 <1>   0.0800 
 27 H        1.6960     4.2750    -0.6080 H     1 <1>   0.0800 
 28 H        4.0870     1.2710    -0.8110 H     1 <1>   0.0800 
 29 H        4.0210     1.3400     0.9450 H     1 <1>   0.0800 
 30 H        4.1120     3.6510     0.7280 H     1 <1>   0.0800 
 31 H        3.8220     3.5350    -0.9950 H     1 <1>   0.0800 
 32 H       -5.2610     6.0090     0.4630 H     1 <1>   0.0800 
 33 H       -4.1680     5.3290    -0.7360 H     1 <1>   0.0800 
 34 H       -3.7100     5.3600     0.9790 H     1 <1>   0.0800 
 35 H       -5.3920    -2.7520     0.4350 H     1 <1>   0.0800 
 36 H       -3.8570    -2.0930     0.9880 H     1 <1>   0.0800 
 37 H       -4.2400    -2.1340    -0.7430 H     1 <1>   0.0800 
 38 H       -8.3740     1.6020     0.1620 H     1 <1>   0.0800 
 39 H       -7.2480     0.5980    -0.7490 H     1 <1>   0.0800 
 40 H       -7.2340     2.3550    -0.9530 H     1 <1>   0.0800 
@<TRIPOS>BOND
  1   1   2  2   
  2   2   3  am  
  3   2   4  1   
  4   3   5  1   
  5   3  23  1   
  6   4   6  ar  
  7   4   7  ar  
  8   5   8  2   
  9   5   9  1   
 10   6  10  ar  
 11   6  24  1   
 12   7  11  ar  
 13   7  25  1   
 14   8  12  1   
 15   8  13  1   
 16   9  14  1   
 17   9  26  1   
 18   9  27  1   
 19  10  15  1   
 20  10  16  ar  
 21  11  16  ar  
 22  11  17  1   
 23  12  18  3   
 24  13  14  1   
 25  13  28  1   
 26  13  29  1   
 27  14  30  1   
 28  14  31  1   
 29  15  19  1   
 30  16  20  1   
 31  17  21  1   
 32  19  32  1   
 33  19  33  1   
 34  19  34  1   
 35  20  22  1   
 36  21  35  1   
 37  21  36  1   
 38  21  37  1   
 39  22  38  1   
 40  22  39  1   
 41  22  40  1   
@<TRIPOS>SUBSTRUCTURE
  1 ****   4 GROUP 4 **** **** 0

# MOE 2024.06 (io_trps.svl 2023.06)
