@<TRIPOS>MOLECULE
NONAME
36 37 1 0 0 
SMALL
USER_CHARGES


@<TRIPOS>ATOM
  1 BR      -2.5850    -1.5780     3.3540 Br    1 <1>  -0.1110 
  2 C       -3.6270    -0.9070     1.8790 C.ar  1 <1>   0.1110 
  3 C       -3.6930    -1.6410     0.7210 C.ar  1 <1>  -0.1500 
  4 C       -4.2840     0.3140     2.0460 C.ar  1 <1>  -0.1500 
  5 C       -4.4590    -1.1330    -0.3350 C.ar  1 <1>   0.0000 
  6 C       -5.0370     0.8160     1.0090 C.ar  1 <1>  -0.1500 
  7 C       -5.1230     0.0840    -0.1840 C.ar  1 <1>  -0.1520 
  8 C       -4.7550    -1.6060    -1.6360 C.2   1 <1>   0.0190 
  9 N       -5.8080     0.3500    -1.3480 N.pl3 1 <1>   0.0480 
 10 C       -4.2590    -2.8350    -2.1810 C.1   1 <1>   0.5380 
 11 C       -5.5730    -0.6810    -2.2080 C.2   1 <1>  -0.3020 
 12 C       -6.7030     1.5040    -1.5920 C.3   1 <1>   0.1570 
 13 N       -3.8630    -3.8160    -2.6080 N.1   1 <1>  -0.5570 
 14 C       -8.0660     1.3170    -0.9490 C.2   1 <1>   0.5690 
 15 O       -8.9980     1.8960    -1.4520 O.2   1 <1>  -0.5700 
 16 N       -8.1910     0.5330     0.1600 N.am  1 <1>  -0.7300 
 17 C       -9.3860     0.2020     0.9380 C.3   1 <1>   0.3000 
 18 C       -9.9890     1.4760     1.5270 C.3   1 <1>  -0.2400 
 19 C      -10.3890    -0.5350     0.0500 C.3   1 <1>  -0.2400 
 20 C       -8.9220    -0.7190     2.0640 C.3   1 <1>  -0.2400 
 21 H       -3.1750    -2.5780     0.6230 H     1 <1>   0.1500 
 22 H       -4.1890     0.8410     2.9790 H     1 <1>   0.1500 
 23 H       -5.5500     1.7570     1.1130 H     1 <1>   0.1500 
 24 H       -6.0070    -0.7100    -3.1940 H     1 <1>   0.1500 
 25 H       -6.8320     1.6270    -2.6510 H     1 <1>   0.0800 
 26 H       -6.2480     2.3930    -1.2000 H     1 <1>   0.0800 
 27 H       -7.3570     0.0430     0.4930 H     1 <1>   0.3700 
 28 H       -9.2580     2.0040     2.1120 H     1 <1>   0.0800 
 29 H      -10.8220     1.2320     2.1610 H     1 <1>   0.0800 
 30 H      -10.3470     2.1230     0.7470 H     1 <1>   0.0800 
 31 H      -10.7460     0.1090    -0.7330 H     1 <1>   0.0800 
 32 H      -11.2370    -0.8480     0.6310 H     1 <1>   0.0800 
 33 H       -9.9360    -1.4040    -0.3910 H     1 <1>   0.0800 
 34 H       -8.2020    -0.2200     2.6890 H     1 <1>   0.0800 
 35 H       -8.4830    -1.6160     1.6650 H     1 <1>   0.0800 
 36 H       -9.7580    -1.0000     2.6780 H     1 <1>   0.0800 
@<TRIPOS>BOND
  1   1   2  1   
  2   2   3  ar  
  3   2   4  ar  
  4   3   5  ar  
  5   3  21  1   
  6   4   6  ar  
  7   4  22  1   
  8   5   7  ar  
  9   5   8  1   
 10   6   7  ar  
 11   6  23  1   
 12   7   9  1   
 13   8  10  1   
 14   8  11  2   
 15   9  11  1   
 16   9  12  1   
 17  10  13  3   
 18  11  24  1   
 19  12  14  1   
 20  12  25  1   
 21  12  26  1   
 22  14  15  2   
 23  14  16  am  
 24  16  17  1   
 25  16  27  1   
 26  17  18  1   
 27  17  19  1   
 28  17  20  1   
 29  18  28  1   
 30  18  29  1   
 31  18  30  1   
 32  19  31  1   
 33  19  32  1   
 34  19  33  1   
 35  20  34  1   
 36  20  35  1   
 37  20  36  1   
@<TRIPOS>SUBSTRUCTURE
  1 ****   7 GROUP 4 **** **** 0

# MOE 2024.06 (io_trps.svl 2023.06)
