@<TRIPOS>MOLECULE
NONAME
39 40 1 0 0 
SMALL
USER_CHARGES


@<TRIPOS>ATOM
  1 O       -1.3920     0.7780     0.8000 O.2   1 <1>  -0.5700 
  2 C       -1.3810     1.7040     0.0100 C.2   1 <1>   0.5440 
  3 N       -2.4230     1.7700    -0.8870 N.am  1 <1>  -0.6600 
  4 C       -0.3550     2.7330     0.0700 C.ar  1 <1>   0.0860 
  5 C       -3.1260     0.5100    -1.2640 C.3   1 <1>   0.1400 
  6 C       -3.3240     2.9560    -0.8580 C.3   1 <1>   0.1400 
  7 C        0.3110     3.0160     1.2630 C.ar  1 <1>  -0.1500 
  8 C        0.0020     3.4810    -1.0530 C.ar  1 <1>  -0.1500 
  9 C       -4.2690     0.2380    -0.2680 C.3   1 <1>   0.3430 
 10 C       -4.4940     2.6980     0.1170 C.3   1 <1>   0.3430 
 11 C        1.2700     4.0100     1.3370 C.ar  1 <1>  -0.1500 
 12 C        0.9600     4.4760    -0.9840 C.ar  1 <1>  -0.1500 
 13 N       -5.2200     1.4060    -0.1720 N.4   1 <1>  -0.9590 
 14 C        1.5970     4.7510     0.2140 C.ar  1 <1>  -0.1430 
 15 C       -6.2770     1.1330     0.8250 C.3   1 <1>   0.4810 
 16 C        2.6510     5.8410     0.2930 C.3   1 <1>  -0.0970 
 17 C       -7.4040     2.1020     0.5540 C.2   1 <1>  -0.2880 
 18 C       -8.5580     1.7930    -0.0450 C.2   1 <1>  -0.3000 
 19 H       -2.4300    -0.3130    -1.2430 H     1 <1>   0.0800 
 20 H       -3.5100     0.5910    -2.2660 H     1 <1>   0.0800 
 21 H       -3.6990     3.1490    -1.8480 H     1 <1>   0.0800 
 22 H       -2.7790     3.8270    -0.5360 H     1 <1>   0.0800 
 23 H        0.0750     2.4450     2.1440 H     1 <1>   0.1500 
 24 H       -0.4720     3.2770    -1.9970 H     1 <1>   0.1500 
 25 H       -3.8260     0.0470     0.6970 H     1 <1>   0.0800 
 26 H       -4.7990    -0.6490    -0.5720 H     1 <1>   0.0800 
 27 H       -5.1820     3.5260     0.0630 H     1 <1>   0.0800 
 28 H       -4.0930     2.6670     1.1170 H     1 <1>   0.0800 
 29 H        1.7660     4.2030     2.2730 H     1 <1>   0.1500 
 30 H        1.2130     5.0360    -1.8680 H     1 <1>   0.1500 
 31 H       -5.7030     1.5080    -1.0730 H     1 <1>   0.4500 
 32 H       -5.9030     1.2430     1.8310 H     1 <1>   0.0800 
 33 H       -6.6430     0.1270     0.7010 H     1 <1>   0.0800 
 34 H        3.6200     5.4240     0.0860 H     1 <1>   0.0800 
 35 H        2.6640     6.2810     1.2740 H     1 <1>   0.0800 
 36 H        2.4460     6.6160    -0.4230 H     1 <1>   0.0800 
 37 H       -7.1980     3.0990     0.9060 H     1 <1>   0.1500 
 38 H       -9.3520     2.5030    -0.2200 H     1 <1>   0.1500 
 39 H       -8.8270     0.8140    -0.4100 H     1 <1>   0.1500 
@<TRIPOS>BOND
  1   1   2  2   
  2   2   3  am  
  3   2   4  1   
  4   3   5  1   
  5   3   6  1   
  6   4   7  ar  
  7   4   8  ar  
  8   5   9  1   
  9   5  19  1   
 10   5  20  1   
 11   6  10  1   
 12   6  21  1   
 13   6  22  1   
 14   7  11  ar  
 15   7  23  1   
 16   8  12  ar  
 17   8  24  1   
 18   9  13  1   
 19   9  25  1   
 20   9  26  1   
 21  10  13  1   
 22  10  27  1   
 23  10  28  1   
 24  11  14  ar  
 25  11  29  1   
 26  12  14  ar  
 27  12  30  1   
 28  13  15  1   
 29  13  31  1   
 30  14  16  1   
 31  15  17  1   
 32  15  32  1   
 33  15  33  1   
 34  16  34  1   
 35  16  35  1   
 36  16  36  1   
 37  17  18  2   
 38  17  37  1   
 39  18  38  1   
 40  18  39  1   
@<TRIPOS>SUBSTRUCTURE
  1 ****   3 GROUP 4 **** **** 0

# MOE 2024.06 (io_trps.svl 2023.06)
