@<TRIPOS>MOLECULE
NONAME
57 60 1 0 0 
SMALL
USER_CHARGES


@<TRIPOS>ATOM
  1 O        1.7350    -2.9870    -3.3090 O.2   1 <1>  -0.5700 
  2 C        2.2880    -2.6320    -2.3000 C.2   1 <1>   0.5690 
  3 N        2.9850    -1.4710    -2.3170 N.am  1 <1>  -0.7300 
  4 C        2.1620    -3.5370    -1.0720 C.3   1 <1>  -0.0190 
  5 C        3.8260    -0.7530    -1.3340 C.3   1 <1>   0.2200 
  6 C        2.8800    -4.8780    -1.3190 C.3   1 <1>  -0.1600 
  7 C        0.6820    -3.7800    -0.7200 C.3   1 <1>  -0.1600 
  8 C        5.0050    -1.6350    -0.8880 C.3   1 <1>  -0.1600 
  9 C        2.9390    -0.1650    -0.2260 C.3   1 <1>  -0.1600 
 10 C        2.6680    -5.8650    -0.1750 C.3   1 <1>   0.3430 
 11 C        0.5180    -4.7880     0.4140 C.3   1 <1>   0.3430 
 12 C        6.1270    -0.8180    -0.2300 C.3   1 <1>  -0.1600 
 13 C        3.6960     0.6140     0.8620 C.3   1 <1>  -0.1600 
 14 N        1.2090    -6.0580     0.0460 N.4   1 <1>  -0.9590 
 15 C        5.9510    -0.5860     1.2790 C.3   1 <1>  -0.1600 
 16 C        4.5240    -0.3020     1.7740 C.3   1 <1>  -0.1600 
 17 C        0.9390    -7.1430     1.0290 C.3   1 <1>   0.4860 
 18 C       -0.5490    -7.4340     1.0300 C.ar  1 <1>  -0.1440 
 19 C       -1.1370    -8.0410    -0.0770 C.ar  1 <1>  -0.1500 
 20 C       -1.3320    -7.0830     2.1320 C.ar  1 <1>  -0.1500 
 21 C       -2.4980    -8.2640    -0.0500 C.ar  1 <1>   0.0820 
 22 C       -2.7000    -7.3220     2.1390 C.ar  1 <1>  -0.1500 
 23 O       -3.2610    -8.8160    -0.9960 O.3   1 <1>  -0.3620 
 24 C       -3.2590    -7.9140     1.0260 C.ar  1 <1>   0.0820 
 25 C       -4.5960    -8.8310    -0.4880 C.3   1 <1>   0.4000 
 26 O       -4.5380    -8.2320     0.8060 O.3   1 <1>  -0.3620 
 27 H        2.9420    -0.9980    -3.2240 H     1 <1>   0.3700 
 28 H        2.6190    -3.0650    -0.2270 H     1 <1>   0.0800 
 29 H        4.2520     0.0850    -1.8610 H     1 <1>   0.0800 
 30 H        3.9340    -4.6990    -1.4410 H     1 <1>   0.0800 
 31 H        2.5260    -5.3190    -2.2360 H     1 <1>   0.0800 
 32 H        0.1480    -4.1370    -1.5840 H     1 <1>   0.0800 
 33 H        0.2280    -2.8470    -0.4310 H     1 <1>   0.0800 
 34 H        5.4190    -2.0950    -1.7690 H     1 <1>   0.0800 
 35 H        4.6970    -2.4140    -0.2200 H     1 <1>   0.0800 
 36 H        2.3590    -0.9330     0.2460 H     1 <1>   0.0800 
 37 H        2.2460     0.5150    -0.6920 H     1 <1>   0.0800 
 38 H        3.1280    -5.4840     0.7230 H     1 <1>   0.0800 
 39 H        3.1340    -6.8050    -0.4250 H     1 <1>   0.0800 
 40 H       -0.5330    -4.9690     0.5770 H     1 <1>   0.0800 
 41 H        0.9400    -4.3880     1.3220 H     1 <1>   0.0800 
 42 H        6.2230     0.1320    -0.7280 H     1 <1>   0.0800 
 43 H        7.0610    -1.3330    -0.3740 H     1 <1>   0.0800 
 44 H        2.9640     1.1140     1.4720 H     1 <1>   0.0800 
 45 H        4.3170     1.3780     0.4260 H     1 <1>   0.0800 
 46 H        0.7910    -6.3620    -0.8440 H     1 <1>   0.4500 
 47 H        6.5820     0.2390     1.5600 H     1 <1>   0.0800 
 48 H        6.3190    -1.4490     1.8080 H     1 <1>   0.0800 
 49 H        4.0020    -1.2310     1.9240 H     1 <1>   0.0800 
 50 H        4.6040     0.1630     2.7430 H     1 <1>   0.0800 
 51 H        1.2580    -6.8440     2.0140 H     1 <1>   0.0800 
 52 H        1.4730    -8.0370     0.7520 H     1 <1>   0.0800 
 53 H       -0.5790    -8.3450    -0.9450 H     1 <1>   0.1500 
 54 H       -0.8890    -6.6230     3.0000 H     1 <1>   0.1500 
 55 H       -3.3220    -7.0620     2.9790 H     1 <1>   0.1500 
 56 H       -4.9390    -9.8470    -0.4010 H     1 <1>   0.0800 
 57 H       -5.2340    -8.2480    -1.1280 H     1 <1>   0.0800 
@<TRIPOS>BOND
  1   1   2  2   
  2   2   3  am  
  3   2   4  1   
  4   3   5  1   
  5   3  27  1   
  6   4   6  1   
  7   4   7  1   
  8   4  28  1   
  9   5   8  1   
 10   5   9  1   
 11   5  29  1   
 12   6  10  1   
 13   6  30  1   
 14   6  31  1   
 15   7  11  1   
 16   7  32  1   
 17   7  33  1   
 18   8  12  1   
 19   8  34  1   
 20   8  35  1   
 21   9  13  1   
 22   9  36  1   
 23   9  37  1   
 24  10  14  1   
 25  10  38  1   
 26  10  39  1   
 27  11  14  1   
 28  11  40  1   
 29  11  41  1   
 30  12  15  1   
 31  12  42  1   
 32  12  43  1   
 33  13  16  1   
 34  13  44  1   
 35  13  45  1   
 36  14  17  1   
 37  14  46  1   
 38  15  16  1   
 39  15  47  1   
 40  15  48  1   
 41  16  49  1   
 42  16  50  1   
 43  17  18  1   
 44  17  51  1   
 45  17  52  1   
 46  18  19  ar  
 47  18  20  ar  
 48  19  21  ar  
 49  19  53  1   
 50  20  22  ar  
 51  20  54  1   
 52  21  23  1   
 53  21  24  ar  
 54  22  24  ar  
 55  22  55  1   
 56  23  25  1   
 57  24  26  1   
 58  25  26  1   
 59  25  56  1   
 60  25  57  1   
@<TRIPOS>SUBSTRUCTURE
  1 ****  11 GROUP 4 **** **** 0

# MOE 2024.06 (io_trps.svl 2023.06)
