@<TRIPOS>MOLECULE
NONAME
39 41 1 0 0 
SMALL
USER_CHARGES


@<TRIPOS>ATOM
  1 O       -0.4670    -0.3040     0.1510 O.3   1 <1>  -0.3630 
  2 C       -1.6410    -0.9300    -0.1050 C.ar  1 <1>   0.0830 
  3 C        0.2560    -0.5440     1.3390 C.3   1 <1>   0.0400 
  4 C       -2.2250    -0.6760    -1.3340 C.ar  1 <1>  -0.1500 
  5 C       -2.2690    -1.7960     0.7840 C.ar  1 <1>  -0.1500 
  6 C       -3.4250    -1.2690    -1.6790 C.ar  1 <1>  -0.1500 
  7 C       -3.4720    -2.3900     0.4400 C.ar  1 <1>  -0.1500 
  8 C       -4.0600    -2.1240    -0.7900 C.ar  1 <1>  -0.1430 
  9 C       -5.3890    -2.7540    -1.1590 C.3   1 <1>   0.4860 
 10 N       -6.4640    -2.0810    -0.3870 N.4   1 <1>  -0.9590 
 11 C       -7.7800    -2.7510    -0.5590 C.3   1 <1>   0.4860 
 12 C       -6.5770    -0.6230    -0.6950 C.3   1 <1>   0.3430 
 13 C       -8.8340    -2.0630     0.2920 C.ar  1 <1>  -0.1430 
 14 C       -7.4490     0.0670     0.3560 C.3   1 <1>  -0.0170 
 15 C       -8.6890    -0.7430     0.7100 C.ar  1 <1>  -0.1430 
 16 C       -9.9730    -2.7720     0.6490 C.ar  1 <1>  -0.1500 
 17 C       -9.6800    -0.1510     1.4760 C.ar  1 <1>  -0.1500 
 18 C      -10.9580    -2.1740     1.4140 C.ar  1 <1>  -0.1500 
 19 C      -10.8120    -0.8640     1.8270 C.ar  1 <1>  -0.1500 
 20 H        1.1570     0.0410     1.3040 H     1 <1>   0.0800 
 21 H        0.5020    -1.5900     1.3930 H     1 <1>   0.0800 
 22 H       -0.3420    -0.2420     2.1800 H     1 <1>   0.0800 
 23 H       -1.7250    -0.0110    -2.0170 H     1 <1>   0.1500 
 24 H       -1.8340    -2.0170     1.7410 H     1 <1>   0.1500 
 25 H       -3.8480    -1.0530    -2.6460 H     1 <1>   0.1500 
 26 H       -3.9340    -3.0610     1.1440 H     1 <1>   0.1500 
 27 H       -5.3600    -3.8050    -0.9210 H     1 <1>   0.0800 
 28 H       -5.5630    -2.6470    -2.2170 H     1 <1>   0.0800 
 29 H       -6.2240    -2.1480     0.6090 H     1 <1>   0.4500 
 30 H       -7.7090    -3.7850    -0.2640 H     1 <1>   0.0800 
 31 H       -8.0840    -2.7100    -1.5930 H     1 <1>   0.0800 
 32 H       -7.0210    -0.4920    -1.6690 H     1 <1>   0.0800 
 33 H       -5.6040    -0.1590    -0.7000 H     1 <1>   0.0800 
 34 H       -7.7400     1.0340    -0.0130 H     1 <1>   0.0800 
 35 H       -6.8680     0.2240     1.2470 H     1 <1>   0.0800 
 36 H      -10.1120    -3.7930     0.3380 H     1 <1>   0.1500 
 37 H       -9.5810     0.8680     1.8080 H     1 <1>   0.1500 
 38 H      -11.8410    -2.7270     1.6890 H     1 <1>   0.1500 
 39 H      -11.5800    -0.3990     2.4220 H     1 <1>   0.1500 
@<TRIPOS>BOND
  1   1   2  1   
  2   1   3  1   
  3   2   4  ar  
  4   2   5  ar  
  5   3  20  1   
  6   3  21  1   
  7   3  22  1   
  8   4   6  ar  
  9   4  23  1   
 10   5   7  ar  
 11   5  24  1   
 12   6   8  ar  
 13   6  25  1   
 14   7   8  ar  
 15   7  26  1   
 16   8   9  1   
 17   9  10  1   
 18   9  27  1   
 19   9  28  1   
 20  10  11  1   
 21  10  12  1   
 22  10  29  1   
 23  11  13  1   
 24  11  30  1   
 25  11  31  1   
 26  12  14  1   
 27  12  32  1   
 28  12  33  1   
 29  13  15  ar  
 30  13  16  ar  
 31  14  15  1   
 32  14  34  1   
 33  14  35  1   
 34  15  17  ar  
 35  16  18  ar  
 36  16  36  1   
 37  17  19  ar  
 38  17  37  1   
 39  18  19  ar  
 40  18  38  1   
 41  19  39  1   
@<TRIPOS>SUBSTRUCTURE
  1 ****  10 GROUP 4 **** **** 0

# MOE 2024.06 (io_trps.svl 2023.06)
