@<TRIPOS>MOLECULE
NONAME
41 43 1 0 0 
SMALL
USER_CHARGES


@<TRIPOS>ATOM
  1 S        0.6670     0.6390     0.6210 S.3   1 <1>  -0.3320 
  2 C       -0.8530     1.4620     0.1150 C.ar  1 <1>   0.1020 
  3 C        1.6300     0.3070    -0.9340 C.3   1 <1>   0.1310 
  4 C       -1.6850     1.9150     1.1230 C.ar  1 <1>  -0.1500 
  5 C       -1.1890     1.6420    -1.2180 C.ar  1 <1>  -0.1500 
  6 C        2.9980    -0.2870    -0.6210 C.2   1 <1>   0.5690 
  7 C       -2.8650     2.5620     0.7980 C.ar  1 <1>  -0.1500 
  8 C       -2.3710     2.2900    -1.5370 C.ar  1 <1>  -0.1500 
  9 O        3.2000    -1.4180    -0.9990 O.2   1 <1>  -0.5700 
 10 N        3.9710     0.4380     0.0240 N.am  1 <1>  -0.6600 
 11 C       -3.2060     2.7490    -0.5310 C.ar  1 <1>  -0.1500 
 12 C        3.8350     1.8520     0.5060 C.3   1 <1>   0.1400 
 13 C        5.3130    -0.1540     0.3310 C.3   1 <1>   0.1400 
 14 C        4.9890     2.7340    -0.0010 C.3   1 <1>   0.2090 
 15 C        6.4530     0.7400    -0.1860 C.3   1 <1>   0.2090 
 16 N        6.3210     2.1370     0.3220 N.pl3 1 <1>  -0.8380 
 17 C        7.4340     2.9430     0.1870 C.ar  1 <1>   0.4100 
 18 N        7.4130     3.8550    -0.7790 N.ar  1 <1>  -0.6200 
 19 C        8.5160     2.7630     1.0440 C.ar  1 <1>  -0.1500 
 20 C        8.4990     4.6010    -0.8910 C.ar  1 <1>   0.1600 
 21 C        9.6400     3.5450     0.9150 C.ar  1 <1>  -0.1500 
 22 C        9.6210     4.4920    -0.0890 C.ar  1 <1>  -0.1500 
 23 H        1.7350     1.2350    -1.4610 H     1 <1>   0.0800 
 24 H        1.0540    -0.3870    -1.5160 H     1 <1>   0.0800 
 25 H       -1.4090     1.7620     2.1520 H     1 <1>   0.1500 
 26 H       -0.5590     1.2880    -2.0100 H     1 <1>   0.1500 
 27 H       -3.5160     2.9180     1.5780 H     1 <1>   0.1500 
 28 H       -2.6450     2.4360    -2.5680 H     1 <1>   0.1500 
 29 H       -4.1240     3.2520    -0.7830 H     1 <1>   0.1500 
 30 H        3.8440     1.8550     1.5820 H     1 <1>   0.0800 
 31 H        2.9070     2.2860     0.1850 H     1 <1>   0.0800 
 32 H        5.4070    -1.1300    -0.1110 H     1 <1>   0.0800 
 33 H        5.4100    -0.2650     1.3960 H     1 <1>   0.0800 
 34 H        4.9200     3.7090     0.4510 H     1 <1>   0.0800 
 35 H        4.9040     2.8570    -1.0670 H     1 <1>   0.0800 
 36 H        6.4370     0.7510    -1.2620 H     1 <1>   0.0800 
 37 H        7.3970     0.3280     0.1270 H     1 <1>   0.0800 
 38 H        8.4510     2.0100     1.8040 H     1 <1>   0.1500 
 39 H        8.4960     5.3430    -1.6710 H     1 <1>   0.1500 
 40 H       10.4900     3.4280     1.5650 H     1 <1>   0.1500 
 41 H       10.4650     5.1380    -0.2460 H     1 <1>   0.1500 
@<TRIPOS>BOND
  1   1   2  1   
  2   1   3  1   
  3   2   4  ar  
  4   2   5  ar  
  5   3   6  1   
  6   3  23  1   
  7   3  24  1   
  8   4   7  ar  
  9   4  25  1   
 10   5   8  ar  
 11   5  26  1   
 12   6   9  2   
 13   6  10  am  
 14   7  11  ar  
 15   7  27  1   
 16   8  11  ar  
 17   8  28  1   
 18  10  12  1   
 19  10  13  1   
 20  11  29  1   
 21  12  14  1   
 22  12  30  1   
 23  12  31  1   
 24  13  15  1   
 25  13  32  1   
 26  13  33  1   
 27  14  16  1   
 28  14  34  1   
 29  14  35  1   
 30  15  16  1   
 31  15  36  1   
 32  15  37  1   
 33  16  17  1   
 34  17  18  ar  
 35  17  19  ar  
 36  18  20  ar  
 37  19  21  ar  
 38  19  38  1   
 39  20  22  ar  
 40  20  39  1   
 41  21  22  ar  
 42  21  40  1   
 43  22  41  1   
@<TRIPOS>SUBSTRUCTURE
  1 ****  12 GROUP 4 **** **** 0

# MOE 2024.06 (io_trps.svl 2023.06)
