@<TRIPOS>MOLECULE
NONAME
42 42 1 0 0 
SMALL
USER_CHARGES


@<TRIPOS>ATOM
  1 O        0.5960     0.8970    -1.6200 O.2   1 <1>  -0.5700 
  2 C       -0.1610     1.5990    -0.9760 C.2   1 <1>   0.5440 
  3 N       -1.3150     1.0700    -0.4630 N.am  1 <1>  -0.7300 
  4 C        0.1580     2.9880    -0.7270 C.ar  1 <1>   0.0860 
  5 C       -1.8040    -0.3120    -0.5090 C.3   1 <1>   0.3000 
  6 C        1.4260     3.3760    -0.2610 C.ar  1 <1>   0.1170 
  7 C       -0.8090     3.9740    -0.9370 C.ar  1 <1>  -0.1500 
  8 C       -3.1240    -0.3280     0.2600 C.3   1 <1>  -0.2400 
  9 C       -2.0530    -0.7290    -1.9590 C.3   1 <1>  -0.2400 
 10 C       -0.8020    -1.2410     0.1780 C.3   1 <1>  -0.2400 
 11 N        2.4100     2.3970    -0.0490 N.am  1 <1>  -0.5470 
 12 C        1.6760     4.7260    -0.0240 C.ar  1 <1>  -0.1500 
 13 C       -0.5450     5.3070    -0.6930 C.ar  1 <1>  -0.1500 
 14 C        3.5860     2.3690     0.6500 C.2   1 <1>   0.5690 
 15 C        0.7040     5.6830    -0.2330 C.ar  1 <1>  -0.1500 
 16 O        4.0330     3.3100     1.2610 O.2   1 <1>  -0.5700 
 17 C        4.3700     1.0600     0.6520 C.3   1 <1>   0.1810 
 18 O        3.5690    -0.0150     0.2270 O.3   1 <1>  -0.5600 
 19 C        4.2330    -1.2270     0.1340 C.3   1 <1>   0.1200 
 20 C        3.2120    -2.2670    -0.3100 C.3   1 <1>  -0.2400 
 21 H       -1.8640     1.6610     0.1580 H     1 <1>   0.3700 
 22 H       -1.7780     3.6870    -1.3050 H     1 <1>   0.1500 
 23 H       -2.9710    -0.0320     1.2820 H     1 <1>   0.0800 
 24 H       -3.5380    -1.3210     0.2590 H     1 <1>   0.0800 
 25 H       -3.8370     0.3320    -0.2000 H     1 <1>   0.0800 
 26 H       -2.7200    -0.0380    -2.4400 H     1 <1>   0.0800 
 27 H       -2.4900    -1.7090    -1.9930 H     1 <1>   0.0800 
 28 H       -1.1290    -0.7610    -2.5080 H     1 <1>   0.0800 
 29 H       -0.5990    -0.9040     1.1790 H     1 <1>   0.0800 
 30 H        0.1220    -1.2750    -0.3710 H     1 <1>   0.0800 
 31 H       -1.1940    -2.2400     0.2260 H     1 <1>   0.0800 
 32 H        2.1860     1.4770    -0.4630 H     1 <1>   0.3700 
 33 H        2.6420     5.0390     0.3260 H     1 <1>   0.1500 
 34 H       -1.3030     6.0530    -0.8610 H     1 <1>   0.1500 
 35 H        0.9190     6.7200    -0.0410 H     1 <1>   0.1500 
 36 H        4.7190     0.8560     1.6480 H     1 <1>   0.0800 
 37 H        5.2080     1.1530    -0.0150 H     1 <1>   0.0800 
 38 H        4.6390    -1.4800     1.1000 H     1 <1>   0.0800 
 39 H        5.0240    -1.1380    -0.5910 H     1 <1>   0.0800 
 40 H        2.4280    -2.3480     0.4210 H     1 <1>   0.0800 
 41 H        3.6870    -3.2260    -0.4140 H     1 <1>   0.0800 
 42 H        2.7890    -1.9850    -1.2580 H     1 <1>   0.0800 
@<TRIPOS>BOND
  1   1   2  2   
  2   2   3  am  
  3   2   4  1   
  4   3   5  1   
  5   3  21  1   
  6   4   6  ar  
  7   4   7  ar  
  8   5   8  1   
  9   5   9  1   
 10   5  10  1   
 11   6  11  1   
 12   6  12  ar  
 13   7  13  ar  
 14   7  22  1   
 15   8  23  1   
 16   8  24  1   
 17   8  25  1   
 18   9  26  1   
 19   9  27  1   
 20   9  28  1   
 21  10  29  1   
 22  10  30  1   
 23  10  31  1   
 24  11  14  am  
 25  11  32  1   
 26  12  15  ar  
 27  12  33  1   
 28  13  15  ar  
 29  13  34  1   
 30  14  16  2   
 31  14  17  1   
 32  15  35  1   
 33  17  18  1   
 34  17  36  1   
 35  17  37  1   
 36  18  19  1   
 37  19  20  1   
 38  19  38  1   
 39  19  39  1   
 40  20  40  1   
 41  20  41  1   
 42  20  42  1   
@<TRIPOS>SUBSTRUCTURE
  1 ****   2 GROUP 4 **** **** 0

# MOE 2024.06 (io_trps.svl 2023.06)
