@<TRIPOS>MOLECULE
NONAME
25 25 1 0 0 
SMALL
USER_CHARGES


@<TRIPOS>ATOM
  1 BR       0.0130    -0.1210     0.6610 Br    1 <1>  -0.1110 
  2 C       -1.8670    -0.0810     0.2570 C.ar  1 <1>   0.1110 
  3 C       -2.3500    -0.8970    -0.7470 C.ar  1 <1>  -0.1500 
  4 C       -2.6860     0.7630     0.9800 C.ar  1 <1>  -0.1500 
  5 C       -3.7040    -0.8670    -1.0340 C.ar  1 <1>  -0.1500 
  6 C       -4.0390     0.7870     0.6870 C.ar  1 <1>  -0.1500 
  7 C       -4.5520    -0.0300    -0.3150 C.ar  1 <1>  -0.1430 
  8 C       -6.0340    -0.0160    -0.6170 C.3   1 <1>   0.4870 
  9 N       -6.6440    -1.0430     0.2510 N.4   1 <1>  -0.9060 
 10 C       -8.1200    -1.1540     0.0700 C.3   1 <1>   0.3430 
 11 C       -8.7260    -2.2270     0.9830 C.3   1 <1>   0.1200 
 12 O      -10.0860    -2.2500     0.7410 O.3   1 <1>  -0.6800 
 13 H       -1.6760    -1.5360    -1.2910 H     1 <1>   0.1500 
 14 H       -2.2680     1.3870     1.7510 H     1 <1>   0.1500 
 15 H       -4.0780    -1.4990    -1.8220 H     1 <1>   0.1500 
 16 H       -4.6750     1.4520     1.2480 H     1 <1>   0.1500 
 17 H       -6.2020    -0.2470    -1.6570 H     1 <1>   0.0800 
 18 H       -6.4460     0.9580    -0.4040 H     1 <1>   0.0800 
 19 H       -6.4080    -0.8090     1.2230 H     1 <1>   0.4500 
 20 H       -6.1790    -1.9360     0.0500 H     1 <1>   0.4500 
 21 H       -8.3440    -1.4090    -0.9530 H     1 <1>   0.0800 
 22 H       -8.5870    -0.2090     0.2960 H     1 <1>   0.0800 
 23 H       -8.5780    -1.9880     2.0220 H     1 <1>   0.0800 
 24 H       -8.3310    -3.2030     0.7580 H     1 <1>   0.0800 
 25 H      -10.5460    -2.9190     1.2940 H     1 <1>   0.4000 
@<TRIPOS>BOND
  1   1   2  1   
  2   2   3  ar  
  3   2   4  ar  
  4   3   5  ar  
  5   3  13  1   
  6   4   6  ar  
  7   4  14  1   
  8   5   7  ar  
  9   5  15  1   
 10   6   7  ar  
 11   6  16  1   
 12   7   8  1   
 13   8   9  1   
 14   8  17  1   
 15   8  18  1   
 16   9  10  1   
 17   9  19  1   
 18   9  20  1   
 19  10  11  1   
 20  10  21  1   
 21  10  22  1   
 22  11  12  1   
 23  11  23  1   
 24  11  24  1   
 25  12  25  1   
@<TRIPOS>SUBSTRUCTURE
  1 ****   7 GROUP 4 **** **** 0

# MOE 2024.06 (io_trps.svl 2023.06)
