@<TRIPOS>MOLECULE
NONAME
40 41 1 0 0 
SMALL
USER_CHARGES


@<TRIPOS>ATOM
  1 S       -0.0170    -0.0250     0.0170 S.3   1 <1>  -0.3320 
  2 C       -1.6060    -0.8230     0.3090 C.ar  1 <1>   0.1020 
  3 C        0.4790    -0.4470    -1.7110 C.3   1 <1>  -0.0100 
  4 C       -2.1670    -0.6640     1.5620 C.ar  1 <1>  -0.1500 
  5 C       -2.2510    -1.5650    -0.6670 C.ar  1 <1>  -0.1500 
  6 C       -3.3880    -1.2520     1.8470 C.ar  1 <1>  -0.1500 
  7 C       -3.4730    -2.1490    -0.3760 C.ar  1 <1>  -0.1500 
  8 C       -4.0480    -1.9960     0.8780 C.ar  1 <1>  -0.1430 
  9 C       -5.3930    -2.6400     1.1820 C.3   1 <1>   0.2530 
 10 N       -6.4490    -2.0970     0.3020 N.3   1 <1>  -0.8100 
 11 C       -6.6110    -0.6350     0.4590 C.3   1 <1>   0.1100 
 12 C       -7.7260    -2.8080     0.4900 C.3   1 <1>   0.1100 
 13 C       -7.6820    -0.0840    -0.5020 C.3   1 <1>   0.3430 
 14 C       -8.8100    -2.2770    -0.4710 C.3   1 <1>   0.3430 
 15 N       -9.0020    -0.7880    -0.3360 N.4   1 <1>  -0.9590 
 16 C      -10.0040    -0.2560    -1.2940 C.3   1 <1>   0.3430 
 17 C      -11.4010    -0.6980    -0.8760 C.3   1 <1>  -0.2400 
 18 H        1.4310     0.0170    -1.8980 H     1 <1>   0.0800 
 19 H       -0.2710    -0.0590    -2.3770 H     1 <1>   0.0800 
 20 H        0.5560    -1.5170    -1.7830 H     1 <1>   0.0800 
 21 H       -1.6480    -0.0860     2.3060 H     1 <1>   0.1500 
 22 H       -1.8250    -1.6960    -1.6410 H     1 <1>   0.1500 
 23 H       -3.8150    -1.1260     2.8260 H     1 <1>   0.1500 
 24 H       -3.9820    -2.7250    -1.1290 H     1 <1>   0.1500 
 25 H       -5.6550    -2.4790     2.2150 H     1 <1>   0.0800 
 26 H       -5.3050    -3.7010     1.0230 H     1 <1>   0.0800 
 27 H       -5.6800    -0.1410     0.2360 H     1 <1>   0.0800 
 28 H       -6.8740    -0.3970     1.4760 H     1 <1>   0.0800 
 29 H       -8.0620    -2.7040     1.5080 H     1 <1>   0.0800 
 30 H       -7.5780    -3.8570     0.2950 H     1 <1>   0.0800 
 31 H       -7.3260    -0.2140    -1.5110 H     1 <1>   0.0800 
 32 H       -7.8040     0.9720    -0.3260 H     1 <1>   0.0800 
 33 H       -9.7370    -2.7890    -0.2710 H     1 <1>   0.0800 
 34 H       -8.5120    -2.5130    -1.4790 H     1 <1>   0.0800 
 35 H       -9.3320    -0.6010     0.6180 H     1 <1>   0.4500 
 36 H       -9.7860    -0.6010    -2.2920 H     1 <1>   0.0800 
 37 H       -9.9660     0.8230    -1.2950 H     1 <1>   0.0800 
 38 H      -11.5170    -1.7640    -0.9510 H     1 <1>   0.0800 
 39 H      -12.1220    -0.2470    -1.5350 H     1 <1>   0.0800 
 40 H      -11.6230    -0.3760     0.1260 H     1 <1>   0.0800 
@<TRIPOS>BOND
  1   1   2  1   
  2   1   3  1   
  3   2   4  ar  
  4   2   5  ar  
  5   3  18  1   
  6   3  19  1   
  7   3  20  1   
  8   4   6  ar  
  9   4  21  1   
 10   5   7  ar  
 11   5  22  1   
 12   6   8  ar  
 13   6  23  1   
 14   7   8  ar  
 15   7  24  1   
 16   8   9  1   
 17   9  10  1   
 18   9  25  1   
 19   9  26  1   
 20  10  11  1   
 21  10  12  1   
 22  11  13  1   
 23  11  27  1   
 24  11  28  1   
 25  12  14  1   
 26  12  29  1   
 27  12  30  1   
 28  13  15  1   
 29  13  31  1   
 30  13  32  1   
 31  14  15  1   
 32  14  33  1   
 33  14  34  1   
 34  15  16  1   
 35  15  35  1   
 36  16  17  1   
 37  16  36  1   
 38  16  37  1   
 39  17  38  1   
 40  17  39  1   
 41  17  40  1   
@<TRIPOS>SUBSTRUCTURE
  1 ****  10 GROUP 4 **** **** 0

# MOE 2024.06 (io_trps.svl 2023.06)
