@<TRIPOS>MOLECULE
NONAME
43 44 1 0 0 
SMALL
USER_CHARGES


@<TRIPOS>ATOM
  1 S       -0.0130    -0.4780     0.2560 S.o2  1 <1>   1.3330 
  2 O       -0.0690    -1.7500    -0.4170 O.2   1 <1>  -0.6500 
  3 O        1.0300    -0.1660     1.1980 O.2   1 <1>  -0.6500 
  4 N       -1.4560    -0.2850     1.1650 N.am  1 <1>  -0.7570 
  5 C       -0.1320     0.8480    -0.9240 C.3   1 <1>  -0.1350 
  6 C       -2.7650    -0.6040     0.8490 C.ar  1 <1>   0.1990 
  7 C       -3.7590    -0.3660     1.7910 C.ar  1 <1>  -0.1500 
  8 C       -3.1490    -1.1440    -0.3760 C.ar  1 <1>  -0.1500 
  9 C       -5.0840    -0.6550     1.5230 C.ar  1 <1>  -0.1500 
 10 C       -4.4740    -1.4300    -0.6420 C.ar  1 <1>  -0.1500 
 11 C       -5.4790    -1.2010     0.2990 C.ar  1 <1>   0.0860 
 12 C       -6.8620    -1.5190     0.0060 C.2   1 <1>   0.5440 
 13 O       -7.2790    -1.4420    -1.1330 O.2   1 <1>  -0.5700 
 14 N       -7.7020    -1.9240     1.0110 N.am  1 <1>  -0.7300 
 15 C       -9.1340    -2.2950     0.9180 C.3   1 <1>   0.2200 
 16 C       -9.3060    -3.5060    -0.0130 C.3   1 <1>  -0.1600 
 17 C       -9.9630    -1.0570     0.5490 C.3   1 <1>  -0.1600 
 18 C      -10.6540    -4.2150     0.1910 C.3   1 <1>  -0.1600 
 19 C      -11.4780    -1.3040     0.4530 C.3   1 <1>  -0.1600 
 20 C      -11.8220    -3.6360    -0.6240 C.3   1 <1>  -0.1600 
 21 C      -11.8600    -2.1090    -0.7970 C.3   1 <1>  -0.1600 
 22 H       -1.2210    -0.0400     2.1230 H     1 <1>   0.4200 
 23 H        0.7430     0.8670    -1.5430 H     1 <1>   0.0800 
 24 H       -0.2150     1.7900    -0.4170 H     1 <1>   0.0800 
 25 H       -0.9930     0.7150    -1.5490 H     1 <1>   0.0800 
 26 H       -3.4910     0.0540     2.7430 H     1 <1>   0.1500 
 27 H       -2.4160    -1.3520    -1.1320 H     1 <1>   0.1500 
 28 H       -5.8280    -0.4440     2.2700 H     1 <1>   0.1500 
 29 H       -4.7480    -1.8460    -1.5970 H     1 <1>   0.1500 
 30 H       -7.2900    -2.1090     1.9240 H     1 <1>   0.3700 
 31 H       -9.4380    -2.6000     1.9040 H     1 <1>   0.0800 
 32 H       -8.5280    -4.2120     0.2160 H     1 <1>   0.0800 
 33 H       -9.1890    -3.2140    -1.0420 H     1 <1>   0.0800 
 34 H       -9.6170    -0.6570    -0.3880 H     1 <1>   0.0800 
 35 H       -9.7920    -0.3080     1.3010 H     1 <1>   0.0800 
 36 H      -10.9100    -4.2040     1.2370 H     1 <1>   0.0800 
 37 H      -10.5430    -5.2490    -0.0880 H     1 <1>   0.0800 
 38 H      -11.9560    -0.3420     0.3830 H     1 <1>   0.0800 
 39 H      -11.8490    -1.7810     1.3440 H     1 <1>   0.0800 
 40 H      -12.7400    -3.9550    -0.1600 H     1 <1>   0.0800 
 41 H      -11.8020    -4.0740    -1.6080 H     1 <1>   0.0800 
 42 H      -11.2160    -1.8280    -1.6130 H     1 <1>   0.0800 
 43 H      -12.8600    -1.8380    -1.0880 H     1 <1>   0.0800 
@<TRIPOS>BOND
  1   1   2  2   
  2   1   3  2   
  3   1   4  am  
  4   1   5  1   
  5   4   6  1   
  6   4  22  1   
  7   5  23  1   
  8   5  24  1   
  9   5  25  1   
 10   6   7  ar  
 11   6   8  ar  
 12   7   9  ar  
 13   7  26  1   
 14   8  10  ar  
 15   8  27  1   
 16   9  11  ar  
 17   9  28  1   
 18  10  11  ar  
 19  10  29  1   
 20  11  12  1   
 21  12  13  2   
 22  12  14  am  
 23  14  15  1   
 24  14  30  1   
 25  15  16  1   
 26  15  17  1   
 27  15  31  1   
 28  16  18  1   
 29  16  32  1   
 30  16  33  1   
 31  17  19  1   
 32  17  34  1   
 33  17  35  1   
 34  18  20  1   
 35  18  36  1   
 36  18  37  1   
 37  19  21  1   
 38  19  38  1   
 39  19  39  1   
 40  20  21  1   
 41  20  40  1   
 42  20  41  1   
 43  21  42  1   
 44  21  43  1   
@<TRIPOS>SUBSTRUCTURE
  1 ****  11 GROUP 4 **** **** 0

# MOE 2024.06 (io_trps.svl 2023.06)
