@<TRIPOS>MOLECULE
NONAME
32 33 1 0 0 
SMALL
USER_CHARGES


@<TRIPOS>ATOM
  1 O        0.4010     0.4680     0.6160 O.2   1 <1>  -0.5700 
  2 C        0.3580     1.5660     0.0920 C.2   1 <1>   0.7800 
  3 O       -0.8260     2.1440    -0.1240 O.3   1 <1>  -0.4300 
  4 N        1.4830     2.2490    -0.2900 N.am  1 <1>  -0.6600 
  5 C       -2.0230     1.5010     0.2470 C.3   1 <1>   0.1200 
  6 C        1.4510     3.5890    -0.9390 C.3   1 <1>   0.1400 
  7 C        2.8460     1.6870    -0.0960 C.3   1 <1>   0.1400 
  8 C       -3.1860     2.4130    -0.1280 C.3   1 <1>  -0.2400 
  9 C        2.2620     4.5760    -0.1000 C.3   1 <1>  -0.1600 
 10 C        3.6760     2.6500     0.7530 C.3   1 <1>  -0.1600 
 11 C        3.6740     4.0510     0.1360 C.3   1 <1>   0.5600 
 12 O        4.3590     4.9420     0.9470 O.3   1 <1>  -0.5600 
 13 O        4.3650     4.0480    -1.0710 O.3   1 <1>  -0.5600 
 14 C        5.6830     4.9810     0.5590 C.3   1 <1>   0.1200 
 15 C        5.6800     4.4090    -0.8460 C.3   1 <1>   0.1200 
 16 H       -1.9980     1.3210     1.3090 H     1 <1>   0.0800 
 17 H       -2.0810     0.5620    -0.2770 H     1 <1>   0.0800 
 18 H        0.4410     3.9480    -1.0410 H     1 <1>   0.0800 
 19 H        1.8780     3.5110    -1.9240 H     1 <1>   0.0800 
 20 H        3.3100     1.5540    -1.0590 H     1 <1>   0.0800 
 21 H        2.7970     0.7270     0.3880 H     1 <1>   0.0800 
 22 H       -3.1060     3.3490     0.3960 H     1 <1>   0.0800 
 23 H       -4.1150     1.9460     0.1440 H     1 <1>   0.0800 
 24 H       -3.1880     2.5920    -1.1880 H     1 <1>   0.0800 
 25 H        1.7720     4.7110     0.8460 H     1 <1>   0.0800 
 26 H        2.3130     5.5260    -0.5970 H     1 <1>   0.0800 
 27 H        4.6790     2.2810     0.8430 H     1 <1>   0.0800 
 28 H        3.2440     2.6990     1.7360 H     1 <1>   0.0800 
 29 H        6.2630     4.3740     1.2320 H     1 <1>   0.0800 
 30 H        6.0280     5.9990     0.5830 H     1 <1>   0.0800 
 31 H        5.9700     5.1410    -1.5780 H     1 <1>   0.0800 
 32 H        6.3040     3.5370    -0.9220 H     1 <1>   0.0800 
@<TRIPOS>BOND
  1   1   2  2   
  2   2   3  1   
  3   2   4  am  
  4   3   5  1   
  5   4   6  1   
  6   4   7  1   
  7   5   8  1   
  8   5  16  1   
  9   5  17  1   
 10   6   9  1   
 11   6  18  1   
 12   6  19  1   
 13   7  10  1   
 14   7  20  1   
 15   7  21  1   
 16   8  22  1   
 17   8  23  1   
 18   8  24  1   
 19   9  11  1   
 20   9  25  1   
 21   9  26  1   
 22  10  11  1   
 23  10  27  1   
 24  10  28  1   
 25  11  12  1   
 26  11  13  1   
 27  12  14  1   
 28  13  15  1   
 29  14  15  1   
 30  14  29  1   
 31  14  30  1   
 32  15  31  1   
 33  15  32  1   
@<TRIPOS>SUBSTRUCTURE
  1 ****   4 GROUP 4 **** **** 0

# MOE 2024.06 (io_trps.svl 2023.06)
