@<TRIPOS>MOLECULE
NONAME
36 38 1 0 0 
SMALL
USER_CHARGES


@<TRIPOS>ATOM
  1 CL       0.2570     0.5190    -0.8320 Cl    1 <1>  -0.1770 
  2 C        1.9670     0.3660    -0.5000 C.ar  1 <1>   0.1770 
  3 C        2.6970     1.4320     0.0140 C.ar  1 <1>  -0.1440 
  4 C        2.5580    -0.8570    -0.7600 C.ar  1 <1>  -0.1500 
  5 C        4.0510     1.2470     0.2690 C.ar  1 <1>  -0.1500 
  6 C        2.0630     2.7840     0.3090 C.3   1 <1>   0.2840 
  7 C        3.9050    -1.0100    -0.5000 C.ar  1 <1>   0.1770 
  8 C        4.6590     0.0300     0.0100 C.ar  1 <1>  -0.1500 
  9 N        2.7420     3.8400    -0.4540 N.am  1 <1>  -0.7300 
 10 CL       4.6660    -2.5480    -0.8210 Cl    1 <1>  -0.1770 
 11 C        2.4610     5.1560    -0.3070 C.2   1 <1>   0.5690 
 12 O        1.4460     5.4940     0.2600 O.2   1 <1>  -0.5700 
 13 C        3.3690     6.2410    -0.9160 C.3   1 <1>  -0.0190 
 14 C        5.0630     5.9530    -1.0180 C.3   1 <1>  -0.1860 
 15 C        3.2060     7.7290    -0.1900 C.3   1 <1>   0.0580 
 16 C        5.5140     4.6180    -0.4570 C.2   1 <1>   0.9060 
 17 C        5.8150     7.2740    -0.3580 C.3   1 <1>   0.0580 
 18 C        4.0990     9.0010     0.2540 C.2   1 <1>  -0.2880 
 19 C        4.4870     7.3840    -0.3070 C.3   1 <1>  -0.1600 
 20 O        5.4340     3.6410    -1.2070 O.co2 1 <1>  -0.9000 
 21 O        5.8440     4.4970     0.7250 O.co2 1 <1>  -0.9000 
 22 C        5.4640     8.7620     0.1680 C.2   1 <1>  -0.2880 
 23 H        1.9820    -1.6700    -1.1580 H     1 <1>   0.1500 
 24 H        4.6480     2.0610     0.6590 H     1 <1>   0.1500 
 25 H        2.1630     3.0000     1.3590 H     1 <1>   0.0800 
 26 H        1.0160     2.8020     0.0660 H     1 <1>   0.0800 
 27 H        5.7100    -0.0970     0.1980 H     1 <1>   0.1500 
 28 H        3.6750     3.5620    -0.8250 H     1 <1>   0.3700 
 29 H        3.0050     6.3310    -1.9290 H     1 <1>   0.0800 
 30 H        5.3310     5.9050    -2.0630 H     1 <1>   0.0800 
 31 H        2.6710     7.5230     0.7260 H     1 <1>   0.0800 
 32 H        6.3720     6.8700     0.4770 H     1 <1>   0.0800 
 33 H        3.5900     9.8940     0.5750 H     1 <1>   0.1500 
 34 H        4.4830     6.9520     0.7770 H     1 <1>   0.0800 
 35 H        4.5030     7.8870    -1.4160 H     1 <1>   0.0800 
 36 H        6.2820     9.4220     0.4040 H     1 <1>   0.1500 
@<TRIPOS>BOND
  1   1   2  1   
  2   2   3  ar  
  3   2   4  ar  
  4   3   5  ar  
  5   3   6  1   
  6   4   7  ar  
  7   4  23  1   
  8   5   8  ar  
  9   5  24  1   
 10   6   9  1   
 11   6  25  1   
 12   6  26  1   
 13   7   8  ar  
 14   7  10  1   
 15   8  27  1   
 16   9  11  am  
 17   9  28  1   
 18  11  12  2   
 19  11  13  1   
 20  13  14  1   
 21  13  15  1   
 22  13  29  1   
 23  14  16  1   
 24  14  17  1   
 25  14  30  1   
 26  15  18  1   
 27  15  19  1   
 28  15  31  1   
 29  16  20  ar  
 30  16  21  ar  
 31  17  19  1   
 32  17  22  1   
 33  17  32  1   
 34  18  22  2   
 35  18  33  1   
 36  19  34  1   
 37  19  35  1   
 38  22  36  1   
@<TRIPOS>SUBSTRUCTURE
  1 ****   9 GROUP 4 **** **** 0

# MOE 2024.06 (io_trps.svl 2023.06)
