@<TRIPOS>MOLECULE
NONAME
27 27 1 0 0 
SMALL
USER_CHARGES


@<TRIPOS>ATOM
  1 O       -0.1450     0.3890     0.6210 O.2   1 <1>  -0.5700 
  2 C       -0.1890     1.6270     0.4310 C.2   1 <1>   0.6160 
  3 N        0.9950     2.3120     0.0470 N.am  1 <1>  -0.2980 
  4 C       -1.3830     2.3560     0.5800 C.2   1 <1>   0.0910 
  5 N        0.9820     3.6800    -0.1860 N.2   1 <1>  -0.5120 
  6 C        2.3210     1.5920    -0.1250 C.3   1 <1>   0.3000 
  7 O       -2.5160     1.6360     0.9620 O.3   1 <1>  -0.3570 
  8 C       -1.3800     3.7430     0.3480 C.2   1 <1>  -0.1360 
  9 C       -0.1320     4.3170    -0.0380 C.2   1 <1>   0.3760 
 10 C        2.2240     0.5410    -1.2440 C.3   1 <1>  -0.2400 
 11 C        2.7630     0.9490     1.2000 C.3   1 <1>  -0.2400 
 12 C        3.4450     2.5680    -0.5360 C.3   1 <1>  -0.2400 
 13 C       -3.7780     2.1420     0.5940 C.3   1 <1>   0.0400 
 14 O       -2.3710     4.5140     0.4570 O.3   1 <1>  -0.8500 
 15 H       -0.1450     5.3770    -0.2150 H     1 <1>   0.0600 
 16 H        3.1900     0.1170    -1.4450 H     1 <1>   0.0800 
 17 H        1.8560     1.0010    -2.1430 H     1 <1>   0.0800 
 18 H        1.5690    -0.2650    -0.9730 H     1 <1>   0.0800 
 19 H        2.1130     0.1440     1.4850 H     1 <1>   0.0800 
 20 H        2.7650     1.6880     1.9800 H     1 <1>   0.0800 
 21 H        3.7540     0.5440     1.1080 H     1 <1>   0.0800 
 22 H        3.2070     3.0420    -1.4710 H     1 <1>   0.0800 
 23 H        4.3780     2.0480    -0.6540 H     1 <1>   0.0800 
 24 H        3.5770     3.3250     0.2160 H     1 <1>   0.0800 
 25 H       -4.5010     1.3550     0.6930 H     1 <1>   0.0800 
 26 H       -3.7330     2.4890    -0.4230 H     1 <1>   0.0800 
 27 H       -4.0240     2.9570     1.2520 H     1 <1>   0.0800 
@<TRIPOS>BOND
  1   1   2  2   
  2   2   3  am  
  3   2   4  1   
  4   3   5  1   
  5   3   6  1   
  6   4   7  1   
  7   4   8  2   
  8   5   9  2   
  9   6  10  1   
 10   6  11  1   
 11   6  12  1   
 12   7  13  1   
 13   8   9  1   
 14   8  14  1   
 15   9  15  1   
 16  10  16  1   
 17  10  17  1   
 18  10  18  1   
 19  11  19  1   
 20  11  20  1   
 21  11  21  1   
 22  12  22  1   
 23  12  23  1   
 24  12  24  1   
 25  13  25  1   
 26  13  26  1   
 27  13  27  1   
@<TRIPOS>SUBSTRUCTURE
  1 ****   2 GROUP 4 **** **** 0

# MOE 2024.06 (io_trps.svl 2023.06)
