@<TRIPOS>MOLECULE
NONAME
41 43 1 0 0 
SMALL
USER_CHARGES


@<TRIPOS>ATOM
  1 O       -1.2960     1.7660    -0.9230 O.3   1 <1>  -0.2800 
  2 C       -1.5790     0.7360    -0.1460 C.2   1 <1>  -0.0400 
  3 C       -0.0570     2.1340    -0.6640 C.2   1 <1>  -0.0100 
  4 C       -0.5170     0.4270     0.6310 C.2   1 <1>  -0.1500 
  5 C       -2.9520     0.0930    -0.2320 C.3   1 <1>   0.5230 
  6 C        0.4830     1.3470     0.2900 C.2   1 <1>  -0.1500 
  7 N       -3.9880     1.0690     0.2090 N.4   1 <1>  -0.9590 
  8 C       -5.2490     0.3800     0.6700 C.3   1 <1>   0.3430 
  9 C       -4.2820     2.0830    -0.8760 C.3   1 <1>   0.3430 
 10 C       -6.3520     1.3740     1.0920 C.3   1 <1>   0.2090 
 11 C       -5.3760     3.0910    -0.4690 C.3   1 <1>   0.2090 
 12 N       -6.5890     2.3690     0.0100 N.pl3 1 <1>  -0.8380 
 13 C       -7.8290     3.0030    -0.0180 C.ar  1 <1>   0.1000 
 14 C       -8.9470     2.2970    -0.4380 C.ar  1 <1>  -0.1500 
 15 C       -7.9870     4.3300     0.3700 C.ar  1 <1>  -0.1500 
 16 C      -10.1980     2.8860    -0.4720 C.ar  1 <1>   0.0830 
 17 C       -9.2320     4.9310     0.3380 C.ar  1 <1>  -0.1500 
 18 O      -11.2260     2.1070    -0.8960 O.3   1 <1>  -0.3620 
 19 C      -10.3400     4.2150    -0.0820 C.ar  1 <1>  -0.1500 
 20 C      -12.5370     2.6190    -0.9930 C.3   1 <1>   0.0400 
 21 H        0.3690     2.9640    -1.2040 H     1 <1>   0.1500 
 22 H       -0.4020    -0.3500     1.3680 H     1 <1>   0.1500 
 23 H       -2.9650    -0.7710     0.4120 H     1 <1>   0.0800 
 24 H       -3.1440    -0.2300    -1.2420 H     1 <1>   0.0800 
 25 H        1.4700     1.3890     0.7170 H     1 <1>   0.1500 
 26 H       -3.5840     1.5870     1.0000 H     1 <1>   0.4500 
 27 H       -5.0320    -0.2720     1.5000 H     1 <1>   0.0800 
 28 H       -5.6420    -0.2240    -0.1310 H     1 <1>   0.0800 
 29 H       -4.6150     1.5740    -1.7650 H     1 <1>   0.0800 
 30 H       -3.3880     2.6300    -1.1270 H     1 <1>   0.0800 
 31 H       -6.0650     1.8860     1.9940 H     1 <1>   0.0800 
 32 H       -7.2630     0.8360     1.2930 H     1 <1>   0.0800 
 33 H       -5.6370     3.7000    -1.3190 H     1 <1>   0.0800 
 34 H       -5.0080     3.7390     0.3070 H     1 <1>   0.0800 
 35 H       -8.8460     1.2760    -0.7500 H     1 <1>   0.1500 
 36 H       -7.1390     4.8940     0.7060 H     1 <1>   0.1500 
 37 H       -9.3430     5.9580     0.6410 H     1 <1>   0.1500 
 38 H      -11.2960     4.7030    -0.0970 H     1 <1>   0.1500 
 39 H      -13.1750     1.8340    -1.3560 H     1 <1>   0.0800 
 40 H      -12.5390     3.4420    -1.6850 H     1 <1>   0.0800 
 41 H      -12.8620     2.9340    -0.0170 H     1 <1>   0.0800 
@<TRIPOS>BOND
  1   1   2  1   
  2   1   3  1   
  3   2   4  2   
  4   2   5  1   
  5   3   6  2   
  6   3  21  1   
  7   4   6  1   
  8   4  22  1   
  9   5   7  1   
 10   5  23  1   
 11   5  24  1   
 12   6  25  1   
 13   7   8  1   
 14   7   9  1   
 15   7  26  1   
 16   8  10  1   
 17   8  27  1   
 18   8  28  1   
 19   9  11  1   
 20   9  29  1   
 21   9  30  1   
 22  10  12  1   
 23  10  31  1   
 24  10  32  1   
 25  11  12  1   
 26  11  33  1   
 27  11  34  1   
 28  12  13  1   
 29  13  14  ar  
 30  13  15  ar  
 31  14  16  ar  
 32  14  35  1   
 33  15  17  ar  
 34  15  36  1   
 35  16  18  1   
 36  16  19  ar  
 37  17  19  ar  
 38  17  37  1   
 39  18  20  1   
 40  19  38  1   
 41  20  39  1   
 42  20  40  1   
 43  20  41  1   
@<TRIPOS>SUBSTRUCTURE
  1 ****  12 GROUP 4 **** **** 0

# MOE 2024.06 (io_trps.svl 2023.06)
