@<TRIPOS>MOLECULE
NONAME
40 41 1 0 0 
SMALL
USER_CHARGES


@<TRIPOS>ATOM
  1 O       -0.4710     0.0230     0.3350 O.3   1 <1>  -0.5600 
  2 C       -0.0330     1.3560     0.3090 C.3   1 <1>   0.2580 
  3 C        0.5650    -0.9000     0.3260 C.3   1 <1>   0.1200 
  4 C       -1.2360     2.3030     0.3460 C.2   1 <1>  -0.0380 
  5 C       -0.0580    -2.2890     0.3640 C.3   1 <1>  -0.2400 
  6 N       -2.4280     1.7160     0.6740 N.pl3 1 <1>  -0.5500 
  7 C       -1.2730     3.6380     0.0870 C.2   1 <1>  -0.1240 
  8 C       -3.5880     2.4010     0.7430 C.2   1 <1>   0.5500 
  9 C       -2.5470     4.2990     0.1510 C.2   1 <1>   0.7670 
 10 C       -0.0800     4.5300    -0.2910 C.3   1 <1>   0.1220 
 11 N       -3.6890     3.6590     0.5010 N.2   1 <1>  -0.6610 
 12 N       -4.6880     1.7310     1.0780 N.pl3 1 <1>  -0.8500 
 13 O       -2.6420     5.4930    -0.1250 O.2   1 <1>  -0.5700 
 14 C        1.2890     4.0120     0.1300 C.ar  1 <1>  -0.1440 
 15 C        1.6250     3.9660     1.4750 C.ar  1 <1>  -0.1500 
 16 C        2.2090     3.5820    -0.8160 C.ar  1 <1>  -0.1500 
 17 C        2.8570     3.4760     1.8690 C.ar  1 <1>  -0.1500 
 18 C        3.4430     3.0930    -0.4240 C.ar  1 <1>  -0.1500 
 19 C        3.7720     3.0340     0.9270 C.ar  1 <1>   0.0820 
 20 O        4.9530     2.5620     1.3980 O.3   1 <1>  -0.3620 
 21 C        5.9960     2.1900     0.5240 C.3   1 <1>   0.0400 
 22 H        0.5340     1.5060    -0.5920 H     1 <1>   0.0800 
 23 H        0.5900     1.5190     1.1700 H     1 <1>   0.0800 
 24 H        1.1870    -0.7380     1.1910 H     1 <1>   0.0800 
 25 H        1.1430    -0.7670    -0.5740 H     1 <1>   0.0800 
 26 H       -0.6390    -2.4090     1.2610 H     1 <1>   0.0800 
 27 H        0.7150    -3.0350     0.3550 H     1 <1>   0.0800 
 28 H       -0.6870    -2.4360    -0.4950 H     1 <1>   0.0800 
 29 H       -2.4150     0.7030     0.8160 H     1 <1>   0.4000 
 30 H       -0.1950     5.4950     0.1730 H     1 <1>   0.0800 
 31 H       -0.1020     4.6950    -1.3540 H     1 <1>   0.0800 
 32 H       -5.5670     2.2440     1.1260 H     1 <1>   0.4000 
 33 H       -4.7190     0.7360     1.2820 H     1 <1>   0.4000 
 34 H        0.9260     4.3060     2.2200 H     1 <1>   0.1500 
 35 H        1.9680     3.6230    -1.8650 H     1 <1>   0.1500 
 36 H        3.1190     3.4360     2.9110 H     1 <1>   0.1500 
 37 H        4.1320     2.7650    -1.1790 H     1 <1>   0.1500 
 38 H        5.6680     1.3640    -0.0810 H     1 <1>   0.0800 
 39 H        6.8400     1.8930     1.1200 H     1 <1>   0.0800 
 40 H        6.2590     3.0360    -0.0850 H     1 <1>   0.0800 
@<TRIPOS>BOND
  1   1   2  1   
  2   1   3  1   
  3   2   4  1   
  4   2  22  1   
  5   2  23  1   
  6   3   5  1   
  7   3  24  1   
  8   3  25  1   
  9   4   6  1   
 10   4   7  2   
 11   5  26  1   
 12   5  27  1   
 13   5  28  1   
 14   6   8  1   
 15   6  29  1   
 16   7   9  1   
 17   7  10  1   
 18   8  11  2   
 19   8  12  1   
 20   9  11  1   
 21   9  13  2   
 22  10  14  1   
 23  10  30  1   
 24  10  31  1   
 25  12  32  1   
 26  12  33  1   
 27  14  15  ar  
 28  14  16  ar  
 29  15  17  ar  
 30  15  34  1   
 31  16  18  ar  
 32  16  35  1   
 33  17  19  ar  
 34  17  36  1   
 35  18  19  ar  
 36  18  37  1   
 37  19  20  1   
 38  20  21  1   
 39  21  38  1   
 40  21  39  1   
 41  21  40  1   
@<TRIPOS>SUBSTRUCTURE
  1 ****   2 GROUP 4 **** **** 0

# MOE 2024.06 (io_trps.svl 2023.06)
