@<TRIPOS>MOLECULE
NONAME
47 50 1 0 0 
SMALL
USER_CHARGES


@<TRIPOS>ATOM
  1 O        0.8790    -0.4740    -1.2050 O.3   1 <1>  -0.3630 
  2 C        0.2600    -1.5610    -0.6840 C.ar  1 <1>   0.0820 
  3 C        2.0670     0.0310    -0.6340 C.3   1 <1>   0.0400 
  4 C        0.6690    -2.2080     0.4750 C.ar  1 <1>  -0.1500 
  5 C       -0.8470    -2.0270    -1.3720 C.ar  1 <1>  -0.1500 
  6 C       -0.0230    -3.3130     0.9380 C.ar  1 <1>   0.0820 
  7 C       -1.5580    -3.1240    -0.9100 C.ar  1 <1>  -0.1440 
  8 O        0.4450    -3.8870     2.0730 O.3   1 <1>  -0.3630 
  9 C       -1.1390    -3.7730     0.2440 C.ar  1 <1>  -0.1500 
 10 C       -2.7890    -3.5900    -1.6600 C.3   1 <1>   0.4860 
 11 C       -0.0500    -5.1180     2.5510 C.3   1 <1>   0.0400 
 12 N       -3.9920    -3.1540    -0.9070 N.4   1 <1>  -0.9590 
 13 C       -5.2430    -3.7550    -1.4500 C.3   1 <1>   0.5230 
 14 C       -4.0900    -1.6550    -0.7700 C.3   1 <1>   0.3430 
 15 C       -6.3790    -3.2480    -0.5940 C.2   1 <1>  -0.3320 
 16 C       -5.1110    -1.2620     0.3110 C.3   1 <1>   0.0210 
 17 N       -7.6220    -3.8180    -0.4950 N.pl3 1 <1>   0.0330 
 18 C       -6.3300    -2.1490     0.1900 C.2   1 <1>  -0.1810 
 19 C       -8.3600    -3.0640     0.3820 C.ar  1 <1>  -0.1520 
 20 C       -7.5760    -2.0070     0.8330 C.ar  1 <1>   0.0000 
 21 C       -9.6740    -3.2210     0.8290 C.ar  1 <1>  -0.1500 
 22 C       -8.1060    -1.0890     1.7460 C.ar  1 <1>  -0.1500 
 23 C      -10.1840    -2.3120     1.7270 C.ar  1 <1>  -0.1500 
 24 C       -9.4000    -1.2460     2.1850 C.ar  1 <1>  -0.1500 
 25 H        2.3950     0.8660    -1.2270 H     1 <1>   0.0800 
 26 H        2.8170    -0.7400    -0.6440 H     1 <1>   0.0800 
 27 H        1.8630     0.3560     0.3710 H     1 <1>   0.0800 
 28 H        1.5220    -1.8770     1.0360 H     1 <1>   0.1500 
 29 H       -1.1330    -1.5080    -2.2700 H     1 <1>   0.1500 
 30 H       -1.6770    -4.6300     0.6020 H     1 <1>   0.1500 
 31 H       -2.7680    -4.6640    -1.7440 H     1 <1>   0.0800 
 32 H       -2.7950    -3.1680    -2.6520 H     1 <1>   0.0800 
 33 H        0.5280    -5.3960     3.4140 H     1 <1>   0.0800 
 34 H        0.0630    -5.8630     1.7830 H     1 <1>   0.0800 
 35 H       -1.0820    -4.9980     2.8290 H     1 <1>   0.0800 
 36 H       -3.9080    -3.5090     0.0520 H     1 <1>   0.4500 
 37 H       -5.1920    -4.8300    -1.3950 H     1 <1>   0.0800 
 38 H       -5.3950    -3.4590    -2.4750 H     1 <1>   0.0800 
 39 H       -4.3970    -1.2300    -1.7120 H     1 <1>   0.0800 
 40 H       -3.1330    -1.2340    -0.5070 H     1 <1>   0.0800 
 41 H       -5.3900    -0.2310     0.1850 H     1 <1>   0.0800 
 42 H       -4.6770    -1.3760     1.2880 H     1 <1>   0.0800 
 43 H       -7.9850    -4.6530    -0.9690 H     1 <1>   0.2700 
 44 H      -10.2740    -4.0410     0.4750 H     1 <1>   0.1500 
 45 H       -7.4980    -0.2740     2.0930 H     1 <1>   0.1500 
 46 H      -11.1930    -2.4100     2.0870 H     1 <1>   0.1500 
 47 H       -9.8250    -0.5500     2.8870 H     1 <1>   0.1500 
@<TRIPOS>BOND
  1   1   2  1   
  2   1   3  1   
  3   2   4  ar  
  4   2   5  ar  
  5   3  25  1   
  6   3  26  1   
  7   3  27  1   
  8   4   6  ar  
  9   4  28  1   
 10   5   7  ar  
 11   5  29  1   
 12   6   8  1   
 13   6   9  ar  
 14   7   9  ar  
 15   7  10  1   
 16   8  11  1   
 17   9  30  1   
 18  10  12  1   
 19  10  31  1   
 20  10  32  1   
 21  11  33  1   
 22  11  34  1   
 23  11  35  1   
 24  12  13  1   
 25  12  14  1   
 26  12  36  1   
 27  13  15  1   
 28  13  37  1   
 29  13  38  1   
 30  14  16  1   
 31  14  39  1   
 32  14  40  1   
 33  15  17  1   
 34  15  18  2   
 35  16  18  1   
 36  16  41  1   
 37  16  42  1   
 38  17  19  1   
 39  17  43  1   
 40  18  20  1   
 41  19  20  ar  
 42  19  21  ar  
 43  20  22  ar  
 44  21  23  ar  
 45  21  44  1   
 46  22  24  ar  
 47  22  45  1   
 48  23  24  ar  
 49  23  46  1   
 50  24  47  1   
@<TRIPOS>SUBSTRUCTURE
  1 ****  12 GROUP 4 **** **** 0

# MOE 2024.06 (io_trps.svl 2023.06)
