@<TRIPOS>MOLECULE
Structure2326
22 23 1 0 0 
SMALL
USER_CHARGES


@<TRIPOS>ATOM
  1 O       -0.2010    -0.2820    -0.0190 O.3   1 <1>  -0.3400 
  2 C       -1.5260    -0.5780    -0.0760 C.ar  1 <1>   0.0830 
  3 C        0.7360    -1.2150     0.4820 C.3   1 <1>   0.2580 
  4 C       -2.3360     0.2170    -0.8800 C.ar  1 <1>   0.1600 
  5 C       -2.1080    -1.6300     0.6180 C.ar  1 <1>  -0.1500 
  6 C        2.1830    -0.7270     0.2340 C.3   1 <1>   0.4720 
  7 C        1.0410    -2.3390    -0.5390 C.3   1 <1>   0.4720 
  8 N       -3.6350     0.0420    -1.0610 N.ar  1 <1>  -0.6200 
  9 C       -3.4630    -1.8170     0.4420 C.ar  1 <1>  -0.1500 
 10 N        2.5090    -2.0720    -0.3560 N.4   1 <1>  -0.8440 
 11 C       -4.1690    -0.9690    -0.3960 C.ar  1 <1>   0.1600 
 12 H        0.5300    -1.5190     1.4930 H     1 <1>   0.0000 
 13 H       -1.8820     1.0390    -1.4050 H     1 <1>   0.1500 
 14 H       -1.5660    -2.2800     1.2790 H     1 <1>   0.1500 
 15 H        2.7480    -0.5430     1.1290 H     1 <1>   0.0000 
 16 H        2.2500     0.0450    -0.5110 H     1 <1>   0.0000 
 17 H        0.7280    -2.1000    -1.5400 H     1 <1>   0.0000 
 18 H        0.7750    -3.3250    -0.2040 H     1 <1>   0.0000 
 19 H       -3.9790    -2.6110     0.9510 H     1 <1>   0.1500 
 20 H        2.9540    -2.7070     0.3160 H     1 <1>   0.4500 
 21 H        3.0210    -2.0080    -1.2440 H     1 <1>   0.4500 
 22 H       -5.2280    -1.1290    -0.5230 H     1 <1>   0.1500 
@<TRIPOS>BOND
  1   1   2  1   
  2   1   3  1   
  3   2   4  ar  
  4   2   5  ar  
  5   3   6  1   
  6   3   7  1   
  7   3  12  1   
  8   4   8  ar  
  9   4  13  1   
 10   5   9  ar  
 11   5  14  1   
 12   6  10  1   
 13   6  15  1   
 14   6  16  1   
 15   7  10  1   
 16   7  17  1   
 17   7  18  1   
 18   8  11  ar  
 19   9  11  ar  
 20   9  19  1   
 21  10  20  1   
 22  10  21  1   
 23  11  22  1   
@<TRIPOS>SUBSTRUCTURE
  1 ****   2 GROUP 4 **** **** 0

# MOE 2024.06 (io_trps.svl 2023.06)
