@<TRIPOS>MOLECULE
NONAME
51 53 1 0 0 
SMALL
USER_CHARGES


@<TRIPOS>ATOM
  1 BR       0.1020     0.3700     0.5880 Br    1 <1>  -0.1110 
  2 C        1.7710    -0.5250     0.2710 C.ar  1 <1>   0.1110 
  3 C        2.3390    -1.2630     1.2910 C.ar  1 <1>  -0.1500 
  4 C        2.3650    -0.4120    -0.9720 C.ar  1 <1>  -0.1500 
  5 C        3.5430    -1.9020     1.0540 C.ar  1 <1>  -0.1500 
  6 C        3.5690    -1.0580    -1.1900 C.ar  1 <1>  -0.1500 
  7 C        4.1860    -1.8070    -0.1840 C.ar  1 <1>   0.0860 
  8 C        5.4520    -2.4690    -0.4290 C.2   1 <1>   0.5440 
  9 O        5.5180    -3.2920    -1.3220 O.2   1 <1>  -0.5700 
 10 N        6.5820    -2.1900     0.3170 N.am  1 <1>  -0.6600 
 11 C        7.8370    -2.9770     0.1520 C.3   1 <1>   0.1400 
 12 C        6.7100    -1.0040     1.2090 C.3   1 <1>   0.1400 
 13 C        8.9490    -2.0700    -0.3800 C.3   1 <1>  -0.1600 
 14 C        7.8180    -0.0860     0.6880 C.3   1 <1>  -0.1600 
 15 C        9.1540    -0.8370     0.5200 C.3   1 <1>  -0.0190 
 16 C       10.2720     0.0550    -0.0230 C.2   1 <1>   0.5690 
 17 O        9.9980     0.9510    -0.7850 O.2   1 <1>  -0.5700 
 18 N       11.5430    -0.2240     0.3910 N.am  1 <1>  -0.5470 
 19 C       12.8020     0.3500     0.1230 C.ar  1 <1>   0.1170 
 20 C       13.9230    -0.2220     0.7350 C.ar  1 <1>   0.0830 
 21 C       12.9820     1.4470    -0.7120 C.ar  1 <1>  -0.1500 
 22 O       13.7070    -1.3000     1.5500 O.3   1 <1>  -0.3620 
 23 C       15.1880     0.3060     0.5050 C.ar  1 <1>  -0.1500 
 24 C       14.2430     1.9710    -0.9390 C.ar  1 <1>  -0.1500 
 25 C       14.7790    -1.9360     2.2130 C.3   1 <1>   0.0400 
 26 C       15.3540     1.3990    -0.3290 C.ar  1 <1>   0.0830 
 27 O       16.6260     1.8490    -0.4960 O.3   1 <1>  -0.3620 
 28 C       16.8990     2.9570    -1.3260 C.3   1 <1>   0.0400 
 29 H        1.8460    -1.3360     2.2440 H     1 <1>   0.1500 
 30 H        1.8940     0.1650    -1.7470 H     1 <1>   0.1500 
 31 H        4.0000    -2.4900     1.8320 H     1 <1>   0.1500 
 32 H        4.0490    -0.9920    -2.1520 H     1 <1>   0.1500 
 33 H        7.6880    -3.8000    -0.5270 H     1 <1>   0.0800 
 34 H        8.1190    -3.3870     1.1060 H     1 <1>   0.0800 
 35 H        6.9460    -1.3380     2.2050 H     1 <1>   0.0800 
 36 H        5.7900    -0.4480     1.2520 H     1 <1>   0.0800 
 37 H        8.6910    -1.7530    -1.3760 H     1 <1>   0.0800 
 38 H        9.8630    -2.6340    -0.4450 H     1 <1>   0.0800 
 39 H        7.9500     0.7370     1.3670 H     1 <1>   0.0800 
 40 H        7.5080     0.3230    -0.2590 H     1 <1>   0.0800 
 41 H        9.4560    -1.1800     1.4930 H     1 <1>   0.0800 
 42 H       11.6390    -1.0190     1.0240 H     1 <1>   0.3700 
 43 H       12.1400     1.9050    -1.1950 H     1 <1>   0.1500 
 44 H       16.0680    -0.1060     0.9570 H     1 <1>   0.1500 
 45 H       14.3340     2.8180    -1.5910 H     1 <1>   0.1500 
 46 H       14.3820    -2.7480     2.7940 H     1 <1>   0.0800 
 47 H       15.2610    -1.2240     2.8610 H     1 <1>   0.0800 
 48 H       15.4680    -2.3160     1.4790 H     1 <1>   0.0800 
 49 H       17.9590     3.1340    -1.3090 H     1 <1>   0.0800 
 50 H       16.3790     3.8180    -0.9410 H     1 <1>   0.0800 
 51 H       16.5820     2.7300    -2.3280 H     1 <1>   0.0800 
@<TRIPOS>BOND
  1   1   2  1   
  2   2   3  ar  
  3   2   4  ar  
  4   3   5  ar  
  5   3  29  1   
  6   4   6  ar  
  7   4  30  1   
  8   5   7  ar  
  9   5  31  1   
 10   6   7  ar  
 11   6  32  1   
 12   7   8  1   
 13   8   9  2   
 14   8  10  am  
 15  10  11  1   
 16  10  12  1   
 17  11  13  1   
 18  11  33  1   
 19  11  34  1   
 20  12  14  1   
 21  12  35  1   
 22  12  36  1   
 23  13  15  1   
 24  13  37  1   
 25  13  38  1   
 26  14  15  1   
 27  14  39  1   
 28  14  40  1   
 29  15  16  1   
 30  15  41  1   
 31  16  17  2   
 32  16  18  am  
 33  18  19  1   
 34  18  42  1   
 35  19  20  ar  
 36  19  21  ar  
 37  20  22  1   
 38  20  23  ar  
 39  21  24  ar  
 40  21  43  1   
 41  22  25  1   
 42  23  26  ar  
 43  23  44  1   
 44  24  26  ar  
 45  24  45  1   
 46  25  46  1   
 47  25  47  1   
 48  25  48  1   
 49  26  27  1   
 50  27  28  1   
 51  28  49  1   
 52  28  50  1   
 53  28  51  1   
@<TRIPOS>SUBSTRUCTURE
  1 ****  15 GROUP 4 **** **** 0

# MOE 2024.06 (io_trps.svl 2023.06)
