@<TRIPOS>MOLECULE
NONAME
39 40 1 0 0 
SMALL
USER_CHARGES


@<TRIPOS>ATOM
  1 O       -9.1950     3.5320    -0.2460 O.3   1 <1>  -0.3630 
  2 C      -10.5460     3.6860    -0.1390 C.ar  1 <1>   0.0830 
  3 C       -8.4560     2.3930     0.1250 C.3   1 <1>   0.1200 
  4 C      -11.4740     2.7460     0.3490 C.ar  1 <1>   0.0730 
  5 C      -10.9990     4.9240    -0.5720 C.ar  1 <1>  -0.1500 
  6 C       -6.9830     2.6730    -0.1650 C.3   1 <1>  -0.1600 
  7 C      -11.1320     1.4380     0.8240 C.1   1 <1>   0.4840 
  8 C      -12.8210     3.1000     0.3780 C.ar  1 <1>  -0.1500 
  9 C      -12.3390     5.2540    -0.5350 C.ar  1 <1>  -0.1500 
 10 C       -6.1370     1.4650     0.2320 C.3   1 <1>   0.3430 
 11 N      -10.7970     0.4100     1.1890 N.1   1 <1>  -0.5570 
 12 C      -13.2550     4.3380    -0.0570 C.ar  1 <1>  -0.1500 
 13 N       -4.7130     1.6720    -0.1530 N.4   1 <1>  -0.9590 
 14 C       -3.9710     0.3780    -0.1150 C.3   1 <1>   0.3430 
 15 C       -4.0390     2.7090     0.6890 C.3   1 <1>   0.3430 
 16 C       -2.5550     0.5780    -0.6580 C.3   1 <1>  -0.1600 
 17 C       -2.6240     2.9590     0.1660 C.3   1 <1>  -0.1600 
 18 C       -1.7990     1.6660     0.1150 C.3   1 <1>  -0.1600 
 19 H       -8.8050     1.5570    -0.4590 H     1 <1>   0.0800 
 20 H       -8.6090     2.2170     1.1760 H     1 <1>   0.0800 
 21 H      -10.2870     5.6400    -0.9450 H     1 <1>   0.1500 
 22 H       -6.6890     3.5400     0.3980 H     1 <1>   0.0800 
 23 H       -6.8730     2.8670    -1.2170 H     1 <1>   0.0800 
 24 H      -13.5480     2.3960     0.7480 H     1 <1>   0.1500 
 25 H      -12.6690     6.2210    -0.8770 H     1 <1>   0.1500 
 26 H       -6.5220     0.5930    -0.2750 H     1 <1>   0.0800 
 27 H       -6.2130     1.2930     1.2950 H     1 <1>   0.0800 
 28 H      -14.3020     4.5890    -0.0260 H     1 <1>   0.1500 
 29 H       -4.6880     2.0060    -1.1250 H     1 <1>   0.4500 
 30 H       -4.4810    -0.3610    -0.7130 H     1 <1>   0.0800 
 31 H       -3.9180     0.0150     0.8990 H     1 <1>   0.0800 
 32 H       -3.9910     2.3730     1.7120 H     1 <1>   0.0800 
 33 H       -4.5940     3.6330     0.6610 H     1 <1>   0.0800 
 34 H       -2.6040     0.8350    -1.7020 H     1 <1>   0.0800 
 35 H       -2.0150    -0.3510    -0.5820 H     1 <1>   0.0800 
 36 H       -2.1320     3.6680     0.8090 H     1 <1>   0.0800 
 37 H       -2.6770     3.3990    -0.8150 H     1 <1>   0.0800 
 38 H       -0.8480     1.8560    -0.3550 H     1 <1>   0.0800 
 39 H       -1.6040     1.3250     1.1190 H     1 <1>   0.0800 
@<TRIPOS>BOND
  1   1   2  1   
  2   1   3  1   
  3   2   4  ar  
  4   2   5  ar  
  5   3   6  1   
  6   3  19  1   
  7   3  20  1   
  8   4   7  1   
  9   4   8  ar  
 10   5   9  ar  
 11   5  21  1   
 12   6  10  1   
 13   6  22  1   
 14   6  23  1   
 15   7  11  3   
 16   8  12  ar  
 17   8  24  1   
 18   9  12  ar  
 19   9  25  1   
 20  10  13  1   
 21  10  26  1   
 22  10  27  1   
 23  12  28  1   
 24  13  14  1   
 25  13  15  1   
 26  13  29  1   
 27  14  16  1   
 28  14  30  1   
 29  14  31  1   
 30  15  17  1   
 31  15  32  1   
 32  15  33  1   
 33  16  18  1   
 34  16  34  1   
 35  16  35  1   
 36  17  18  1   
 37  17  36  1   
 38  17  37  1   
 39  18  38  1   
 40  18  39  1   
@<TRIPOS>SUBSTRUCTURE
  1 ****   3 GROUP 4 **** **** 0

# MOE 2024.06 (io_trps.svl 2023.06)
