@<TRIPOS>MOLECULE
NONAME
45 47 1 0 0 
SMALL
USER_CHARGES


@<TRIPOS>ATOM
  1 F       -0.3290     0.3520     0.1140 F     1 <1>  -0.1900 
  2 C       -1.4810     0.9590     0.1990 C.ar  1 <1>   0.1900 
  3 C       -2.2570     1.0790    -0.9360 C.ar  1 <1>  -0.1500 
  4 C       -1.8830     1.4600     1.4200 C.ar  1 <1>  -0.1500 
  5 C       -3.4810     1.7210    -0.8420 C.ar  1 <1>  -0.1500 
  6 C       -3.1080     2.1010     1.5040 C.ar  1 <1>  -0.1500 
  7 C       -3.9190     2.2360     0.3800 C.ar  1 <1>  -0.1430 
  8 C       -5.2660     2.9430     0.5470 C.3   1 <1>   0.7100 
  9 N       -6.3460     2.2030    -0.1600 N.4   1 <1>  -0.9590 
 10 C       -5.2250     4.3960     0.0740 C.ar  1 <1>  -0.1430 
 11 C       -7.6770     2.9080    -0.0510 C.3   1 <1>   0.3430 
 12 C       -6.4310     0.7720     0.3170 C.3   1 <1>   0.3430 
 13 C       -4.9170     4.7410    -1.2410 C.ar  1 <1>  -0.1500 
 14 C       -5.5120     5.4020     0.9940 C.ar  1 <1>  -0.1500 
 15 C       -8.8210     2.1310    -0.7380 C.3   1 <1>   0.1400 
 16 C       -7.5490    -0.0040    -0.3980 C.3   1 <1>   0.1400 
 17 C       -4.9040     6.0690    -1.6350 C.ar  1 <1>  -0.1500 
 18 C       -5.5020     6.7330     0.6100 C.ar  1 <1>  -0.1500 
 19 N       -8.8510     0.7180    -0.2570 N.am  1 <1>  -0.6600 
 20 C       -5.1980     7.0410    -0.7010 C.ar  1 <1>   0.1900 
 21 C       -9.9070     0.1230     0.3860 C.2   1 <1>   0.5690 
 22 F       -5.1900     8.2930    -1.0690 F     1 <1>  -0.1900 
 23 O       -9.7710    -0.9180     0.9760 O.2   1 <1>  -0.5700 
 24 C      -11.2760     0.7620     0.3950 C.3   1 <1>  -0.1790 
 25 H       -1.9000     0.6770    -1.8690 H     1 <1>   0.1500 
 26 H       -1.2450     1.3500     2.2800 H     1 <1>   0.1500 
 27 H       -4.0670     1.8070    -1.7380 H     1 <1>   0.1500 
 28 H       -3.4110     2.4950     2.4610 H     1 <1>   0.1500 
 29 H       -5.4980     2.9500     1.6000 H     1 <1>   0.0800 
 30 H       -6.0750     2.1960    -1.1450 H     1 <1>   0.4500 
 31 H       -7.6120     3.8910    -0.4900 H     1 <1>   0.0800 
 32 H       -7.9340     3.0320     0.9890 H     1 <1>   0.0800 
 33 H       -6.6300     0.7490     1.3760 H     1 <1>   0.0800 
 34 H       -5.4940     0.2660     0.1480 H     1 <1>   0.0800 
 35 H       -4.6750     3.9980    -1.9790 H     1 <1>   0.1500 
 36 H       -5.7430     5.1710     2.0210 H     1 <1>   0.1500 
 37 H       -8.6800     2.1410    -1.8050 H     1 <1>   0.0800 
 38 H       -9.7520     2.6280    -0.5300 H     1 <1>   0.0800 
 39 H       -7.6110    -0.9940     0.0220 H     1 <1>   0.0800 
 40 H       -7.3120    -0.1150    -1.4410 H     1 <1>   0.0800 
 41 H       -4.6640     6.3560    -2.6450 H     1 <1>   0.1500 
 42 H       -5.7190     7.5230     1.3070 H     1 <1>   0.1500 
 43 H      -11.2760     1.6240     1.0350 H     1 <1>   0.0800 
 44 H      -11.9970     0.0590     0.7710 H     1 <1>   0.0800 
 45 H      -11.5620     1.0410    -0.6010 H     1 <1>   0.0800 
@<TRIPOS>BOND
  1   1   2  1   
  2   2   3  ar  
  3   2   4  ar  
  4   3   5  ar  
  5   3  25  1   
  6   4   6  ar  
  7   4  26  1   
  8   5   7  ar  
  9   5  27  1   
 10   6   7  ar  
 11   6  28  1   
 12   7   8  1   
 13   8   9  1   
 14   8  10  1   
 15   8  29  1   
 16   9  11  1   
 17   9  12  1   
 18   9  30  1   
 19  10  13  ar  
 20  10  14  ar  
 21  11  15  1   
 22  11  31  1   
 23  11  32  1   
 24  12  16  1   
 25  12  33  1   
 26  12  34  1   
 27  13  17  ar  
 28  13  35  1   
 29  14  18  ar  
 30  14  36  1   
 31  15  19  1   
 32  15  37  1   
 33  15  38  1   
 34  16  19  1   
 35  16  39  1   
 36  16  40  1   
 37  17  20  ar  
 38  17  41  1   
 39  18  20  ar  
 40  18  42  1   
 41  19  21  am  
 42  20  22  1   
 43  21  23  2   
 44  21  24  1   
 45  24  43  1   
 46  24  44  1   
 47  24  45  1   
@<TRIPOS>SUBSTRUCTURE
  1 ****   8 GROUP 4 **** **** 0

# MOE 2024.06 (io_trps.svl 2023.06)
