@<TRIPOS>MOLECULE
NONAME
37 38 1 0 0 
SMALL
USER_CHARGES


@<TRIPOS>ATOM
  1 O        0.1390     0.4140    -0.0180 O.2   1 <1>  -0.5700 
  2 C        0.4340     1.5840     0.0650 C.2   1 <1>   0.5690 
  3 N       -0.4250     2.6470     0.0940 N.am  1 <1>  -0.4770 
  4 C        1.8670     2.0340     0.1580 C.3   1 <1>  -0.0990 
  5 C       -1.8350     2.6490     0.0590 C.ar  1 <1>   0.1170 
  6 C        0.3360     3.9150     0.1900 C.3   1 <1>   0.1400 
  7 C        1.7460     3.4990     0.6120 C.3   1 <1>  -0.1860 
  8 C       -2.5760     1.6260     0.6350 C.ar  1 <1>  -0.1500 
  9 C       -2.5360     3.6850    -0.5470 C.ar  1 <1>  -0.1500 
 10 C        2.8000     4.4320     0.0560 C.2   1 <1>   0.9060 
 11 C       -3.9590     1.6410     0.6100 C.ar  1 <1>  -0.1500 
 12 C       -3.9190     3.7020    -0.5720 C.ar  1 <1>  -0.1500 
 13 O        3.9390     3.9980    -0.1320 O.co2 1 <1>  -0.9000 
 14 O        2.4850     5.6020    -0.1780 O.co2 1 <1>  -0.9000 
 15 C       -4.6640     2.6780     0.0080 C.ar  1 <1>  -0.1430 
 16 C       -6.2080     2.6500     0.0060 C.3   1 <1>   0.1430 
 17 C       -6.8350     3.8680    -0.6940 C.3   1 <1>  -0.2400 
 18 C       -6.7240     2.6310     1.4530 C.3   1 <1>  -0.2400 
 19 C       -6.6970     1.3910    -0.7260 C.3   1 <1>  -0.2400 
 20 H        2.3190     1.9680    -0.8150 H     1 <1>   0.0800 
 21 H        2.4250     1.4460     0.8610 H     1 <1>   0.0800 
 22 H       -0.1020     4.5840     0.9090 H     1 <1>   0.0800 
 23 H        0.3570     4.3870    -0.7780 H     1 <1>   0.0800 
 24 H        1.8080     3.5450     1.6810 H     1 <1>   0.0800 
 25 H       -2.0650     0.8090     1.1100 H     1 <1>   0.1500 
 26 H       -1.9970     4.4890    -1.0120 H     1 <1>   0.1500 
 27 H       -4.4820     0.8230     1.0700 H     1 <1>   0.1500 
 28 H       -4.3930     4.5340    -1.0570 H     1 <1>   0.1500 
 29 H       -6.5260     3.9100    -1.7230 H     1 <1>   0.0800 
 30 H       -6.5410     4.7780    -0.2020 H     1 <1>   0.0800 
 31 H       -7.9080     3.8080    -0.6700 H     1 <1>   0.0800 
 32 H       -6.3560     3.4910     1.9840 H     1 <1>   0.0800 
 33 H       -6.3930     1.7500     1.9710 H     1 <1>   0.0800 
 34 H       -7.7990     2.6470     1.4740 H     1 <1>   0.0800 
 35 H       -6.3110     1.3780    -1.7300 H     1 <1>   0.0800 
 36 H       -7.7710     1.3700    -0.7710 H     1 <1>   0.0800 
 37 H       -6.3660     0.5000    -0.2280 H     1 <1>   0.0800 
@<TRIPOS>BOND
  1   1   2  2   
  2   2   3  am  
  3   2   4  1   
  4   3   5  1   
  5   3   6  1   
  6   4   7  1   
  7   4  20  1   
  8   4  21  1   
  9   5   8  ar  
 10   5   9  ar  
 11   6   7  1   
 12   6  22  1   
 13   6  23  1   
 14   7  10  1   
 15   7  24  1   
 16   8  11  ar  
 17   8  25  1   
 18   9  12  ar  
 19   9  26  1   
 20  10  13  ar  
 21  10  14  ar  
 22  11  15  ar  
 23  11  27  1   
 24  12  15  ar  
 25  12  28  1   
 26  15  16  1   
 27  16  17  1   
 28  16  18  1   
 29  16  19  1   
 30  17  29  1   
 31  17  30  1   
 32  17  31  1   
 33  18  32  1   
 34  18  33  1   
 35  18  34  1   
 36  19  35  1   
 37  19  36  1   
 38  19  37  1   
@<TRIPOS>SUBSTRUCTURE
  1 ****   5 GROUP 4 **** **** 0

# MOE 2024.06 (io_trps.svl 2023.06)
