@<TRIPOS>MOLECULE
NONAME
49 51 1 0 0 
SMALL
USER_CHARGES


@<TRIPOS>ATOM
  1 N        0.3280     0.5040    -1.2610 N.pl3 1 <1>  -0.8380 
  2 C       -0.8880     0.8550    -0.6760 C.ar  1 <1>   0.1000 
  3 C        1.5690     1.1130    -0.6990 C.3   1 <1>   0.2090 
  4 C        0.4440    -0.8660    -1.8380 C.3   1 <1>   0.2090 
  5 C       -1.7770     1.7040    -1.3350 C.ar  1 <1>  -0.1440 
  6 C       -1.2320     0.3580     0.5780 C.ar  1 <1>  -0.1500 
  7 C        2.3380     0.1230     0.1990 C.3   1 <1>   0.3430 
  8 C        1.2350    -1.8130    -0.9100 C.3   1 <1>   0.3430 
  9 C       -2.9800     2.0360    -0.7360 C.ar  1 <1>  -0.1500 
 10 C       -1.4400     2.2730    -2.7070 C.3   1 <1>  -0.0970 
 11 C       -2.4350     0.6910     1.1750 C.ar  1 <1>  -0.1440 
 12 N        2.5450    -1.2210    -0.4600 N.4   1 <1>  -0.9590 
 13 C       -3.3090     1.5340     0.5110 C.ar  1 <1>  -0.1500 
 14 C       -2.8130     0.1500     2.5430 C.3   1 <1>  -0.0970 
 15 C        3.3170    -2.1510     0.4060 C.3   1 <1>   0.4860 
 16 C        4.6980    -1.5630     0.6220 C.ar  1 <1>  -0.1440 
 17 C        5.6800    -1.6070    -0.3670 C.ar  1 <1>  -0.1440 
 18 C        4.9750    -0.9570     1.8400 C.ar  1 <1>  -0.1500 
 19 C        6.9120    -1.0210    -0.1210 C.ar  1 <1>  -0.1500 
 20 C        5.4660    -2.2840    -1.7160 C.3   1 <1>  -0.0970 
 21 C        6.2090    -0.3800     2.0740 C.ar  1 <1>  -0.1500 
 22 C        7.1770    -0.4090     1.0900 C.ar  1 <1>  -0.1500 
 23 H        1.3090     1.9870    -0.1240 H     1 <1>   0.0800 
 24 H        2.2000     1.4360    -1.5080 H     1 <1>   0.0800 
 25 H        0.9300    -0.8020    -2.7960 H     1 <1>   0.0800 
 26 H       -0.5430    -1.2680    -2.0010 H     1 <1>   0.0800 
 27 H       -0.5540    -0.2930     1.0880 H     1 <1>   0.1500 
 28 H        1.7800    -0.0050     1.1110 H     1 <1>   0.0800 
 29 H        3.2910     0.5580     0.4550 H     1 <1>   0.0800 
 30 H        1.4070    -2.7420    -1.4270 H     1 <1>   0.0800 
 31 H        0.6200    -2.0230    -0.0510 H     1 <1>   0.0800 
 32 H       -3.6730     2.6900    -1.2350 H     1 <1>   0.1500 
 33 H       -1.3090     1.4710    -3.4100 H     1 <1>   0.0800 
 34 H       -0.5280     2.8380    -2.6520 H     1 <1>   0.0800 
 35 H       -2.2230     2.9170    -3.0630 H     1 <1>   0.0800 
 36 H        3.1290    -1.0450    -1.2850 H     1 <1>   0.4500 
 37 H       -4.2490     1.8030     0.9600 H     1 <1>   0.1500 
 38 H       -2.0390    -0.4810     2.9390 H     1 <1>   0.0800 
 39 H       -3.7200    -0.4220     2.4700 H     1 <1>   0.0800 
 40 H       -2.9730     0.9660     3.2250 H     1 <1>   0.0800 
 41 H        3.4090    -3.1140    -0.0670 H     1 <1>   0.0800 
 42 H        2.8190    -2.2820     1.3520 H     1 <1>   0.0800 
 43 H        4.2390    -0.9260     2.6260 H     1 <1>   0.1500 
 44 H        7.6860    -1.0390    -0.8710 H     1 <1>   0.1500 
 45 H        4.9730    -3.2320    -1.5990 H     1 <1>   0.0800 
 46 H        6.4120    -2.4740    -2.1930 H     1 <1>   0.0800 
 47 H        4.8900    -1.6540    -2.3670 H     1 <1>   0.0800 
 48 H        6.4220     0.0890     3.0200 H     1 <1>   0.1500 
 49 H        8.1400     0.0400     1.2670 H     1 <1>   0.1500 
@<TRIPOS>BOND
  1   1   2  1   
  2   1   3  1   
  3   1   4  1   
  4   2   5  ar  
  5   2   6  ar  
  6   3   7  1   
  7   3  23  1   
  8   3  24  1   
  9   4   8  1   
 10   4  25  1   
 11   4  26  1   
 12   5   9  ar  
 13   5  10  1   
 14   6  11  ar  
 15   6  27  1   
 16   7  12  1   
 17   7  28  1   
 18   7  29  1   
 19   8  12  1   
 20   8  30  1   
 21   8  31  1   
 22   9  13  ar  
 23   9  32  1   
 24  10  33  1   
 25  10  34  1   
 26  10  35  1   
 27  11  13  ar  
 28  11  14  1   
 29  12  15  1   
 30  12  36  1   
 31  13  37  1   
 32  14  38  1   
 33  14  39  1   
 34  14  40  1   
 35  15  16  1   
 36  15  41  1   
 37  15  42  1   
 38  16  17  ar  
 39  16  18  ar  
 40  17  19  ar  
 41  17  20  1   
 42  18  21  ar  
 43  18  43  1   
 44  19  22  ar  
 45  19  44  1   
 46  20  45  1   
 47  20  46  1   
 48  20  47  1   
 49  21  22  ar  
 50  21  48  1   
 51  22  49  1   
@<TRIPOS>SUBSTRUCTURE
  1 ****   7 GROUP 4 **** **** 0

# MOE 2024.06 (io_trps.svl 2023.06)
