@<TRIPOS>MOLECULE
NONAME
52 54 1 0 0 
SMALL
USER_CHARGES


@<TRIPOS>ATOM
  1 F       -0.8110    -0.6250    -1.9710 F     1 <1>  -0.1900 
  2 C       -1.7590    -1.3090    -1.3730 C.ar  1 <1>   0.1900 
  3 C       -1.4320    -2.4290    -0.5980 C.ar  1 <1>   0.1000 
  4 C       -3.0520    -0.8800    -1.5570 C.ar  1 <1>  -0.1500 
  5 N       -0.1440    -2.9120    -0.3680 N.pl3 1 <1>  -0.8380 
  6 C       -2.5030    -3.1060    -0.0260 C.ar  1 <1>  -0.1500 
  7 C       -4.1170    -1.5540    -0.9580 C.ar  1 <1>   0.0860 
  8 C        0.2760    -4.1730    -1.0530 C.3   1 <1>   0.2090 
  9 C        0.9960    -1.9740    -0.1350 C.3   1 <1>   0.2090 
 10 C       -3.8160    -2.6990    -0.2000 C.ar  1 <1>  -0.1430 
 11 C       -5.4500    -1.0470    -1.1560 C.2   1 <1>   0.4230 
 12 C        1.3920    -4.8750    -0.2630 C.3   1 <1>   0.1400 
 13 C        2.1260    -2.6640     0.6510 C.3   1 <1>   0.1400 
 14 C       -4.9150    -3.5440     0.4360 C.3   1 <1>  -0.0960 
 15 O       -5.9440    -0.9240    -2.2480 O.2   1 <1>  -0.5700 
 16 C       -6.2690    -0.6040     0.0500 C.3   1 <1>  -0.0990 
 17 N        2.5400    -3.9470    -0.0040 N.am  1 <1>  -0.6600 
 18 C       -6.6190     0.8910    -0.0070 C.3   1 <1>  -0.1600 
 19 C        3.7810    -4.1510    -0.5700 C.2   1 <1>   0.5440 
 20 C       -7.4290     1.3230     1.2190 C.3   1 <1>  -0.2400 
 21 O        3.9000    -5.0040    -1.4300 O.2   1 <1>  -0.5700 
 22 C        4.9390    -3.3680    -0.1790 C.ar  1 <1>   0.0860 
 23 C        5.3020    -3.2190     1.1600 C.ar  1 <1>  -0.1500 
 24 C        5.7320    -2.7380    -1.1370 C.ar  1 <1>  -0.1500 
 25 C        6.3970    -2.4590     1.5290 C.ar  1 <1>  -0.1500 
 26 C        6.8280    -1.9760    -0.7750 C.ar  1 <1>  -0.1500 
 27 C        7.1610    -1.8330     0.5600 C.ar  1 <1>  -0.1500 
 28 H       -3.2470    -0.0180    -2.1690 H     1 <1>   0.1500 
 29 H       -2.2790    -3.9730     0.5680 H     1 <1>   0.1500 
 30 H        0.6360    -3.9410    -2.0410 H     1 <1>   0.0800 
 31 H       -0.5670    -4.8340    -1.1510 H     1 <1>   0.0800 
 32 H        0.6480    -1.1150     0.4120 H     1 <1>   0.0800 
 33 H        1.3830    -1.6380    -1.0810 H     1 <1>   0.0800 
 34 H        1.7200    -5.7430    -0.8080 H     1 <1>   0.0800 
 35 H        0.9950    -5.2110     0.6780 H     1 <1>   0.0800 
 36 H        1.7790    -2.8740     1.6480 H     1 <1>   0.0800 
 37 H        2.9550    -1.9840     0.7230 H     1 <1>   0.0800 
 38 H       -4.5610    -4.5410     0.6310 H     1 <1>   0.0800 
 39 H       -5.7630    -3.6220    -0.2210 H     1 <1>   0.0800 
 40 H       -5.2280    -3.1110     1.3680 H     1 <1>   0.0800 
 41 H       -5.7160    -0.7970     0.9510 H     1 <1>   0.0800 
 42 H       -7.1730    -1.1840     0.0760 H     1 <1>   0.0800 
 43 H       -7.1900     1.0900    -0.8990 H     1 <1>   0.0800 
 44 H       -5.7130     1.4710    -0.0600 H     1 <1>   0.0800 
 45 H       -8.3510     0.7700     1.2750 H     1 <1>   0.0800 
 46 H       -7.6650     2.3710     1.1520 H     1 <1>   0.0800 
 47 H       -6.8680     1.1570     2.1220 H     1 <1>   0.0800 
 48 H        4.7150    -3.7120     1.9150 H     1 <1>   0.1500 
 49 H        5.4790    -2.8560    -2.1760 H     1 <1>   0.1500 
 50 H        6.6580    -2.3550     2.5680 H     1 <1>   0.1500 
 51 H        7.4250    -1.4970    -1.5330 H     1 <1>   0.1500 
 52 H        8.0140    -1.2400     0.8430 H     1 <1>   0.1500 
@<TRIPOS>BOND
  1   1   2  1   
  2   2   3  ar  
  3   2   4  ar  
  4   3   5  1   
  5   3   6  ar  
  6   4   7  ar  
  7   4  28  1   
  8   5   8  1   
  9   5   9  1   
 10   6  10  ar  
 11   6  29  1   
 12   7  10  ar  
 13   7  11  1   
 14   8  12  1   
 15   8  30  1   
 16   8  31  1   
 17   9  13  1   
 18   9  32  1   
 19   9  33  1   
 20  10  14  1   
 21  11  15  2   
 22  11  16  1   
 23  12  17  1   
 24  12  34  1   
 25  12  35  1   
 26  13  17  1   
 27  13  36  1   
 28  13  37  1   
 29  14  38  1   
 30  14  39  1   
 31  14  40  1   
 32  16  18  1   
 33  16  41  1   
 34  16  42  1   
 35  17  19  am  
 36  18  20  1   
 37  18  43  1   
 38  18  44  1   
 39  19  21  2   
 40  19  22  1   
 41  20  45  1   
 42  20  46  1   
 43  20  47  1   
 44  22  23  ar  
 45  22  24  ar  
 46  23  25  ar  
 47  23  48  1   
 48  24  26  ar  
 49  24  49  1   
 50  25  27  ar  
 51  25  50  1   
 52  26  27  ar  
 53  26  51  1   
 54  27  52  1   
@<TRIPOS>SUBSTRUCTURE
  1 ****   5 GROUP 4 **** **** 0

# MOE 2024.06 (io_trps.svl 2023.06)
