@<TRIPOS>MOLECULE
NONAME
50 52 1 0 0 
SMALL
USER_CHARGES


@<TRIPOS>ATOM
  1 N        0.2030    -0.3290     0.2220 N.3   1 <1>  -0.8100 
  2 C        1.4890    -1.0170     0.4710 C.3   1 <1>   0.1100 
  3 C        0.2050     0.3140    -1.1190 C.3   1 <1>   0.1100 
  4 C       -0.9540    -1.2280     0.4070 C.3   1 <1>   0.2540 
  5 C        2.6970    -0.0540     0.3350 C.3   1 <1>   0.3430 
  6 C        1.4230     1.2470    -1.3230 C.3   1 <1>   0.3430 
  7 C       -2.2550    -0.4510     0.2680 C.ar  1 <1>  -0.1440 
  8 N        2.2480     1.3180    -0.0720 N.4   1 <1>  -0.9590 
  9 C       -2.5630     0.5560     1.1700 C.ar  1 <1>  -0.1500 
 10 C       -3.1410    -0.7330    -0.7600 C.ar  1 <1>  -0.1500 
 11 C        3.3410     2.3300    -0.0850 C.3   1 <1>   0.3430 
 12 C       -3.7380     1.2770     1.0420 C.ar  1 <1>  -0.1500 
 13 C       -4.3160    -0.0110    -0.8880 C.ar  1 <1>  -0.1500 
 14 C        2.8000     3.7650    -0.1910 C.3   1 <1>  -0.0800 
 15 C       -4.6190     0.9990     0.0100 C.ar  1 <1>  -0.1430 
 16 C        3.9850     4.7520    -0.1710 C.3   1 <1>  -0.0220 
 17 C        1.7880     4.1170     0.9250 C.3   1 <1>  -0.1600 
 18 C       -5.9090     1.7850    -0.1320 C.3   1 <1>  -0.0970 
 19 C        3.5070     6.1850    -0.0410 C.2   1 <1>  -0.2880 
 20 C        1.2010     5.5240     0.7300 C.3   1 <1>  -0.0220 
 21 C        2.2760     6.5240     0.3470 C.2   1 <1>  -0.2880 
 22 H        1.6080    -1.8340    -0.2200 H     1 <1>   0.0800 
 23 H        1.4870    -1.4310     1.4660 H     1 <1>   0.0800 
 24 H       -0.6900     0.9040    -1.2390 H     1 <1>   0.0800 
 25 H        0.1980    -0.4380    -1.8900 H     1 <1>   0.0800 
 26 H       -0.9190    -1.6620     1.3920 H     1 <1>   0.0800 
 27 H       -0.9210    -2.0280    -0.3130 H     1 <1>   0.0800 
 28 H        3.3870    -0.4490    -0.3910 H     1 <1>   0.0800 
 29 H        3.2090    -0.0050     1.2820 H     1 <1>   0.0800 
 30 H        1.0620     2.2260    -1.5890 H     1 <1>   0.0800 
 31 H        2.0200     0.8810    -2.1410 H     1 <1>   0.0800 
 32 H        1.5550     1.5670     0.6520 H     1 <1>   0.4500 
 33 H       -1.8850     0.7810     1.9730 H     1 <1>   0.1500 
 34 H       -2.9270    -1.5140    -1.4680 H     1 <1>   0.1500 
 35 H        4.0060     2.1350    -0.9110 H     1 <1>   0.0800 
 36 H        3.9100     2.2480     0.8260 H     1 <1>   0.0800 
 37 H       -3.9640     2.0530     1.7510 H     1 <1>   0.1500 
 38 H       -4.9960    -0.2410    -1.6890 H     1 <1>   0.1500 
 39 H        2.3120     3.8870    -1.1420 H     1 <1>   0.0800 
 40 H        4.5490     4.6530    -1.0830 H     1 <1>   0.0800 
 41 H        4.6430     4.5420     0.6550 H     1 <1>   0.0800 
 42 H        2.2880     4.0850     1.8780 H     1 <1>   0.0800 
 43 H        0.9710     3.4190     0.9530 H     1 <1>   0.0800 
 44 H       -5.8100     2.7590     0.3130 H     1 <1>   0.0800 
 45 H       -6.7100     1.2600     0.3560 H     1 <1>   0.0800 
 46 H       -6.1580     1.9110    -1.1710 H     1 <1>   0.0800 
 47 H        4.2620     6.9150    -0.2900 H     1 <1>   0.1500 
 48 H        0.7260     5.8390     1.6440 H     1 <1>   0.0800 
 49 H        0.4530     5.5090    -0.0440 H     1 <1>   0.0800 
 50 H        1.9480     7.5490     0.4190 H     1 <1>   0.1500 
@<TRIPOS>BOND
  1   1   2  1   
  2   1   3  1   
  3   1   4  1   
  4   2   5  1   
  5   2  22  1   
  6   2  23  1   
  7   3   6  1   
  8   3  24  1   
  9   3  25  1   
 10   4   7  1   
 11   4  26  1   
 12   4  27  1   
 13   5   8  1   
 14   5  28  1   
 15   5  29  1   
 16   6   8  1   
 17   6  30  1   
 18   6  31  1   
 19   7   9  ar  
 20   7  10  ar  
 21   8  11  1   
 22   8  32  1   
 23   9  12  ar  
 24   9  33  1   
 25  10  13  ar  
 26  10  34  1   
 27  11  14  1   
 28  11  35  1   
 29  11  36  1   
 30  12  15  ar  
 31  12  37  1   
 32  13  15  ar  
 33  13  38  1   
 34  14  16  1   
 35  14  17  1   
 36  14  39  1   
 37  15  18  1   
 38  16  19  1   
 39  16  40  1   
 40  16  41  1   
 41  17  20  1   
 42  17  42  1   
 43  17  43  1   
 44  18  44  1   
 45  18  45  1   
 46  18  46  1   
 47  19  21  2   
 48  19  47  1   
 49  20  21  1   
 50  20  48  1   
 51  20  49  1   
 52  21  50  1   
@<TRIPOS>SUBSTRUCTURE
  1 ****   3 GROUP 4 **** **** 0

# MOE 2024.06 (io_trps.svl 2023.06)
