@<TRIPOS>MOLECULE
NONAME
34 36 1 0 0 
SMALL
USER_CHARGES


@<TRIPOS>ATOM
  1 F       -0.1350     0.5830    -1.3590 F     1 <1>  -0.3400 
  2 C       -0.4860     1.4880    -0.4410 C.3   1 <1>   0.8600 
  3 F       -0.2730     2.6380    -1.0770 F     1 <1>  -0.3400 
  4 C       -1.9730     1.3080    -0.1070 C.2   1 <1>   0.0060 
  5 C        0.4330     1.3230     0.7960 C.3   1 <1>   0.6000 
  6 N       -2.4440     0.1140     0.0480 N.2   1 <1>  -0.3380 
  7 N       -2.9440     2.2390     0.0610 N.pl3 1 <1>   0.0480 
  8 F        0.1970     2.2590     1.7170 F     1 <1>  -0.3400 
  9 F        1.7260     1.4730     0.5010 F     1 <1>  -0.3400 
 10 N       -3.7430     0.2140     0.2520 N.2   1 <1>  -0.3380 
 11 C       -4.0460     1.4750     0.2180 C.2   1 <1>   0.1330 
 12 C       -3.0390     3.7540     0.0550 C.3   1 <1>   0.2560 
 13 C       -5.3790     2.0230     0.2790 C.ar  1 <1>   0.0530 
 14 C       -4.3070     4.2060     0.8300 C.3   1 <1>  -0.0160 
 15 C       -3.1340     4.2360    -1.4020 C.3   1 <1>  -0.2400 
 16 C       -1.8600     4.4470     0.7680 C.3   1 <1>  -0.2400 
 17 C       -5.5460     3.3800     0.5340 C.ar  1 <1>  -0.1430 
 18 C       -6.5170     1.2480     0.0620 C.ar  1 <1>  -0.1500 
 19 C       -6.8080     3.9490     0.5510 C.ar  1 <1>  -0.1500 
 20 C       -7.7790     1.8120     0.0820 C.ar  1 <1>  -0.1500 
 21 C       -7.9260     3.1660     0.3230 C.ar  1 <1>  -0.1500 
 22 H        0.3050     0.3660     1.2660 H     1 <1>   0.0800 
 23 H       -4.5070     5.2430     0.6240 H     1 <1>   0.0800 
 24 H       -4.1230     4.1280     1.8870 H     1 <1>   0.0800 
 25 H       -3.9990     3.8130    -1.8830 H     1 <1>   0.0800 
 26 H       -2.2600     3.9570    -1.9600 H     1 <1>   0.0800 
 27 H       -3.2220     5.3070    -1.4390 H     1 <1>   0.0800 
 28 H       -2.0860     5.4880     0.9190 H     1 <1>   0.0800 
 29 H       -1.6910     4.0090     1.7350 H     1 <1>   0.0800 
 30 H       -0.9530     4.4300     0.2020 H     1 <1>   0.0800 
 31 H       -6.4040     0.1950    -0.1300 H     1 <1>   0.1500 
 32 H       -6.9330     5.0000     0.7490 H     1 <1>   0.1500 
 33 H       -8.6450     1.1980    -0.0920 H     1 <1>   0.1500 
 34 H       -8.9080     3.6070     0.3370 H     1 <1>   0.1500 
@<TRIPOS>BOND
  1   1   2  1   
  2   2   3  1   
  3   2   4  1   
  4   2   5  1   
  5   4   6  2   
  6   4   7  1   
  7   5   8  1   
  8   5   9  1   
  9   5  22  1   
 10   6  10  1   
 11   7  11  1   
 12   7  12  1   
 13  10  11  2   
 14  11  13  1   
 15  12  14  1   
 16  12  15  1   
 17  12  16  1   
 18  13  17  ar  
 19  13  18  ar  
 20  14  17  1   
 21  14  23  1   
 22  14  24  1   
 23  15  25  1   
 24  15  26  1   
 25  15  27  1   
 26  16  28  1   
 27  16  29  1   
 28  16  30  1   
 29  17  19  ar  
 30  18  20  ar  
 31  18  31  1   
 32  19  21  ar  
 33  19  32  1   
 34  20  21  ar  
 35  20  33  1   
 36  21  34  1   
@<TRIPOS>SUBSTRUCTURE
  1 ****   7 GROUP 4 **** **** 0

# MOE 2024.06 (io_trps.svl 2023.06)
