@<TRIPOS>MOLECULE
NONAME
33 34 1 0 0 
SMALL
USER_CHARGES


@<TRIPOS>ATOM
  1 O       -3.8970     3.1970    -1.4220 O.2   1 <1>  -0.5700 
  2 C       -4.0500     2.2650    -0.6700 C.2   1 <1>   0.4230 
  3 C       -5.3460     1.7310    -0.3030 C.ar  1 <1>   0.0860 
  4 C       -2.7750     1.6460    -0.0830 C.3   1 <1>   0.4040 
  5 C       -6.5100     2.3810    -0.7200 C.ar  1 <1>  -0.1500 
  6 C       -5.5070     0.5710     0.4650 C.ar  1 <1>  -0.1500 
  7 N       -1.5800     2.5580    -0.2110 N.4   1 <1>  -0.9590 
  8 C       -7.7660     1.9110    -0.3860 C.ar  1 <1>  -0.1500 
  9 C       -6.7630     0.0980     0.8020 C.ar  1 <1>  -0.1500 
 10 C       -0.2820     1.8330    -0.1260 C.3   1 <1>   0.3430 
 11 C       -1.6630     3.7160     0.7270 C.3   1 <1>   0.3430 
 12 C       -7.8950     0.7670     0.3790 C.ar  1 <1>  -0.1500 
 13 C        0.8660     2.7950    -0.4400 C.3   1 <1>  -0.1600 
 14 C       -0.5340     4.7030     0.4260 C.3   1 <1>  -0.1600 
 15 C        0.8430     4.0280     0.4720 C.3   1 <1>  -0.1600 
 16 H       -2.5830     0.7310    -0.6170 H     1 <1>   0.0800 
 17 H       -2.9380     1.4060     0.9530 H     1 <1>   0.0800 
 18 H       -6.4340     3.2730    -1.3190 H     1 <1>   0.1500 
 19 H       -4.6630     0.0070     0.8150 H     1 <1>   0.1500 
 20 H       -1.6660     2.9730    -1.1560 H     1 <1>   0.4500 
 21 H       -8.6470     2.4340    -0.7210 H     1 <1>   0.1500 
 22 H       -6.8680    -0.7960     1.3950 H     1 <1>   0.1500 
 23 H       -0.2640     1.0160    -0.8290 H     1 <1>   0.0800 
 24 H       -0.1510     1.4330     0.8670 H     1 <1>   0.0800 
 25 H       -1.5770     3.3710     1.7450 H     1 <1>   0.0800 
 26 H       -2.6120     4.2180     0.6120 H     1 <1>   0.0800 
 27 H       -8.8740     0.3990     0.6410 H     1 <1>   0.1500 
 28 H        0.8030     3.1000    -1.4700 H     1 <1>   0.0800 
 29 H        1.8020     2.2780    -0.3160 H     1 <1>   0.0800 
 30 H       -0.5650     5.5020     1.1460 H     1 <1>   0.0800 
 31 H       -0.6970     5.1410    -0.5450 H     1 <1>   0.0800 
 32 H        1.6020     4.7270     0.1610 H     1 <1>   0.0800 
 33 H        1.0660     3.7330     1.4840 H     1 <1>   0.0800 
@<TRIPOS>BOND
  1   1   2  2   
  2   2   3  1   
  3   2   4  1   
  4   3   5  ar  
  5   3   6  ar  
  6   4   7  1   
  7   4  16  1   
  8   4  17  1   
  9   5   8  ar  
 10   5  18  1   
 11   6   9  ar  
 12   6  19  1   
 13   7  10  1   
 14   7  11  1   
 15   7  20  1   
 16   8  12  ar  
 17   8  21  1   
 18   9  12  ar  
 19   9  22  1   
 20  10  13  1   
 21  10  23  1   
 22  10  24  1   
 23  11  14  1   
 24  11  25  1   
 25  11  26  1   
 26  12  27  1   
 27  13  15  1   
 28  13  28  1   
 29  13  29  1   
 30  14  15  1   
 31  14  30  1   
 32  14  31  1   
 33  15  32  1   
 34  15  33  1   
@<TRIPOS>SUBSTRUCTURE
  1 ****   2 GROUP 4 **** **** 0

# MOE 2024.06 (io_trps.svl 2023.06)
