@<TRIPOS>MOLECULE
NONAME
35 37 1 0 0 
SMALL
USER_CHARGES


@<TRIPOS>ATOM
  1 N       -0.2190     0.4090     0.9690 N.ar  1 <1>  -0.6200 
  2 C       -0.1980     1.6250     0.4600 C.ar  1 <1>   0.4100 
  3 C       -1.4170    -0.1110     1.1390 C.ar  1 <1>   0.4700 
  4 N        1.0260     2.2260     0.2680 N.pl3 1 <1>  -0.8380 
  5 C       -1.3670     2.2750     0.1320 C.ar  1 <1>  -0.1500 
  6 N       -2.5910     0.4230     0.8670 N.ar  1 <1>  -0.6200 
  7 C        1.3240     3.5200     0.9330 C.3   1 <1>   0.2090 
  8 C        2.2270     1.3950    -0.0170 C.3   1 <1>   0.2090 
  9 C       -2.5700     1.6480     0.3540 C.ar  1 <1>   0.3100 
 10 C        2.2800     4.3350     0.0560 C.3   1 <1>  -0.1600 
 11 C        3.2010     2.1890    -0.8940 C.3   1 <1>  -0.1600 
 12 C       -3.8260     2.2960     0.0310 C.ar  1 <1>   0.0000 
 13 C        3.5570     3.5470    -0.2700 C.3   1 <1>  -0.1600 
 14 C       -4.8450     1.6040    -0.6210 C.ar  1 <1>  -0.1500 
 15 C       -4.0610     3.6330     0.3560 C.ar  1 <1>  -0.1500 
 16 C       -6.0420     2.2170    -0.9450 C.ar  1 <1>  -0.1500 
 17 C       -5.2550     4.2520     0.0340 C.ar  1 <1>  -0.1500 
 18 C       -6.2480     3.5450    -0.6190 C.ar  1 <1>  -0.1500 
 19 H       -1.4390    -1.1040     1.5550 H     1 <1>   0.1500 
 20 H       -1.3230     3.2520    -0.3040 H     1 <1>   0.1500 
 21 H        1.7800     3.3240     1.8880 H     1 <1>   0.0800 
 22 H        0.4170     4.0740     1.1000 H     1 <1>   0.0800 
 23 H        1.9340     0.4930    -0.5270 H     1 <1>   0.0800 
 24 H        2.6970     1.1230     0.9120 H     1 <1>   0.0800 
 25 H        2.5370     5.2470     0.5640 H     1 <1>   0.0800 
 26 H        1.7720     4.5970    -0.8550 H     1 <1>   0.0800 
 27 H        2.7450     2.3410    -1.8570 H     1 <1>   0.0800 
 28 H        4.0950     1.6110    -1.0420 H     1 <1>   0.0800 
 29 H        4.1190     3.3870     0.6340 H     1 <1>   0.0800 
 30 H        4.1710     4.1110    -0.9510 H     1 <1>   0.0800 
 31 H       -4.6920     0.5690    -0.8740 H     1 <1>   0.1500 
 32 H       -3.3030     4.1930     0.8730 H     1 <1>   0.1500 
 33 H       -6.8120     1.6600    -1.4490 H     1 <1>   0.1500 
 34 H       -5.4150     5.2840     0.2930 H     1 <1>   0.1500 
 35 H       -7.1780     4.0250    -0.8710 H     1 <1>   0.1500 
@<TRIPOS>BOND
  1   1   2  ar  
  2   1   3  ar  
  3   2   4  1   
  4   2   5  ar  
  5   3   6  ar  
  6   3  19  1   
  7   4   7  1   
  8   4   8  1   
  9   5   9  ar  
 10   5  20  1   
 11   6   9  ar  
 12   7  10  1   
 13   7  21  1   
 14   7  22  1   
 15   8  11  1   
 16   8  23  1   
 17   8  24  1   
 18   9  12  1   
 19  10  13  1   
 20  10  25  1   
 21  10  26  1   
 22  11  13  1   
 23  11  27  1   
 24  11  28  1   
 25  12  14  ar  
 26  12  15  ar  
 27  13  29  1   
 28  13  30  1   
 29  14  16  ar  
 30  14  31  1   
 31  15  17  ar  
 32  15  32  1   
 33  16  18  ar  
 34  16  33  1   
 35  17  18  ar  
 36  17  34  1   
 37  18  35  1   
@<TRIPOS>SUBSTRUCTURE
  1 ****   5 GROUP 4 **** **** 0

# MOE 2024.06 (io_trps.svl 2023.06)
