@<TRIPOS>MOLECULE
NONAME
47 48 1 0 0 
SMALL
USER_CHARGES


@<TRIPOS>ATOM
  1 O       -0.1520     0.2830     0.8200 O.3   1 <1>  -0.3630 
  2 C        0.9500     0.9210     0.3570 C.ar  1 <1>   0.0820 
  3 C       -1.1460    -0.0730    -0.1160 C.3   1 <1>   0.1200 
  4 C        0.9130     2.1020    -0.3890 C.ar  1 <1>   0.0820 
  5 C        2.1700     0.3380     0.6480 C.ar  1 <1>  -0.1500 
  6 C       -2.0250    -1.1470     0.5160 C.3   1 <1>  -0.2400 
  7 O       -0.2340     2.7650    -0.6720 O.3   1 <1>  -0.3620 
  8 C        2.0950     2.6460    -0.8590 C.ar  1 <1>  -0.1500 
  9 C        3.3580     0.8750     0.1680 C.ar  1 <1>  -0.1440 
 10 C       -0.9240     3.3610     0.4090 C.3   1 <1>   0.1200 
 11 C        3.3150     2.0500    -0.5790 C.ar  1 <1>  -0.1440 
 12 C        4.6750     0.1700     0.4920 C.3   1 <1>   0.5660 
 13 C       -0.2560     4.6880     0.7650 C.3   1 <1>  -0.2400 
 14 C        4.5830     2.7410    -1.0630 C.3   1 <1>  -0.0160 
 15 N        5.7560     1.1820     0.4820 N.4   1 <1>  -0.9060 
 16 C        5.0290    -1.0160    -0.4450 C.3   1 <1>  -0.0800 
 17 C        5.8570     1.9360    -0.7980 C.3   1 <1>   0.3430 
 18 C        3.8120    -1.9180    -0.7230 C.3   1 <1>   0.1200 
 19 C        6.1870    -1.8760     0.1130 C.3   1 <1>   0.1200 
 20 O        4.2100    -2.9680    -1.5290 O.3   1 <1>  -0.6800 
 21 O        7.2610    -1.0830     0.5080 O.3   1 <1>  -0.6800 
 22 H       -0.6660    -0.4450    -1.0060 H     1 <1>   0.0800 
 23 H       -1.7290     0.7980    -0.3560 H     1 <1>   0.0800 
 24 H        2.1590    -0.5520     1.2530 H     1 <1>   0.1500 
 25 H       -1.4360    -2.0130     0.7600 H     1 <1>   0.0800 
 26 H       -2.7950    -1.4390    -0.1750 H     1 <1>   0.0800 
 27 H       -2.4900    -0.7660     1.4070 H     1 <1>   0.0800 
 28 H        2.0420     3.5540    -1.4350 H     1 <1>   0.1500 
 29 H       -0.9260     2.6870     1.2480 H     1 <1>   0.0800 
 30 H       -1.9380     3.5270     0.0900 H     1 <1>   0.0800 
 31 H        4.5910    -0.2270     1.4910 H     1 <1>   0.0800 
 32 H        0.7480     4.5230     1.1130 H     1 <1>   0.0800 
 33 H       -0.8100     5.1710     1.5490 H     1 <1>   0.0800 
 34 H       -0.2410     5.3370    -0.0920 H     1 <1>   0.0800 
 35 H        4.6660     3.6910    -0.5640 H     1 <1>   0.0800 
 36 H        4.5090     2.9410    -2.1180 H     1 <1>   0.0800 
 37 H        6.6240     0.6340     0.6350 H     1 <1>   0.4500 
 38 H        5.6150     1.8190     1.2700 H     1 <1>   0.4500 
 39 H        5.3220    -0.6350    -1.4050 H     1 <1>   0.0800 
 40 H        6.7050     2.6020    -0.7720 H     1 <1>   0.0800 
 41 H        6.0090     1.2450    -1.6110 H     1 <1>   0.0800 
 42 H        3.0400    -1.3810    -1.2500 H     1 <1>   0.0800 
 43 H        3.4090    -2.3320     0.1870 H     1 <1>   0.0800 
 44 H        6.5410    -2.5590    -0.6430 H     1 <1>   0.0800 
 45 H        5.8640    -2.4480     0.9670 H     1 <1>   0.0800 
 46 H        3.4480    -3.5260    -1.7920 H     1 <1>   0.4000 
 47 H        8.0370    -1.6580     0.7020 H     1 <1>   0.4000 
@<TRIPOS>BOND
  1   1   2  1   
  2   1   3  1   
  3   2   4  ar  
  4   2   5  ar  
  5   3   6  1   
  6   3  22  1   
  7   3  23  1   
  8   4   7  1   
  9   4   8  ar  
 10   5   9  ar  
 11   5  24  1   
 12   6  25  1   
 13   6  26  1   
 14   6  27  1   
 15   7  10  1   
 16   8  11  ar  
 17   8  28  1   
 18   9  11  ar  
 19   9  12  1   
 20  10  13  1   
 21  10  29  1   
 22  10  30  1   
 23  11  14  1   
 24  12  15  1   
 25  12  16  1   
 26  12  31  1   
 27  13  32  1   
 28  13  33  1   
 29  13  34  1   
 30  14  17  1   
 31  14  35  1   
 32  14  36  1   
 33  15  17  1   
 34  15  37  1   
 35  15  38  1   
 36  16  18  1   
 37  16  19  1   
 38  16  39  1   
 39  17  40  1   
 40  17  41  1   
 41  18  20  1   
 42  18  42  1   
 43  18  43  1   
 44  19  21  1   
 45  19  44  1   
 46  19  45  1   
 47  20  46  1   
 48  21  47  1   
@<TRIPOS>SUBSTRUCTURE
  1 ****   9 GROUP 4 **** **** 0

# MOE 2024.06 (io_trps.svl 2023.06)
