@<TRIPOS>MOLECULE
NONAME
44 45 1 0 0 
SMALL
USER_CHARGES


@<TRIPOS>ATOM
  1 O        0.0750    -0.2660     0.2850 O.2   1 <1>  -0.5700 
  2 C        0.6880     0.7530     0.5310 C.2   1 <1>   0.6900 
  3 N        1.9930     0.7380     0.9200 N.am  1 <1>  -0.5470 
  4 N        0.0960     1.9650     0.4120 N.am  1 <1>  -0.7300 
  5 C        2.8880    -0.2980     1.2150 C.ar  1 <1>   0.1170 
  6 C       -1.2980     2.1960     0.0070 C.3   1 <1>   0.2200 
  7 C        4.2700    -0.0580     1.1150 C.ar  1 <1>   0.0860 
  8 C        2.4430    -1.5510     1.6300 C.ar  1 <1>  -0.1500 
  9 C       -1.3110     3.0940    -1.2340 C.3   1 <1>  -0.1600 
 10 C       -2.0490     2.8470     1.1730 C.3   1 <1>  -0.1600 
 11 C        4.7790     1.2220     0.6580 C.2   1 <1>   0.5440 
 12 C        5.1500    -1.0850     1.4640 C.ar  1 <1>  -0.1500 
 13 C        3.3320    -2.5560     1.9540 C.ar  1 <1>  -0.1500 
 14 C       -2.7470     3.4600    -1.6390 C.3   1 <1>  -0.1600 
 15 C       -3.4860     3.2130     0.7730 C.3   1 <1>  -0.1600 
 16 O        4.3280     2.2550     1.1290 O.2   1 <1>  -0.5700 
 17 N        5.7520     1.3160    -0.3200 N.am  1 <1>  -0.6600 
 18 C        4.6930    -2.3210     1.8750 C.ar  1 <1>  -0.1500 
 19 C       -3.5040     4.1100    -0.4730 C.3   1 <1>  -0.1600 
 20 C        6.4670     2.5950    -0.5880 C.3   1 <1>   0.0600 
 21 C        6.0210     0.2380    -1.3120 C.3   1 <1>   0.0600 
 22 H        2.4350     1.6620     0.9370 H     1 <1>   0.3700 
 23 H        0.6180     2.7980     0.6680 H     1 <1>   0.3700 
 24 H       -1.7700     1.2570    -0.2340 H     1 <1>   0.0800 
 25 H        1.3880    -1.7430     1.7080 H     1 <1>   0.1500 
 26 H       -0.8330     2.5780    -2.0480 H     1 <1>   0.0800 
 27 H       -0.7640     3.9970    -1.0320 H     1 <1>   0.0800 
 28 H       -1.5340     3.7400     1.4810 H     1 <1>   0.0800 
 29 H       -2.0750     2.1630     2.0030 H     1 <1>   0.0800 
 30 H        6.2090    -0.9020     1.4120 H     1 <1>   0.1500 
 31 H        2.9660    -3.5170     2.2720 H     1 <1>   0.1500 
 32 H       -3.2670     2.5690    -1.9490 H     1 <1>   0.0800 
 33 H       -2.7250     4.1360    -2.4770 H     1 <1>   0.0800 
 34 H       -3.9710     3.7190     1.5900 H     1 <1>   0.0800 
 35 H       -4.0390     2.3110     0.5700 H     1 <1>   0.0800 
 36 H        5.3890    -3.1010     2.1360 H     1 <1>   0.1500 
 37 H       -4.5230     4.2980    -0.7660 H     1 <1>   0.0800 
 38 H       -3.0500     5.0570    -0.2370 H     1 <1>   0.0800 
 39 H        6.3820     3.2590     0.2550 H     1 <1>   0.0800 
 40 H        6.0400     3.0750    -1.4510 H     1 <1>   0.0800 
 41 H        7.5100     2.4020    -0.7660 H     1 <1>   0.0800 
 42 H        5.2610    -0.5230    -1.2690 H     1 <1>   0.0800 
 43 H        6.9790    -0.2080    -1.1120 H     1 <1>   0.0800 
 44 H        6.0250     0.6510    -2.3060 H     1 <1>   0.0800 
@<TRIPOS>BOND
  1   1   2  2   
  2   2   3  am  
  3   2   4  am  
  4   3   5  1   
  5   3  22  1   
  6   4   6  1   
  7   4  23  1   
  8   5   7  ar  
  9   5   8  ar  
 10   6   9  1   
 11   6  10  1   
 12   6  24  1   
 13   7  11  1   
 14   7  12  ar  
 15   8  13  ar  
 16   8  25  1   
 17   9  14  1   
 18   9  26  1   
 19   9  27  1   
 20  10  15  1   
 21  10  28  1   
 22  10  29  1   
 23  11  16  2   
 24  11  17  am  
 25  12  18  ar  
 26  12  30  1   
 27  13  18  ar  
 28  13  31  1   
 29  14  19  1   
 30  14  32  1   
 31  14  33  1   
 32  15  19  1   
 33  15  34  1   
 34  15  35  1   
 35  17  20  1   
 36  17  21  1   
 37  18  36  1   
 38  19  37  1   
 39  19  38  1   
 40  20  39  1   
 41  20  40  1   
 42  20  41  1   
 43  21  42  1   
 44  21  43  1   
 45  21  44  1   
@<TRIPOS>SUBSTRUCTURE
  1 ****   3 GROUP 4 **** **** 0

# MOE 2024.06 (io_trps.svl 2023.06)
