@<TRIPOS>MOLECULE
NONAME
32 32 1 0 0 
SMALL
USER_CHARGES


@<TRIPOS>ATOM
  1 O        0.7410     2.7310    -2.6770 O.2   1 <1>  -0.5700 
  2 C        0.1520     2.4480    -1.6610 C.2   1 <1>   0.5690 
  3 N        0.7530     1.7830    -0.6390 N.am  1 <1>  -0.7300 
  4 C       -1.3120     2.8550    -1.5350 C.3   1 <1>   0.1810 
  5 C        2.1720     1.3680    -0.5870 C.3   1 <1>   0.1400 
  6 O       -1.8440     2.5130    -0.2600 O.3   1 <1>  -0.3620 
  7 C        2.8360     1.8700     0.7060 C.3   1 <1>  -0.0800 
  8 C       -3.1320     2.7920     0.0580 C.ar  1 <1>   0.0820 
  9 C        2.8380     3.4040     0.7940 C.3   1 <1>  -0.2400 
 10 C        4.2780     1.3510     0.7910 C.3   1 <1>  -0.2400 
 11 C       -3.5540     2.4270     1.3270 C.ar  1 <1>  -0.1500 
 12 C       -4.0290     3.4140    -0.8090 C.ar  1 <1>  -0.1500 
 13 C       -4.8540     2.6750     1.7330 C.ar  1 <1>  -0.1500 
 14 C       -5.3280     3.6600    -0.4010 C.ar  1 <1>  -0.1500 
 15 C       -5.7410     3.2920     0.8690 C.ar  1 <1>  -0.1500 
 16 H        0.1900     1.5940     0.1940 H     1 <1>   0.3700 
 17 H       -1.8830     2.3480    -2.2900 H     1 <1>   0.0800 
 18 H       -1.3930     3.9190    -1.6630 H     1 <1>   0.0800 
 19 H        2.6970     1.7590    -1.4430 H     1 <1>   0.0800 
 20 H        2.2190     0.2940    -0.6290 H     1 <1>   0.0800 
 21 H        2.2910     1.4730     1.5460 H     1 <1>   0.0800 
 22 H        3.3470     3.8290    -0.0530 H     1 <1>   0.0800 
 23 H        3.3320     3.7290     1.6920 H     1 <1>   0.0800 
 24 H        1.8320     3.7840     0.8100 H     1 <1>   0.0800 
 25 H        4.8640     1.7250    -0.0310 H     1 <1>   0.0800 
 26 H        4.2920     0.2760     0.7620 H     1 <1>   0.0800 
 27 H        4.7360     1.6700     1.7110 H     1 <1>   0.0800 
 28 H       -2.8610     1.9480     1.9940 H     1 <1>   0.1500 
 29 H       -3.7400     3.7120    -1.7990 H     1 <1>   0.1500 
 30 H       -5.1740     2.3880     2.7200 H     1 <1>   0.1500 
 31 H       -6.0210     4.1400    -1.0700 H     1 <1>   0.1500 
 32 H       -6.7520     3.4850     1.1830 H     1 <1>   0.1500 
@<TRIPOS>BOND
  1   1   2  2   
  2   2   3  am  
  3   2   4  1   
  4   3   5  1   
  5   3  16  1   
  6   4   6  1   
  7   4  17  1   
  8   4  18  1   
  9   5   7  1   
 10   5  19  1   
 11   5  20  1   
 12   6   8  1   
 13   7   9  1   
 14   7  10  1   
 15   7  21  1   
 16   8  11  ar  
 17   8  12  ar  
 18   9  22  1   
 19   9  23  1   
 20   9  24  1   
 21  10  25  1   
 22  10  26  1   
 23  10  27  1   
 24  11  13  ar  
 25  11  28  1   
 26  12  14  ar  
 27  12  29  1   
 28  13  15  ar  
 29  13  30  1   
 30  14  15  ar  
 31  14  31  1   
 32  15  32  1   
@<TRIPOS>SUBSTRUCTURE
  1 ****   6 GROUP 4 **** **** 0

# MOE 2024.06 (io_trps.svl 2023.06)
