@<TRIPOS>MOLECULE
NONAME
54 56 1 0 0 
SMALL
USER_CHARGES


@<TRIPOS>ATOM
  1 S        0.3000    -0.6210     0.6890 S.o2  1 <1>   1.4470 
  2 O        0.3480     0.0030     1.9920 O.2   1 <1>  -0.6500 
  3 O        0.0370     0.1900    -0.4760 O.2   1 <1>  -0.6500 
  4 N        1.7990    -1.3290     0.4240 N.am  1 <1>  -0.9140 
  5 C       -0.8440    -2.0290     0.7370 C.ar  1 <1>  -0.0090 
  6 C        2.9330    -0.4910     0.8080 C.3   1 <1>   0.1960 
  7 C       -2.0760    -1.9750     0.1020 C.ar  1 <1>  -0.1500 
  8 C       -0.5260    -3.1880     1.4300 C.ar  1 <1>  -0.1500 
  9 C        3.1850     0.6030    -0.2450 C.3   1 <1>   0.2000 
 10 C       -2.9940    -3.0250     0.1390 C.ar  1 <1>   0.0860 
 11 C       -1.4080    -4.2510     1.4810 C.ar  1 <1>  -0.1500 
 12 O        3.1960     0.0300    -1.5140 O.3   1 <1>  -0.5600 
 13 C        4.5350     1.2970    -0.1390 C.3   1 <1>  -0.1600 
 14 C       -2.6350    -4.1800     0.8460 C.ar  1 <1>  -0.1430 
 15 C       -4.2700    -2.8730    -0.5380 C.2   1 <1>   0.5440 
 16 C        3.8270     0.8890    -2.4060 C.3   1 <1>   0.1200 
 17 C        4.8280     1.6940    -1.5790 C.3   1 <1>  -0.1600 
 18 C       -3.5800    -5.3720     0.9340 C.3   1 <1>  -0.0970 
 19 O       -4.6580    -3.6890    -1.3500 O.2   1 <1>  -0.5700 
 20 N       -5.0510    -1.7880    -0.2600 N.am  1 <1>  -0.7300 
 21 C       -6.3520    -1.4830    -0.8760 C.3   1 <1>   0.2200 
 22 C       -6.2750    -0.1010    -1.5330 C.3   1 <1>  -0.1600 
 23 C       -7.4340    -1.5250     0.2080 C.3   1 <1>  -0.1600 
 24 C       -7.6390     0.3200    -2.1000 C.3   1 <1>  -0.1600 
 25 C       -8.8000    -1.1060    -0.3550 C.3   1 <1>  -0.1600 
 26 C       -8.7280     0.2760    -1.0180 C.3   1 <1>  -0.1600 
 27 H        1.8750    -1.3570    -0.6000 H     1 <1>   0.4200 
 28 H        3.8080    -1.1150     0.8630 H     1 <1>   0.0800 
 29 H        2.7850    -0.0550     1.7810 H     1 <1>   0.0800 
 30 H       -2.3360    -1.0860    -0.4480 H     1 <1>   0.1500 
 31 H        0.4230    -3.2590     1.9350 H     1 <1>   0.1500 
 32 H        2.3950     1.3360    -0.2240 H     1 <1>   0.0800 
 33 H       -1.1280    -5.1380     2.0250 H     1 <1>   0.1500 
 34 H        5.2820     0.6050     0.2100 H     1 <1>   0.0800 
 35 H        4.4960     2.1430     0.5230 H     1 <1>   0.0800 
 36 H        3.0780     1.5270    -2.8430 H     1 <1>   0.0800 
 37 H        4.3050     0.3020    -3.1710 H     1 <1>   0.0800 
 38 H        5.8390     1.4520    -1.8560 H     1 <1>   0.0800 
 39 H        4.6650     2.7460    -1.7360 H     1 <1>   0.0800 
 40 H       -4.5580    -5.0520     1.2460 H     1 <1>   0.0800 
 41 H       -3.2240    -6.1020     1.6380 H     1 <1>   0.0800 
 42 H       -3.6650    -5.8420    -0.0300 H     1 <1>   0.0800 
 43 H       -4.7540    -1.1340     0.4630 H     1 <1>   0.3700 
 44 H       -6.5820    -2.2180    -1.6310 H     1 <1>   0.0800 
 45 H       -5.5530    -0.1280    -2.3290 H     1 <1>   0.0800 
 46 H       -5.9590     0.6270    -0.8070 H     1 <1>   0.0800 
 47 H       -7.1680    -0.8600     1.0100 H     1 <1>   0.0800 
 48 H       -7.5030    -2.5250     0.6000 H     1 <1>   0.0800 
 49 H       -7.9100    -0.3440    -2.9030 H     1 <1>   0.0800 
 50 H       -7.5710     1.3150    -2.5040 H     1 <1>   0.0800 
 51 H       -9.5280    -1.0900     0.4370 H     1 <1>   0.0800 
 52 H       -9.1220    -1.8330    -1.0830 H     1 <1>   0.0800 
 53 H       -9.6810     0.5160    -1.4570 H     1 <1>   0.0800 
 54 H       -8.5150     1.0200    -0.2690 H     1 <1>   0.0800 
@<TRIPOS>BOND
  1   1   2  2   
  2   1   3  2   
  3   1   4  am  
  4   1   5  1   
  5   4   6  1   
  6   4  27  1   
  7   5   7  ar  
  8   5   8  ar  
  9   6   9  1   
 10   6  28  1   
 11   6  29  1   
 12   7  10  ar  
 13   7  30  1   
 14   8  11  ar  
 15   8  31  1   
 16   9  12  1   
 17   9  13  1   
 18   9  32  1   
 19  10  14  ar  
 20  10  15  1   
 21  11  14  ar  
 22  11  33  1   
 23  12  16  1   
 24  13  17  1   
 25  13  34  1   
 26  13  35  1   
 27  14  18  1   
 28  15  19  2   
 29  15  20  am  
 30  16  17  1   
 31  16  36  1   
 32  16  37  1   
 33  17  38  1   
 34  17  39  1   
 35  18  40  1   
 36  18  41  1   
 37  18  42  1   
 38  20  21  1   
 39  20  43  1   
 40  21  22  1   
 41  21  23  1   
 42  21  44  1   
 43  22  24  1   
 44  22  45  1   
 45  22  46  1   
 46  23  25  1   
 47  23  47  1   
 48  23  48  1   
 49  24  26  1   
 50  24  49  1   
 51  24  50  1   
 52  25  26  1   
 53  25  51  1   
 54  25  52  1   
 55  26  53  1   
 56  26  54  1   
@<TRIPOS>SUBSTRUCTURE
  1 ****   7 GROUP 4 **** **** 0

# MOE 2024.06 (io_trps.svl 2023.06)
