@<TRIPOS>MOLECULE
NONAME
42 43 1 0 0 
SMALL
USER_CHARGES


@<TRIPOS>ATOM
  1 BR       0.4380     0.3270     2.4460 Br    1 <1>  -0.1110 
  2 C        1.8820     1.0520     1.4030 C.ar  1 <1>   0.1110 
  3 C        2.3510     0.3300     0.3240 C.ar  1 <1>  -0.1500 
  4 C        2.4120     2.2760     1.7590 C.ar  1 <1>  -0.1500 
  5 C        3.3930     0.8550    -0.4230 C.ar  1 <1>  -0.1500 
  6 C        3.4520     2.7940     1.0070 C.ar  1 <1>  -0.1500 
  7 C        3.9480     2.0840    -0.0820 C.ar  1 <1>  -0.1430 
  8 C        5.0970     2.6460    -0.8890 C.3   1 <1>   0.4870 
  9 N        6.3360     2.2040    -0.2140 N.4   1 <1>  -0.9060 
 10 C        7.5970     2.6400    -0.8440 C.3   1 <1>   0.4230 
 11 C        8.7450     1.8970    -0.1500 C.3   1 <1>  -0.1600 
 12 C        7.7320     4.1660    -0.7280 C.3   1 <1>  -0.1600 
 13 C       10.1130     2.4180    -0.5980 C.3   1 <1>   0.1400 
 14 C        9.1200     4.6330    -1.1680 C.3   1 <1>   0.1400 
 15 N       10.1290     3.8830    -0.3900 N.am  1 <1>  -0.6600 
 16 C       10.6800     4.4410     0.7390 C.2   1 <1>   0.7800 
 17 O       10.1820     5.3980     1.2900 O.2   1 <1>  -0.5700 
 18 O       11.7540     3.8860     1.2860 O.3   1 <1>  -0.4300 
 19 C       12.9530     3.8240     0.5500 C.3   1 <1>   0.1200 
 20 C       13.9600     3.0140     1.3600 C.3   1 <1>  -0.2400 
 21 H        1.9060    -0.6180     0.0770 H     1 <1>   0.1500 
 22 H        2.0120     2.8090     2.6050 H     1 <1>   0.1500 
 23 H        3.7540     0.2920    -1.2690 H     1 <1>   0.1500 
 24 H        3.8600     3.7520     1.2830 H     1 <1>   0.1500 
 25 H        5.0360     3.7220    -0.9100 H     1 <1>   0.0800 
 26 H        5.0590     2.2710    -1.8990 H     1 <1>   0.0800 
 27 H        6.3050     1.1810    -0.1470 H     1 <1>   0.4500 
 28 H        6.3060     2.5430     0.7550 H     1 <1>   0.4500 
 29 H        7.6000     2.3690    -1.8890 H     1 <1>   0.0800 
 30 H        8.6930     0.8460    -0.3710 H     1 <1>   0.0800 
 31 H        8.6820     2.0230     0.9180 H     1 <1>   0.0800 
 32 H        7.5880     4.4810     0.2910 H     1 <1>   0.0800 
 33 H        7.0050     4.6600    -1.3460 H     1 <1>   0.0800 
 34 H       10.2870     2.2020    -1.6400 H     1 <1>   0.0800 
 35 H       10.8890     1.9430    -0.0220 H     1 <1>   0.0800 
 36 H        9.2280     5.6930    -0.9930 H     1 <1>   0.0800 
 37 H        9.2730     4.4540    -2.2200 H     1 <1>   0.0800 
 38 H       13.3050     4.8310     0.3990 H     1 <1>   0.0800 
 39 H       12.7670     3.3600    -0.4020 H     1 <1>   0.0800 
 40 H       14.1340     3.4870     2.3110 H     1 <1>   0.0800 
 41 H       14.8940     2.9590     0.8300 H     1 <1>   0.0800 
 42 H       13.5960     2.0150     1.5190 H     1 <1>   0.0800 
@<TRIPOS>BOND
  1   1   2  1   
  2   2   3  ar  
  3   2   4  ar  
  4   3   5  ar  
  5   3  21  1   
  6   4   6  ar  
  7   4  22  1   
  8   5   7  ar  
  9   5  23  1   
 10   6   7  ar  
 11   6  24  1   
 12   7   8  1   
 13   8   9  1   
 14   8  25  1   
 15   8  26  1   
 16   9  10  1   
 17   9  27  1   
 18   9  28  1   
 19  10  11  1   
 20  10  12  1   
 21  10  29  1   
 22  11  13  1   
 23  11  30  1   
 24  11  31  1   
 25  12  14  1   
 26  12  32  1   
 27  12  33  1   
 28  13  15  1   
 29  13  34  1   
 30  13  35  1   
 31  14  15  1   
 32  14  36  1   
 33  14  37  1   
 34  15  16  am  
 35  16  17  2   
 36  16  18  1   
 37  18  19  1   
 38  19  20  1   
 39  19  38  1   
 40  19  39  1   
 41  20  40  1   
 42  20  41  1   
 43  20  42  1   
@<TRIPOS>SUBSTRUCTURE
  1 ****   9 GROUP 4 **** **** 0

# MOE 2024.06 (io_trps.svl 2023.06)
