@<TRIPOS>MOLECULE
NONAME
50 51 1 0 0 
SMALL
USER_CHARGES


@<TRIPOS>ATOM
  1 CL       1.8700     3.4650     2.5330 Cl    1 <1>  -0.1770 
  2 C        2.6470     2.2850     1.5070 C.ar  1 <1>   0.1770 
  3 C        3.9890     2.4280     1.2210 C.ar  1 <1>  -0.1500 
  4 C        1.9080     1.2330     1.0040 C.ar  1 <1>  -0.1500 
  5 C        4.6350     1.5050     0.4080 C.ar  1 <1>   0.1990 
  6 C        2.5350     0.3020     0.1920 C.ar  1 <1>  -0.1500 
  7 N        6.0030     1.6760     0.1490 N.am  1 <1>  -0.6930 
  8 C        3.8840     0.4360    -0.1120 C.ar  1 <1>   0.0830 
  9 S        6.5590     1.9950    -1.4670 S.o2  1 <1>   1.3330 
 10 C        6.9670     1.3640     1.2560 C.3   1 <1>   0.3370 
 11 O        4.4960    -0.4850    -0.9050 O.3   1 <1>  -0.3630 
 12 O        5.3930     2.2020    -2.2890 O.2   1 <1>  -0.6500 
 13 O        7.5110     3.0820    -1.3790 O.2   1 <1>  -0.6500 
 14 C        7.3850     0.5090    -2.0040 C.3   1 <1>  -0.1350 
 15 C        8.3850     1.9810     1.1160 C.2   1 <1>   0.5690 
 16 C        7.0000    -0.1570     1.4720 C.3   1 <1>  -0.2400 
 17 C        3.8800    -0.7870    -2.1410 C.3   1 <1>   0.0400 
 18 O        9.2650     1.3030     0.6350 O.2   1 <1>  -0.5700 
 19 N        8.6530     3.2740     1.5120 N.am  1 <1>  -0.6600 
 20 C        7.6170     4.3610     1.5680 C.3   1 <1>   0.1400 
 21 C       10.0520     3.8010     1.4300 C.3   1 <1>   0.1400 
 22 C        8.0250     5.6010     0.7290 C.3   1 <1>   0.3430 
 23 C       10.2520     4.6240     0.1370 C.3   1 <1>   0.3430 
 24 N        8.9660     5.2210    -0.3760 N.4   1 <1>  -0.9590 
 25 C        9.1780     6.2980    -1.3820 C.3   1 <1>   0.2630 
 26 H        4.5220     3.2610     1.6310 H     1 <1>   0.1500 
 27 H        0.8640     1.1440     1.2460 H     1 <1>   0.1500 
 28 H        1.9680    -0.5260    -0.1920 H     1 <1>   0.1500 
 29 H        6.5580     1.7820     2.1590 H     1 <1>   0.0800 
 30 H        6.7340    -0.3380    -1.9310 H     1 <1>   0.0800 
 31 H        8.2570     0.3200    -1.4130 H     1 <1>   0.0800 
 32 H        7.6900     0.6120    -3.0270 H     1 <1>   0.0800 
 33 H        7.3690    -0.6630     0.5990 H     1 <1>   0.0800 
 34 H        6.0200    -0.5310     1.7080 H     1 <1>   0.0800 
 35 H        7.6530    -0.3920     2.2930 H     1 <1>   0.0800 
 36 H        4.5800    -1.3400    -2.7400 H     1 <1>   0.0800 
 37 H        3.6220     0.1330    -2.6370 H     1 <1>   0.0800 
 38 H        3.0040    -1.3840    -1.9670 H     1 <1>   0.0800 
 39 H        7.4540     4.6560     2.5900 H     1 <1>   0.0800 
 40 H        6.6820     4.0000     1.1810 H     1 <1>   0.0800 
 41 H       10.7710     2.9990     1.4620 H     1 <1>   0.0800 
 42 H       10.2410     4.4260     2.2850 H     1 <1>   0.0800 
 43 H        8.5000     6.3220     1.3730 H     1 <1>   0.0800 
 44 H        7.1370     6.0560     0.3220 H     1 <1>   0.0800 
 45 H       10.6610     3.9740    -0.6200 H     1 <1>   0.0800 
 46 H       10.9750     5.3990     0.3270 H     1 <1>   0.0800 
 47 H        8.4840     4.4240    -0.8560 H     1 <1>   0.4500 
 48 H        9.6660     7.1450    -0.9310 H     1 <1>   0.0800 
 49 H        8.2310     6.6170    -1.7880 H     1 <1>   0.0800 
 50 H        9.7890     5.9340    -2.1920 H     1 <1>   0.0800 
@<TRIPOS>BOND
  1   1   2  1   
  2   2   3  ar  
  3   2   4  ar  
  4   3   5  ar  
  5   3  26  1   
  6   4   6  ar  
  7   4  27  1   
  8   5   7  1   
  9   5   8  ar  
 10   6   8  ar  
 11   6  28  1   
 12   7   9  am  
 13   7  10  1   
 14   8  11  1   
 15   9  12  2   
 16   9  13  2   
 17   9  14  1   
 18  10  15  1   
 19  10  16  1   
 20  10  29  1   
 21  11  17  1   
 22  14  30  1   
 23  14  31  1   
 24  14  32  1   
 25  15  18  2   
 26  15  19  am  
 27  16  33  1   
 28  16  34  1   
 29  16  35  1   
 30  17  36  1   
 31  17  37  1   
 32  17  38  1   
 33  19  20  1   
 34  19  21  1   
 35  20  22  1   
 36  20  39  1   
 37  20  40  1   
 38  21  23  1   
 39  21  41  1   
 40  21  42  1   
 41  22  24  1   
 42  22  43  1   
 43  22  44  1   
 44  23  24  1   
 45  23  45  1   
 46  23  46  1   
 47  24  25  1   
 48  24  47  1   
 49  25  48  1   
 50  25  49  1   
 51  25  50  1   
@<TRIPOS>SUBSTRUCTURE
  1 ****   7 GROUP 4 **** **** 0

# MOE 2024.06 (io_trps.svl 2023.06)
