@<TRIPOS>MOLECULE
NONAME
32 32 1 0 0 
SMALL
USER_CHARGES


@<TRIPOS>ATOM
  1 BR      -0.1120    -0.4150    -0.1550 Br    1 <1>  -0.1110 
  2 C        1.7300    -1.0080    -0.1140 C.ar  1 <1>   0.1110 
  3 C        2.7170    -0.1450    -0.5690 C.ar  1 <1>  -0.1440 
  4 C        2.0100    -2.2800     0.3700 C.ar  1 <1>  -0.1440 
  5 C        4.0300    -0.5850    -0.5330 C.ar  1 <1>  -0.1500 
  6 C        2.3890     1.2440    -1.0950 C.3   1 <1>  -0.0960 
  7 C        3.3330    -2.6940     0.3940 C.ar  1 <1>  -0.1500 
  8 C        0.9080    -3.2060     0.8620 C.3   1 <1>  -0.0960 
  9 C        4.3460    -1.8490    -0.0560 C.ar  1 <1>   0.0830 
 10 O        5.6600    -2.1850    -0.0620 O.3   1 <1>  -0.3630 
 11 C        6.0960    -3.4580     0.4030 C.3   1 <1>   0.1810 
 12 C        7.6100    -3.6080     0.3010 C.2   1 <1>   0.5690 
 13 O        8.1070    -4.6520     0.6500 O.2   1 <1>  -0.5700 
 14 N        8.3570    -2.5760    -0.1740 N.am  1 <1>  -0.7300 
 15 C        9.8230    -2.5610    -0.3190 C.3   1 <1>   0.1400 
 16 C       10.3630    -1.2960     0.3360 C.3   1 <1>  -0.2400 
 17 H        4.8270     0.0500    -0.8750 H     1 <1>   0.1500 
 18 H        1.9060     1.8230    -0.3280 H     1 <1>   0.0800 
 19 H        1.7310     1.1710    -1.9420 H     1 <1>   0.0800 
 20 H        3.2800     1.7610    -1.4010 H     1 <1>   0.0800 
 21 H        3.5570    -3.6750     0.7660 H     1 <1>   0.1500 
 22 H        0.2090    -3.4010     0.0680 H     1 <1>   0.0800 
 23 H        0.3830    -2.7490     1.6830 H     1 <1>   0.0800 
 24 H        1.3100    -4.1440     1.1980 H     1 <1>   0.0800 
 25 H        5.6270    -4.2170    -0.1950 H     1 <1>   0.0800 
 26 H        5.8020    -3.5630     1.4310 H     1 <1>   0.0800 
 27 H        7.8610    -1.7260    -0.4560 H     1 <1>   0.3700 
 28 H       10.0790    -2.5800    -1.3650 H     1 <1>   0.0800 
 29 H       10.2480    -3.4330     0.1530 H     1 <1>   0.0800 
 30 H        9.9630    -0.4220    -0.1450 H     1 <1>   0.0800 
 31 H       11.4340    -1.2750     0.2480 H     1 <1>   0.0800 
 32 H       10.1070    -1.2830     1.3810 H     1 <1>   0.0800 
@<TRIPOS>BOND
  1   1   2  1   
  2   2   3  ar  
  3   2   4  ar  
  4   3   5  ar  
  5   3   6  1   
  6   4   7  ar  
  7   4   8  1   
  8   5   9  ar  
  9   5  17  1   
 10   6  18  1   
 11   6  19  1   
 12   6  20  1   
 13   7   9  ar  
 14   7  21  1   
 15   8  22  1   
 16   8  23  1   
 17   8  24  1   
 18   9  10  1   
 19  10  11  1   
 20  11  12  1   
 21  11  25  1   
 22  11  26  1   
 23  12  13  2   
 24  12  14  am  
 25  14  15  1   
 26  14  27  1   
 27  15  16  1   
 28  15  28  1   
 29  15  29  1   
 30  16  30  1   
 31  16  31  1   
 32  16  32  1   
@<TRIPOS>SUBSTRUCTURE
  1 ****   9 GROUP 4 **** **** 0

# MOE 2024.06 (io_trps.svl 2023.06)
