@<TRIPOS>MOLECULE
NONAME
48 50 1 0 0 
SMALL
USER_CHARGES


@<TRIPOS>ATOM
  1 S        2.9160    -1.9090    -2.1020 S.3   1 <1>  -0.3320 
  2 C        2.1050    -2.2790    -0.5330 C.ar  1 <1>   0.1020 
  3 C        2.7950    -0.0810    -2.3560 C.3   1 <1>  -0.0100 
  4 C        2.1830    -1.4570     0.5980 C.ar  1 <1>   0.0860 
  5 C        1.3930    -3.4650    -0.5150 C.ar  1 <1>  -0.1500 
  6 C        2.9680    -0.2450     0.6760 C.2   1 <1>   0.5440 
  7 C        1.4740    -1.8660     1.7280 C.ar  1 <1>  -0.1500 
  8 C        0.7130    -3.8510     0.6250 C.ar  1 <1>  -0.1500 
  9 O        2.3950     0.8280     0.6710 O.2   1 <1>  -0.5700 
 10 N        4.3420    -0.2670     0.7890 N.am  1 <1>  -0.6600 
 11 C        0.7500    -3.0440     1.7480 C.ar  1 <1>  -0.1500 
 12 C        5.1580     0.9820     0.9180 C.3   1 <1>   0.1400 
 13 C        5.1780    -1.5080     0.7270 C.3   1 <1>   0.1400 
 14 C        6.2280     1.0860    -0.1850 C.3   1 <1>   0.2090 
 15 C        6.2170    -1.4300    -0.4050 C.3   1 <1>   0.2090 
 16 N        7.0190    -0.1720    -0.3460 N.pl3 1 <1>  -0.8380 
 17 C        8.3050    -0.2380     0.1940 C.ar  1 <1>   0.1000 
 18 C        9.4340    -0.3160    -0.6270 C.ar  1 <1>  -0.1430 
 19 C        8.4680    -0.2370     1.5740 C.ar  1 <1>  -0.1500 
 20 C       10.7020    -0.4040    -0.0560 C.ar  1 <1>  -0.1430 
 21 C        9.2310    -0.3090    -2.1430 C.3   1 <1>  -0.0970 
 22 C        9.7230    -0.3140     2.1390 C.ar  1 <1>  -0.1500 
 23 C       10.8360    -0.3990     1.3250 C.ar  1 <1>  -0.1500 
 24 C       11.9690    -0.5110    -0.8940 C.3   1 <1>  -0.0970 
 25 H        2.8440     0.1060    -3.4130 H     1 <1>   0.0800 
 26 H        3.6210     0.3850    -1.8510 H     1 <1>   0.0800 
 27 H        1.8550     0.2530    -1.9520 H     1 <1>   0.0800 
 28 H        1.3650    -4.0820    -1.3960 H     1 <1>   0.1500 
 29 H        1.4990    -1.2420     2.6060 H     1 <1>   0.1500 
 30 H        0.1540    -4.7720     0.6370 H     1 <1>   0.1500 
 31 H        0.2140    -3.3340     2.6360 H     1 <1>   0.1500 
 32 H        5.6420     0.9830     1.8770 H     1 <1>   0.0800 
 33 H        4.5310     1.8540     0.8740 H     1 <1>   0.0800 
 34 H        4.5690    -2.3800     0.5800 H     1 <1>   0.0800 
 35 H        5.6950    -1.6280     1.6630 H     1 <1>   0.0800 
 36 H        6.8960     1.8990     0.0420 H     1 <1>   0.0800 
 37 H        5.7470     1.3110    -1.1190 H     1 <1>   0.0800 
 38 H        5.7150    -1.4770    -1.3550 H     1 <1>   0.0800 
 39 H        6.8790    -2.2770    -0.3420 H     1 <1>   0.0800 
 40 H        7.6030    -0.1790     2.2050 H     1 <1>   0.1500 
 41 H        8.5160     0.4460    -2.4120 H     1 <1>   0.0800 
 42 H        8.8500    -1.2640    -2.4550 H     1 <1>   0.0800 
 43 H       10.1340    -0.1020    -2.6830 H     1 <1>   0.0800 
 44 H        9.8370    -0.3110     3.2090 H     1 <1>   0.1500 
 45 H       11.8100    -0.4610     1.7770 H     1 <1>   0.1500 
 46 H       11.8870    -1.3320    -1.5830 H     1 <1>   0.0800 
 47 H       12.8310    -0.6800    -0.2750 H     1 <1>   0.0800 
 48 H       12.1210     0.4000    -1.4440 H     1 <1>   0.0800 
@<TRIPOS>BOND
  1   1   2  1   
  2   1   3  1   
  3   2   4  ar  
  4   2   5  ar  
  5   3  25  1   
  6   3  26  1   
  7   3  27  1   
  8   4   6  1   
  9   4   7  ar  
 10   5   8  ar  
 11   5  28  1   
 12   6   9  2   
 13   6  10  am  
 14   7  11  ar  
 15   7  29  1   
 16   8  11  ar  
 17   8  30  1   
 18  10  12  1   
 19  10  13  1   
 20  11  31  1   
 21  12  14  1   
 22  12  32  1   
 23  12  33  1   
 24  13  15  1   
 25  13  34  1   
 26  13  35  1   
 27  14  16  1   
 28  14  36  1   
 29  14  37  1   
 30  15  16  1   
 31  15  38  1   
 32  15  39  1   
 33  16  17  1   
 34  17  18  ar  
 35  17  19  ar  
 36  18  20  ar  
 37  18  21  1   
 38  19  22  ar  
 39  19  40  1   
 40  20  23  ar  
 41  20  24  1   
 42  21  41  1   
 43  21  42  1   
 44  21  43  1   
 45  22  23  ar  
 46  22  44  1   
 47  23  45  1   
 48  24  46  1   
 49  24  47  1   
 50  24  48  1   
@<TRIPOS>SUBSTRUCTURE
  1 ****  13 GROUP 4 **** **** 0

# MOE 2024.06 (io_trps.svl 2023.06)
