@<TRIPOS>MOLECULE
NONAME
43 44 1 0 0 
SMALL
USER_CHARGES


@<TRIPOS>ATOM
  1 O       -0.4820    -1.7410     2.2830 O.2   1 <1>  -0.5700 
  2 C       -0.1450    -1.7550     1.1130 C.2   1 <1>   0.6900 
  3 N        1.1040    -2.2010     0.7680 N.am  1 <1>  -0.6600 
  4 N       -0.9770    -1.3180     0.1250 N.am  1 <1>  -0.5470 
  5 C        1.5210    -2.5250    -0.6290 C.3   1 <1>   0.1400 
  6 C        2.1140    -2.5270     1.8180 C.3   1 <1>   0.1400 
  7 C       -2.3040    -0.8490     0.0970 C.ar  1 <1>   0.1170 
  8 C        2.6930    -3.5280    -0.6470 C.3   1 <1>   0.2000 
  9 C        3.5540    -2.3640     1.2820 C.3   1 <1>   0.2000 
 10 C       -2.7640    -0.2530    -1.0830 C.ar  1 <1>   0.0830 
 11 C       -3.1740    -0.9590     1.1750 C.ar  1 <1>  -0.1500 
 12 O        3.7910    -3.0500     0.0780 O.3   1 <1>  -0.5600 
 13 C        3.1880    -3.8110    -2.0620 C.3   1 <1>  -0.2400 
 14 C        4.5960    -2.8580     2.2830 C.3   1 <1>  -0.2400 
 15 O       -1.8840    -0.1720    -2.1280 O.3   1 <1>  -0.3630 
 16 C       -4.0680     0.2250    -1.1590 C.ar  1 <1>  -0.1500 
 17 C       -4.4710    -0.4820     1.0970 C.ar  1 <1>  -0.1500 
 18 C       -2.2430     0.4750    -3.3310 C.3   1 <1>   0.0400 
 19 C       -4.9230     0.1150    -0.0750 C.ar  1 <1>   0.0830 
 20 O       -6.1790     0.6100    -0.2380 O.3   1 <1>  -0.3620 
 21 C       -7.1160     0.5610     0.8150 C.3   1 <1>   0.0400 
 22 H       -0.5130    -1.1920    -0.7690 H     1 <1>   0.3700 
 23 H        1.8210    -1.6210    -1.1300 H     1 <1>   0.0800 
 24 H        0.6900    -2.9530    -1.1640 H     1 <1>   0.0800 
 25 H        1.9630    -3.5370     2.1540 H     1 <1>   0.0800 
 26 H        1.9790    -1.8760     2.6650 H     1 <1>   0.0800 
 27 H        2.3770    -4.4510    -0.1900 H     1 <1>   0.0800 
 28 H        3.7250    -1.3200     1.0840 H     1 <1>   0.0800 
 29 H       -2.8460    -1.4210     2.0870 H     1 <1>   0.1500 
 30 H        3.5390    -2.9050    -2.5230 H     1 <1>   0.0800 
 31 H        2.3920    -4.2190    -2.6590 H     1 <1>   0.0800 
 32 H        3.9900    -4.5260    -2.0300 H     1 <1>   0.0800 
 33 H        4.4630    -3.9080     2.4720 H     1 <1>   0.0800 
 34 H        4.4990    -2.3240     3.2110 H     1 <1>   0.0800 
 35 H        5.5830    -2.6890     1.8930 H     1 <1>   0.0800 
 36 H       -4.4540     0.6880    -2.0450 H     1 <1>   0.1500 
 37 H       -5.1060    -0.5870     1.9550 H     1 <1>   0.1500 
 38 H       -1.3980     0.4450    -3.9940 H     1 <1>   0.0800 
 39 H       -2.5010     1.4970    -3.1140 H     1 <1>   0.0800 
 40 H       -3.0730    -0.0470    -3.7740 H     1 <1>   0.0800 
 41 H       -8.0290     1.0120     0.4700 H     1 <1>   0.0800 
 42 H       -6.7290     1.1140     1.6530 H     1 <1>   0.0800 
 43 H       -7.2930    -0.4670     1.0780 H     1 <1>   0.0800 
@<TRIPOS>BOND
  1   1   2  2   
  2   2   3  am  
  3   2   4  am  
  4   3   5  1   
  5   3   6  1   
  6   4   7  1   
  7   4  22  1   
  8   5   8  1   
  9   5  23  1   
 10   5  24  1   
 11   6   9  1   
 12   6  25  1   
 13   6  26  1   
 14   7  10  ar  
 15   7  11  ar  
 16   8  12  1   
 17   8  13  1   
 18   8  27  1   
 19   9  12  1   
 20   9  14  1   
 21   9  28  1   
 22  10  15  1   
 23  10  16  ar  
 24  11  17  ar  
 25  11  29  1   
 26  13  30  1   
 27  13  31  1   
 28  13  32  1   
 29  14  33  1   
 30  14  34  1   
 31  14  35  1   
 32  15  18  1   
 33  16  19  ar  
 34  16  36  1   
 35  17  19  ar  
 36  17  37  1   
 37  18  38  1   
 38  18  39  1   
 39  18  40  1   
 40  19  20  1   
 41  20  21  1   
 42  21  41  1   
 43  21  42  1   
 44  21  43  1   
@<TRIPOS>SUBSTRUCTURE
  1 ****   4 GROUP 4 **** **** 0

# MOE 2024.06 (io_trps.svl 2023.06)
