@<TRIPOS>MOLECULE
NONAME
48 50 1 0 0 
SMALL
USER_CHARGES


@<TRIPOS>ATOM
  1 S        0.0840    -0.2910     1.4400 S.o2  1 <1>   1.4470 
  2 O        0.7220    -1.4950     1.9280 O.2   1 <1>  -0.6500 
  3 O       -0.5360     0.6110     2.3860 O.2   1 <1>  -0.6500 
  4 N        1.2830     0.5880     0.6220 N.am  1 <1>  -0.8490 
  5 C       -1.1050    -0.6950     0.1290 C.ar  1 <1>  -0.0090 
  6 C        2.0700    -0.2640    -0.2750 C.3   1 <1>   0.1960 
  7 C        2.1360     1.3190     1.5610 C.3   1 <1>   0.1960 
  8 C       -1.5780     0.2880    -0.7330 C.ar  1 <1>  -0.1500 
  9 C       -1.5740    -1.9930    -0.0440 C.ar  1 <1>  -0.1500 
 10 C        3.0360     0.5880    -1.1010 C.3   1 <1>  -0.1600 
 11 C        3.1200     2.2150     0.8030 C.3   1 <1>  -0.1600 
 12 C       -2.4810    -0.0120    -1.7390 C.ar  1 <1>  -0.1500 
 13 C       -2.4780    -2.3020    -1.0470 C.ar  1 <1>  -0.1500 
 14 C        3.9680     1.4050    -0.1890 C.3   1 <1>  -0.0190 
 15 C       -2.9320    -1.3100    -1.8960 C.ar  1 <1>  -0.1500 
 16 C        4.9190     2.3110    -0.9710 C.2   1 <1>   0.5690 
 17 O        4.5150     2.8850    -1.9530 O.2   1 <1>  -0.5700 
 18 N        6.1930     2.4300    -0.4930 N.am  1 <1>  -0.5470 
 19 C        7.3250     3.1550    -0.9110 C.ar  1 <1>   0.1170 
 20 C        8.4730     3.0850    -0.1140 C.ar  1 <1>   0.0830 
 21 C        7.3580     3.9270    -2.0680 C.ar  1 <1>  -0.1500 
 22 O        8.4020     2.3130     1.0140 O.3   1 <1>  -0.3630 
 23 C        9.6210     3.7810    -0.4810 C.ar  1 <1>  -0.1500 
 24 C        8.5020     4.6170    -2.4270 C.ar  1 <1>  -0.1500 
 25 C        9.5080     2.1840     1.8820 C.3   1 <1>   0.0400 
 26 C        9.6330     4.5450    -1.6350 C.ar  1 <1>  -0.1500 
 27 H        1.4120    -0.7910    -0.9470 H     1 <1>   0.0800 
 28 H        2.6210    -0.9940     0.2960 H     1 <1>   0.0800 
 29 H        2.6710     0.6230     2.1880 H     1 <1>   0.0800 
 30 H        1.5280     1.9430     2.1970 H     1 <1>   0.0800 
 31 H       -1.2310     1.3010    -0.6140 H     1 <1>   0.1500 
 32 H       -1.2270    -2.7720     0.6140 H     1 <1>   0.1500 
 33 H        2.4630     1.2480    -1.7300 H     1 <1>   0.0800 
 34 H        3.6210    -0.0490    -1.7400 H     1 <1>   0.0800 
 35 H        3.7590     2.7170     1.5070 H     1 <1>   0.0800 
 36 H        2.5630     2.9690     0.2720 H     1 <1>   0.0800 
 37 H       -2.8340     0.7650    -2.3960 H     1 <1>   0.1500 
 38 H       -2.8280    -3.3130    -1.1640 H     1 <1>   0.1500 
 39 H        4.5640     0.7070     0.3730 H     1 <1>   0.0800 
 40 H       -3.6350    -1.5460    -2.6760 H     1 <1>   0.1500 
 41 H        6.3960     1.9140     0.3640 H     1 <1>   0.3700 
 42 H        6.4930     3.9980    -2.7000 H     1 <1>   0.1500 
 43 H       10.5150     3.7450     0.1110 H     1 <1>   0.1500 
 44 H        8.5090     5.2100    -3.3260 H     1 <1>   0.1500 
 45 H        9.2250     1.5380     2.6930 H     1 <1>   0.0800 
 46 H        9.7690     3.1560     2.2640 H     1 <1>   0.0800 
 47 H       10.3300     1.7500     1.3390 H     1 <1>   0.0800 
 48 H       10.5210     5.0830    -1.9180 H     1 <1>   0.1500 
@<TRIPOS>BOND
  1   1   2  2   
  2   1   3  2   
  3   1   4  am  
  4   1   5  1   
  5   4   6  1   
  6   4   7  1   
  7   5   8  ar  
  8   5   9  ar  
  9   6  10  1   
 10   6  27  1   
 11   6  28  1   
 12   7  11  1   
 13   7  29  1   
 14   7  30  1   
 15   8  12  ar  
 16   8  31  1   
 17   9  13  ar  
 18   9  32  1   
 19  10  14  1   
 20  10  33  1   
 21  10  34  1   
 22  11  14  1   
 23  11  35  1   
 24  11  36  1   
 25  12  15  ar  
 26  12  37  1   
 27  13  15  ar  
 28  13  38  1   
 29  14  16  1   
 30  14  39  1   
 31  15  40  1   
 32  16  17  2   
 33  16  18  am  
 34  18  19  1   
 35  18  41  1   
 36  19  20  ar  
 37  19  21  ar  
 38  20  22  1   
 39  20  23  ar  
 40  21  24  ar  
 41  21  42  1   
 42  22  25  1   
 43  23  26  ar  
 44  23  43  1   
 45  24  26  ar  
 46  24  44  1   
 47  25  45  1   
 48  25  46  1   
 49  25  47  1   
 50  26  48  1   
@<TRIPOS>SUBSTRUCTURE
  1 ****  14 GROUP 4 **** **** 0

# MOE 2024.06 (io_trps.svl 2023.06)
