@<TRIPOS>MOLECULE
NONAME
34 35 1 0 0 
SMALL
USER_CHARGES


@<TRIPOS>ATOM
  1 S        0.1750    -0.0410    -0.7950 S.o2  1 <1>   1.4470 
  2 O       -0.0330     0.2490    -2.1910 O.2   1 <1>  -0.6500 
  3 O        1.5060    -0.1340    -0.2490 O.2   1 <1>  -0.6500 
  4 N       -0.4190     1.3110    -0.0500 N.am  1 <1>  -0.9780 
  5 C       -0.9010    -1.3780    -0.2070 C.ar  1 <1>  -0.0090 
  6 C       -2.2060    -1.4940    -0.6620 C.ar  1 <1>  -0.1500 
  7 C       -0.4570    -2.3060     0.7240 C.ar  1 <1>  -0.1500 
  8 C       -3.0730    -2.4910    -0.2200 C.ar  1 <1>   0.0860 
  9 C       -1.2890    -3.3130     1.1780 C.ar  1 <1>  -0.1500 
 10 C       -2.5890    -3.4120     0.7150 C.ar  1 <1>  -0.1430 
 11 C       -4.4310    -2.5330    -0.7280 C.2   1 <1>   0.5440 
 12 C       -3.4840    -4.5310     1.2330 C.3   1 <1>  -0.0960 
 13 O       -4.7910    -3.4440    -1.4480 O.2   1 <1>  -0.5700 
 14 N       -5.3300    -1.5430    -0.4090 N.am  1 <1>  -0.6600 
 15 C       -6.7270    -1.5470    -0.8910 C.3   1 <1>   0.1400 
 16 C       -5.1120    -0.4830     0.5980 C.3   1 <1>   0.1400 
 17 C       -7.3470    -0.2870    -0.2960 C.3   1 <1>  -0.1600 
 18 C       -6.5130     0.0050     0.9490 C.3   1 <1>  -0.1600 
 19 H       -0.4400     1.9950    -0.8030 H     1 <1>   0.4200 
 20 H        0.3450     1.5910     0.5600 H     1 <1>   0.4200 
 21 H       -2.5720    -0.7870    -1.3880 H     1 <1>   0.1500 
 22 H        0.5520    -2.2440     1.0980 H     1 <1>   0.1500 
 23 H       -0.9130    -4.0210     1.8970 H     1 <1>   0.1500 
 24 H       -4.3900    -4.1210     1.6440 H     1 <1>   0.0800 
 25 H       -2.9920    -5.1030     1.9990 H     1 <1>   0.0800 
 26 H       -3.7430    -5.1940     0.4260 H     1 <1>   0.0800 
 27 H       -7.2230    -2.4290    -0.5210 H     1 <1>   0.0800 
 28 H       -6.7590    -1.5410    -1.9670 H     1 <1>   0.0800 
 29 H       -4.5390     0.3120     0.1540 H     1 <1>   0.0800 
 30 H       -4.5980    -0.8660     1.4640 H     1 <1>   0.0800 
 31 H       -8.3900    -0.4240    -0.0700 H     1 <1>   0.0800 
 32 H       -7.2440     0.5180    -1.0030 H     1 <1>   0.0800 
 33 H       -6.5190     1.0480     1.2130 H     1 <1>   0.0800 
 34 H       -6.8840    -0.5690     1.7800 H     1 <1>   0.0800 
@<TRIPOS>BOND
  1   1   2  2   
  2   1   3  2   
  3   1   4  am  
  4   1   5  1   
  5   4  19  1   
  6   4  20  1   
  7   5   6  ar  
  8   5   7  ar  
  9   6   8  ar  
 10   6  21  1   
 11   7   9  ar  
 12   7  22  1   
 13   8  10  ar  
 14   8  11  1   
 15   9  10  ar  
 16   9  23  1   
 17  10  12  1   
 18  11  13  2   
 19  11  14  am  
 20  12  24  1   
 21  12  25  1   
 22  12  26  1   
 23  14  15  1   
 24  14  16  1   
 25  15  17  1   
 26  15  27  1   
 27  15  28  1   
 28  16  18  1   
 29  16  29  1   
 30  16  30  1   
 31  17  18  1   
 32  17  31  1   
 33  17  32  1   
 34  18  33  1   
 35  18  34  1   
@<TRIPOS>SUBSTRUCTURE
  1 ****   6 GROUP 4 **** **** 0

# MOE 2024.06 (io_trps.svl 2023.06)
