@<TRIPOS>MOLECULE
NONAME
47 48 1 0 0 
SMALL
USER_CHARGES


@<TRIPOS>ATOM
  1 CL      -0.7240     0.8450    -0.9990 Cl    1 <1>  -0.1770 
  2 C       -2.0100    -0.2400    -0.5410 C.ar  1 <1>   0.1770 
  3 C       -2.3640    -0.3490     0.7900 C.ar  1 <1>  -0.1500 
  4 C       -2.6560    -0.9760    -1.5150 C.ar  1 <1>  -0.1500 
  5 C       -3.3870    -1.2090     1.1520 C.ar  1 <1>  -0.1500 
  6 C       -3.6790    -1.8360    -1.1510 C.ar  1 <1>  -0.1500 
  7 C       -4.0530    -1.9510     0.1830 C.ar  1 <1>  -0.1430 
  8 C       -5.1820    -2.8840     0.5820 C.3   1 <1>   0.4870 
  9 N       -6.4780    -2.2870     0.1570 N.4   1 <1>  -0.9590 
 10 C       -6.7520    -0.9930     0.8480 C.3   1 <1>   0.3430 
 11 C       -7.6020    -3.2510     0.3080 C.3   1 <1>   0.3430 
 12 C       -7.9950    -0.3480     0.2400 C.3   1 <1>  -0.1600 
 13 C       -8.8640    -2.6600    -0.3140 C.3   1 <1>  -0.1600 
 14 C       -9.2210    -1.2820     0.2770 C.3   1 <1>  -0.0190 
 15 C      -10.3920    -0.6610    -0.4810 C.2   1 <1>   0.5690 
 16 O      -10.2550    -0.4380    -1.6580 O.2   1 <1>  -0.5700 
 17 N      -11.5420    -0.3830     0.1840 N.am  1 <1>  -0.7300 
 18 C      -12.7590     0.1950    -0.4340 C.3   1 <1>   0.1400 
 19 C      -13.9810    -0.6950    -0.1550 C.3   1 <1>  -0.0800 
 20 C      -15.2160    -0.1190    -0.8600 C.3   1 <1>  -0.2400 
 21 C      -14.2700    -0.8390     1.3480 C.3   1 <1>  -0.2400 
 22 H       -1.8370     0.2330     1.5270 H     1 <1>   0.1500 
 23 H       -2.3530    -0.8750    -2.5430 H     1 <1>   0.1500 
 24 H       -3.6500    -1.2900     2.1940 H     1 <1>   0.1500 
 25 H       -4.1690    -2.4100    -1.9200 H     1 <1>   0.1500 
 26 H       -5.1740    -3.0380     1.6490 H     1 <1>   0.0800 
 27 H       -5.0380    -3.8380     0.1000 H     1 <1>   0.0800 
 28 H       -6.3850    -2.0630    -0.8430 H     1 <1>   0.4500 
 29 H       -5.9140    -0.3240     0.7310 H     1 <1>   0.0800 
 30 H       -6.9070    -1.1630     1.9010 H     1 <1>   0.0800 
 31 H       -7.7740    -3.4550     1.3530 H     1 <1>   0.0800 
 32 H       -7.3640    -4.1800    -0.1860 H     1 <1>   0.0800 
 33 H       -7.7790    -0.0660    -0.7770 H     1 <1>   0.0800 
 34 H       -8.2210     0.5570     0.7760 H     1 <1>   0.0800 
 35 H       -9.6870    -3.3370    -0.1580 H     1 <1>   0.0800 
 36 H       -8.7230    -2.5760    -1.3790 H     1 <1>   0.0800 
 37 H       -9.5140    -1.4170     1.3040 H     1 <1>   0.0800 
 38 H      -11.6350    -0.5820     1.1800 H     1 <1>   0.3700 
 39 H      -12.6170     0.2880    -1.4980 H     1 <1>   0.0800 
 40 H      -12.9230     1.1820    -0.0340 H     1 <1>   0.0800 
 41 H      -13.7880    -1.6700    -0.5710 H     1 <1>   0.0800 
 42 H      -15.4520     0.8580    -0.4780 H     1 <1>   0.0800 
 43 H      -16.0660    -0.7610    -0.7080 H     1 <1>   0.0800 
 44 H      -15.0400    -0.0420    -1.9190 H     1 <1>   0.0800 
 45 H      -14.4190     0.1260     1.8000 H     1 <1>   0.0800 
 46 H      -13.4620    -1.3380     1.8500 H     1 <1>   0.0800 
 47 H      -15.1600    -1.4250     1.4980 H     1 <1>   0.0800 
@<TRIPOS>BOND
  1   1   2  1   
  2   2   3  ar  
  3   2   4  ar  
  4   3   5  ar  
  5   3  22  1   
  6   4   6  ar  
  7   4  23  1   
  8   5   7  ar  
  9   5  24  1   
 10   6   7  ar  
 11   6  25  1   
 12   7   8  1   
 13   8   9  1   
 14   8  26  1   
 15   8  27  1   
 16   9  10  1   
 17   9  11  1   
 18   9  28  1   
 19  10  12  1   
 20  10  29  1   
 21  10  30  1   
 22  11  13  1   
 23  11  31  1   
 24  11  32  1   
 25  12  14  1   
 26  12  33  1   
 27  12  34  1   
 28  13  14  1   
 29  13  35  1   
 30  13  36  1   
 31  14  15  1   
 32  14  37  1   
 33  15  16  2   
 34  15  17  am  
 35  17  18  1   
 36  17  38  1   
 37  18  19  1   
 38  18  39  1   
 39  18  40  1   
 40  19  20  1   
 41  19  21  1   
 42  19  41  1   
 43  20  42  1   
 44  20  43  1   
 45  20  44  1   
 46  21  45  1   
 47  21  46  1   
 48  21  47  1   
@<TRIPOS>SUBSTRUCTURE
  1 ****  12 GROUP 4 **** **** 0

# MOE 2024.06 (io_trps.svl 2023.06)
