@<TRIPOS>MOLECULE
NONAME
35 36 1 0 0 
SMALL
USER_CHARGES


@<TRIPOS>ATOM
  1 BR      -1.8470     1.5080    -3.3770 Br    1 <1>  -0.1110 
  2 C       -2.4210     1.7090    -1.5520 C.ar  1 <1>   0.1110 
  3 C       -3.5450     1.0230    -1.1340 C.ar  1 <1>  -0.1500 
  4 C       -1.6980     2.5310    -0.7110 C.ar  1 <1>  -0.1500 
  5 C       -3.9680     1.1700     0.1800 C.ar  1 <1>  -0.1440 
  6 C       -2.1190     2.6670     0.5990 C.ar  1 <1>  -0.1500 
  7 C       -3.2460     1.9900     1.0420 C.ar  1 <1>  -0.1500 
  8 C       -5.2090     0.4480     0.6720 C.3   1 <1>   0.4870 
  9 N       -6.4100     1.0820     0.0620 N.4   1 <1>  -0.9590 
 10 C       -6.5520     2.5120     0.4650 C.3   1 <1>   0.3430 
 11 C       -7.6430     0.2960     0.3360 C.3   1 <1>   0.3430 
 12 C       -7.6910     3.1500    -0.3270 C.3   1 <1>  -0.1600 
 13 C       -8.8060     0.8830    -0.4590 C.3   1 <1>  -0.1600 
 14 C       -9.0180     2.3820    -0.1700 C.3   1 <1>  -0.0190 
 15 C      -10.0840     2.9630    -1.0950 C.2   1 <1>   0.5690 
 16 O       -9.9230     2.9060    -2.2860 O.2   1 <1>  -0.5700 
 17 N      -11.1910     3.5320    -0.5880 N.am  1 <1>  -0.8000 
 18 H       -4.0580     0.3910    -1.8370 H     1 <1>   0.1500 
 19 H       -0.8260     3.0480    -1.0740 H     1 <1>   0.1500 
 20 H       -1.5650     3.2990     1.2750 H     1 <1>   0.1500 
 21 H       -3.5470     2.1130     2.0690 H     1 <1>   0.1500 
 22 H       -5.2640     0.5010     1.7470 H     1 <1>   0.0800 
 23 H       -5.1500    -0.5890     0.3840 H     1 <1>   0.0800 
 24 H       -6.2560     1.0850    -0.9560 H     1 <1>   0.4500 
 25 H       -5.6380     3.0490     0.2630 H     1 <1>   0.0800 
 26 H       -6.7590     2.5780     1.5210 H     1 <1>   0.0800 
 27 H       -7.8710     0.3260     1.3900 H     1 <1>   0.0800 
 28 H       -7.4990    -0.7340     0.0480 H     1 <1>   0.0800 
 29 H       -7.4120     3.1920    -1.3670 H     1 <1>   0.0800 
 30 H       -7.8250     4.1650     0.0040 H     1 <1>   0.0800 
 31 H       -9.7060     0.3440    -0.2180 H     1 <1>   0.0800 
 32 H       -8.6210     0.7340    -1.5100 H     1 <1>   0.0800 
 33 H       -9.3560     2.4890     0.8460 H     1 <1>   0.0800 
 34 H      -11.8860     3.9120    -1.2360 H     1 <1>   0.3700 
 35 H      -11.4120     3.6260     0.4020 H     1 <1>   0.3700 
@<TRIPOS>BOND
  1   1   2  1   
  2   2   3  ar  
  3   2   4  ar  
  4   3   5  ar  
  5   3  18  1   
  6   4   6  ar  
  7   4  19  1   
  8   5   7  ar  
  9   5   8  1   
 10   6   7  ar  
 11   6  20  1   
 12   7  21  1   
 13   8   9  1   
 14   8  22  1   
 15   8  23  1   
 16   9  10  1   
 17   9  11  1   
 18   9  24  1   
 19  10  12  1   
 20  10  25  1   
 21  10  26  1   
 22  11  13  1   
 23  11  27  1   
 24  11  28  1   
 25  12  14  1   
 26  12  29  1   
 27  12  30  1   
 28  13  14  1   
 29  13  31  1   
 30  13  32  1   
 31  14  15  1   
 32  14  33  1   
 33  15  16  2   
 34  15  17  am  
 35  17  34  1   
 36  17  35  1   
@<TRIPOS>SUBSTRUCTURE
  1 ****   9 GROUP 4 **** **** 0

# MOE 2024.06 (io_trps.svl 2023.06)
