@<TRIPOS>MOLECULE
NONAME
43 44 1 0 0 
SMALL
USER_CHARGES


@<TRIPOS>ATOM
  1 S       -0.0180    -0.1530     0.3860 S.o2  1 <1>   1.3330 
  2 O        0.1030     0.2430     1.7710 O.2   1 <1>  -0.6500 
  3 O        0.4770    -1.4450    -0.0340 O.2   1 <1>  -0.6500 
  4 N       -1.6600    -0.0570    -0.0290 N.am  1 <1>  -0.8490 
  5 C        0.7300     1.0980    -0.6680 C.3   1 <1>  -0.0550 
  6 C       -2.3550     1.0100     0.7000 C.3   1 <1>   0.1960 
  7 C       -2.3390    -1.3450     0.1410 C.3   1 <1>   0.1960 
  8 C        2.2550     1.2360    -0.5090 C.3   1 <1>  -0.2400 
  9 C       -3.7770     1.1760     0.1640 C.3   1 <1>  -0.1600 
 10 C       -3.7710    -1.2680    -0.3970 C.3   1 <1>  -0.1600 
 11 C       -4.5700    -0.1390     0.2770 C.3   1 <1>  -0.0190 
 12 C       -5.9850    -0.0380    -0.2910 C.2   1 <1>   0.6590 
 13 O       -6.3390     0.8900    -0.9750 O.2   1 <1>  -0.5700 
 14 O       -6.7890    -1.0460     0.0400 O.3   1 <1>  -0.2330 
 15 C       -8.1240    -1.0450    -0.2010 C.ar  1 <1>   0.0820 
 16 C       -8.9660    -0.1270     0.4270 C.ar  1 <1>   0.0820 
 17 C       -8.6460    -1.9880    -1.0710 C.ar  1 <1>  -0.1500 
 18 O       -8.4490     0.7730     1.3010 O.3   1 <1>  -0.3630 
 19 C      -10.3290    -0.1600     0.1670 C.ar  1 <1>  -0.1500 
 20 C      -10.0070    -2.0110    -1.3290 C.ar  1 <1>  -0.1500 
 21 C       -8.6910     2.1370     1.0340 C.3   1 <1>   0.0400 
 22 C      -10.8460    -1.0980    -0.7120 C.ar  1 <1>  -0.1500 
 23 H        0.2800     2.0480    -0.4570 H     1 <1>   0.0800 
 24 H        0.5140     0.8580    -1.6910 H     1 <1>   0.0800 
 25 H       -1.8250     1.9400     0.5800 H     1 <1>   0.0800 
 26 H       -2.3850     0.7780     1.7530 H     1 <1>   0.0800 
 27 H       -2.3420    -1.6210     1.1840 H     1 <1>   0.0800 
 28 H       -1.8160    -2.1110    -0.4070 H     1 <1>   0.0800 
 29 H        2.4990     1.5010     0.5050 H     1 <1>   0.0800 
 30 H        2.6320     1.9970    -1.1680 H     1 <1>   0.0800 
 31 H        2.7360     0.3020    -0.7450 H     1 <1>   0.0800 
 32 H       -3.7260     1.4900    -0.8650 H     1 <1>   0.0800 
 33 H       -4.2800     1.9500     0.7180 H     1 <1>   0.0800 
 34 H       -4.2590    -2.2120    -0.2290 H     1 <1>   0.0800 
 35 H       -3.7310    -1.1030    -1.4600 H     1 <1>   0.0800 
 36 H       -4.6710    -0.3740     1.3220 H     1 <1>   0.0800 
 37 H       -7.9920    -2.6960    -1.5470 H     1 <1>   0.1500 
 38 H      -10.9880     0.5350     0.6540 H     1 <1>   0.1500 
 39 H      -10.4130    -2.7400    -2.0090 H     1 <1>   0.1500 
 40 H       -8.0740     2.7220     1.6910 H     1 <1>   0.0800 
 41 H       -9.7280     2.3550     1.2150 H     1 <1>   0.0800 
 42 H       -8.4330     2.3410     0.0090 H     1 <1>   0.0800 
 43 H      -11.9030    -1.1200    -0.9130 H     1 <1>   0.1500 
@<TRIPOS>BOND
  1   1   2  2   
  2   1   3  2   
  3   1   4  am  
  4   1   5  1   
  5   4   6  1   
  6   4   7  1   
  7   5   8  1   
  8   5  23  1   
  9   5  24  1   
 10   6   9  1   
 11   6  25  1   
 12   6  26  1   
 13   7  10  1   
 14   7  27  1   
 15   7  28  1   
 16   8  29  1   
 17   8  30  1   
 18   8  31  1   
 19   9  11  1   
 20   9  32  1   
 21   9  33  1   
 22  10  11  1   
 23  10  34  1   
 24  10  35  1   
 25  11  12  1   
 26  11  36  1   
 27  12  13  2   
 28  12  14  1   
 29  14  15  1   
 30  15  16  ar  
 31  15  17  ar  
 32  16  18  1   
 33  16  19  ar  
 34  17  20  ar  
 35  17  37  1   
 36  18  21  1   
 37  19  22  ar  
 38  19  38  1   
 39  20  22  ar  
 40  20  39  1   
 41  21  40  1   
 42  21  41  1   
 43  21  42  1   
 44  22  43  1   
@<TRIPOS>SUBSTRUCTURE
  1 ****  11 GROUP 4 **** **** 0

# MOE 2024.06 (io_trps.svl 2023.06)
