@<TRIPOS>MOLECULE
NONAME
35 36 1 0 0 
SMALL
USER_CHARGES


@<TRIPOS>ATOM
  1 F       -1.9820     0.5430     2.6140 F     1 <1>  -0.1900 
  2 C       -2.3700     1.0410     1.4730 C.ar  1 <1>   0.1900 
  3 C       -3.4810     0.4960     0.8580 C.ar  1 <1>  -0.1500 
  4 C       -1.6620     2.0920     0.9260 C.ar  1 <1>  -0.1500 
  5 C       -3.9070     1.0290    -0.3520 C.ar  1 <1>  -0.1440 
  6 C       -2.0840     2.6140    -0.2840 C.ar  1 <1>  -0.1500 
  7 C       -3.1980     2.0840    -0.9190 C.ar  1 <1>  -0.1500 
  8 C       -5.1350     0.4690    -1.0440 C.3   1 <1>   0.4870 
  9 N       -6.3410     0.9240    -0.3030 N.4   1 <1>  -0.9590 
 10 C       -7.5990     0.2770    -0.8070 C.3   1 <1>   0.3430 
 11 C       -6.4890     2.4230    -0.3270 C.3   1 <1>   0.3430 
 12 C       -8.8540     0.7970    -0.0670 C.3   1 <1>   0.2000 
 13 C       -7.7800     2.8950     0.3800 C.3   1 <1>   0.2000 
 14 O       -8.8920     2.1970    -0.1060 O.3   1 <1>  -0.5600 
 15 C       -8.9610     0.3170     1.3870 C.3   1 <1>  -0.2400 
 16 C       -8.0510     4.3760     0.1330 C.3   1 <1>  -0.2400 
 17 H       -3.9820    -0.3290     1.3340 H     1 <1>   0.1500 
 18 H       -0.8010     2.4880     1.4360 H     1 <1>   0.1500 
 19 H       -1.5410     3.4300    -0.7320 H     1 <1>   0.1500 
 20 H       -3.4990     2.5070    -1.8630 H     1 <1>   0.1500 
 21 H       -5.0830    -0.6070    -1.0460 H     1 <1>   0.0800 
 22 H       -5.1720     0.8120    -2.0660 H     1 <1>   0.0800 
 23 H       -6.2140     0.6550     0.6800 H     1 <1>   0.4500 
 24 H       -7.5400    -0.7920    -0.6890 H     1 <1>   0.0800 
 25 H       -7.7200     0.4870    -1.8570 H     1 <1>   0.0800 
 26 H       -6.5200     2.7690    -1.3470 H     1 <1>   0.0800 
 27 H       -5.6400     2.8860     0.1500 H     1 <1>   0.0800 
 28 H       -9.7280     0.4560    -0.5960 H     1 <1>   0.0800 
 29 H       -7.7070     2.7290     1.4410 H     1 <1>   0.0800 
 30 H       -8.0940     0.5700     1.9670 H     1 <1>   0.0800 
 31 H       -9.0790    -0.7510     1.4090 H     1 <1>   0.0800 
 32 H       -9.8320     0.7530     1.8460 H     1 <1>   0.0800 
 33 H       -8.1680     4.5720    -0.9180 H     1 <1>   0.0800 
 34 H       -7.2410     4.9750     0.5100 H     1 <1>   0.0800 
 35 H       -8.9510     4.6710     0.6450 H     1 <1>   0.0800 
@<TRIPOS>BOND
  1   1   2  1   
  2   2   3  ar  
  3   2   4  ar  
  4   3   5  ar  
  5   3  17  1   
  6   4   6  ar  
  7   4  18  1   
  8   5   7  ar  
  9   5   8  1   
 10   6   7  ar  
 11   6  19  1   
 12   7  20  1   
 13   8   9  1   
 14   8  21  1   
 15   8  22  1   
 16   9  10  1   
 17   9  11  1   
 18   9  23  1   
 19  10  12  1   
 20  10  24  1   
 21  10  25  1   
 22  11  13  1   
 23  11  26  1   
 24  11  27  1   
 25  12  14  1   
 26  12  15  1   
 27  12  28  1   
 28  13  14  1   
 29  13  16  1   
 30  13  29  1   
 31  15  30  1   
 32  15  31  1   
 33  15  32  1   
 34  16  33  1   
 35  16  34  1   
 36  16  35  1   
@<TRIPOS>SUBSTRUCTURE
  1 ****   9 GROUP 4 **** **** 0

# MOE 2024.06 (io_trps.svl 2023.06)
