@<TRIPOS>MOLECULE
NONAME
41 41 1 0 0 
SMALL
USER_CHARGES


@<TRIPOS>ATOM
  1 F       -0.2500     1.1450    -1.0870 F     1 <1>  -0.1900 
  2 C       -0.3230     2.1080    -0.2060 C.ar  1 <1>   0.1900 
  3 C       -1.5060     2.3040     0.4990 C.ar  1 <1>  -0.1440 
  4 C        0.7970     2.8940    -0.0200 C.ar  1 <1>  -0.1500 
  5 C       -1.5540     3.3370     1.4300 C.ar  1 <1>  -0.1500 
  6 C       -2.7260     1.4190     0.2750 C.3   1 <1>   0.2540 
  7 C        0.7060     3.9080     0.9120 C.ar  1 <1>   0.1900 
  8 C       -0.4460     4.1450     1.6410 C.ar  1 <1>  -0.1500 
  9 N       -3.9120     2.2250    -0.0910 N.3   1 <1>  -0.8100 
 10 F        1.7460     4.6710     1.1140 F     1 <1>  -0.1900 
 11 C       -5.1320     1.4080    -0.0870 C.3   1 <1>   0.1100 
 12 C       -3.6970     2.8980    -1.3890 C.3   1 <1>   0.0300 
 13 C       -6.3690     2.3140     0.0440 C.3   1 <1>   0.3430 
 14 N       -7.6400     1.5380     0.2460 N.4   1 <1>  -0.9590 
 15 C       -8.0260     0.7970    -0.9860 C.3   1 <1>   0.3430 
 16 C       -8.7370     2.4360     0.7040 C.3   1 <1>   0.3430 
 17 C       -8.9760    -0.3380    -0.6210 C.3   1 <1>  -0.2400 
 18 C       -8.5380     2.7760     2.1760 C.3   1 <1>  -0.2400 
 19 H        1.7000     2.7250    -0.5750 H     1 <1>   0.1500 
 20 H       -2.4590     3.5140     1.9860 H     1 <1>   0.1500 
 21 H       -2.9200     0.8910     1.1930 H     1 <1>   0.0800 
 22 H       -2.5350     0.6860    -0.4910 H     1 <1>   0.0800 
 23 H       -0.4730     4.9470     2.3570 H     1 <1>   0.1500 
 24 H       -5.1080     0.7500     0.7640 H     1 <1>   0.0800 
 25 H       -5.1740     0.8160    -0.9860 H     1 <1>   0.0800 
 26 H       -3.5160     2.1750    -2.1670 H     1 <1>   0.0800 
 27 H       -4.5490     3.4970    -1.6560 H     1 <1>   0.0800 
 28 H       -2.8450     3.5550    -1.3310 H     1 <1>   0.0800 
 29 H       -6.4540     2.9300    -0.8350 H     1 <1>   0.0800 
 30 H       -6.2020     2.9610     0.8880 H     1 <1>   0.0800 
 31 H       -7.4790     0.8500     0.9940 H     1 <1>   0.4500 
 32 H       -7.1510     0.3730    -1.4520 H     1 <1>   0.0800 
 33 H       -8.4930     1.4640    -1.6930 H     1 <1>   0.0800 
 34 H       -9.6880     1.9420     0.5920 H     1 <1>   0.0800 
 35 H       -8.7560     3.3370     0.1110 H     1 <1>   0.0800 
 36 H       -8.5190    -1.0080     0.0850 H     1 <1>   0.0800 
 37 H       -9.2060    -0.9010    -1.5080 H     1 <1>   0.0800 
 38 H       -9.9030     0.0320    -0.2220 H     1 <1>   0.0800 
 39 H       -8.5140     1.8830     2.7760 H     1 <1>   0.0800 
 40 H       -9.3660     3.3750     2.5120 H     1 <1>   0.0800 
 41 H       -7.6400     3.3450     2.3360 H     1 <1>   0.0800 
@<TRIPOS>BOND
  1   1   2  1   
  2   2   3  ar  
  3   2   4  ar  
  4   3   5  ar  
  5   3   6  1   
  6   4   7  ar  
  7   4  19  1   
  8   5   8  ar  
  9   5  20  1   
 10   6   9  1   
 11   6  21  1   
 12   6  22  1   
 13   7   8  ar  
 14   7  10  1   
 15   8  23  1   
 16   9  11  1   
 17   9  12  1   
 18  11  13  1   
 19  11  24  1   
 20  11  25  1   
 21  12  26  1   
 22  12  27  1   
 23  12  28  1   
 24  13  14  1   
 25  13  29  1   
 26  13  30  1   
 27  14  15  1   
 28  14  16  1   
 29  14  31  1   
 30  15  17  1   
 31  15  32  1   
 32  15  33  1   
 33  16  18  1   
 34  16  34  1   
 35  16  35  1   
 36  17  36  1   
 37  17  37  1   
 38  17  38  1   
 39  18  39  1   
 40  18  40  1   
 41  18  41  1   
@<TRIPOS>SUBSTRUCTURE
  1 ****   9 GROUP 4 **** **** 0

# MOE 2024.06 (io_trps.svl 2023.06)
