@<TRIPOS>MOLECULE
NONAME
46 47 1 0 0 
SMALL
USER_CHARGES


@<TRIPOS>ATOM
  1 S        0.0770    -0.2230    -0.0620 S.o2  1 <1>   1.3330 
  2 O        0.4680    -0.6960     1.2470 O.2   1 <1>  -0.6500 
  3 O        0.4540    -0.9700    -1.2410 O.2   1 <1>  -0.6500 
  4 N       -1.6120    -0.0790    -0.0640 N.am  1 <1>  -0.8490 
  5 C        0.6220     1.4750    -0.2780 C.3   1 <1>  -0.0550 
  6 C       -2.2490    -1.3080    -0.5680 C.3   1 <1>   0.1960 
  7 C       -2.1590     0.2930     1.2410 C.3   1 <1>   0.1960 
  8 C        2.1510     1.6340    -0.3200 C.3   1 <1>  -0.1600 
  9 C       -3.7680    -1.3320    -0.3250 C.3   1 <1>  -0.1600 
 10 C       -3.6200     0.7430     1.0860 C.3   1 <1>  -0.1600 
 11 C        2.5540     3.1010    -0.5030 C.3   1 <1>  -0.2400 
 12 C       -4.3430     0.0800    -0.1070 C.3   1 <1>  -0.0190 
 13 C       -5.8660     0.0830     0.0950 C.2   1 <1>   0.5690 
 14 O       -6.3380    -0.8370     0.7220 O.2   1 <1>  -0.5700 
 15 N       -6.6550     1.1100    -0.3980 N.am  1 <1>  -0.4770 
 16 C       -8.0520     1.1330    -0.2270 C.ar  1 <1>   0.1170 
 17 C       -6.0880     2.2500    -1.1690 C.3   1 <1>   0.0600 
 18 C       -8.6690     2.1840     0.4440 C.ar  1 <1>  -0.1500 
 19 C       -8.8490     0.1130    -0.7340 C.ar  1 <1>  -0.1500 
 20 C      -10.0440     2.2220     0.5920 C.ar  1 <1>  -0.1500 
 21 C      -10.2240     0.1460    -0.5890 C.ar  1 <1>  -0.1500 
 22 C      -10.8240     1.2030     0.0730 C.ar  1 <1>  -0.1500 
 23 H        0.2360     2.0710     0.5260 H     1 <1>   0.0800 
 24 H        0.2090     1.8530    -1.1930 H     1 <1>   0.0800 
 25 H       -1.8030    -2.1720    -0.1010 H     1 <1>   0.0800 
 26 H       -2.0600    -1.3770    -1.6270 H     1 <1>   0.0800 
 27 H       -1.5850     1.0920     1.6800 H     1 <1>   0.0800 
 28 H       -2.1030    -0.5560     1.9060 H     1 <1>   0.0800 
 29 H        2.5480     1.0490    -1.1330 H     1 <1>   0.0800 
 30 H        2.5750     1.2570     0.5960 H     1 <1>   0.0800 
 31 H       -3.9670    -1.9360     0.5440 H     1 <1>   0.0800 
 32 H       -4.2550    -1.8090    -1.1570 H     1 <1>   0.0800 
 33 H       -3.6520     1.8110     0.9700 H     1 <1>   0.0800 
 34 H       -4.1370     0.5060     2.0010 H     1 <1>   0.0800 
 35 H        2.1590     3.4890    -1.4260 H     1 <1>   0.0800 
 36 H        3.6260     3.1850    -0.5320 H     1 <1>   0.0800 
 37 H        2.1880     3.7000     0.3120 H     1 <1>   0.0800 
 38 H       -4.0990     0.6310    -0.9950 H     1 <1>   0.0800 
 39 H       -5.6480     1.8900    -2.0820 H     1 <1>   0.0800 
 40 H       -5.3430     2.7570    -0.5820 H     1 <1>   0.0800 
 41 H       -6.8630     2.9520    -1.4250 H     1 <1>   0.0800 
 42 H       -8.0680     2.9720     0.8570 H     1 <1>   0.1500 
 43 H       -8.3830    -0.7130    -1.2410 H     1 <1>   0.1500 
 44 H      -10.5090     3.0410     1.1130 H     1 <1>   0.1500 
 45 H      -10.8260    -0.6520    -0.9870 H     1 <1>   0.1500 
 46 H      -11.8940     1.2300     0.1880 H     1 <1>   0.1500 
@<TRIPOS>BOND
  1   1   2  2   
  2   1   3  2   
  3   1   4  am  
  4   1   5  1   
  5   4   6  1   
  6   4   7  1   
  7   5   8  1   
  8   5  23  1   
  9   5  24  1   
 10   6   9  1   
 11   6  25  1   
 12   6  26  1   
 13   7  10  1   
 14   7  27  1   
 15   7  28  1   
 16   8  11  1   
 17   8  29  1   
 18   8  30  1   
 19   9  12  1   
 20   9  31  1   
 21   9  32  1   
 22  10  12  1   
 23  10  33  1   
 24  10  34  1   
 25  11  35  1   
 26  11  36  1   
 27  11  37  1   
 28  12  13  1   
 29  12  38  1   
 30  13  14  2   
 31  13  15  am  
 32  15  16  1   
 33  15  17  1   
 34  16  18  ar  
 35  16  19  ar  
 36  17  39  1   
 37  17  40  1   
 38  17  41  1   
 39  18  20  ar  
 40  18  42  1   
 41  19  21  ar  
 42  19  43  1   
 43  20  22  ar  
 44  20  44  1   
 45  21  22  ar  
 46  21  45  1   
 47  22  46  1   
@<TRIPOS>SUBSTRUCTURE
  1 ****  12 GROUP 4 **** **** 0

# MOE 2024.06 (io_trps.svl 2023.06)
