@<TRIPOS>MOLECULE
NONAME
37 38 1 0 0 
SMALL
USER_CHARGES


@<TRIPOS>ATOM
  1 O       -0.5750     0.0380     1.1170 O.2   1 <1>  -0.5700 
  2 C       -1.6170     0.6470     0.9110 C.2   1 <1>   0.6300 
  3 N       -2.4120     0.1830    -0.0870 N.am  1 <1>  -0.4100 
  4 C       -2.0410     1.8340     1.6530 C.2   1 <1>   0.5090 
  5 N       -3.7180     0.7790    -0.3930 N.pl3 1 <1>  -0.4890 
  6 O       -1.4970     2.2670     2.6420 O.2   1 <1>  -0.5700 
  7 C       -3.2820     2.6050     1.2080 C.3   1 <1>  -0.0990 
  8 C       -4.8130    -0.0430    -0.1520 C.ar  1 <1>   0.1000 
  9 C       -3.7390     2.2800    -0.2240 C.3   1 <1>   0.6490 
 10 C       -5.4580    -0.6790    -1.2090 C.ar  1 <1>  -0.1500 
 11 C       -5.2680    -0.2910     1.1430 C.ar  1 <1>  -0.1500 
 12 O       -2.7150     2.6910    -1.0420 O.3   1 <1>  -0.6800 
 13 C       -5.0510     3.0530    -0.6960 C.3   1 <1>   0.0000 
 14 C       -6.5470    -1.5000    -0.9880 C.ar  1 <1>  -0.1500 
 15 C       -6.3570    -1.1120     1.3680 C.ar  1 <1>  -0.1500 
 16 C       -5.3770     2.7870    -2.1850 C.3   1 <1>  -0.2400 
 17 C       -6.3250     2.7200     0.1180 C.3   1 <1>  -0.2400 
 18 C       -4.8720     4.5880    -0.5670 C.3   1 <1>  -0.2400 
 19 C       -7.0020    -1.7140     0.3010 C.ar  1 <1>  -0.1500 
 20 H       -2.0440    -0.5540    -0.6960 H     1 <1>   0.3700 
 21 H       -3.0650     3.6530     1.2870 H     1 <1>   0.0800 
 22 H       -4.0700     2.3900     1.8990 H     1 <1>   0.0800 
 23 H       -5.0970    -0.5280    -2.2090 H     1 <1>   0.1500 
 24 H       -4.7650     0.1550     1.9800 H     1 <1>   0.1500 
 25 H       -2.8280     2.1970    -1.8720 H     1 <1>   0.4000 
 26 H       -7.0410    -1.9770    -1.8170 H     1 <1>   0.1500 
 27 H       -6.7020    -1.2880     2.3720 H     1 <1>   0.1500 
 28 H       -4.5790     3.1210    -2.8240 H     1 <1>   0.0800 
 29 H       -6.2700     3.3120    -2.4770 H     1 <1>   0.0800 
 30 H       -5.5420     1.7440    -2.3650 H     1 <1>   0.0800 
 31 H       -6.6710     1.7230    -0.0760 H     1 <1>   0.0800 
 32 H       -7.1290     3.3800    -0.1570 H     1 <1>   0.0800 
 33 H       -6.1630     2.8300     1.1740 H     1 <1>   0.0800 
 34 H       -3.9990     4.9240    -1.0980 H     1 <1>   0.0800 
 35 H       -4.7800     4.8880     0.4610 H     1 <1>   0.0800 
 36 H       -5.7210     5.1080    -0.9780 H     1 <1>   0.0800 
 37 H       -7.8520    -2.3520     0.4750 H     1 <1>   0.1500 
@<TRIPOS>BOND
  1   1   2  2   
  2   2   3  am  
  3   2   4  1   
  4   3   5  1   
  5   3  20  1   
  6   4   6  2   
  7   4   7  1   
  8   5   8  1   
  9   5   9  1   
 10   7   9  1   
 11   7  21  1   
 12   7  22  1   
 13   8  10  ar  
 14   8  11  ar  
 15   9  12  1   
 16   9  13  1   
 17  10  14  ar  
 18  10  23  1   
 19  11  15  ar  
 20  11  24  1   
 21  12  25  1   
 22  13  16  1   
 23  13  17  1   
 24  13  18  1   
 25  14  19  ar  
 26  14  26  1   
 27  15  19  ar  
 28  15  27  1   
 29  16  28  1   
 30  16  29  1   
 31  16  30  1   
 32  17  31  1   
 33  17  32  1   
 34  17  33  1   
 35  18  34  1   
 36  18  35  1   
 37  18  36  1   
 38  19  37  1   
@<TRIPOS>SUBSTRUCTURE
  1 ****   5 GROUP 4 **** **** 0

# MOE 2024.06 (io_trps.svl 2023.06)
