@<TRIPOS>MOLECULE
NONAME
46 48 1 0 0 
SMALL
USER_CHARGES


@<TRIPOS>ATOM
  1 S       -0.0300    -0.6450     0.1330 S.3   1 <1>  -0.3710 
  2 C       -1.4750     0.4130     0.1710 C.2   1 <1>   0.6510 
  3 C        1.3380     0.6150     0.1790 C.3   1 <1>   0.1310 
  4 N       -1.2380     1.6660     0.2280 N.2   1 <1>  -0.6210 
  5 N       -2.7130    -0.1970     0.1360 N.am  1 <1>  -0.2370 
  6 C        2.7510     0.0410     0.2110 C.2   1 <1>   0.5690 
  7 C       -2.2980     2.5190     0.2540 C.2   1 <1>   0.0210 
  8 C       -3.8120     0.6590     0.1510 C.2   1 <1>   0.6160 
  9 C       -2.8730    -1.5950     0.0940 C.ar  1 <1>   0.1170 
 10 O        2.9360    -1.1230    -0.0660 O.2   1 <1>  -0.5700 
 11 N        3.8030     0.8660     0.5380 N.am  1 <1>  -0.6600 
 12 O       -2.0110     3.7170     0.3140 O.3   1 <1>  -0.8500 
 13 C       -3.6000     2.0350     0.2120 C.2   1 <1>  -0.1240 
 14 O       -4.9520     0.1530     0.1100 O.2   1 <1>  -0.5700 
 15 C       -3.1140    -2.2430    -1.1130 C.ar  1 <1>  -0.1500 
 16 C       -2.7970    -2.3520     1.2570 C.ar  1 <1>  -0.1500 
 17 C        5.2060     0.3600     0.6090 C.3   1 <1>   0.1400 
 18 C        3.6970     2.3370     0.8060 C.3   1 <1>   0.1400 
 19 C       -4.7740     3.0100     0.2300 C.3   1 <1>  -0.0220 
 20 C       -3.2710    -3.6170    -1.1570 C.ar  1 <1>  -0.1500 
 21 C       -2.9530    -3.7260     1.2160 C.ar  1 <1>  -0.1500 
 22 C        6.1450     1.2530    -0.2190 C.3   1 <1>   0.1200 
 23 C        4.7300     3.1150    -0.0260 C.3   1 <1>   0.1200 
 24 C       -5.2270     3.3380    -1.1950 C.3   1 <1>  -0.2400 
 25 C       -3.1900    -4.3600     0.0090 C.ar  1 <1>  -0.1500 
 26 O        6.0170     2.5950     0.1620 O.3   1 <1>  -0.5600 
 27 H        1.1650     1.2010     1.0620 H     1 <1>   0.0800 
 28 H        1.2140     1.2320    -0.6910 H     1 <1>   0.0800 
 29 H       -3.1790    -1.6610    -2.0150 H     1 <1>   0.1500 
 30 H       -2.6140    -1.8570     2.1940 H     1 <1>   0.1500 
 31 H        5.2650    -0.6500     0.2430 H     1 <1>   0.0800 
 32 H        5.5290     0.3590     1.6340 H     1 <1>   0.0800 
 33 H        3.8780     2.5180     1.8510 H     1 <1>   0.0800 
 34 H        2.7170     2.7120     0.5720 H     1 <1>   0.0800 
 35 H       -4.4730     3.9170     0.7250 H     1 <1>   0.0800 
 36 H       -5.5920     2.5900     0.7870 H     1 <1>   0.0800 
 37 H       -3.4560    -4.1060    -2.0970 H     1 <1>   0.1500 
 38 H       -2.8890    -4.3000     2.1240 H     1 <1>   0.1500 
 39 H        5.9180     1.1670    -1.2670 H     1 <1>   0.0800 
 40 H        7.1680     0.9620    -0.0600 H     1 <1>   0.0800 
 41 H        4.7460     4.1480     0.2760 H     1 <1>   0.0800 
 42 H        4.4870     3.0660    -1.0730 H     1 <1>   0.0800 
 43 H       -4.4000     3.7640    -1.7380 H     1 <1>   0.0800 
 44 H       -6.0330     4.0470    -1.1740 H     1 <1>   0.0800 
 45 H       -5.5520     2.4440    -1.6970 H     1 <1>   0.0800 
 46 H       -3.3120    -5.4290    -0.0240 H     1 <1>   0.1500 
@<TRIPOS>BOND
  1   1   2  1   
  2   1   3  1   
  3   2   4  2   
  4   2   5  1   
  5   3   6  1   
  6   3  27  1   
  7   3  28  1   
  8   4   7  1   
  9   5   8  am  
 10   5   9  1   
 11   6  10  2   
 12   6  11  am  
 13   7  12  1   
 14   7  13  2   
 15   8  13  1   
 16   8  14  2   
 17   9  15  ar  
 18   9  16  ar  
 19  11  17  1   
 20  11  18  1   
 21  13  19  1   
 22  15  20  ar  
 23  15  29  1   
 24  16  21  ar  
 25  16  30  1   
 26  17  22  1   
 27  17  31  1   
 28  17  32  1   
 29  18  23  1   
 30  18  33  1   
 31  18  34  1   
 32  19  24  1   
 33  19  35  1   
 34  19  36  1   
 35  20  25  ar  
 36  20  37  1   
 37  21  25  ar  
 38  21  38  1   
 39  22  26  1   
 40  22  39  1   
 41  22  40  1   
 42  23  26  1   
 43  23  41  1   
 44  23  42  1   
 45  24  43  1   
 46  24  44  1   
 47  24  45  1   
 48  25  46  1   
@<TRIPOS>SUBSTRUCTURE
  1 ****   2 GROUP 4 **** **** 0

# MOE 2024.06 (io_trps.svl 2023.06)
