@<TRIPOS>MOLECULE
NONAME
53 57 1 0 0 
SMALL
USER_CHARGES


@<TRIPOS>ATOM
  1 S       -0.2780     0.3710     1.0860 S.3   1 <1>  -0.0800 
  2 C       -1.2880     1.7910     0.8390 C.ar  1 <1>   0.2970 
  3 C       -1.5380    -0.6910     0.4670 C.2   1 <1>  -0.1100 
  4 N       -0.8790     3.0060     1.1300 N.ar  1 <1>  -0.5670 
  5 C       -2.5100     1.4380     0.3140 C.ar  1 <1>   0.0000 
  6 C       -2.6340     0.0070     0.1050 C.2   1 <1>  -0.1810 
  7 C       -1.7840     3.9240     0.8670 C.ar  1 <1>   0.4700 
  8 C       -3.3640     2.5250     0.0880 C.ar  1 <1>   0.4100 
  9 C       -3.9070    -0.6060    -0.4700 C.3   1 <1>   0.3810 
 10 N       -3.0050     3.7660     0.3670 N.ar  1 <1>  -0.6200 
 11 N       -4.6360     2.3850    -0.4130 N.pl3 1 <1>  -0.8380 
 12 O       -4.8450    -0.7440     0.5850 O.3   1 <1>  -0.3620 
 13 C       -3.7020    -1.9700    -1.1480 C.3   1 <1>   0.1200 
 14 C       -5.7250     2.1620     0.5830 C.3   1 <1>   0.2090 
 15 C       -5.0330     3.2220    -1.5870 C.3   1 <1>   0.2090 
 16 C       -5.9460    -1.4950     0.3310 C.ar  1 <1>   0.0830 
 17 O       -4.9450    -2.4620    -1.6210 O.3   1 <1>  -0.3630 
 18 C       -6.3740     3.4980     1.0040 C.3   1 <1>   0.3430 
 19 C       -5.7050     4.5370    -1.1360 C.3   1 <1>   0.3430 
 20 C       -6.0070    -2.3330    -0.7850 C.ar  1 <1>   0.0830 
 21 C       -7.0250    -1.4160     1.1960 C.ar  1 <1>  -0.1500 
 22 N       -6.8510     4.3090    -0.1760 N.4   1 <1>  -0.9590 
 23 C       -7.1590    -3.0520    -1.0470 C.ar  1 <1>  -0.1500 
 24 C       -8.1740    -2.1450     0.9330 C.ar  1 <1>  -0.1500 
 25 C       -7.4600     5.5840     0.2850 C.3   1 <1>   0.3430 
 26 C       -8.2420    -2.9570    -0.1880 C.ar  1 <1>  -0.1500 
 27 C       -8.2510     6.2400    -0.8500 C.3   1 <1>  -0.1600 
 28 C       -8.9770     7.4960    -0.3540 C.3   1 <1>  -0.2400 
 29 H       -1.3050    -1.7410     0.4510 H     1 <1>   0.1500 
 30 H       -1.4930     4.9380     1.0880 H     1 <1>   0.1500 
 31 H       -4.3270     0.0550    -1.2060 H     1 <1>   0.0800 
 32 H       -3.3050    -2.6850    -0.4500 H     1 <1>   0.0800 
 33 H       -3.0380    -1.8820    -1.9880 H     1 <1>   0.0800 
 34 H       -5.3200     1.6800     1.4580 H     1 <1>   0.0800 
 35 H       -6.4670     1.5050     0.1640 H     1 <1>   0.0800 
 36 H       -5.7050     2.6620    -2.2140 H     1 <1>   0.0800 
 37 H       -4.1590     3.4550    -2.1720 H     1 <1>   0.0800 
 38 H       -5.6380     4.0630     1.5530 H     1 <1>   0.0800 
 39 H       -7.1980     3.2930     1.6670 H     1 <1>   0.0800 
 40 H       -6.0520     5.0660    -2.0080 H     1 <1>   0.0800 
 41 H       -4.9540     5.1450    -0.6590 H     1 <1>   0.0800 
 42 H       -6.9630    -0.7930     2.0690 H     1 <1>   0.1500 
 43 H       -7.5710     3.7600    -0.6640 H     1 <1>   0.4500 
 44 H       -7.2010    -3.6870    -1.9140 H     1 <1>   0.1500 
 45 H       -9.0150    -2.0860     1.6030 H     1 <1>   0.1500 
 46 H       -6.6930     6.2570     0.6360 H     1 <1>   0.0800 
 47 H       -8.1340     5.3870     1.1030 H     1 <1>   0.0800 
 48 H       -9.1370    -3.5200    -0.3910 H     1 <1>   0.1500 
 49 H       -8.9830     5.5510    -1.2310 H     1 <1>   0.0800 
 50 H       -7.5920     6.5270    -1.6500 H     1 <1>   0.0800 
 51 H       -9.6730     7.2530     0.4300 H     1 <1>   0.0800 
 52 H       -9.5280     7.9450    -1.1630 H     1 <1>   0.0800 
 53 H       -8.2760     8.2240     0.0180 H     1 <1>   0.0800 
@<TRIPOS>BOND
  1   1   2  1   
  2   1   3  1   
  3   2   4  ar  
  4   2   5  ar  
  5   3   6  2   
  6   3  29  1   
  7   4   7  ar  
  8   5   6  1   
  9   5   8  ar  
 10   6   9  1   
 11   7  10  ar  
 12   7  30  1   
 13   8  10  ar  
 14   8  11  1   
 15   9  12  1   
 16   9  13  1   
 17   9  31  1   
 18  11  14  1   
 19  11  15  1   
 20  12  16  1   
 21  13  17  1   
 22  13  32  1   
 23  13  33  1   
 24  14  18  1   
 25  14  34  1   
 26  14  35  1   
 27  15  19  1   
 28  15  36  1   
 29  15  37  1   
 30  16  20  ar  
 31  16  21  ar  
 32  17  20  1   
 33  18  22  1   
 34  18  38  1   
 35  18  39  1   
 36  19  22  1   
 37  19  40  1   
 38  19  41  1   
 39  20  23  ar  
 40  21  24  ar  
 41  21  42  1   
 42  22  25  1   
 43  22  43  1   
 44  23  26  ar  
 45  23  44  1   
 46  24  26  ar  
 47  24  45  1   
 48  25  27  1   
 49  25  46  1   
 50  25  47  1   
 51  26  48  1   
 52  27  28  1   
 53  27  49  1   
 54  27  50  1   
 55  28  51  1   
 56  28  52  1   
 57  28  53  1   
@<TRIPOS>SUBSTRUCTURE
  1 ****  11 GROUP 4 **** **** 0

# MOE 2024.06 (io_trps.svl 2023.06)
