@<TRIPOS>MOLECULE
NONAME
36 38 1 0 0 
SMALL
USER_CHARGES


@<TRIPOS>ATOM
  1 BR      -0.1260     1.4260     0.1470 Br    1 <1>  -0.0580 
  2 C        1.7490     1.0130     0.1380 C.2   1 <1>   0.0980 
  3 S        2.1600    -0.6850     0.0960 S.3   1 <1>  -0.0800 
  4 C        2.8260     1.8140     0.1580 C.2   1 <1>  -0.1500 
  5 C        3.8840    -0.2850     0.1070 C.2   1 <1>  -0.0220 
  6 C        4.0430     1.0600     0.1400 C.2   1 <1>  -0.1500 
  7 S        5.0820    -1.6440     0.0740 S.o2  1 <1>   1.5500 
  8 O        4.9380    -2.3890     1.3110 O.2   1 <1>  -0.6500 
  9 O        4.9430    -2.3240    -1.2010 O.2   1 <1>  -0.6500 
 10 N        6.4840    -0.7630     0.0990 N.2   1 <1>  -0.6380 
 11 C        7.6300    -1.3400     0.0800 C.2   1 <1>   0.5770 
 12 S        7.7640    -3.1280     0.0400 S.3   1 <1>  -0.2420 
 13 C        8.9440    -0.7840     0.0980 C.2   1 <1>   0.0140 
 14 C        9.5190    -3.0740     0.0200 C.2   1 <1>  -0.0370 
 15 C        9.9620    -1.8080     0.0290 C.2   1 <1>  -0.1380 
 16 C        9.1900     0.6040     0.1910 C.2   1 <1>  -0.0730 
 17 C       10.2980    -4.3690    -0.0130 C.3   1 <1>  -0.0220 
 18 C       11.4650    -1.5530    -0.0380 C.3   1 <1>  -0.0220 
 19 O        8.3050     1.4650     0.1480 O.3   1 <1>  -0.8500 
 20 O       10.4460     1.0680     0.3520 O.3   1 <1>  -0.3570 
 21 C       11.7730    -4.0740     0.3000 C.3   1 <1>  -0.1600 
 22 C       12.2620    -2.8130    -0.4360 C.3   1 <1>  -0.1600 
 23 C       10.6670     2.4560     0.4580 C.3   1 <1>   0.0400 
 24 H        2.8240     2.8890     0.1850 H     1 <1>   0.1500 
 25 H        5.0060     1.5540     0.1530 H     1 <1>   0.1500 
 26 H       10.2030    -4.8030    -0.9930 H     1 <1>   0.0800 
 27 H        9.8980    -5.0570     0.7100 H     1 <1>   0.0800 
 28 H       11.7910    -1.1980     0.9240 H     1 <1>   0.0800 
 29 H       11.6640    -0.7830    -0.7630 H     1 <1>   0.0800 
 30 H       12.3770    -4.9210     0.0260 H     1 <1>   0.0800 
 31 H       11.8800    -3.9170     1.3600 H     1 <1>   0.0800 
 32 H       13.3050    -2.6500    -0.2330 H     1 <1>   0.0800 
 33 H       12.1530    -2.9660    -1.4960 H     1 <1>   0.0800 
 34 H       11.7180     2.6270     0.5800 H     1 <1>   0.0800 
 35 H       10.1170     2.8170     1.3080 H     1 <1>   0.0800 
 36 H       10.3020     2.9220    -0.4400 H     1 <1>   0.0800 
@<TRIPOS>BOND
  1   1   2  1   
  2   2   3  1   
  3   2   4  2   
  4   3   5  1   
  5   4   6  1   
  6   4  24  1   
  7   5   6  2   
  8   5   7  1   
  9   6  25  1   
 10   7   8  2   
 11   7   9  2   
 12   7  10  1   
 13  10  11  2   
 14  11  12  1   
 15  11  13  1   
 16  12  14  1   
 17  13  15  1   
 18  13  16  2   
 19  14  15  2   
 20  14  17  1   
 21  15  18  1   
 22  16  19  1   
 23  16  20  1   
 24  17  21  1   
 25  17  26  1   
 26  17  27  1   
 27  18  22  1   
 28  18  28  1   
 29  18  29  1   
 30  20  23  1   
 31  21  22  1   
 32  21  30  1   
 33  21  31  1   
 34  22  32  1   
 35  22  33  1   
 36  23  34  1   
 37  23  35  1   
 38  23  36  1   
@<TRIPOS>SUBSTRUCTURE
  1 ****  10 GROUP 4 **** **** 0

# MOE 2024.06 (io_trps.svl 2023.06)
