@<TRIPOS>MOLECULE
NONAME
34 35 1 0 0 
SMALL
USER_CHARGES


@<TRIPOS>ATOM
  1 F       -1.9380     0.9510     2.6800 F     1 <1>  -0.1900 
  2 C       -2.3360     1.2620     1.4780 C.ar  1 <1>   0.1900 
  3 C       -3.4290     0.5990     0.9520 C.ar  1 <1>  -0.1500 
  4 C       -1.6560     2.2390     0.7790 C.ar  1 <1>  -0.1500 
  5 C       -3.8650     0.9310    -0.3240 C.ar  1 <1>  -0.1440 
  6 C       -2.0890     2.5600    -0.4960 C.ar  1 <1>  -0.1500 
  7 C       -3.1850     1.9090    -1.0430 C.ar  1 <1>  -0.1500 
  8 C       -5.0730     0.2370    -0.9250 C.3   1 <1>   0.4870 
  9 N       -6.2960     0.6940    -0.2100 N.4   1 <1>  -0.9590 
 10 C       -7.4450    -0.1970    -0.5250 C.3   1 <1>   0.3430 
 11 C       -6.5590     2.1430    -0.4590 C.3   1 <1>   0.3430 
 12 C       -8.6450     0.0600     0.3880 C.3   1 <1>  -0.1600 
 13 C       -7.2560     2.7550     0.7550 C.3   1 <1>  -0.1600 
 14 C       -9.3720     1.3760     0.0760 C.3   1 <1>  -0.1600 
 15 C       -8.7870     2.6080     0.7800 C.3   1 <1>  -0.1600 
 16 H       -3.9080    -0.1590     1.5470 H     1 <1>   0.1500 
 17 H       -0.8090     2.7310     1.2230 H     1 <1>   0.1500 
 18 H       -1.5680     3.3160    -1.0620 H     1 <1>   0.1500 
 19 H       -3.4950     2.1770    -2.0400 H     1 <1>   0.1500 
 20 H       -4.9550    -0.8290    -0.8130 H     1 <1>   0.0800 
 21 H       -5.1480     0.4630    -1.9770 H     1 <1>   0.0800 
 22 H       -6.0920     0.6080     0.7920 H     1 <1>   0.4500 
 23 H       -7.1410    -1.2240    -0.3980 H     1 <1>   0.0800 
 24 H       -7.7430    -0.0650    -1.5530 H     1 <1>   0.0800 
 25 H       -7.1500     2.2830    -1.3490 H     1 <1>   0.0800 
 26 H       -5.6220     2.6590    -0.5940 H     1 <1>   0.0800 
 27 H       -8.3620     0.0090     1.4250 H     1 <1>   0.0800 
 28 H       -9.3430    -0.7400     0.2170 H     1 <1>   0.0800 
 29 H       -7.0350     3.8090     0.7660 H     1 <1>   0.0800 
 30 H       -6.8330     2.3490     1.6580 H     1 <1>   0.0800 
 31 H      -10.3990     1.2820     0.3920 H     1 <1>   0.0800 
 32 H       -9.3950     1.5380    -0.9880 H     1 <1>   0.0800 
 33 H       -9.2260     3.4810     0.3270 H     1 <1>   0.0800 
 34 H       -9.1070     2.6070     1.8090 H     1 <1>   0.0800 
@<TRIPOS>BOND
  1   1   2  1   
  2   2   3  ar  
  3   2   4  ar  
  4   3   5  ar  
  5   3  16  1   
  6   4   6  ar  
  7   4  17  1   
  8   5   7  ar  
  9   5   8  1   
 10   6   7  ar  
 11   6  18  1   
 12   7  19  1   
 13   8   9  1   
 14   8  20  1   
 15   8  21  1   
 16   9  10  1   
 17   9  11  1   
 18   9  22  1   
 19  10  12  1   
 20  10  23  1   
 21  10  24  1   
 22  11  13  1   
 23  11  25  1   
 24  11  26  1   
 25  12  14  1   
 26  12  27  1   
 27  12  28  1   
 28  13  15  1   
 29  13  29  1   
 30  13  30  1   
 31  14  15  1   
 32  14  31  1   
 33  14  32  1   
 34  15  33  1   
 35  15  34  1   
@<TRIPOS>SUBSTRUCTURE
  1 ****   9 GROUP 4 **** **** 0

# MOE 2024.06 (io_trps.svl 2023.06)
