@<TRIPOS>MOLECULE
NONAME
47 49 1 0 0 
SMALL
USER_CHARGES


@<TRIPOS>ATOM
  1 O       -0.6200     0.7810    -0.8060 O.3   1 <1>  -0.3630 
  2 C       -0.4410     2.0690    -0.4180 C.ar  1 <1>   0.0830 
  3 C        0.3970     0.0760    -1.4940 C.3   1 <1>   0.0400 
  4 C       -1.2810     2.5770     0.5420 C.ar  1 <1>  -0.1440 
  5 C        0.5480     2.8900    -0.9870 C.ar  1 <1>  -0.1500 
  6 C       -1.1540     3.9100     1.0050 C.ar  1 <1>   0.0000 
  7 C       -2.3900     1.6970     1.0750 C.3   1 <1>   0.4870 
  8 C        0.6600     4.1910    -0.5930 C.ar  1 <1>  -0.1500 
  9 C       -0.1860     4.7380     0.3910 C.ar  1 <1>   0.0000 
 10 C       -1.9360     4.4730     2.0440 C.ar  1 <1>  -0.1500 
 11 N       -3.6650     2.2000     0.4710 N.4   1 <1>  -0.9590 
 12 C       -0.0870     6.0880     0.7800 C.ar  1 <1>  -0.1500 
 13 C       -1.8110     5.7850     2.4070 C.ar  1 <1>  -0.1500 
 14 C       -4.8620     1.7010     1.2360 C.3   1 <1>   0.3430 
 15 C       -3.7090     1.8150    -0.9700 C.3   1 <1>   0.3430 
 16 C       -0.8830     6.6050     1.7610 C.ar  1 <1>  -0.1500 
 17 C       -6.2180     2.3930     0.9000 C.3   1 <1>   0.3430 
 18 C       -4.3900     2.8890    -1.8170 C.3   1 <1>  -0.1600 
 19 N       -6.5420     2.5860    -0.5670 N.4   1 <1>  -0.9590 
 20 C       -5.6330     3.5640    -1.2360 C.3   1 <1>   0.3430 
 21 C       -7.9570     3.0740    -0.6990 C.3   1 <1>   0.2630 
 22 H        0.1090    -0.9580    -1.5580 H     1 <1>   0.0800 
 23 H        1.3190     0.1620    -0.9450 H     1 <1>   0.0800 
 24 H        0.5030     0.4840    -2.4840 H     1 <1>   0.0800 
 25 H        1.2150     2.5100    -1.7390 H     1 <1>   0.1500 
 26 H       -2.4150     1.7720     2.1500 H     1 <1>   0.0800 
 27 H       -2.2210     0.6660     0.8100 H     1 <1>   0.0800 
 28 H        1.4090     4.8280    -1.0330 H     1 <1>   0.1500 
 29 H       -2.6350     3.8680     2.5870 H     1 <1>   0.1500 
 30 H       -3.5570     3.2240     0.5320 H     1 <1>   0.4500 
 31 H        0.6390     6.7130     0.2900 H     1 <1>   0.1500 
 32 H       -2.4070     6.2100     3.1980 H     1 <1>   0.1500 
 33 H       -4.6850     1.8290     2.2920 H     1 <1>   0.0800 
 34 H       -4.9700     0.6420     1.0670 H     1 <1>   0.0800 
 35 H       -4.2240     0.8740    -1.0790 H     1 <1>   0.0800 
 36 H       -2.7100     1.6750    -1.3540 H     1 <1>   0.0800 
 37 H       -0.7980     7.6390     2.0550 H     1 <1>   0.1500 
 38 H       -6.2310     3.3550     1.3860 H     1 <1>   0.0800 
 39 H       -7.0020     1.8100     1.3560 H     1 <1>   0.0800 
 40 H       -4.6460     2.4530    -2.7670 H     1 <1>   0.0800 
 41 H       -3.6660     3.6560    -2.0330 H     1 <1>   0.0800 
 42 H       -6.5020     1.6870    -1.0730 H     1 <1>   0.4500 
 43 H       -6.1540     4.0570    -2.0420 H     1 <1>   0.0800 
 44 H       -5.3410     4.3260    -0.5310 H     1 <1>   0.0800 
 45 H       -8.0780     4.0260    -0.2060 H     1 <1>   0.0800 
 46 H       -8.6440     2.3690    -0.2570 H     1 <1>   0.0800 
 47 H       -8.2190     3.1930    -1.7390 H     1 <1>   0.0800 
@<TRIPOS>BOND
  1   1   2  1   
  2   1   3  1   
  3   2   4  ar  
  4   2   5  ar  
  5   3  22  1   
  6   3  23  1   
  7   3  24  1   
  8   4   6  ar  
  9   4   7  1   
 10   5   8  ar  
 11   5  25  1   
 12   6   9  ar  
 13   6  10  ar  
 14   7  11  1   
 15   7  26  1   
 16   7  27  1   
 17   8   9  ar  
 18   8  28  1   
 19   9  12  ar  
 20  10  13  ar  
 21  10  29  1   
 22  11  14  1   
 23  11  15  1   
 24  11  30  1   
 25  12  16  ar  
 26  12  31  1   
 27  13  16  ar  
 28  13  32  1   
 29  14  17  1   
 30  14  33  1   
 31  14  34  1   
 32  15  18  1   
 33  15  35  1   
 34  15  36  1   
 35  16  37  1   
 36  17  19  1   
 37  17  38  1   
 38  17  39  1   
 39  18  20  1   
 40  18  40  1   
 41  18  41  1   
 42  19  20  1   
 43  19  21  1   
 44  19  42  1   
 45  20  43  1   
 46  20  44  1   
 47  21  45  1   
 48  21  46  1   
 49  21  47  1   
@<TRIPOS>SUBSTRUCTURE
  1 ****   4 GROUP 4 **** **** 0

# MOE 2024.06 (io_trps.svl 2023.06)
