@<TRIPOS>MOLECULE
NONAME
36 37 1 0 0 
SMALL
USER_CHARGES


@<TRIPOS>ATOM
  1 BR      -0.4610    -1.4200    -2.4750 Br    1 <1>  -0.1110 
  2 C       -2.0790    -1.5260    -1.4400 C.ar  1 <1>   0.1110 
  3 C       -3.2450    -1.9200    -2.0640 C.ar  1 <1>  -0.1500 
  4 C       -2.0360    -1.2050    -0.0990 C.ar  1 <1>  -0.1500 
  5 C       -4.4060    -1.9950    -1.3140 C.ar  1 <1>  -0.1500 
  6 C       -3.2040    -1.2830     0.6400 C.ar  1 <1>  -0.1500 
  7 C       -4.4010    -1.6830     0.0460 C.ar  1 <1>  -0.1430 
  8 C       -5.7060    -1.7600     0.8620 C.3   1 <1>   0.7240 
  9 O       -5.4450    -1.9780     2.1940 O.3   1 <1>  -0.6800 
 10 N       -6.6180    -2.8380     0.4190 N.am  1 <1>  -0.2980 
 11 C       -6.5510    -0.4980     0.7100 C.3   1 <1>  -0.0990 
 12 N       -7.8100    -2.3130    -0.0550 N.2   1 <1>  -0.5120 
 13 C       -6.2680    -4.1680     0.5320 C.2   1 <1>   0.5690 
 14 C       -7.8040    -1.0650     0.0970 C.2   1 <1>   0.3280 
 15 O       -5.2490    -4.5090     1.0940 O.2   1 <1>  -0.5700 
 16 C       -7.1890    -5.2420    -0.0700 C.3   1 <1>  -0.0190 
 17 C       -8.9280    -0.1280    -0.2830 C.3   1 <1>  -0.1790 
 18 C       -7.1290    -6.5790     0.6930 C.3   1 <1>  -0.2400 
 19 C       -6.8570    -5.4760    -1.5520 C.3   1 <1>  -0.2400 
 20 H       -3.2430    -2.1640    -3.1110 H     1 <1>   0.1500 
 21 H       -1.1100    -0.9010     0.3560 H     1 <1>   0.1500 
 22 H       -5.3160    -2.3000    -1.8010 H     1 <1>   0.1500 
 23 H       -3.1710    -1.0300     1.6870 H     1 <1>   0.1500 
 24 H       -5.1120    -2.9020     2.2340 H     1 <1>   0.4000 
 25 H       -6.0870     0.2020     0.0410 H     1 <1>   0.0800 
 26 H       -6.7530    -0.0340     1.6570 H     1 <1>   0.0800 
 27 H       -8.2020    -4.8870    -0.0050 H     1 <1>   0.0800 
 28 H       -8.5840     0.5830    -1.0110 H     1 <1>   0.0800 
 29 H       -9.2790     0.3950     0.5870 H     1 <1>   0.0800 
 30 H       -9.7430    -0.6890    -0.7040 H     1 <1>   0.0800 
 31 H       -6.1420    -7.0020     0.6340 H     1 <1>   0.0800 
 32 H       -7.8320    -7.2800     0.2800 H     1 <1>   0.0800 
 33 H       -7.3710    -6.4210     1.7290 H     1 <1>   0.0800 
 34 H       -5.8450    -5.8260    -1.6570 H     1 <1>   0.0800 
 35 H       -6.9620    -4.5570    -2.1010 H     1 <1>   0.0800 
 36 H       -7.5240    -6.2050    -1.9770 H     1 <1>   0.0800 
@<TRIPOS>BOND
  1   1   2  1   
  2   2   3  ar  
  3   2   4  ar  
  4   3   5  ar  
  5   3  20  1   
  6   4   6  ar  
  7   4  21  1   
  8   5   7  ar  
  9   5  22  1   
 10   6   7  ar  
 11   6  23  1   
 12   7   8  1   
 13   8   9  1   
 14   8  10  1   
 15   8  11  1   
 16   9  24  1   
 17  10  12  1   
 18  10  13  am  
 19  11  14  1   
 20  11  25  1   
 21  11  26  1   
 22  12  14  2   
 23  13  15  2   
 24  13  16  1   
 25  14  17  1   
 26  16  18  1   
 27  16  19  1   
 28  16  27  1   
 29  17  28  1   
 30  17  29  1   
 31  17  30  1   
 32  18  31  1   
 33  18  32  1   
 34  18  33  1   
 35  19  34  1   
 36  19  35  1   
 37  19  36  1   
@<TRIPOS>SUBSTRUCTURE
  1 ****   7 GROUP 4 **** **** 0

# MOE 2024.06 (io_trps.svl 2023.06)
