@<TRIPOS>MOLECULE
NONAME
46 48 1 0 0 
SMALL
USER_CHARGES


@<TRIPOS>ATOM
  1 F       -0.4930     0.8670     1.2040 F     1 <1>  -0.1900 
  2 C       -1.4280     1.2980     0.3890 C.ar  1 <1>   0.1900 
  3 C       -1.2220     2.4800    -0.3330 C.ar  1 <1>   0.1000 
  4 C       -2.5840     0.5490     0.2880 C.ar  1 <1>  -0.1500 
  5 N       -0.0640     3.2670    -0.2560 N.pl3 1 <1>  -0.8380 
  6 C       -2.2470     2.8850    -1.1780 C.ar  1 <1>  -0.1500 
  7 C       -3.5870     0.9810    -0.5650 C.ar  1 <1>  -0.1500 
  8 C        1.1660     2.6350    -0.8230 C.3   1 <1>   0.2090 
  9 C        0.1450     3.9560     1.0530 C.3   1 <1>   0.2090 
 10 C       -3.4150     2.1470    -1.2940 C.ar  1 <1>  -0.1500 
 11 C        2.3420     3.6320    -0.8640 C.3   1 <1>   0.3430 
 12 C        1.3340     4.9370     0.9880 C.3   1 <1>   0.3430 
 13 N        2.5950     4.2790     0.4800 N.4   1 <1>  -0.9590 
 14 C        3.7720     5.1970     0.5120 C.3   1 <1>   0.4230 
 15 C        3.6310     6.3420    -0.5090 C.3   1 <1>  -0.1600 
 16 C        5.0500     4.3600     0.3490 C.3   1 <1>  -0.1600 
 17 C        4.7900     7.3540    -0.4920 C.3   1 <1>  -0.1600 
 18 C        6.2870     5.1010     0.8770 C.3   1 <1>  -0.1600 
 19 C        6.0750     6.7900    -1.1150 C.3   1 <1>  -0.1600 
 20 C        6.9800     6.0120    -0.1470 C.3   1 <1>  -0.1600 
 21 H       -2.6980    -0.3530     0.8620 H     1 <1>   0.1500 
 22 H       -2.1250     3.7880    -1.7490 H     1 <1>   0.1500 
 23 H       -4.4970     0.4130    -0.6600 H     1 <1>   0.1500 
 24 H        0.9560     2.2940    -1.8230 H     1 <1>   0.0800 
 25 H        1.4400     1.7760    -0.2350 H     1 <1>   0.0800 
 26 H        0.3190     3.2280     1.8260 H     1 <1>   0.0800 
 27 H       -0.7490     4.5000     1.3100 H     1 <1>   0.0800 
 28 H       -4.1950     2.4820    -1.9560 H     1 <1>   0.1500 
 29 H        2.1060     4.3900    -1.5910 H     1 <1>   0.0800 
 30 H        3.2260     3.1160    -1.1980 H     1 <1>   0.0800 
 31 H        1.5030     5.3480     1.9690 H     1 <1>   0.0800 
 32 H        1.0590     5.7460     0.3330 H     1 <1>   0.0800 
 33 H        2.8020     3.5140     1.1330 H     1 <1>   0.4500 
 34 H        3.8130     5.6440     1.4920 H     1 <1>   0.0800 
 35 H        2.7350     6.8940    -0.2920 H     1 <1>   0.0800 
 36 H        3.5430     5.9530    -1.5070 H     1 <1>   0.0800 
 37 H        5.2040     4.0710    -0.6760 H     1 <1>   0.0800 
 38 H        4.9510     3.4640     0.9370 H     1 <1>   0.0800 
 39 H        4.9780     7.7180     0.5040 H     1 <1>   0.0800 
 40 H        4.4890     8.2020    -1.0850 H     1 <1>   0.0800 
 41 H        7.0140     4.3750     1.2050 H     1 <1>   0.0800 
 42 H        6.0220     5.6800     1.7460 H     1 <1>   0.0800 
 43 H        6.6530     7.6120    -1.5050 H     1 <1>   0.0800 
 44 H        5.8300     6.1680    -1.9590 H     1 <1>   0.0800 
 45 H        7.6570     5.4180    -0.7370 H     1 <1>   0.0800 
 46 H        7.5870     6.7170     0.3970 H     1 <1>   0.0800 
@<TRIPOS>BOND
  1   1   2  1   
  2   2   3  ar  
  3   2   4  ar  
  4   3   5  1   
  5   3   6  ar  
  6   4   7  ar  
  7   4  21  1   
  8   5   8  1   
  9   5   9  1   
 10   6  10  ar  
 11   6  22  1   
 12   7  10  ar  
 13   7  23  1   
 14   8  11  1   
 15   8  24  1   
 16   8  25  1   
 17   9  12  1   
 18   9  26  1   
 19   9  27  1   
 20  10  28  1   
 21  11  13  1   
 22  11  29  1   
 23  11  30  1   
 24  12  13  1   
 25  12  31  1   
 26  12  32  1   
 27  13  14  1   
 28  13  33  1   
 29  14  15  1   
 30  14  16  1   
 31  14  34  1   
 32  15  17  1   
 33  15  35  1   
 34  15  36  1   
 35  16  18  1   
 36  16  37  1   
 37  16  38  1   
 38  17  19  1   
 39  17  39  1   
 40  17  40  1   
 41  18  20  1   
 42  18  41  1   
 43  18  42  1   
 44  19  20  1   
 45  19  43  1   
 46  19  44  1   
 47  20  45  1   
 48  20  46  1   
@<TRIPOS>SUBSTRUCTURE
  1 ****  11 GROUP 4 **** **** 0

# MOE 2024.06 (io_trps.svl 2023.06)
