@<TRIPOS>MOLECULE
22667
46 47 1 0 0 
SMALL
USER_CHARGES


@<TRIPOS>ATOM
  1 O       -0.1620     0.8360     2.8480 O.2   1 <1>  -0.5700 
  2 C       -0.0440    -0.2780     2.4070 C.2   1 <1>   0.5690 
  3 N        1.1840    -0.7430     2.0630 N.am  1 <1>  -0.5470 
  4 C       -1.2870    -1.1360     2.2270 C.3   1 <1>  -0.0990 
  5 C        1.5450    -1.9820     1.5320 C.ar  1 <1>   0.1170 
  6 C       -1.7570    -1.1710     0.7630 C.3   1 <1>  -0.1600 
  7 C        1.9540    -2.0820     0.2110 C.ar  1 <1>  -0.1500 
  8 C        1.5040    -3.1290     2.3100 C.ar  1 <1>  -0.1500 
  9 C       -3.0120    -2.0280     0.6060 C.3   1 <1>   0.1200 
 10 C        2.3070    -3.3040    -0.3400 C.ar  1 <1>  -0.1430 
 11 C        1.8560    -4.3520     1.7710 C.ar  1 <1>  -0.1500 
 12 O       -3.3910    -2.0050    -0.7510 O.3   1 <1>  -0.3630 
 13 C        2.2570    -4.4510     0.4470 C.ar  1 <1>  -0.1430 
 14 C        2.7410    -3.3600    -1.7980 C.3   1 <1>  -0.0970 
 15 C       -4.4580    -2.7710    -1.0840 C.ar  1 <1>   0.0830 
 16 C        2.6340    -5.8160    -0.1110 C.3   1 <1>  -0.0970 
 17 C       -5.7570    -2.4980    -0.6390 C.ar  1 <1>   0.0830 
 18 C       -4.2270    -3.8680    -1.8970 C.ar  1 <1>  -0.1500 
 19 O       -6.0680    -1.4170     0.1200 O.3   1 <1>  -0.3620 
 20 C       -6.7900    -3.3560    -0.9780 C.ar  1 <1>  -0.1500 
 21 C       -5.2690    -4.7120    -2.2440 C.ar  1 <1>  -0.1500 
 22 C       -5.8680    -0.1520    -0.4720 C.3   1 <1>   0.0400 
 23 C       -6.5490    -4.4600    -1.7790 C.ar  1 <1>  -0.1500 
 24 H        1.9220    -0.0440     2.1520 H     1 <1>   0.3700 
 25 H       -2.0680    -0.7280     2.8430 H     1 <1>   0.0800 
 26 H       -1.0850    -2.1310     2.5740 H     1 <1>   0.0800 
 27 H       -0.9770    -1.5790     0.1440 H     1 <1>   0.0800 
 28 H       -1.9700    -0.1680     0.4360 H     1 <1>   0.0800 
 29 H        1.9870    -1.1900    -0.3870 H     1 <1>   0.1500 
 30 H        1.2010    -3.0620     3.3390 H     1 <1>   0.1500 
 31 H       -3.8190    -1.6370     1.2000 H     1 <1>   0.0800 
 32 H       -2.8190    -3.0500     0.8840 H     1 <1>   0.0800 
 33 H        1.8170    -5.2300     2.3910 H     1 <1>   0.1500 
 34 H        2.7270    -2.3810    -2.2440 H     1 <1>   0.0800 
 35 H        2.0750    -3.9930    -2.3560 H     1 <1>   0.0800 
 36 H        3.7400    -3.7490    -1.8710 H     1 <1>   0.0800 
 37 H        3.6560    -5.8070    -0.4460 H     1 <1>   0.0800 
 38 H        1.9950    -6.0650    -0.9390 H     1 <1>   0.0800 
 39 H        2.5310    -6.5810     0.6360 H     1 <1>   0.0800 
 40 H       -3.2300    -4.0590    -2.2500 H     1 <1>   0.1500 
 41 H       -7.7820    -3.1520    -0.6180 H     1 <1>   0.1500 
 42 H       -5.0820    -5.5660    -2.8730 H     1 <1>   0.1500 
 43 H       -6.2990     0.5920     0.1730 H     1 <1>   0.0800 
 44 H       -6.3550    -0.1360    -1.4310 H     1 <1>   0.0800 
 45 H       -4.8150     0.0280    -0.5850 H     1 <1>   0.0800 
 46 H       -7.3570    -5.1200    -2.0420 H     1 <1>   0.1500 
@<TRIPOS>BOND
  1   1   2  2   
  2   2   3  am  
  3   2   4  1   
  4   3   5  1   
  5   3  24  1   
  6   4   6  1   
  7   4  25  1   
  8   4  26  1   
  9   5   7  ar  
 10   5   8  ar  
 11   6   9  1   
 12   6  27  1   
 13   6  28  1   
 14   7  10  ar  
 15   7  29  1   
 16   8  11  ar  
 17   8  30  1   
 18   9  12  1   
 19   9  31  1   
 20   9  32  1   
 21  10  13  ar  
 22  10  14  1   
 23  11  13  ar  
 24  11  33  1   
 25  12  15  1   
 26  13  16  1   
 27  14  34  1   
 28  14  35  1   
 29  14  36  1   
 30  15  17  ar  
 31  15  18  ar  
 32  16  37  1   
 33  16  38  1   
 34  16  39  1   
 35  17  19  1   
 36  17  20  ar  
 37  18  21  ar  
 38  18  40  1   
 39  19  22  1   
 40  20  23  ar  
 41  20  41  1   
 42  21  23  ar  
 43  21  42  1   
 44  22  43  1   
 45  22  44  1   
 46  22  45  1   
 47  23  46  1   
@<TRIPOS>SUBSTRUCTURE
  1 ****   6 GROUP 4 **** **** 0

# MOE 2024.06 (io_trps.svl 2023.06)
