@<TRIPOS>MOLECULE
NONAME
44 45 1 0 0 
SMALL
USER_CHARGES


@<TRIPOS>ATOM
  1 O        2.1640    -7.8700     0.0040 O.3   1 <1>  -0.3630 
  2 C        3.4000    -7.3220    -0.1040 C.ar  1 <1>   0.0830 
  3 C        1.0040    -7.0950    -0.1640 C.3   1 <1>   0.1200 
  4 C        4.4750    -8.1650     0.1280 C.ar  1 <1>  -0.1500 
  5 C        3.6320    -5.9870    -0.4270 C.ar  1 <1>  -0.1500 
  6 C       -0.1940    -8.0250     0.0480 C.3   1 <1>   0.3430 
  7 C        5.7750    -7.6960     0.0420 C.ar  1 <1>  -0.1440 
  8 C        4.9300    -5.5160    -0.5120 C.ar  1 <1>  -0.1500 
  9 N       -1.5090    -7.3300    -0.1350 N.4   1 <1>  -0.9590 
 10 C        5.9970    -6.3660    -0.2780 C.ar  1 <1>  -0.1500 
 11 C        6.9500    -8.6220     0.2980 C.3   1 <1>  -0.0970 
 12 C       -1.7850    -6.3080     0.9160 C.3   1 <1>   0.3430 
 13 C       -2.6260    -8.3330    -0.2150 C.3   1 <1>   0.3430 
 14 C       -2.9640    -5.4210     0.4760 C.3   1 <1>  -0.0800 
 15 C       -4.0240    -7.6910    -0.0660 C.3   1 <1>  -0.0800 
 16 C       -4.0030    -6.1830    -0.3780 C.3   1 <1>  -0.1600 
 17 C       -2.4680    -4.1800    -0.2810 C.3   1 <1>  -0.2400 
 18 C       -4.6210    -7.9630     1.3270 C.3   1 <1>  -0.2400 
 19 H        1.0120    -6.6970    -1.1630 H     1 <1>   0.0800 
 20 H        1.0260    -6.3070     0.5680 H     1 <1>   0.0800 
 21 H        4.2870    -9.1930     0.3770 H     1 <1>   0.1500 
 22 H        2.8310    -5.3010    -0.6160 H     1 <1>   0.1500 
 23 H       -0.1400    -8.4420     1.0400 H     1 <1>   0.0800 
 24 H       -0.1160    -8.8320    -0.6620 H     1 <1>   0.0800 
 25 H        5.1170    -4.4850    -0.7600 H     1 <1>   0.1500 
 26 H       -1.5040    -6.8260    -1.0320 H     1 <1>   0.4500 
 27 H        7.0030    -5.9890    -0.3450 H     1 <1>   0.1500 
 28 H        6.6550    -9.6500     0.1860 H     1 <1>   0.0800 
 29 H        7.3180    -8.4750     1.2970 H     1 <1>   0.0800 
 30 H        7.7430    -8.4190    -0.3990 H     1 <1>   0.0800 
 31 H       -0.9200    -5.6890     1.0890 H     1 <1>   0.0800 
 32 H       -2.0310    -6.8050     1.8400 H     1 <1>   0.0800 
 33 H       -2.5050    -9.0780     0.5540 H     1 <1>   0.0800 
 34 H       -2.5750    -8.8370    -1.1670 H     1 <1>   0.0800 
 35 H       -3.4500    -5.0780     1.3750 H     1 <1>   0.0800 
 36 H       -4.6770    -8.1720    -0.7770 H     1 <1>   0.0800 
 37 H       -3.7700    -6.0660    -1.4240 H     1 <1>   0.0800 
 38 H       -4.9810    -5.7560    -0.2290 H     1 <1>   0.0800 
 39 H       -1.9500    -4.4500    -1.1850 H     1 <1>   0.0800 
 40 H       -1.8020    -3.6020     0.3360 H     1 <1>   0.0800 
 41 H       -3.3010    -3.5510    -0.5440 H     1 <1>   0.0800 
 42 H       -4.0280    -7.5380     2.1150 H     1 <1>   0.0800 
 43 H       -4.7020    -9.0230     1.4990 H     1 <1>   0.0800 
 44 H       -5.6120    -7.5460     1.3920 H     1 <1>   0.0800 
@<TRIPOS>BOND
  1   1   2  1   
  2   1   3  1   
  3   2   4  ar  
  4   2   5  ar  
  5   3   6  1   
  6   3  19  1   
  7   3  20  1   
  8   4   7  ar  
  9   4  21  1   
 10   5   8  ar  
 11   5  22  1   
 12   6   9  1   
 13   6  23  1   
 14   6  24  1   
 15   7  10  ar  
 16   7  11  1   
 17   8  10  ar  
 18   8  25  1   
 19   9  12  1   
 20   9  13  1   
 21   9  26  1   
 22  10  27  1   
 23  11  28  1   
 24  11  29  1   
 25  11  30  1   
 26  12  14  1   
 27  12  31  1   
 28  12  32  1   
 29  13  15  1   
 30  13  33  1   
 31  13  34  1   
 32  14  16  1   
 33  14  17  1   
 34  14  35  1   
 35  15  16  1   
 36  15  18  1   
 37  15  36  1   
 38  16  37  1   
 39  16  38  1   
 40  17  39  1   
 41  17  40  1   
 42  17  41  1   
 43  18  42  1   
 44  18  43  1   
 45  18  44  1   
@<TRIPOS>SUBSTRUCTURE
  1 ****   3 GROUP 4 **** **** 0

# MOE 2024.06 (io_trps.svl 2023.06)
