@<TRIPOS>MOLECULE
NONAME
35 37 1 0 0 
SMALL
USER_CHARGES


@<TRIPOS>ATOM
  1 O        1.0190     1.3060     1.3330 O.co2 1 <1>  -0.9000 
  2 C        1.6770     0.7140     0.4660 C.2   1 <1>   0.9060 
  3 O        1.2370     0.5250    -0.6710 O.co2 1 <1>  -0.9000 
  4 C        3.0580     0.1920     0.8590 C.3   1 <1>  -0.1860 
  5 C        4.3700     0.9120     0.0750 C.3   1 <1>  -0.0190 
  6 C        3.1980    -1.4340     0.6860 C.3   1 <1>  -0.0800 
  7 C        4.0190     2.1420    -0.7870 C.2   1 <1>   0.5690 
  8 C        5.1990    -0.2960    -0.6800 C.3   1 <1>  -0.0800 
  9 C        4.2120    -0.8670     0.0250 C.3   1 <1>  -0.1600 
 10 C        4.0560    -2.6200    -0.0390 C.3   1 <1>  -0.1600 
 11 O        4.2420     2.1300    -1.9790 O.2   1 <1>  -0.5700 
 12 N        3.5190     3.2760    -0.2020 N.am  1 <1>  -0.6600 
 13 C        5.3710    -1.9150    -0.7900 C.3   1 <1>  -0.1600 
 14 C        3.4220     3.5570     1.2500 C.3   1 <1>   0.1400 
 15 C        2.5600     4.1090    -0.9540 C.3   1 <1>   0.1400 
 16 C        2.5290     4.7880     1.3550 C.3   1 <1>  -0.1600 
 17 C        1.6550     4.7180     0.1090 C.3   1 <1>  -0.1600 
 18 H        3.1470     0.4230     1.9070 H     1 <1>   0.0800 
 19 H        5.0230     1.3020     0.8390 H     1 <1>   0.0800 
 20 H        3.2820    -1.7330     1.7210 H     1 <1>   0.0800 
 21 H        5.0720    -0.0580    -1.7260 H     1 <1>   0.0800 
 22 H        3.5230    -0.7980    -0.9260 H     1 <1>   0.0800 
 23 H        4.8840    -0.9170     0.9880 H     1 <1>   0.0800 
 24 H        3.4360    -3.1170    -0.7700 H     1 <1>   0.0800 
 25 H        4.3780    -3.3610     0.6760 H     1 <1>   0.0800 
 26 H        6.2870    -2.2250    -0.3090 H     1 <1>   0.0800 
 27 H        5.4230    -2.2260    -1.8220 H     1 <1>   0.0800 
 28 H        4.3960     3.7390     1.6690 H     1 <1>   0.0800 
 29 H        2.9570     2.7350     1.7590 H     1 <1>   0.0800 
 30 H        1.9940     3.5040    -1.6450 H     1 <1>   0.0800 
 31 H        3.0990     4.8700    -1.4890 H     1 <1>   0.0800 
 32 H        3.1390     5.6730     1.3330 H     1 <1>   0.0800 
 33 H        1.9460     4.7730     2.2590 H     1 <1>   0.0800 
 34 H        0.8360     4.0390     0.2820 H     1 <1>   0.0800 
 35 H        1.2670     5.6750    -0.1880 H     1 <1>   0.0800 
@<TRIPOS>BOND
  1   1   2  ar  
  2   2   3  ar  
  3   2   4  1   
  4   4   5  1   
  5   4   6  1   
  6   4  18  1   
  7   5   7  1   
  8   5   8  1   
  9   5  19  1   
 10   6   9  1   
 11   6  10  1   
 12   6  20  1   
 13   7  11  2   
 14   7  12  am  
 15   8   9  1   
 16   8  13  1   
 17   8  21  1   
 18   9  22  1   
 19   9  23  1   
 20  10  13  1   
 21  10  24  1   
 22  10  25  1   
 23  12  14  1   
 24  12  15  1   
 25  13  26  1   
 26  13  27  1   
 27  14  16  1   
 28  14  28  1   
 29  14  29  1   
 30  15  17  1   
 31  15  30  1   
 32  15  31  1   
 33  16  17  1   
 34  16  32  1   
 35  16  33  1   
 36  17  34  1   
 37  17  35  1   
@<TRIPOS>SUBSTRUCTURE
  1 ****   5 GROUP 4 **** **** 0

# MOE 2024.06 (io_trps.svl 2023.06)
