@<TRIPOS>MOLECULE
NONAME
34 34 1 0 0 
SMALL
USER_CHARGES


@<TRIPOS>ATOM
  1 O       -0.2880    -0.3560     1.4720 O.2   1 <1>  -0.5700 
  2 C       -1.3540    -0.9290     1.5310 C.2   1 <1>   0.6900 
  3 N       -1.5140    -2.1480     0.9340 N.am  1 <1>  -0.3680 
  4 N       -2.3810    -0.3710     2.1870 N.am  1 <1>  -0.8000 
  5 N       -2.6560    -2.9380     0.8950 N.2   1 <1>  -0.5120 
  6 C       -2.6840    -4.0890     0.3240 C.2   1 <1>   0.3750 
  7 C       -3.9230    -4.8490     0.2490 C.2   1 <1>  -0.1240 
  8 C       -1.4230    -4.6680    -0.3420 C.3   1 <1>  -0.0990 
  9 C       -5.1360    -4.2530     0.3500 C.2   1 <1>  -0.2880 
 10 C       -3.7960    -6.3640     0.0760 C.3   1 <1>  -0.0220 
 11 C       -1.3530    -6.1970    -0.3750 C.3   1 <1>  -0.1600 
 12 C       -6.5680    -4.7840     0.3540 C.3   1 <1>   0.0580 
 13 C       -2.6720    -6.7710    -0.8750 C.3   1 <1>  -0.1600 
 14 C       -6.8060    -5.8840     1.3950 C.3   1 <1>  -0.2400 
 15 C       -7.0190    -5.2010    -1.0480 C.3   1 <1>  -0.2400 
 16 H       -0.6620    -2.4600     0.4660 H     1 <1>   0.3700 
 17 H       -2.2800     0.5220     2.6620 H     1 <1>   0.3700 
 18 H       -3.2620    -0.8810     2.2470 H     1 <1>   0.3700 
 19 H       -1.3970    -4.2990    -1.3510 H     1 <1>   0.0800 
 20 H       -0.5350    -4.3270     0.1550 H     1 <1>   0.0800 
 21 H       -5.1710    -3.1820     0.4540 H     1 <1>   0.1500 
 22 H       -3.6170    -6.8020     1.0420 H     1 <1>   0.0800 
 23 H       -4.7030    -6.7840    -0.3070 H     1 <1>   0.0800 
 24 H       -0.5480    -6.5090    -1.0190 H     1 <1>   0.0800 
 25 H       -1.1490    -6.5690     0.6160 H     1 <1>   0.0800 
 26 H       -7.1950    -3.9580     0.6490 H     1 <1>   0.0800 
 27 H       -2.6090    -7.8450    -0.9190 H     1 <1>   0.0800 
 28 H       -2.8840    -6.4060    -1.8660 H     1 <1>   0.0800 
 29 H       -6.3470    -6.8120     1.1180 H     1 <1>   0.0800 
 30 H       -7.8620    -6.0570     1.5060 H     1 <1>   0.0800 
 31 H       -6.4120    -5.5750     2.3470 H     1 <1>   0.0800 
 32 H       -6.4620    -6.0440    -1.4070 H     1 <1>   0.0800 
 33 H       -6.8780    -4.3840    -1.7330 H     1 <1>   0.0800 
 34 H       -8.0630    -5.4600    -1.0390 H     1 <1>   0.0800 
@<TRIPOS>BOND
  1   1   2  2   
  2   2   3  am  
  3   2   4  am  
  4   3   5  1   
  5   3  16  1   
  6   4  17  1   
  7   4  18  1   
  8   5   6  2   
  9   6   7  1   
 10   6   8  1   
 11   7   9  2   
 12   7  10  1   
 13   8  11  1   
 14   8  19  1   
 15   8  20  1   
 16   9  12  1   
 17   9  21  1   
 18  10  13  1   
 19  10  22  1   
 20  10  23  1   
 21  11  13  1   
 22  11  24  1   
 23  11  25  1   
 24  12  14  1   
 25  12  15  1   
 26  12  26  1   
 27  13  27  1   
 28  13  28  1   
 29  14  29  1   
 30  14  30  1   
 31  14  31  1   
 32  15  32  1   
 33  15  33  1   
 34  15  34  1   
@<TRIPOS>SUBSTRUCTURE
  1 ****   6 GROUP 4 **** **** 0

# MOE 2024.06 (io_trps.svl 2023.06)
