@<TRIPOS>MOLECULE
NONAME
42 43 1 0 0 
SMALL
USER_CHARGES


@<TRIPOS>ATOM
  1 S       -0.1240    -0.2250     0.0830 S.o2  1 <1>   1.4470 
  2 O       -0.4860     0.1560     1.4290 O.2   1 <1>  -0.6500 
  3 O       -0.3360     0.6890    -1.0180 O.2   1 <1>  -0.6500 
  4 N       -1.1430    -1.5370    -0.1510 N.am  1 <1>  -0.9140 
  5 C        1.5410    -0.9400     0.0040 C.ar  1 <1>  -0.0090 
  6 C       -2.4600    -1.1680    -0.6590 C.3   1 <1>   0.2760 
  7 C        2.6320    -0.2180     0.4800 C.ar  1 <1>   0.0830 
  8 C        1.7750    -2.1950    -0.5460 C.ar  1 <1>  -0.1500 
  9 C       -3.5610    -1.9640     0.0810 C.3   1 <1>   0.2000 
 10 C       -2.4730    -1.4530    -2.1610 C.3   1 <1>  -0.2400 
 11 O        2.3860     1.0180     0.9890 O.3   1 <1>  -0.3630 
 12 C        3.9170    -0.7560     0.4220 C.ar  1 <1>  -0.1500 
 13 C        3.0470    -2.7380    -0.6080 C.ar  1 <1>   0.0830 
 14 O       -4.8260    -1.5590    -0.3370 O.3   1 <1>  -0.5600 
 15 C       -3.5880    -1.7500     1.5920 C.3   1 <1>  -0.1600 
 16 C        3.4110     1.8430     1.4950 C.3   1 <1>   0.0400 
 17 C        4.1250    -2.0110    -0.1170 C.ar  1 <1>  -0.1500 
 18 O        3.1570    -3.9740    -1.1590 O.3   1 <1>  -0.3630 
 19 C       -5.7830    -1.8900     0.6160 C.3   1 <1>   0.1200 
 20 C       -5.0460    -1.9870     1.9500 C.3   1 <1>  -0.1600 
 21 C        4.4130    -4.6000    -1.3070 C.3   1 <1>   0.0400 
 22 H       -1.2960    -1.8280     0.8120 H     1 <1>   0.4200 
 23 H       -2.6490    -0.1200    -0.4850 H     1 <1>   0.0800 
 24 H        0.9610    -2.7750    -0.9430 H     1 <1>   0.1500 
 25 H       -3.4740    -3.0120    -0.1470 H     1 <1>   0.0800 
 26 H       -2.2970    -2.4960    -2.3490 H     1 <1>   0.0800 
 27 H       -1.7220    -0.8690    -2.6610 H     1 <1>   0.0800 
 28 H       -3.4300    -1.1870    -2.5720 H     1 <1>   0.0800 
 29 H        4.7660    -0.2130     0.7900 H     1 <1>   0.1500 
 30 H       -3.3130    -0.7340     1.8220 H     1 <1>   0.0800 
 31 H       -2.9260    -2.4230     2.1070 H     1 <1>   0.0800 
 32 H        2.9620     2.7600     1.8340 H     1 <1>   0.0800 
 33 H        4.1140     2.0520     0.7070 H     1 <1>   0.0800 
 34 H        3.8880     1.3450     2.3200 H     1 <1>   0.0800 
 35 H        5.1240    -2.4020    -0.1480 H     1 <1>   0.1500 
 36 H       -6.2210    -2.8350     0.3400 H     1 <1>   0.0800 
 37 H       -6.5370    -1.1220     0.6230 H     1 <1>   0.0800 
 38 H       -5.4070    -1.2500     2.6460 H     1 <1>   0.0800 
 39 H       -5.1900    -2.9660     2.3720 H     1 <1>   0.0800 
 40 H        4.2560    -5.5540    -1.7770 H     1 <1>   0.0800 
 41 H        4.8500    -4.7400    -0.3340 H     1 <1>   0.0800 
 42 H        5.0390    -3.9860    -1.9290 H     1 <1>   0.0800 
@<TRIPOS>BOND
  1   1   2  2   
  2   1   3  2   
  3   1   4  am  
  4   1   5  1   
  5   4   6  1   
  6   4  22  1   
  7   5   7  ar  
  8   5   8  ar  
  9   6   9  1   
 10   6  10  1   
 11   6  23  1   
 12   7  11  1   
 13   7  12  ar  
 14   8  13  ar  
 15   8  24  1   
 16   9  14  1   
 17   9  15  1   
 18   9  25  1   
 19  10  26  1   
 20  10  27  1   
 21  10  28  1   
 22  11  16  1   
 23  12  17  ar  
 24  12  29  1   
 25  13  17  ar  
 26  13  18  1   
 27  14  19  1   
 28  15  20  1   
 29  15  30  1   
 30  15  31  1   
 31  16  32  1   
 32  16  33  1   
 33  16  34  1   
 34  17  35  1   
 35  18  21  1   
 36  19  20  1   
 37  19  36  1   
 38  19  37  1   
 39  20  38  1   
 40  20  39  1   
 41  21  40  1   
 42  21  41  1   
 43  21  42  1   
@<TRIPOS>SUBSTRUCTURE
  1 ****   1 GROUP 4 **** **** 0

# MOE 2024.06 (io_trps.svl 2023.06)
