@<TRIPOS>MOLECULE
NONAME
44 45 1 0 0 
SMALL
USER_CHARGES


@<TRIPOS>ATOM
  1 S       -0.2060    -1.8100     0.7390 S.3   1 <1>  -0.2860 
  2 C        1.4870    -1.2820     1.0210 C.2   1 <1>   0.2420 
  3 C       -1.1830    -0.5460     1.6960 C.3   1 <1>   0.1310 
  4 N        1.7970    -0.2410     1.7070 N.2   1 <1>  -0.3380 
  5 N        2.5410    -1.9360     0.5330 N.pl3 1 <1>   0.0480 
  6 C       -2.6820    -0.7690     1.5690 C.2   1 <1>   0.5690 
  7 N        3.1320    -0.1790     1.6840 N.2   1 <1>  -0.3380 
  8 C        3.5560    -1.1810     0.9850 C.2   1 <1>   0.0060 
  9 C        2.5520    -3.1640    -0.2860 C.3   1 <1>   0.0160 
 10 O       -3.3960    -0.2510     2.3910 O.2   1 <1>  -0.5700 
 11 N       -3.1480    -1.5390     0.5350 N.am  1 <1>  -0.5470 
 12 C        5.0300    -1.4570     0.7210 C.3   1 <1>   0.0200 
 13 C       -4.4480    -1.8940     0.1400 C.ar  1 <1>   0.1170 
 14 C        5.4410    -1.1920    -0.7410 C.3   1 <1>  -0.0800 
 15 C       -5.5870    -1.2120     0.5570 C.ar  1 <1>  -0.1500 
 16 C       -4.6070    -2.9710    -0.7230 C.ar  1 <1>  -0.1500 
 17 C        6.9130    -1.5640    -0.9550 C.3   1 <1>  -0.2400 
 18 C        5.2170     0.2750    -1.1340 C.3   1 <1>  -0.2400 
 19 C       -6.8430    -1.6000     0.1270 C.ar  1 <1>  -0.1500 
 20 C       -5.8620    -3.3600    -1.1550 C.ar  1 <1>  -0.1500 
 21 C       -6.9900    -2.6750    -0.7330 C.ar  1 <1>  -0.1430 
 22 C       -8.3690    -3.1000    -1.2020 C.3   1 <1>  -0.0970 
 23 H       -0.9160     0.4210     1.3130 H     1 <1>   0.0800 
 24 H       -0.8790    -0.6230     2.7240 H     1 <1>   0.0800 
 25 H        2.3590    -2.9070    -1.3120 H     1 <1>   0.0800 
 26 H        1.7910    -3.8370     0.0640 H     1 <1>   0.0800 
 27 H        3.5090    -3.6470    -0.2100 H     1 <1>   0.0800 
 28 H       -2.4070    -1.9700    -0.0180 H     1 <1>   0.3700 
 29 H        5.2450    -2.4760     0.9850 H     1 <1>   0.0800 
 30 H        5.6150    -0.8290     1.3710 H     1 <1>   0.0800 
 31 H        4.8440    -1.8090    -1.3900 H     1 <1>   0.0800 
 32 H       -5.5010    -0.3720     1.2190 H     1 <1>   0.1500 
 33 H       -3.7450    -3.5160    -1.0600 H     1 <1>   0.1500 
 34 H        7.5510    -0.9610    -0.3320 H     1 <1>   0.0800 
 35 H        7.1920    -1.4060    -1.9820 H     1 <1>   0.0800 
 36 H        7.0800    -2.6000    -0.7170 H     1 <1>   0.0800 
 37 H        5.7860     0.9290    -0.4970 H     1 <1>   0.0800 
 38 H        4.1780     0.5390    -1.0460 H     1 <1>   0.0800 
 39 H        5.5190     0.4420    -2.1530 H     1 <1>   0.0800 
 40 H       -7.7080    -1.0580     0.4680 H     1 <1>   0.1500 
 41 H       -5.9610    -4.1990    -1.8210 H     1 <1>   0.1500 
 42 H       -9.0260    -2.2500    -1.2560 H     1 <1>   0.0800 
 43 H       -8.7820    -3.8150    -0.5140 H     1 <1>   0.0800 
 44 H       -8.3140    -3.5480    -2.1780 H     1 <1>   0.0800 
@<TRIPOS>BOND
  1   1   2  1   
  2   1   3  1   
  3   2   4  2   
  4   2   5  1   
  5   3   6  1   
  6   3  23  1   
  7   3  24  1   
  8   4   7  1   
  9   5   8  1   
 10   5   9  1   
 11   6  10  2   
 12   6  11  am  
 13   7   8  2   
 14   8  12  1   
 15   9  25  1   
 16   9  26  1   
 17   9  27  1   
 18  11  13  1   
 19  11  28  1   
 20  12  14  1   
 21  12  29  1   
 22  12  30  1   
 23  13  15  ar  
 24  13  16  ar  
 25  14  17  1   
 26  14  18  1   
 27  14  31  1   
 28  15  19  ar  
 29  15  32  1   
 30  16  20  ar  
 31  16  33  1   
 32  17  34  1   
 33  17  35  1   
 34  17  36  1   
 35  18  37  1   
 36  18  38  1   
 37  18  39  1   
 38  19  21  ar  
 39  19  40  1   
 40  20  21  ar  
 41  20  41  1   
 42  21  22  1   
 43  22  42  1   
 44  22  43  1   
 45  22  44  1   
@<TRIPOS>SUBSTRUCTURE
  1 ****   1 GROUP 4 **** **** 0

# MOE 2024.06 (io_trps.svl 2023.06)
