@<TRIPOS>MOLECULE
NONAME
42 43 1 0 0 
SMALL
USER_CHARGES


@<TRIPOS>ATOM
  1 CL       4.2240    -0.6730     1.6010 Cl    1 <1>  -0.1770 
  2 C        2.9380    -1.3710     0.6350 C.ar  1 <1>   0.1770 
  3 C        3.2420    -2.1550    -0.4730 C.ar  1 <1>   0.0820 
  4 C        1.6300    -1.1230     1.0010 C.ar  1 <1>  -0.1500 
  5 O        4.5380    -2.3830    -0.7960 O.3   1 <1>  -0.3630 
  6 C        2.2080    -2.6790    -1.2450 C.ar  1 <1>  -0.1440 
  7 C        0.5990    -1.6580     0.2460 C.ar  1 <1>  -0.1430 
  8 C        5.0840    -3.6150    -0.3900 C.3   1 <1>   0.1200 
  9 C        0.8960    -2.4280    -0.8680 C.ar  1 <1>  -0.1500 
 10 C        2.4700    -3.5110    -2.4940 C.3   1 <1>  -0.0960 
 11 C       -0.8480    -1.4050     0.6290 C.3   1 <1>  -0.0970 
 12 C        6.6100    -3.4820    -0.3120 C.3   1 <1>  -0.1600 
 13 C        7.0480    -2.4010     0.6840 C.3   1 <1>   0.3430 
 14 N        7.6060    -1.1860     0.0190 N.4   1 <1>  -0.9590 
 15 C        8.1120    -0.1940     1.0250 C.3   1 <1>   0.3430 
 16 C        6.6610    -0.4960    -0.9280 C.3   1 <1>   0.3430 
 17 C        8.6610     1.0830     0.3470 C.3   1 <1>   0.1200 
 18 C        7.2900     0.7760    -1.5390 C.3   1 <1>   0.1200 
 19 O        8.5880     0.9900    -1.0500 O.3   1 <1>  -0.5600 
 20 H        1.4250    -0.5200     1.8670 H     1 <1>   0.1500 
 21 H        4.7990    -4.3650    -1.1070 H     1 <1>   0.0800 
 22 H        4.6740    -3.8730     0.5730 H     1 <1>   0.0800 
 23 H        0.0880    -2.8360    -1.4520 H     1 <1>   0.1500 
 24 H        2.6130    -4.5420    -2.2250 H     1 <1>   0.0800 
 25 H        3.3440    -3.1560    -3.0090 H     1 <1>   0.0800 
 26 H        1.6370    -3.4460    -3.1710 H     1 <1>   0.0800 
 27 H       -0.9260    -0.5750     1.3080 H     1 <1>   0.0800 
 28 H       -1.2580    -2.2790     1.1030 H     1 <1>   0.0800 
 29 H       -1.4300    -1.1810    -0.2470 H     1 <1>   0.0800 
 30 H        7.0240    -3.3200    -1.2910 H     1 <1>   0.0800 
 31 H        6.9890    -4.4250     0.0380 H     1 <1>   0.0800 
 32 H        7.8050    -2.8210     1.3280 H     1 <1>   0.0800 
 33 H        6.2110    -2.1290     1.3050 H     1 <1>   0.0800 
 34 H        8.4220    -1.4400    -0.5550 H     1 <1>   0.4500 
 35 H        8.8930    -0.6380     1.6200 H     1 <1>   0.0800 
 36 H        7.3140     0.0860     1.6940 H     1 <1>   0.0800 
 37 H        5.7550    -0.2260    -0.4130 H     1 <1>   0.0800 
 38 H        6.3830    -1.1650    -1.7260 H     1 <1>   0.0800 
 39 H        9.6940     1.2290     0.6120 H     1 <1>   0.0800 
 40 H        8.1070     1.9500     0.6640 H     1 <1>   0.0800 
 41 H        6.6880     1.6410    -1.3150 H     1 <1>   0.0800 
 42 H        7.3530     0.6800    -2.6090 H     1 <1>   0.0800 
@<TRIPOS>BOND
  1   1   2  1   
  2   2   3  ar  
  3   2   4  ar  
  4   3   5  1   
  5   3   6  ar  
  6   4   7  ar  
  7   4  20  1   
  8   5   8  1   
  9   6   9  ar  
 10   6  10  1   
 11   7   9  ar  
 12   7  11  1   
 13   8  12  1   
 14   8  21  1   
 15   8  22  1   
 16   9  23  1   
 17  10  24  1   
 18  10  25  1   
 19  10  26  1   
 20  11  27  1   
 21  11  28  1   
 22  11  29  1   
 23  12  13  1   
 24  12  30  1   
 25  12  31  1   
 26  13  14  1   
 27  13  32  1   
 28  13  33  1   
 29  14  15  1   
 30  14  16  1   
 31  14  34  1   
 32  15  17  1   
 33  15  35  1   
 34  15  36  1   
 35  16  18  1   
 36  16  37  1   
 37  16  38  1   
 38  17  19  1   
 39  17  39  1   
 40  17  40  1   
 41  18  19  1   
 42  18  41  1   
 43  18  42  1   
@<TRIPOS>SUBSTRUCTURE
  1 ****   5 GROUP 4 **** **** 0

# MOE 2024.06 (io_trps.svl 2023.06)
