@<TRIPOS>MOLECULE
NONAME
33 33 1 0 0 
SMALL
USER_CHARGES


@<TRIPOS>ATOM
  1 O       -0.2620     0.1350    -0.5450 O.2   1 <1>  -0.5700 
  2 C       -1.2770     0.7200    -0.2260 C.2   1 <1>   0.6340 
  3 O       -2.3890    -0.0010    -0.0400 O.3   1 <1>  -0.4300 
  4 C       -1.3460     2.1580    -0.0370 C.ar  1 <1>   0.0860 
  5 C       -2.3830    -1.3990    -0.2080 C.3   1 <1>   0.1200 
  6 C       -0.2180     2.9600    -0.2270 C.ar  1 <1>  -0.1500 
  7 C       -2.5280     2.8040     0.3380 C.ar  1 <1>  -0.1500 
  8 C       -3.7940    -1.9150     0.0700 C.3   1 <1>  -0.1600 
  9 C       -0.2630     4.3310    -0.0520 C.ar  1 <1>  -0.1500 
 10 C       -2.5800     4.1740     0.5150 C.ar  1 <1>  -0.1500 
 11 C       -3.8400    -3.4320    -0.1030 C.3   1 <1>   0.3430 
 12 C       -1.4470     4.9420     0.3200 C.ar  1 <1>  -0.1500 
 13 N       -5.1860    -3.9630     0.2630 N.4   1 <1>  -0.9590 
 14 C       -5.1360    -5.4500     0.4220 C.3   1 <1>   0.2630 
 15 C       -6.2390    -3.5860    -0.7340 C.3   1 <1>   0.2630 
 16 H       -1.6670    -1.8160     0.4820 H     1 <1>   0.0800 
 17 H       -2.0770    -1.6130    -1.2190 H     1 <1>   0.0800 
 18 H        0.7110     2.4980    -0.5160 H     1 <1>   0.1500 
 19 H       -3.4220     2.2270     0.4960 H     1 <1>   0.1500 
 20 H       -4.4680    -1.4390    -0.6180 H     1 <1>   0.0800 
 21 H       -4.0600    -1.6550     1.0800 H     1 <1>   0.0800 
 22 H        0.6220     4.9240    -0.2050 H     1 <1>   0.1500 
 23 H       -3.5030     4.6480     0.8040 H     1 <1>   0.1500 
 24 H       -3.0930    -3.8750     0.5380 H     1 <1>   0.0800 
 25 H       -3.6030    -3.6940    -1.1220 H     1 <1>   0.0800 
 26 H       -1.4850     6.0090     0.4560 H     1 <1>   0.1500 
 27 H       -5.4450    -3.5550     1.1760 H     1 <1>   0.4500 
 28 H       -4.8630    -5.9180    -0.5110 H     1 <1>   0.0800 
 29 H       -6.0990    -5.8270     0.7280 H     1 <1>   0.0800 
 30 H       -4.4090    -5.7230     1.1700 H     1 <1>   0.0800 
 31 H       -5.9880    -3.9720    -1.7090 H     1 <1>   0.0800 
 32 H       -6.3300    -2.5140    -0.8010 H     1 <1>   0.0800 
 33 H       -7.1950    -3.9900    -0.4400 H     1 <1>   0.0800 
@<TRIPOS>BOND
  1   1   2  2   
  2   2   3  1   
  3   2   4  1   
  4   3   5  1   
  5   4   6  ar  
  6   4   7  ar  
  7   5   8  1   
  8   5  16  1   
  9   5  17  1   
 10   6   9  ar  
 11   6  18  1   
 12   7  10  ar  
 13   7  19  1   
 14   8  11  1   
 15   8  20  1   
 16   8  21  1   
 17   9  12  ar  
 18   9  22  1   
 19  10  12  ar  
 20  10  23  1   
 21  11  13  1   
 22  11  24  1   
 23  11  25  1   
 24  12  26  1   
 25  13  14  1   
 26  13  15  1   
 27  13  27  1   
 28  14  28  1   
 29  14  29  1   
 30  14  30  1   
 31  15  31  1   
 32  15  32  1   
 33  15  33  1   
@<TRIPOS>SUBSTRUCTURE
  1 ****   3 GROUP 4 **** **** 0

# MOE 2024.06 (io_trps.svl 2023.06)
