@<TRIPOS>MOLECULE
NONAME
38 38 1 0 0 
SMALL
USER_CHARGES


@<TRIPOS>ATOM
  1 O        0.0610    -0.2030    -1.4400 O.2   1 <1>  -0.5700 
  2 C        0.1330    -1.0170    -0.5380 C.2   1 <1>   0.7060 
  3 O        1.3200    -1.2030     0.0510 O.3   1 <1>  -0.4300 
  4 C       -1.0020    -1.7310    -0.0510 C.2   1 <1>   0.0290 
  5 C        2.4760    -0.5190    -0.3760 C.3   1 <1>   0.1200 
  6 C       -0.7480    -3.0100     0.5350 C.2   1 <1>   0.7060 
  7 C       -2.2610    -1.1970    -0.1600 C.2   1 <1>  -0.0500 
  8 C        3.6450    -0.9870     0.4850 C.3   1 <1>  -0.2400 
  9 O       -1.4090    -3.4670     1.4510 O.2   1 <1>  -0.5700 
 10 O        0.2310    -3.7650     0.0180 O.3   1 <1>  -0.4300 
 11 N       -3.4250    -1.7490     0.3070 N.pl3 1 <1>  -0.6000 
 12 C        0.5310    -5.0660     0.4800 C.3   1 <1>   0.1200 
 13 C       -4.7470    -1.3620     0.1610 C.ar  1 <1>   0.4100 
 14 C       -0.3770    -6.0660    -0.2330 C.3   1 <1>  -0.2400 
 15 N       -5.5500    -2.3970    -0.0310 N.ar  1 <1>  -0.6200 
 16 C       -5.1930    -0.0320     0.2280 C.ar  1 <1>  -0.1430 
 17 C       -6.8290    -2.1200    -0.2050 C.ar  1 <1>   0.1600 
 18 C       -6.5350     0.2270     0.0390 C.ar  1 <1>  -0.1500 
 19 C       -4.2770     1.1480     0.5290 C.3   1 <1>  -0.0970 
 20 C       -7.3670    -0.8480    -0.1860 C.ar  1 <1>  -0.1500 
 21 H        2.6460    -0.7500    -1.4150 H     1 <1>   0.0800 
 22 H        2.3100     0.5390    -0.2630 H     1 <1>   0.0800 
 23 H       -2.3680    -0.2560    -0.6740 H     1 <1>   0.1500 
 24 H        3.7890    -2.0460     0.3690 H     1 <1>   0.0800 
 25 H        3.4580    -0.7590     1.5190 H     1 <1>   0.0800 
 26 H        4.5440    -0.4830     0.1800 H     1 <1>   0.0800 
 27 H       -3.3750    -2.6830     0.7360 H     1 <1>   0.4000 
 28 H        1.5620    -5.2630     0.2440 H     1 <1>   0.0800 
 29 H        0.4040    -5.1050     1.5500 H     1 <1>   0.0800 
 30 H       -0.2460    -5.9960    -1.2970 H     1 <1>   0.0800 
 31 H       -1.4070    -5.8800     0.0170 H     1 <1>   0.0800 
 32 H       -0.1300    -7.0640     0.0790 H     1 <1>   0.0800 
 33 H       -7.4860    -2.9560    -0.3730 H     1 <1>   0.1500 
 34 H       -6.9280     1.2280     0.0690 H     1 <1>   0.1500 
 35 H       -4.8370     1.9680     0.9430 H     1 <1>   0.0800 
 36 H       -3.8000     1.4850    -0.3730 H     1 <1>   0.0800 
 37 H       -3.5270     0.8690     1.2470 H     1 <1>   0.0800 
 38 H       -8.4200    -0.7020    -0.3400 H     1 <1>   0.1500 
@<TRIPOS>BOND
  1   1   2  2   
  2   2   3  1   
  3   2   4  1   
  4   3   5  1   
  5   4   6  1   
  6   4   7  2   
  7   5   8  1   
  8   5  21  1   
  9   5  22  1   
 10   6   9  2   
 11   6  10  1   
 12   7  11  1   
 13   7  23  1   
 14   8  24  1   
 15   8  25  1   
 16   8  26  1   
 17  10  12  1   
 18  11  13  1   
 19  11  27  1   
 20  12  14  1   
 21  12  28  1   
 22  12  29  1   
 23  13  15  ar  
 24  13  16  ar  
 25  14  30  1   
 26  14  31  1   
 27  14  32  1   
 28  15  17  ar  
 29  16  18  ar  
 30  16  19  1   
 31  17  20  ar  
 32  17  33  1   
 33  18  20  ar  
 34  18  34  1   
 35  19  35  1   
 36  19  36  1   
 37  19  37  1   
 38  20  38  1   
@<TRIPOS>SUBSTRUCTURE
  1 ****   7 GROUP 4 **** **** 0

# MOE 2024.06 (io_trps.svl 2023.06)
