@<TRIPOS>MOLECULE
NONAME
38 39 1 0 0 
SMALL
USER_CHARGES


@<TRIPOS>ATOM
  1 S        0.0170     0.3670     0.4780 S.o2  1 <1>   1.4470 
  2 O        0.2230     0.6730     1.8750 O.2   1 <1>  -0.6500 
  3 O        0.1200     1.4030    -0.5240 O.2   1 <1>  -0.6500 
  4 N        1.1700    -0.7600     0.0230 N.am  1 <1>  -0.9140 
  5 C       -1.5380    -0.5390     0.2740 C.ar  1 <1>  -0.0090 
  6 C        2.4320    -0.6740     0.7270 C.3   1 <1>   0.2760 
  7 C       -1.7610    -1.7300     0.9550 C.ar  1 <1>  -0.1500 
  8 C       -2.5460    -0.0690    -0.5620 C.ar  1 <1>  -0.1500 
  9 C        3.2390     0.5330     0.2530 C.3   1 <1>  -0.1600 
 10 C        3.2920    -1.8440     0.2640 C.3   1 <1>  -0.1600 
 11 C       -2.9450    -2.4290     0.8060 C.ar  1 <1>  -0.1500 
 12 C       -3.7350    -0.7600    -0.7190 C.ar  1 <1>  -0.1500 
 13 C        3.8540     0.1220    -1.0890 C.3   1 <1>  -0.1600 
 14 C        3.9080    -1.4110    -1.0730 C.3   1 <1>  -0.1600 
 15 C       -3.9390    -1.9510    -0.0300 C.ar  1 <1>   0.0830 
 16 O       -5.0680    -2.6910    -0.1200 O.3   1 <1>  -0.3620 
 17 C       -6.1580    -2.2830    -0.9360 C.3   1 <1>   0.1810 
 18 C       -7.3110    -3.2750    -0.8530 C.2   1 <1>   0.5690 
 19 O       -8.3080    -3.0790    -1.5000 O.2   1 <1>  -0.5700 
 20 N       -7.2210    -4.3640    -0.0620 N.am  1 <1>  -0.8000 
 21 H        1.3810    -0.5230    -0.9430 H     1 <1>   0.4200 
 22 H        2.2840    -0.6910     1.7960 H     1 <1>   0.0800 
 23 H       -0.9950    -2.1120     1.6080 H     1 <1>   0.1500 
 24 H       -2.3960     0.8530    -1.1000 H     1 <1>   0.1500 
 25 H        4.0350     0.6980     0.9580 H     1 <1>   0.0800 
 26 H        2.6670     1.4410     0.1880 H     1 <1>   0.0800 
 27 H        2.7290    -2.7580     0.1850 H     1 <1>   0.0800 
 28 H        4.0810    -1.9890     0.9800 H     1 <1>   0.0800 
 29 H       -3.1020    -3.3490     1.3400 H     1 <1>   0.1500 
 30 H       -4.4800    -0.3540    -1.3770 H     1 <1>   0.1500 
 31 H        4.8330     0.5520    -1.2120 H     1 <1>   0.0800 
 32 H        3.2260     0.4570    -1.8980 H     1 <1>   0.0800 
 33 H        3.3280    -1.8040    -1.8900 H     1 <1>   0.0800 
 34 H        4.9200    -1.7690    -1.1610 H     1 <1>   0.0800 
 35 H       -5.8190    -2.2200    -1.9530 H     1 <1>   0.0800 
 36 H       -6.4960    -1.3200    -0.5990 H     1 <1>   0.0800 
 37 H       -7.9910    -5.0290    -0.0060 H     1 <1>   0.3700 
 38 H       -6.3850    -4.5540     0.4940 H     1 <1>   0.3700 
@<TRIPOS>BOND
  1   1   2  2   
  2   1   3  2   
  3   1   4  am  
  4   1   5  1   
  5   4   6  1   
  6   4  21  1   
  7   5   7  ar  
  8   5   8  ar  
  9   6   9  1   
 10   6  10  1   
 11   6  22  1   
 12   7  11  ar  
 13   7  23  1   
 14   8  12  ar  
 15   8  24  1   
 16   9  13  1   
 17   9  25  1   
 18   9  26  1   
 19  10  14  1   
 20  10  27  1   
 21  10  28  1   
 22  11  15  ar  
 23  11  29  1   
 24  12  15  ar  
 25  12  30  1   
 26  13  14  1   
 27  13  31  1   
 28  13  32  1   
 29  14  33  1   
 30  14  34  1   
 31  15  16  1   
 32  16  17  1   
 33  17  18  1   
 34  17  35  1   
 35  17  36  1   
 36  18  19  2   
 37  18  20  am  
 38  20  37  1   
 39  20  38  1   
@<TRIPOS>SUBSTRUCTURE
  1 ****   5 GROUP 4 **** **** 0

# MOE 2024.06 (io_trps.svl 2023.06)
