@<TRIPOS>MOLECULE
NONAME
43 44 1 0 0 
SMALL
USER_CHARGES


@<TRIPOS>ATOM
  1 O       -0.4150     0.6600    -0.1910 O.2   1 <1>  -0.5700 
  2 C       -0.2900     1.7620     0.3160 C.2   1 <1>   0.7160 
  3 N       -1.4180     2.3590     0.8240 N.am  1 <1>  -0.7300 
  4 C        0.9910     2.4580     0.3830 C.2   1 <1>   0.2030 
  5 C       -2.7570     1.7270     0.8830 C.3   1 <1>   0.1400 
  6 N        2.1880     1.9120     0.5040 N.2   1 <1>  -0.7070 
  7 C        1.1160     3.8550     0.3370 C.2   1 <1>  -0.1500 
  8 C       -3.5320     2.0170    -0.4030 C.3   1 <1>  -0.0170 
  9 N        3.0590     2.9260     0.5290 N.pl3 1 <1>   0.3140 
 10 C        2.4330     4.1130     0.4330 C.2   1 <1>  -0.3020 
 11 C       -4.9120     1.3830    -0.3350 C.ar  1 <1>  -0.1430 
 12 C        4.5140     2.7050     0.6490 C.3   1 <1>   0.0960 
 13 C       -6.0170     2.1310     0.0400 C.ar  1 <1>  -0.1500 
 14 C       -5.0680     0.0430    -0.6430 C.ar  1 <1>  -0.1500 
 15 C        5.2150     2.8780    -0.7040 C.3   1 <1>  -0.2400 
 16 C       -7.2800     1.5470     0.1090 C.ar  1 <1>   0.0830 
 17 C       -6.3160    -0.5520    -0.5770 C.ar  1 <1>  -0.1500 
 18 O       -8.3920     2.2490     0.4730 O.3   1 <1>  -0.3630 
 19 C       -7.4300     0.1920    -0.2000 C.ar  1 <1>   0.0830 
 20 C       -8.3570     3.6400     0.6920 C.3   1 <1>   0.0400 
 21 O       -8.6800    -0.3520    -0.1190 O.3   1 <1>  -0.3630 
 22 C       -8.9180    -1.7090    -0.4110 C.3   1 <1>   0.0400 
 23 H       -1.3050     3.2270     1.3460 H     1 <1>   0.3700 
 24 H       -3.2980     2.1060     1.7330 H     1 <1>   0.0800 
 25 H       -2.6490     0.6610     1.0030 H     1 <1>   0.0800 
 26 H        0.3080     4.5560     0.2340 H     1 <1>   0.1500 
 27 H       -2.9940     1.6110    -1.2420 H     1 <1>   0.0800 
 28 H       -3.6230     3.0790    -0.5410 H     1 <1>   0.0800 
 29 H        2.9560     5.0520     0.4350 H     1 <1>   0.1500 
 30 H        4.6720     1.7070     1.0170 H     1 <1>   0.0800 
 31 H        4.9070     3.4010     1.3670 H     1 <1>   0.0800 
 32 H       -5.8800     3.1670     0.2760 H     1 <1>   0.1500 
 33 H       -4.2140    -0.5460    -0.9360 H     1 <1>   0.1500 
 34 H        4.8160     2.1760    -1.4160 H     1 <1>   0.0800 
 35 H        6.2680     2.6930    -0.5960 H     1 <1>   0.0800 
 36 H        5.0780     3.8780    -1.0750 H     1 <1>   0.0800 
 37 H       -6.3950    -1.5920    -0.8230 H     1 <1>   0.1500 
 38 H       -9.3570     3.9660     0.9150 H     1 <1>   0.0800 
 39 H       -8.0050     4.1250    -0.2010 H     1 <1>   0.0800 
 40 H       -7.7120     3.8460     1.5270 H     1 <1>   0.0800 
 41 H       -9.9680    -1.8980    -0.2770 H     1 <1>   0.0800 
 42 H       -8.3480    -2.3170     0.2680 H     1 <1>   0.0800 
 43 H       -8.6390    -1.9000    -1.4320 H     1 <1>   0.0800 
@<TRIPOS>BOND
  1   1   2  2   
  2   2   3  am  
  3   2   4  1   
  4   3   5  1   
  5   3  23  1   
  6   4   6  2   
  7   4   7  1   
  8   5   8  1   
  9   5  24  1   
 10   5  25  1   
 11   6   9  1   
 12   7  10  2   
 13   7  26  1   
 14   8  11  1   
 15   8  27  1   
 16   8  28  1   
 17   9  10  1   
 18   9  12  1   
 19  10  29  1   
 20  11  13  ar  
 21  11  14  ar  
 22  12  15  1   
 23  12  30  1   
 24  12  31  1   
 25  13  16  ar  
 26  13  32  1   
 27  14  17  ar  
 28  14  33  1   
 29  15  34  1   
 30  15  35  1   
 31  15  36  1   
 32  16  18  1   
 33  16  19  ar  
 34  17  19  ar  
 35  17  37  1   
 36  18  20  1   
 37  19  21  1   
 38  20  38  1   
 39  20  39  1   
 40  20  40  1   
 41  21  22  1   
 42  22  41  1   
 43  22  42  1   
 44  22  43  1   
@<TRIPOS>SUBSTRUCTURE
  1 ****   5 GROUP 4 **** **** 0

# MOE 2024.06 (io_trps.svl 2023.06)
