@<TRIPOS>MOLECULE
NONAME
38 39 1 0 0 
SMALL
USER_CHARGES


@<TRIPOS>ATOM
  1 O        1.4650     3.4030    -0.4520 O.2   1 <1>  -0.5700 
  2 C        0.4330     2.8570    -0.1480 C.2   1 <1>   0.5690 
  3 N        0.4080     1.5780     0.2910 N.am  1 <1>  -0.6370 
  4 C       -0.8740     3.6280    -0.2610 C.3   1 <1>   0.1810 
  5 N        1.5550     0.7450     0.4450 N.pl3 1 <1>   0.4430 
  6 O       -1.9690     2.8140     0.1420 O.3   1 <1>  -0.3630 
  7 C        2.0860    -0.1030    -0.4320 C.2   1 <1>   0.0360 
  8 C        2.3100     0.5640     1.5250 C.2   1 <1>   0.0360 
  9 C       -3.2370     3.2920     0.1230 C.ar  1 <1>   0.0830 
 10 N        3.0790    -0.7600     0.0740 N.2   1 <1>  -0.3380 
 11 N        3.2230    -0.3310     1.3310 N.2   1 <1>  -0.3380 
 12 C       -4.2380     2.4300     0.5320 C.ar  1 <1>  -0.1500 
 13 C       -3.5760     4.5790    -0.2780 C.ar  1 <1>  -0.1500 
 14 C       -5.5580     2.8430     0.5410 C.ar  1 <1>  -0.1500 
 15 C       -4.8990     4.9850    -0.2660 C.ar  1 <1>  -0.1500 
 16 C       -5.9180     4.1270     0.1440 C.ar  1 <1>  -0.1430 
 17 C       -7.4060     4.5400     0.1730 C.3   1 <1>   0.1430 
 18 C       -7.6440     5.9860    -0.2940 C.3   1 <1>  -0.2400 
 19 C       -7.9440     4.4230     1.6070 C.3   1 <1>  -0.2400 
 20 C       -8.2130     3.6170    -0.7520 C.3   1 <1>  -0.2400 
 21 H       -0.4950     1.1660     0.5350 H     1 <1>   0.4370 
 22 H       -1.0260     3.9260    -1.2830 H     1 <1>   0.0800 
 23 H       -0.8370     4.4920     0.3760 H     1 <1>   0.0800 
 24 H        1.7160    -0.2130    -1.4320 H     1 <1>   0.1500 
 25 H        2.1580     1.1080     2.4380 H     1 <1>   0.1500 
 26 H       -3.9860     1.4340     0.8430 H     1 <1>   0.1500 
 27 H       -2.8340     5.2830    -0.6030 H     1 <1>   0.1500 
 28 H       -6.3090     2.1460     0.8650 H     1 <1>   0.1500 
 29 H       -5.1110     5.9880    -0.5840 H     1 <1>   0.1500 
 30 H       -7.1210     6.6790     0.3400 H     1 <1>   0.0800 
 31 H       -8.6910     6.2280    -0.2570 H     1 <1>   0.0800 
 32 H       -7.3090     6.1160    -1.3080 H     1 <1>   0.0800 
 33 H       -7.3620     5.0400     2.2690 H     1 <1>   0.0800 
 34 H       -7.8930     3.4100     1.9590 H     1 <1>   0.0800 
 35 H       -8.9700     4.7410     1.6550 H     1 <1>   0.0800 
 36 H       -7.8210     3.6660    -1.7530 H     1 <1>   0.0800 
 37 H       -9.2470     3.9110    -0.7750 H     1 <1>   0.0800 
 38 H       -8.1650     2.5960    -0.4210 H     1 <1>   0.0800 
@<TRIPOS>BOND
  1   1   2  2   
  2   2   3  am  
  3   2   4  1   
  4   3   5  1   
  5   3  21  1   
  6   4   6  1   
  7   4  22  1   
  8   4  23  1   
  9   5   7  1   
 10   5   8  1   
 11   6   9  1   
 12   7  10  2   
 13   7  24  1   
 14   8  11  2   
 15   8  25  1   
 16   9  12  ar  
 17   9  13  ar  
 18  10  11  1   
 19  12  14  ar  
 20  12  26  1   
 21  13  15  ar  
 22  13  27  1   
 23  14  16  ar  
 24  14  28  1   
 25  15  16  ar  
 26  15  29  1   
 27  16  17  1   
 28  17  18  1   
 29  17  19  1   
 30  17  20  1   
 31  18  30  1   
 32  18  31  1   
 33  18  32  1   
 34  19  33  1   
 35  19  34  1   
 36  19  35  1   
 37  20  36  1   
 38  20  37  1   
 39  20  38  1   
@<TRIPOS>SUBSTRUCTURE
  1 ****   6 GROUP 4 **** **** 0

# MOE 2024.06 (io_trps.svl 2023.06)
