@<TRIPOS>MOLECULE
NONAME
39 40 1 0 0 
SMALL
USER_CHARGES


@<TRIPOS>ATOM
  1 O       -1.0160    -2.7550    -2.7150 O.2   1 <1>  -0.5700 
  2 C       -0.3690    -2.3760    -1.7670 C.2   1 <1>   0.5690 
  3 N       -0.9010    -1.5840    -0.8010 N.am  1 <1>  -0.7300 
  4 C        1.0900    -2.8040    -1.6600 C.3   1 <1>   0.1810 
  5 C       -2.2800    -1.0780    -0.7420 C.3   1 <1>   0.2200 
  6 O        1.7010    -2.2720    -0.4900 O.3   1 <1>  -0.3630 
  7 C       -2.2380     0.4410    -0.6420 C.3   1 <1>  -0.1600 
  8 C       -2.8980    -1.5000     0.5850 C.3   1 <1>  -0.1600 
  9 C        3.0020    -2.5210    -0.1870 C.ar  1 <1>   0.0820 
 10 C       -1.9630     0.7540     0.8340 C.3   1 <1>  -0.1600 
 11 C       -2.3870    -0.4930     1.6220 C.3   1 <1>  -0.1600 
 12 C        3.5100    -1.9550     0.9790 C.ar  1 <1>  -0.1440 
 13 C        3.8280    -3.3080    -0.9850 C.ar  1 <1>  -0.1500 
 14 C        4.8320    -2.1810     1.3290 C.ar  1 <1>  -0.1500 
 15 C        2.6300    -1.0920     1.8710 C.3   1 <1>  -0.0970 
 16 C        5.1450    -3.5250    -0.6230 C.ar  1 <1>  -0.1500 
 17 C        5.6550    -2.9620     0.5340 C.ar  1 <1>  -0.1440 
 18 C        7.1000    -3.2000     0.9350 C.3   1 <1>  -0.0970 
 19 H       -0.2970    -1.3010    -0.0270 H     1 <1>   0.3700 
 20 H        1.6280    -2.4450    -2.5170 H     1 <1>   0.0800 
 21 H        1.1410    -3.8760    -1.6120 H     1 <1>   0.0800 
 22 H       -2.8490    -1.4210    -1.5910 H     1 <1>   0.0800 
 23 H       -3.2080     0.8250    -0.9060 H     1 <1>   0.0800 
 24 H       -1.5070     0.8720    -1.3030 H     1 <1>   0.0800 
 25 H       -2.6590    -2.5180     0.8390 H     1 <1>   0.0800 
 26 H       -3.9670    -1.4070     0.5050 H     1 <1>   0.0800 
 27 H       -2.5110     1.6250     1.1500 H     1 <1>   0.0800 
 28 H       -0.9110     0.9340     0.9790 H     1 <1>   0.0800 
 29 H       -1.5350    -0.9010     2.1390 H     1 <1>   0.0800 
 30 H       -3.1530    -0.2620     2.3420 H     1 <1>   0.0800 
 31 H        3.4710    -3.7610    -1.8900 H     1 <1>   0.1500 
 32 H        5.2280    -1.7460     2.2300 H     1 <1>   0.1500 
 33 H        1.7880    -1.6650     2.2150 H     1 <1>   0.0800 
 34 H        2.2690    -0.2450     1.3150 H     1 <1>   0.0800 
 35 H        3.1740    -0.7350     2.7260 H     1 <1>   0.0800 
 36 H        5.7740    -4.1360    -1.2470 H     1 <1>   0.1500 
 37 H        7.5040    -2.3260     1.4140 H     1 <1>   0.0800 
 38 H        7.7010    -3.4210     0.0710 H     1 <1>   0.0800 
 39 H        7.1550    -4.0280     1.6180 H     1 <1>   0.0800 
@<TRIPOS>BOND
  1   1   2  2   
  2   2   3  am  
  3   2   4  1   
  4   3   5  1   
  5   3  19  1   
  6   4   6  1   
  7   4  20  1   
  8   4  21  1   
  9   5   7  1   
 10   5   8  1   
 11   5  22  1   
 12   6   9  1   
 13   7  10  1   
 14   7  23  1   
 15   7  24  1   
 16   8  11  1   
 17   8  25  1   
 18   8  26  1   
 19   9  12  ar  
 20   9  13  ar  
 21  10  11  1   
 22  10  27  1   
 23  10  28  1   
 24  11  29  1   
 25  11  30  1   
 26  12  14  ar  
 27  12  15  1   
 28  13  16  ar  
 29  13  31  1   
 30  14  17  ar  
 31  14  32  1   
 32  15  33  1   
 33  15  34  1   
 34  15  35  1   
 35  16  17  ar  
 36  16  36  1   
 37  17  18  1   
 38  18  37  1   
 39  18  38  1   
 40  18  39  1   
@<TRIPOS>SUBSTRUCTURE
  1 ****   6 GROUP 4 **** **** 0

# MOE 2024.06 (io_trps.svl 2023.06)
