@<TRIPOS>MOLECULE
NONAME
50 52 1 0 0 
SMALL
USER_CHARGES


@<TRIPOS>ATOM
  1 S        0.2990    -0.4250     1.9340 S.o2  1 <1>   1.4470 
  2 O        0.9150    -0.6170     3.2300 O.2   1 <1>  -0.6500 
  3 O       -0.5730     0.7080     1.7180 O.2   1 <1>  -0.6500 
  4 N        1.5520    -0.3030     0.8020 N.am  1 <1>  -0.8490 
  5 C       -0.5660    -1.9340     1.4240 C.ar  1 <1>  -0.0090 
  6 C        2.1620     1.0420     0.8240 C.3   1 <1>   0.1960 
  7 C        2.6040    -1.3210     1.0100 C.3   1 <1>   0.1960 
  8 C       -0.9920    -2.0950     0.1130 C.ar  1 <1>  -0.1500 
  9 C       -0.8250    -2.9610     2.3240 C.ar  1 <1>  -0.1500 
 10 C        3.2840     1.1970    -0.2210 C.3   1 <1>   0.2090 
 11 C        3.7250    -1.2240    -0.0430 C.3   1 <1>   0.2090 
 12 C       -1.6710    -3.2310    -0.3090 C.ar  1 <1>   0.1170 
 13 C       -1.4790    -4.1150     1.9260 C.ar  1 <1>  -0.1500 
 14 N        4.3290     0.1420    -0.0530 N.pl3 1 <1>  -0.8380 
 15 N       -2.1090    -3.3820    -1.6350 N.am  1 <1>  -0.5470 
 16 C       -1.8990    -4.2600     0.6090 C.ar  1 <1>   0.0830 
 17 C        5.4860     0.2950    -0.8280 C.ar  1 <1>   0.1000 
 18 C       -2.6740    -2.5330    -2.5330 C.2   1 <1>   0.5690 
 19 O       -2.5340    -5.3790     0.1540 O.3   1 <1>  -0.3630 
 20 C        5.5390     0.1970    -2.2250 C.ar  1 <1>   0.1900 
 21 C        6.6820     0.5650    -0.1750 C.ar  1 <1>  -0.1500 
 22 O       -2.9850    -2.9370    -3.6240 O.2   1 <1>  -0.5700 
 23 C       -2.9590    -1.0880    -2.1950 C.3   1 <1>  -0.1790 
 24 C       -2.9230    -6.4160     1.0280 C.3   1 <1>   0.0400 
 25 F        4.4440    -0.0570    -2.9020 F     1 <1>  -0.1900 
 26 C        6.7080     0.3560    -2.9430 C.ar  1 <1>  -0.1500 
 27 C        7.8660     0.7280    -0.8770 C.ar  1 <1>  -0.1500 
 28 C        7.8830     0.6240    -2.2590 C.ar  1 <1>  -0.1500 
 29 H        2.5670     1.2430     1.8020 H     1 <1>   0.0800 
 30 H        1.4080     1.7830     0.6210 H     1 <1>   0.0800 
 31 H        2.1700    -2.3050     0.9580 H     1 <1>   0.0800 
 32 H        3.0450    -1.2030     1.9860 H     1 <1>   0.0800 
 33 H       -0.7750    -1.3130    -0.5910 H     1 <1>   0.1500 
 34 H       -0.5090    -2.8580     3.3490 H     1 <1>   0.1500 
 35 H        3.7400     2.1660    -0.1160 H     1 <1>   0.0800 
 36 H        2.8580     1.1320    -1.2070 H     1 <1>   0.0800 
 37 H        3.3190    -1.4510    -1.0130 H     1 <1>   0.0800 
 38 H        4.4900    -1.9470     0.1800 H     1 <1>   0.0800 
 39 H       -1.6470    -4.8840     2.6560 H     1 <1>   0.1500 
 40 H       -2.1830    -4.3560    -1.9340 H     1 <1>   0.3700 
 41 H        6.6730     0.6460     0.8970 H     1 <1>   0.1500 
 42 H       -2.0770    -0.4980    -2.3550 H     1 <1>   0.0800 
 43 H       -3.2820    -0.9970    -1.1750 H     1 <1>   0.0800 
 44 H       -3.7390    -0.7200    -2.8350 H     1 <1>   0.0800 
 45 H       -3.4460    -7.1580     0.4530 H     1 <1>   0.0800 
 46 H       -3.5760    -6.0120     1.7820 H     1 <1>   0.0800 
 47 H       -2.0440    -6.8510     1.4700 H     1 <1>   0.0800 
 48 H        6.6990     0.2720    -4.0140 H     1 <1>   0.1500 
 49 H        8.7780     0.9370    -0.3450 H     1 <1>   0.1500 
 50 H        8.8060     0.7520    -2.7990 H     1 <1>   0.1500 
@<TRIPOS>BOND
  1   1   2  2   
  2   1   3  2   
  3   1   4  am  
  4   1   5  1   
  5   4   6  1   
  6   4   7  1   
  7   5   8  ar  
  8   5   9  ar  
  9   6  10  1   
 10   6  29  1   
 11   6  30  1   
 12   7  11  1   
 13   7  31  1   
 14   7  32  1   
 15   8  12  ar  
 16   8  33  1   
 17   9  13  ar  
 18   9  34  1   
 19  10  14  1   
 20  10  35  1   
 21  10  36  1   
 22  11  14  1   
 23  11  37  1   
 24  11  38  1   
 25  12  15  1   
 26  12  16  ar  
 27  13  16  ar  
 28  13  39  1   
 29  14  17  1   
 30  15  18  am  
 31  15  40  1   
 32  16  19  1   
 33  17  20  ar  
 34  17  21  ar  
 35  18  22  2   
 36  18  23  1   
 37  19  24  1   
 38  20  25  1   
 39  20  26  ar  
 40  21  27  ar  
 41  21  41  1   
 42  23  42  1   
 43  23  43  1   
 44  23  44  1   
 45  24  45  1   
 46  24  46  1   
 47  24  47  1   
 48  26  28  ar  
 49  26  48  1   
 50  27  28  ar  
 51  27  49  1   
 52  28  50  1   
@<TRIPOS>SUBSTRUCTURE
  1 ****   4 GROUP 4 **** **** 0

# MOE 2024.06 (io_trps.svl 2023.06)
