@<TRIPOS>MOLECULE
NONAME
40 41 1 0 0 
SMALL
USER_CHARGES


@<TRIPOS>ATOM
  1 O        0.2300    -0.1750     0.0340 O.2   1 <1>  -0.5700 
  2 C        0.7810     0.9010     0.1660 C.2   1 <1>   0.6900 
  3 N        2.1240     0.9610     0.4450 N.am  1 <1>  -0.6600 
  4 N        0.0980     2.0730     0.0100 N.am  1 <1>  -0.5470 
  5 C        3.0020    -0.2150     0.2060 C.3   1 <1>   0.1400 
  6 C        2.7640     2.0680     1.2020 C.3   1 <1>   0.1400 
  7 C       -1.2680     2.3440    -0.1380 C.ar  1 <1>   0.1170 
  8 C        4.2590     0.2340    -0.5450 C.3   1 <1>  -0.1600 
  9 C        4.0100     2.5450     0.4510 C.3   1 <1>  -0.1600 
 10 C       -1.6550     3.5380    -0.7350 C.ar  1 <1>  -0.1500 
 11 C       -2.2630     1.4780     0.3050 C.ar  1 <1>  -0.1500 
 12 C        4.9870     1.3830     0.1860 C.3   1 <1>  -0.0190 
 13 C       -2.9920     3.8590    -0.8860 C.ar  1 <1>  -0.1500 
 14 C       -3.6010     1.7960     0.1540 C.ar  1 <1>  -0.1500 
 15 C        6.2250     1.8720    -0.5630 C.2   1 <1>   0.6590 
 16 C       -3.9740     2.9890    -0.4420 C.ar  1 <1>  -0.1440 
 17 O        6.3880     1.6900    -1.7430 O.2   1 <1>  -0.5700 
 18 O        7.1160     2.5250     0.1750 O.3   1 <1>  -0.4300 
 19 C       -5.4430     3.3350    -0.6090 C.3   1 <1>  -0.0970 
 20 C        8.3070     3.0400    -0.3850 C.3   1 <1>   0.0400 
 21 H        0.7190     2.8570    -0.1500 H     1 <1>   0.3700 
 22 H        2.4850    -0.9590    -0.3770 H     1 <1>   0.0800 
 23 H        3.2670    -0.6550     1.1520 H     1 <1>   0.0800 
 24 H        3.0450     1.7030     2.1760 H     1 <1>   0.0800 
 25 H        2.0830     2.8880     1.3460 H     1 <1>   0.0800 
 26 H        3.9710     0.5530    -1.5330 H     1 <1>   0.0800 
 27 H        4.9230    -0.6040    -0.6560 H     1 <1>   0.0800 
 28 H        4.5020     3.3050     1.0310 H     1 <1>   0.0800 
 29 H        3.7100     2.9870    -0.4840 H     1 <1>   0.0800 
 30 H       -0.9070     4.2230    -1.0870 H     1 <1>   0.1500 
 31 H       -1.9940     0.5490     0.7730 H     1 <1>   0.1500 
 32 H        5.3260     1.0050     1.1340 H     1 <1>   0.0800 
 33 H       -3.2670     4.7880    -1.3540 H     1 <1>   0.1500 
 34 H       -4.3490     1.1060     0.5020 H     1 <1>   0.1500 
 35 H       -5.5820     4.4010    -0.6030 H     1 <1>   0.0800 
 36 H       -6.0210     2.9130     0.1930 H     1 <1>   0.0800 
 37 H       -5.8030     2.9410    -1.5420 H     1 <1>   0.0800 
 38 H        8.8690     3.5240     0.3940 H     1 <1>   0.0800 
 39 H        8.0520     3.7470    -1.1550 H     1 <1>   0.0800 
 40 H        8.8750     2.2260    -0.8020 H     1 <1>   0.0800 
@<TRIPOS>BOND
  1   1   2  2   
  2   2   3  am  
  3   2   4  am  
  4   3   5  1   
  5   3   6  1   
  6   4   7  1   
  7   4  21  1   
  8   5   8  1   
  9   5  22  1   
 10   5  23  1   
 11   6   9  1   
 12   6  24  1   
 13   6  25  1   
 14   7  10  ar  
 15   7  11  ar  
 16   8  12  1   
 17   8  26  1   
 18   8  27  1   
 19   9  12  1   
 20   9  28  1   
 21   9  29  1   
 22  10  13  ar  
 23  10  30  1   
 24  11  14  ar  
 25  11  31  1   
 26  12  15  1   
 27  12  32  1   
 28  13  16  ar  
 29  13  33  1   
 30  14  16  ar  
 31  14  34  1   
 32  15  17  2   
 33  15  18  1   
 34  16  19  1   
 35  18  20  1   
 36  19  35  1   
 37  19  36  1   
 38  19  37  1   
 39  20  38  1   
 40  20  39  1   
 41  20  40  1   
@<TRIPOS>SUBSTRUCTURE
  1 ****   2 GROUP 4 **** **** 0

# MOE 2024.06 (io_trps.svl 2023.06)
