@<TRIPOS>MOLECULE
NONAME
46 48 1 0 0 
SMALL
USER_CHARGES


@<TRIPOS>ATOM
  1 BR       1.4880     3.2450     4.8800 Br    1 <1>  -0.1110 
  2 C        1.2140     3.9560     3.1130 C.ar  1 <1>   0.1110 
  3 C        1.7230     3.2640     2.0310 C.ar  1 <1>  -0.1500 
  4 C        0.5160     5.1390     2.9710 C.ar  1 <1>  -0.1500 
  5 C        1.5240     3.7800     0.7610 C.ar  1 <1>  -0.1500 
  6 C        0.3240     5.6440     1.6970 C.ar  1 <1>  -0.1500 
  7 C        0.8260     4.9710     0.5890 C.ar  1 <1>  -0.1430 
  8 C        0.6120     5.5420    -0.8060 C.3   1 <1>   0.2540 
  9 N        1.2700     6.8570    -0.9390 N.3   1 <1>  -0.8100 
 10 C        2.7380     6.7730    -0.7130 C.3   1 <1>   0.1100 
 11 C        0.9770     7.4880    -2.2460 C.3   1 <1>   0.1100 
 12 C        3.4580     8.1230    -0.9410 C.3   1 <1>   0.3430 
 13 C        1.5850     8.9090    -2.3550 C.3   1 <1>   0.3430 
 14 N        2.4640     9.2210    -1.1820 N.4   1 <1>  -0.9590 
 15 C        3.0550    10.5840    -1.2010 C.3   1 <1>   0.4860 
 16 C        3.7980    10.8100     0.1000 C.ar  1 <1>  -0.1430 
 17 C        5.1860    10.8270     0.1130 C.ar  1 <1>  -0.1500 
 18 C        3.1000    10.9880     1.2860 C.ar  1 <1>  -0.1500 
 19 C        5.8750    11.0090     1.3000 C.ar  1 <1>  -0.1430 
 20 C        3.7870    11.1680     2.4720 C.ar  1 <1>  -0.1500 
 21 C        5.1700    11.1760     2.4790 C.ar  1 <1>  -0.1500 
 22 C        7.3940    11.0260     1.3170 C.3   1 <1>  -0.0970 
 23 H        2.2590     2.3440     2.1820 H     1 <1>   0.1500 
 24 H        0.1330     5.6490     3.8370 H     1 <1>   0.1500 
 25 H        1.9140     3.2470    -0.0880 H     1 <1>   0.1500 
 26 H       -0.2160     6.5660     1.5640 H     1 <1>   0.1500 
 27 H       -0.4470     5.6520    -0.9690 H     1 <1>   0.0800 
 28 H        0.9940     4.8610    -1.5480 H     1 <1>   0.0800 
 29 H        3.1710     6.0290    -1.3600 H     1 <1>   0.0800 
 30 H        2.9260     6.4620     0.3020 H     1 <1>   0.0800 
 31 H       -0.0890     7.5570    -2.3820 H     1 <1>   0.0800 
 32 H        1.3660     6.8740    -3.0410 H     1 <1>   0.0800 
 33 H        4.1230     8.0360    -1.7830 H     1 <1>   0.0800 
 34 H        4.0560     8.3450    -0.0710 H     1 <1>   0.0800 
 35 H        0.7820     9.6260    -2.4070 H     1 <1>   0.0800 
 36 H        2.1480     8.9820    -3.2710 H     1 <1>   0.0800 
 37 H        1.8440     9.1450    -0.3610 H     1 <1>   0.4500 
 38 H        2.2780    11.3240    -1.3020 H     1 <1>   0.0800 
 39 H        3.7340    10.6830    -2.0320 H     1 <1>   0.0800 
 40 H        5.7430    10.7000    -0.7990 H     1 <1>   0.1500 
 41 H        2.0240    10.9910     1.3040 H     1 <1>   0.1500 
 42 H        3.2480    11.3050     3.3950 H     1 <1>   0.1500 
 43 H        5.6950    11.3160     3.4090 H     1 <1>   0.1500 
 44 H        7.7680    10.0440     1.5470 H     1 <1>   0.0800 
 45 H        7.7510    11.7140     2.0620 H     1 <1>   0.0800 
 46 H        7.7840    11.3320     0.3630 H     1 <1>   0.0800 
@<TRIPOS>BOND
  1   1   2  1   
  2   2   3  ar  
  3   2   4  ar  
  4   3   5  ar  
  5   3  23  1   
  6   4   6  ar  
  7   4  24  1   
  8   5   7  ar  
  9   5  25  1   
 10   6   7  ar  
 11   6  26  1   
 12   7   8  1   
 13   8   9  1   
 14   8  27  1   
 15   8  28  1   
 16   9  10  1   
 17   9  11  1   
 18  10  12  1   
 19  10  29  1   
 20  10  30  1   
 21  11  13  1   
 22  11  31  1   
 23  11  32  1   
 24  12  14  1   
 25  12  33  1   
 26  12  34  1   
 27  13  14  1   
 28  13  35  1   
 29  13  36  1   
 30  14  15  1   
 31  14  37  1   
 32  15  16  1   
 33  15  38  1   
 34  15  39  1   
 35  16  17  ar  
 36  16  18  ar  
 37  17  19  ar  
 38  17  40  1   
 39  18  20  ar  
 40  18  41  1   
 41  19  21  ar  
 42  19  22  1   
 43  20  21  ar  
 44  20  42  1   
 45  21  43  1   
 46  22  44  1   
 47  22  45  1   
 48  22  46  1   
@<TRIPOS>SUBSTRUCTURE
  1 ****  10 GROUP 4 **** **** 0

# MOE 2024.06 (io_trps.svl 2023.06)
