@<TRIPOS>MOLECULE
NONAME
42 43 1 0 0 
SMALL
USER_CHARGES


@<TRIPOS>ATOM
  1 S       -6.7860    -5.1000     0.4170 S.o2  1 <1>   1.3330 
  2 O       -6.7160    -5.5430     1.7870 O.2   1 <1>  -0.6500 
  3 O       -6.9330    -3.6980     0.0990 O.2   1 <1>  -0.6500 
  4 N       -8.2190    -5.8260    -0.0770 N.am  1 <1>  -0.9140 
  5 C       -5.5200    -5.8650    -0.6080 C.3   1 <1>   0.0890 
  6 C       -9.3820    -5.0020     0.2550 C.3   1 <1>   0.1960 
  7 C       -4.1080    -5.3990    -0.2820 C.ar  1 <1>  -0.1430 
  8 C      -10.6890    -5.6510    -0.2370 C.3   1 <1>   0.3430 
  9 C       -3.2540    -6.2050     0.4560 C.ar  1 <1>  -0.1500 
 10 C       -3.6680    -4.1580    -0.7170 C.ar  1 <1>  -0.1500 
 11 N      -11.9080    -4.8280     0.0710 N.4   1 <1>  -0.9590 
 12 C       -1.9710    -5.7770     0.7490 C.ar  1 <1>  -0.1500 
 13 C       -2.3860    -3.7300    -0.4230 C.ar  1 <1>  -0.1500 
 14 C      -13.1460    -5.6180    -0.2020 C.3   1 <1>   0.3430 
 15 C      -11.9220    -3.5300    -0.6770 C.3   1 <1>   0.3430 
 16 C       -1.5360    -4.5390     0.3090 C.ar  1 <1>  -0.1500 
 17 C      -14.3750    -4.8270     0.2510 C.3   1 <1>  -0.1600 
 18 C      -13.1250    -2.6940    -0.2370 C.3   1 <1>  -0.1600 
 19 C      -14.4450    -3.4520    -0.4240 C.3   1 <1>  -0.1600 
 20 H       -8.2420    -6.6540     0.5240 H     1 <1>   0.4200 
 21 H       -5.7210    -5.6430    -1.6370 H     1 <1>   0.0800 
 22 H       -5.5680    -6.9300    -0.4940 H     1 <1>   0.0800 
 23 H       -9.2760    -4.0440    -0.2240 H     1 <1>   0.0800 
 24 H       -9.4190    -4.8540     1.3230 H     1 <1>   0.0800 
 25 H      -10.7850    -6.6150     0.2340 H     1 <1>   0.0800 
 26 H      -10.6180    -5.8020    -1.3020 H     1 <1>   0.0800 
 27 H       -3.5780    -7.1680     0.8110 H     1 <1>   0.1500 
 28 H       -4.3200    -3.5130    -1.2820 H     1 <1>   0.1500 
 29 H      -11.9180    -4.6000     1.0750 H     1 <1>   0.4500 
 30 H       -1.3120    -6.4050     1.3230 H     1 <1>   0.1500 
 31 H       -2.0500    -2.7650    -0.7620 H     1 <1>   0.1500 
 32 H      -13.1120    -6.5570     0.3260 H     1 <1>   0.0800 
 33 H      -13.2230    -5.8240    -1.2580 H     1 <1>   0.0800 
 34 H      -11.9860    -3.7190    -1.7370 H     1 <1>   0.0800 
 35 H      -11.0190    -2.9740    -0.4860 H     1 <1>   0.0800 
 36 H       -0.5390    -4.2060     0.5390 H     1 <1>   0.1500 
 37 H      -14.3520    -4.7120     1.3210 H     1 <1>   0.0800 
 38 H      -15.2620    -5.3870     0.0090 H     1 <1>   0.0800 
 39 H      -13.1520    -1.7860    -0.8160 H     1 <1>   0.0800 
 40 H      -13.0060    -2.4100     0.7950 H     1 <1>   0.0800 
 41 H      -15.2590    -2.8800    -0.0070 H     1 <1>   0.0800 
 42 H      -14.6410    -3.5780    -1.4760 H     1 <1>   0.0800 
@<TRIPOS>BOND
  1   1   2  2   
  2   1   3  2   
  3   1   4  am  
  4   1   5  1   
  5   4   6  1   
  6   4  20  1   
  7   5   7  1   
  8   5  21  1   
  9   5  22  1   
 10   6   8  1   
 11   6  23  1   
 12   6  24  1   
 13   7   9  ar  
 14   7  10  ar  
 15   8  11  1   
 16   8  25  1   
 17   8  26  1   
 18   9  12  ar  
 19   9  27  1   
 20  10  13  ar  
 21  10  28  1   
 22  11  14  1   
 23  11  15  1   
 24  11  29  1   
 25  12  16  ar  
 26  12  30  1   
 27  13  16  ar  
 28  13  31  1   
 29  14  17  1   
 30  14  32  1   
 31  14  33  1   
 32  15  18  1   
 33  15  34  1   
 34  15  35  1   
 35  16  36  1   
 36  17  19  1   
 37  17  37  1   
 38  17  38  1   
 39  18  19  1   
 40  18  39  1   
 41  18  40  1   
 42  19  41  1   
 43  19  42  1   
@<TRIPOS>SUBSTRUCTURE
  1 ****   4 GROUP 4 **** **** 0

# MOE 2024.06 (io_trps.svl 2023.06)
