@<TRIPOS>MOLECULE
NONAME
43 45 1 0 0 
SMALL
USER_CHARGES


@<TRIPOS>ATOM
  1 CL      -0.3870    -1.3630     2.4130 Cl    1 <1>  -0.1770 
  2 C       -1.4600    -1.5610     1.0390 C.ar  1 <1>   0.1770 
  3 C       -1.0950    -2.3770    -0.0410 C.ar  1 <1>   0.1000 
  4 C       -2.6650    -0.8860     1.0660 C.ar  1 <1>  -0.1500 
  5 N        0.1090    -3.0870    -0.1290 N.pl3 1 <1>  -0.8380 
  6 C       -1.9960    -2.4850    -1.0930 C.ar  1 <1>  -0.1500 
  7 C       -3.5430    -1.0120     0.0030 C.ar  1 <1>  -0.1500 
  8 C        0.2680    -4.2350     0.8140 C.3   1 <1>   0.2090 
  9 C        1.3430    -2.2650    -0.3230 C.3   1 <1>   0.2090 
 10 C       -3.2050    -1.8130    -1.0750 C.ar  1 <1>  -0.1500 
 11 C        1.4840    -5.1030     0.4310 C.3   1 <1>   0.3430 
 12 C        2.5490    -3.1530    -0.6910 C.3   1 <1>   0.3430 
 13 N        2.7460    -4.2920     0.2820 N.4   1 <1>  -0.9590 
 14 C        3.9120    -5.1370    -0.0900 C.3   1 <1>   0.4860 
 15 C        5.1580    -4.2750    -0.0500 C.ar  1 <1>  -0.1430 
 16 C        5.7010    -3.8820     1.1650 C.ar  1 <1>  -0.1500 
 17 C        5.7600    -3.8650    -1.2300 C.ar  1 <1>  -0.1500 
 18 C        6.8240    -3.0740     1.1950 C.ar  1 <1>  -0.1500 
 19 C        6.8830    -3.0580    -1.1940 C.ar  1 <1>  -0.1500 
 20 C        7.4180    -2.6550     0.0170 C.ar  1 <1>  -0.1430 
 21 C        8.6530    -1.7720     0.0550 C.3   1 <1>  -0.0970 
 22 H       -2.9140    -0.2670     1.9100 H     1 <1>   0.1500 
 23 H       -1.7410    -3.1040    -1.9340 H     1 <1>   0.1500 
 24 H       -4.4850    -0.4900     0.0150 H     1 <1>   0.1500 
 25 H       -0.6240    -4.8380     0.7870 H     1 <1>   0.0800 
 26 H        0.3880    -3.8710     1.8190 H     1 <1>   0.0800 
 27 H        1.5640    -1.7150     0.5750 H     1 <1>   0.0800 
 28 H        1.1720    -1.5510    -1.1110 H     1 <1>   0.0800 
 29 H       -3.8880    -1.9110    -1.9020 H     1 <1>   0.1500 
 30 H        1.2600    -5.5940    -0.5020 H     1 <1>   0.0800 
 31 H        1.6200    -5.8630     1.1820 H     1 <1>   0.0800 
 32 H        3.4340    -2.5390    -0.7240 H     1 <1>   0.0800 
 33 H        2.3840    -3.5470    -1.6800 H     1 <1>   0.0800 
 34 H        2.9670    -3.8620     1.1880 H     1 <1>   0.4500 
 35 H        3.7790    -5.5460    -1.0780 H     1 <1>   0.0800 
 36 H        4.0220    -5.9520     0.6070 H     1 <1>   0.0800 
 37 H        5.2690    -4.1960     2.0990 H     1 <1>   0.1500 
 38 H        5.3720    -4.1660    -2.1880 H     1 <1>   0.1500 
 39 H        7.2420    -2.7740     2.1420 H     1 <1>   0.1500 
 40 H        7.3470    -2.7450    -2.1150 H     1 <1>   0.1500 
 41 H        9.5370    -2.3830     0.0920 H     1 <1>   0.0800 
 42 H        8.6360    -1.1350     0.9210 H     1 <1>   0.0800 
 43 H        8.7000    -1.1490    -0.8210 H     1 <1>   0.0800 
@<TRIPOS>BOND
  1   1   2  1   
  2   2   3  ar  
  3   2   4  ar  
  4   3   5  1   
  5   3   6  ar  
  6   4   7  ar  
  7   4  22  1   
  8   5   8  1   
  9   5   9  1   
 10   6  10  ar  
 11   6  23  1   
 12   7  10  ar  
 13   7  24  1   
 14   8  11  1   
 15   8  25  1   
 16   8  26  1   
 17   9  12  1   
 18   9  27  1   
 19   9  28  1   
 20  10  29  1   
 21  11  13  1   
 22  11  30  1   
 23  11  31  1   
 24  12  13  1   
 25  12  32  1   
 26  12  33  1   
 27  13  14  1   
 28  13  34  1   
 29  14  15  1   
 30  14  35  1   
 31  14  36  1   
 32  15  16  ar  
 33  15  17  ar  
 34  16  18  ar  
 35  16  37  1   
 36  17  19  ar  
 37  17  38  1   
 38  18  20  ar  
 39  18  39  1   
 40  19  20  ar  
 41  19  40  1   
 42  20  21  1   
 43  21  41  1   
 44  21  42  1   
 45  21  43  1   
@<TRIPOS>SUBSTRUCTURE
  1 ****  12 GROUP 4 **** **** 0

# MOE 2024.06 (io_trps.svl 2023.06)
