@<TRIPOS>MOLECULE
NONAME
29 29 1 0 0 
SMALL
USER_CHARGES


@<TRIPOS>ATOM
  1 S        0.1970    -0.2220     0.5220 S.o2  1 <1>   1.3330 
  2 O        1.2390    -0.5620     1.4600 O.2   1 <1>  -0.6500 
  3 O        0.2880    -0.6000    -0.8660 O.2   1 <1>  -0.6500 
  4 N        0.0360     1.4980     0.5700 N.am  1 <1>  -0.6930 
  5 C       -1.3550    -0.7690     1.2000 C.3   1 <1>  -0.1350 
  6 C       -1.0050     2.1350    -0.1120 C.ar  1 <1>   0.1990 
  7 C        1.3140     2.2540     0.7500 C.3   1 <1>   0.2570 
  8 C       -2.1130     2.6680     0.5490 C.ar  1 <1>   0.1900 
  9 C       -0.9780     2.2580    -1.4980 C.ar  1 <1>  -0.1500 
 10 C        2.2800     2.1460    -0.4320 C.2   1 <1>   0.6590 
 11 F       -2.1900     2.5640     1.8540 F     1 <1>  -0.1900 
 12 C       -3.1480     3.3020    -0.1100 C.ar  1 <1>  -0.1500 
 13 C       -2.0070     2.8910    -2.1780 C.ar  1 <1>  -0.1500 
 14 O        2.2890     2.9650    -1.3180 O.2   1 <1>  -0.5700 
 15 O        3.1060     1.1070    -0.4300 O.3   1 <1>  -0.4300 
 16 C       -3.0910     3.4130    -1.4890 C.ar  1 <1>  -0.1500 
 17 C        3.9790     0.8410    -1.5060 C.3   1 <1>   0.0400 
 18 H       -1.3690    -1.8390     1.2650 H     1 <1>   0.0800 
 19 H       -2.1660    -0.4510     0.5760 H     1 <1>   0.0800 
 20 H       -1.4920    -0.3620     2.1830 H     1 <1>   0.0800 
 21 H        1.8140     1.9040     1.6350 H     1 <1>   0.0800 
 22 H        1.0840     3.2940     0.8960 H     1 <1>   0.0800 
 23 H       -0.1460     1.8540    -2.0480 H     1 <1>   0.1500 
 24 H       -3.9800     3.6990     0.4440 H     1 <1>   0.1500 
 25 H       -1.9620     2.9760    -3.2510 H     1 <1>   0.1500 
 26 H       -3.8860     3.9040    -2.0260 H     1 <1>   0.1500 
 27 H        4.5410    -0.0460    -1.2750 H     1 <1>   0.0800 
 28 H        4.6410     1.6800    -1.6350 H     1 <1>   0.0800 
 29 H        3.3930     0.6870    -2.3950 H     1 <1>   0.0800 
@<TRIPOS>BOND
  1   1   2  2   
  2   1   3  2   
  3   1   4  am  
  4   1   5  1   
  5   4   6  1   
  6   4   7  1   
  7   5  18  1   
  8   5  19  1   
  9   5  20  1   
 10   6   8  ar  
 11   6   9  ar  
 12   7  10  1   
 13   7  21  1   
 14   7  22  1   
 15   8  11  1   
 16   8  12  ar  
 17   9  13  ar  
 18   9  23  1   
 19  10  14  2   
 20  10  15  1   
 21  12  16  ar  
 22  12  24  1   
 23  13  16  ar  
 24  13  25  1   
 25  15  17  1   
 26  16  26  1   
 27  17  27  1   
 28  17  28  1   
 29  17  29  1   
@<TRIPOS>SUBSTRUCTURE
  1 ****   4 GROUP 4 **** **** 0

# MOE 2024.06 (io_trps.svl 2023.06)
