@<TRIPOS>MOLECULE
NONAME
39 40 1 0 0 
SMALL
USER_CHARGES


@<TRIPOS>ATOM
  1 O        0.2860     0.7070    -0.6150 O.2   1 <1>  -0.5700 
  2 C        0.2510     1.8750    -0.3070 C.2   1 <1>   0.4950 
  3 C        1.4850     2.6150    -0.3380 C.2   1 <1>  -0.1360 
  4 C       -1.1050     2.5230     0.1020 C.3   1 <1>   0.3410 
  5 C        1.7950     3.9090    -0.0680 C.2   1 <1>  -0.1780 
  6 O       -2.1230     1.5230     0.0710 O.3   1 <1>  -0.3570 
  7 C       -1.5160     3.6170    -0.9110 C.3   1 <1>  -0.1600 
  8 C       -1.0640     3.0220     1.5630 C.3   1 <1>  -0.2400 
  9 C        3.0880     4.5430    -0.1300 C.ar  1 <1>   0.0280 
 10 C       -3.4390     1.8430     0.0520 C.2   1 <1>  -0.0620 
 11 C       -2.9130     4.1860    -0.6420 C.3   1 <1>  -0.0220 
 12 C        3.1790     5.9340    -0.0930 C.ar  1 <1>  -0.1500 
 13 C        4.2820     3.8270    -0.2220 C.ar  1 <1>  -0.1500 
 14 C       -3.8790     3.0760    -0.2600 C.2   1 <1>  -0.2760 
 15 C       -4.2650     0.6260     0.4250 C.3   1 <1>  -0.1020 
 16 C        4.3990     6.5820    -0.1500 C.ar  1 <1>  -0.1500 
 17 C        5.5060     4.4690    -0.2810 C.ar  1 <1>  -0.1500 
 18 C       -5.3280     3.5500    -0.2790 C.3   1 <1>  -0.1020 
 19 C        5.5670     5.8490    -0.2450 C.ar  1 <1>  -0.1500 
 20 H        2.2850     1.9690    -0.6480 H     1 <1>   0.1500 
 21 H        1.0240     4.5910     0.2300 H     1 <1>   0.1500 
 22 H       -0.8120     4.4230    -0.9290 H     1 <1>   0.0800 
 23 H       -1.5130     3.1690    -1.8900 H     1 <1>   0.0800 
 24 H       -2.0370     3.3410     1.8880 H     1 <1>   0.0800 
 25 H       -0.7380     2.2210     2.2020 H     1 <1>   0.0800 
 26 H       -0.3900     3.8440     1.6860 H     1 <1>   0.0800 
 27 H       -3.2590     4.6880    -1.5290 H     1 <1>   0.0800 
 28 H       -2.8720     4.9060     0.1560 H     1 <1>   0.0800 
 29 H        2.2820     6.5230    -0.0200 H     1 <1>   0.1500 
 30 H        4.2680     2.7530    -0.2430 H     1 <1>   0.1500 
 31 H       -4.0290    -0.1800    -0.2470 H     1 <1>   0.0800 
 32 H       -5.3190     0.8060     0.3740 H     1 <1>   0.0800 
 33 H       -4.0170     0.3190     1.4240 H     1 <1>   0.0800 
 34 H        4.4430     7.6570    -0.1210 H     1 <1>   0.1500 
 35 H        6.4130     3.8940    -0.3530 H     1 <1>   0.1500 
 36 H       -5.4430     4.3990     0.3710 H     1 <1>   0.0800 
 37 H       -6.0130     2.7940     0.0490 H     1 <1>   0.0800 
 38 H       -5.6050     3.8400    -1.2770 H     1 <1>   0.0800 
 39 H        6.5190     6.3500    -0.2910 H     1 <1>   0.1500 
@<TRIPOS>BOND
  1   1   2  2   
  2   2   3  1   
  3   2   4  1   
  4   3   5  2   
  5   3  20  1   
  6   4   6  1   
  7   4   7  1   
  8   4   8  1   
  9   5   9  1   
 10   5  21  1   
 11   6  10  1   
 12   7  11  1   
 13   7  22  1   
 14   7  23  1   
 15   8  24  1   
 16   8  25  1   
 17   8  26  1   
 18   9  12  ar  
 19   9  13  ar  
 20  10  14  2   
 21  10  15  1   
 22  11  14  1   
 23  11  27  1   
 24  11  28  1   
 25  12  16  ar  
 26  12  29  1   
 27  13  17  ar  
 28  13  30  1   
 29  14  18  1   
 30  15  31  1   
 31  15  32  1   
 32  15  33  1   
 33  16  19  ar  
 34  16  34  1   
 35  17  19  ar  
 36  17  35  1   
 37  18  36  1   
 38  18  37  1   
 39  18  38  1   
 40  19  39  1   
@<TRIPOS>SUBSTRUCTURE
  1 ****   3 GROUP 4 **** **** 0

# MOE 2024.06 (io_trps.svl 2023.06)
