@<TRIPOS>MOLECULE
NONAME
38 40 1 0 0 
SMALL
USER_CHARGES


@<TRIPOS>ATOM
  1 CL      -0.5180    -0.2860    -2.0770 Cl    1 <1>  -0.1770 
  2 C       -1.6490    -1.4010    -1.3520 C.ar  1 <1>   0.1770 
  3 C       -2.9530    -1.0000    -1.1440 C.ar  1 <1>  -0.1500 
  4 C       -1.2170    -2.6660    -1.0000 C.ar  1 <1>  -0.1500 
  5 C       -3.8630    -1.8810    -0.5690 C.ar  1 <1>   0.1170 
  6 C       -2.1160    -3.5490    -0.4260 C.ar  1 <1>  -0.1500 
  7 N       -5.2040    -1.4940    -0.3490 N.am  1 <1>  -0.2370 
  8 C       -3.4270    -3.1560    -0.2150 C.ar  1 <1>  -0.1500 
  9 C       -5.5010    -0.4700     0.5480 C.2   1 <1>   0.5690 
 10 C       -6.2230    -2.1050    -1.0670 C.2   1 <1>   0.5690 
 11 O       -4.6360     0.1390     1.1310 O.2   1 <1>  -0.5700 
 12 C       -6.9900    -0.1210     0.8210 C.3   1 <1>   0.0610 
 13 O       -6.0280    -2.9260    -1.9290 O.2   1 <1>  -0.5700 
 14 C       -7.6690    -1.7350    -0.7360 C.3   1 <1>  -0.0190 
 15 C       -7.7810    -0.2150    -0.5130 C.3   1 <1>   0.0000 
 16 C       -7.5740    -1.2810     1.6600 C.3   1 <1>  -0.1600 
 17 C       -7.1580     1.2290     1.5560 C.3   1 <1>  -0.2400 
 18 C       -8.0130    -2.3430     0.6380 C.3   1 <1>  -0.1600 
 19 C       -9.2700     0.2000    -0.3950 C.3   1 <1>  -0.2400 
 20 C       -7.1980     0.6310    -1.6720 C.3   1 <1>  -0.2400 
 21 H       -3.2560    -0.0080    -1.4220 H     1 <1>   0.1500 
 22 H       -0.1940    -2.9500    -1.1730 H     1 <1>   0.1500 
 23 H       -1.7970    -4.5390    -0.1480 H     1 <1>   0.1500 
 24 H       -4.1230    -3.8470     0.2250 H     1 <1>   0.1500 
 25 H       -8.3250    -2.0900    -1.5110 H     1 <1>   0.0800 
 26 H       -8.4280    -0.9530     2.2270 H     1 <1>   0.0800 
 27 H       -6.8450    -1.6710     2.3520 H     1 <1>   0.0800 
 28 H       -6.6090     1.2150     2.4820 H     1 <1>   0.0800 
 29 H       -8.1870     1.4310     1.7870 H     1 <1>   0.0800 
 30 H       -6.7730     2.0320     0.9530 H     1 <1>   0.0800 
 31 H       -7.5090    -3.2830     0.7950 H     1 <1>   0.0800 
 32 H       -9.0730    -2.5120     0.7150 H     1 <1>   0.0800 
 33 H       -9.7980    -0.0560    -1.2970 H     1 <1>   0.0800 
 34 H       -9.3580     1.2640    -0.2590 H     1 <1>   0.0800 
 35 H       -9.7760    -0.2750     0.4250 H     1 <1>   0.0800 
 36 H       -6.1580     0.4490    -1.8650 H     1 <1>   0.0800 
 37 H       -7.3040     1.6790    -1.4550 H     1 <1>   0.0800 
 38 H       -7.7350     0.4270    -2.5820 H     1 <1>   0.0800 
@<TRIPOS>BOND
  1   1   2  1   
  2   2   3  ar  
  3   2   4  ar  
  4   3   5  ar  
  5   3  21  1   
  6   4   6  ar  
  7   4  22  1   
  8   5   7  1   
  9   5   8  ar  
 10   6   8  ar  
 11   6  23  1   
 12   7   9  am  
 13   7  10  am  
 14   8  24  1   
 15   9  11  2   
 16   9  12  1   
 17  10  13  2   
 18  10  14  1   
 19  12  15  1   
 20  12  16  1   
 21  12  17  1   
 22  14  15  1   
 23  14  18  1   
 24  14  25  1   
 25  15  19  1   
 26  15  20  1   
 27  16  18  1   
 28  16  26  1   
 29  16  27  1   
 30  17  28  1   
 31  17  29  1   
 32  17  30  1   
 33  18  31  1   
 34  18  32  1   
 35  19  33  1   
 36  19  34  1   
 37  19  35  1   
 38  20  36  1   
 39  20  37  1   
 40  20  38  1   
@<TRIPOS>SUBSTRUCTURE
  1 ****   7 GROUP 4 **** **** 0

# MOE 2024.06 (io_trps.svl 2023.06)
