@<TRIPOS>MOLECULE
NONAME
42 44 1 0 0 
SMALL
USER_CHARGES


@<TRIPOS>ATOM
  1 S       -0.3400    -1.0720    -1.2060 S.o2  1 <1>   1.4470 
  2 O       -0.0840     0.3240    -1.4860 O.2   1 <1>  -0.6500 
  3 O       -0.9150    -1.8940    -2.2500 O.2   1 <1>  -0.6500 
  4 N       -1.4510    -1.1230     0.0800 N.am  1 <1>  -0.8490 
  5 C        1.1760    -1.8080    -0.5030 C.ar  1 <1>  -0.0090 
  6 C       -2.6010    -0.2120    -0.1030 C.3   1 <1>   0.1960 
  7 C       -1.8030    -2.5010     0.4760 C.3   1 <1>   0.1960 
  8 C        2.0670    -2.6010    -1.2350 C.ar  1 <1>  -0.1440 
  9 C        1.4930    -1.5490     0.8270 C.ar  1 <1>  -0.1500 
 10 C       -3.8750    -0.9680    -0.4700 C.3   1 <1>  -0.1600 
 11 C       -3.0160    -2.4980     1.4000 C.3   1 <1>  -0.1600 
 12 C        3.1980    -3.1280    -0.6280 C.ar  1 <1>  -0.1500 
 13 C        1.8430    -2.9130    -2.7090 C.3   1 <1>  -0.0970 
 14 C        2.6220    -2.0720     1.4280 C.ar  1 <1>  -0.1500 
 15 C       -4.2310    -1.9620     0.6440 C.3   1 <1>   0.5600 
 16 C        3.4810    -2.8730     0.7010 C.ar  1 <1>  -0.1430 
 17 O       -5.0940    -1.3710     1.5570 O.3   1 <1>  -0.5600 
 18 O       -4.9340    -3.0290     0.1070 O.3   1 <1>  -0.5600 
 19 C        4.7260    -3.4570     1.3460 C.3   1 <1>  -0.0970 
 20 C       -6.4010    -1.6960     1.2370 C.3   1 <1>   0.1200 
 21 C       -6.2810    -2.7300     0.1350 C.3   1 <1>   0.1200 
 22 H       -2.3940     0.5310    -0.8560 H     1 <1>   0.0800 
 23 H       -2.7670     0.3140     0.8230 H     1 <1>   0.0800 
 24 H       -0.9660    -2.9550     0.9780 H     1 <1>   0.0800 
 25 H       -2.0330    -3.0960    -0.3940 H     1 <1>   0.0800 
 26 H        0.8410    -0.9190     1.4090 H     1 <1>   0.1500 
 27 H       -3.7020    -1.4950    -1.3910 H     1 <1>   0.0800 
 28 H       -4.6800    -0.2740    -0.6210 H     1 <1>   0.0800 
 29 H       -2.7990    -1.8710     2.2450 H     1 <1>   0.0800 
 30 H       -3.2170    -3.4920     1.7530 H     1 <1>   0.0800 
 31 H        3.8740    -3.7430    -1.1960 H     1 <1>   0.1500 
 32 H        1.6250    -2.0130    -3.2560 H     1 <1>   0.0800 
 33 H        1.0220    -3.5980    -2.8230 H     1 <1>   0.0800 
 34 H        2.7170    -3.3600    -3.1490 H     1 <1>   0.0800 
 35 H        2.8280    -1.8500     2.4600 H     1 <1>   0.1500 
 36 H        4.9130    -4.4460     0.9670 H     1 <1>   0.0800 
 37 H        4.6080    -3.5190     2.4120 H     1 <1>   0.0800 
 38 H        5.5740    -2.8340     1.1260 H     1 <1>   0.0800 
 39 H       -6.9170    -0.8130     0.9040 H     1 <1>   0.0800 
 40 H       -6.8790    -2.1010     2.1110 H     1 <1>   0.0800 
 41 H       -6.8410    -3.6230     0.3460 H     1 <1>   0.0800 
 42 H       -6.5670    -2.3240    -0.8190 H     1 <1>   0.0800 
@<TRIPOS>BOND
  1   1   2  2   
  2   1   3  2   
  3   1   4  am  
  4   1   5  1   
  5   4   6  1   
  6   4   7  1   
  7   5   8  ar  
  8   5   9  ar  
  9   6  10  1   
 10   6  22  1   
 11   6  23  1   
 12   7  11  1   
 13   7  24  1   
 14   7  25  1   
 15   8  12  ar  
 16   8  13  1   
 17   9  14  ar  
 18   9  26  1   
 19  10  15  1   
 20  10  27  1   
 21  10  28  1   
 22  11  15  1   
 23  11  29  1   
 24  11  30  1   
 25  12  16  ar  
 26  12  31  1   
 27  13  32  1   
 28  13  33  1   
 29  13  34  1   
 30  14  16  ar  
 31  14  35  1   
 32  15  17  1   
 33  15  18  1   
 34  16  19  1   
 35  17  20  1   
 36  18  21  1   
 37  19  36  1   
 38  19  37  1   
 39  19  38  1   
 40  20  21  1   
 41  20  39  1   
 42  20  40  1   
 43  21  41  1   
 44  21  42  1   
@<TRIPOS>SUBSTRUCTURE
  1 ****   4 GROUP 4 **** **** 0

# MOE 2024.06 (io_trps.svl 2023.06)
