@<TRIPOS>MOLECULE
NONAME
41 43 1 0 0 
SMALL
USER_CHARGES


@<TRIPOS>ATOM
  1 S        0.9150     0.3810    -0.4190 S.3   1 <1>  -0.3320 
  2 C        0.5050    -1.3510    -0.4360 C.ar  1 <1>   0.7220 
  3 C        2.3060     0.5020     0.8120 C.3   1 <1>   0.1310 
  4 N       -0.4760    -1.6780    -1.2550 N.ar  1 <1>  -0.6200 
  5 N        1.2170    -2.1210     0.3660 N.ar  1 <1>  -0.6200 
  6 C        2.8080     1.9290     0.9680 C.2   1 <1>   0.5690 
  7 C       -0.7970    -2.9670    -1.2820 C.ar  1 <1>   0.1660 
  8 C        0.8940    -3.3910     0.3340 C.ar  1 <1>   0.1660 
  9 O        3.7160     2.1320     1.7370 O.2   1 <1>  -0.5700 
 10 N        2.2360     2.9310     0.2510 N.am  1 <1>  -0.7300 
 11 C       -0.1110    -3.8630    -0.4780 C.ar  1 <1>  -0.1500 
 12 C       -1.9390    -3.4590    -2.2140 C.3   1 <1>   1.1640 
 13 C        1.6820    -4.3190     1.2360 C.3   1 <1>  -0.0960 
 14 C        2.6190     4.3600     0.3000 C.3   1 <1>   0.2200 
 15 F       -1.6970    -3.2170    -3.4990 F     1 <1>  -0.3400 
 16 F       -2.1470    -4.7710    -2.1290 F     1 <1>  -0.3400 
 17 F       -3.1100    -2.8920    -1.9390 F     1 <1>  -0.3400 
 18 C        1.3650     5.3050     0.7630 C.3   1 <1>  -0.0800 
 19 C        3.0960     4.8650    -1.2170 C.3   1 <1>  -0.1600 
 20 C        1.8120     5.7800    -0.4070 C.3   1 <1>  -0.1600 
 21 C        0.5360     6.6710     0.4090 C.3   1 <1>  -0.1600 
 22 C        2.2600     6.2230    -1.5850 C.3   1 <1>  -0.0800 
 23 C        1.0210     7.1800    -1.1110 C.3   1 <1>  -0.1600 
 24 H        3.1000    -0.1310     0.4620 H     1 <1>   0.0800 
 25 H        1.9350     0.1370     1.7520 H     1 <1>   0.0800 
 26 H        1.4760     2.6970    -0.3920 H     1 <1>   0.3700 
 27 H       -0.3480    -4.9120    -0.4780 H     1 <1>   0.1500 
 28 H        1.5660    -4.0110     2.2590 H     1 <1>   0.0800 
 29 H        2.7240    -4.2730     0.9790 H     1 <1>   0.0800 
 30 H        1.3450    -5.3350     1.1390 H     1 <1>   0.0800 
 31 H        3.4370     4.4860     0.9940 H     1 <1>   0.0800 
 32 H        0.5550     4.5900     0.8180 H     1 <1>   0.0800 
 33 H        2.9010     4.0990    -1.9520 H     1 <1>   0.0800 
 34 H        4.1570     5.0580    -1.2190 H     1 <1>   0.0800 
 35 H        1.0330     5.0950    -0.9660 H     1 <1>   0.0800 
 36 H        2.6030     6.4520     0.1500 H     1 <1>   0.0800 
 37 H        0.7470     7.4340     1.1430 H     1 <1>   0.0800 
 38 H       -0.5280     6.4920     0.4240 H     1 <1>   0.0800 
 39 H        3.0620     6.9470    -1.6490 H     1 <1>   0.0800 
 40 H        1.3190     8.2170    -1.0830 H     1 <1>   0.0800 
 41 H        0.2010     7.0980    -1.8100 H     1 <1>   0.0800 
@<TRIPOS>BOND
  1   1   2  1   
  2   1   3  1   
  3   2   4  ar  
  4   2   5  ar  
  5   3   6  1   
  6   3  24  1   
  7   3  25  1   
  8   4   7  ar  
  9   5   8  ar  
 10   6   9  2   
 11   6  10  am  
 12   7  11  ar  
 13   7  12  1   
 14   8  11  ar  
 15   8  13  1   
 16  10  14  1   
 17  10  26  1   
 18  11  27  1   
 19  12  15  1   
 20  12  16  1   
 21  12  17  1   
 22  13  28  1   
 23  13  29  1   
 24  13  30  1   
 25  14  18  1   
 26  14  19  1   
 27  14  31  1   
 28  18  20  1   
 29  18  21  1   
 30  18  32  1   
 31  19  22  1   
 32  19  33  1   
 33  19  34  1   
 34  20  22  1   
 35  20  35  1   
 36  20  36  1   
 37  21  23  1   
 38  21  37  1   
 39  21  38  1   
 40  22  23  1   
 41  22  39  1   
 42  23  40  1   
 43  23  41  1   
@<TRIPOS>SUBSTRUCTURE
  1 ****   1 GROUP 4 **** **** 0

# MOE 2024.06 (io_trps.svl 2023.06)
