@<TRIPOS>MOLECULE
NONAME
52 54 1 0 0 
SMALL
USER_CHARGES


@<TRIPOS>ATOM
  1 F       -1.1560     0.2370    -0.7030 F     1 <1>  -0.1900 
  2 C       -2.1970    -0.5420    -0.5500 C.ar  1 <1>   0.1900 
  3 C       -2.4890    -1.4650    -1.5360 C.ar  1 <1>  -0.1500 
  4 C       -2.9660    -0.4110     0.5910 C.ar  1 <1>  -0.1500 
  5 C       -3.5920    -2.2840    -1.3660 C.ar  1 <1>  -0.1500 
  6 C       -4.0650    -1.2370     0.7460 C.ar  1 <1>  -0.1500 
  7 C       -4.3880    -2.1790    -0.2300 C.ar  1 <1>   0.1000 
  8 N       -5.4870    -3.0170    -0.0940 N.pl3 1 <1>  -0.8380 
  9 C       -5.4120    -4.0250     1.0040 C.3   1 <1>   0.2090 
 10 C       -6.8240    -2.3560    -0.1190 C.3   1 <1>   0.2090 
 11 C       -6.5590    -5.0480     0.8920 C.3   1 <1>   0.1100 
 12 C       -7.9550    -3.3980    -0.2170 C.3   1 <1>   0.1100 
 13 N       -7.8910    -4.4010     0.8720 N.3   1 <1>  -0.8100 
 14 C       -8.9710    -5.4270     0.7960 C.3   1 <1>   0.1710 
 15 C      -10.4140    -4.9030     0.8350 C.2   1 <1>   0.5690 
 16 O      -11.0090    -4.9070     1.8870 O.2   1 <1>  -0.5700 
 17 N      -10.9890    -4.4880    -0.3330 N.am  1 <1>  -0.7300 
 18 C      -12.3390    -3.9140    -0.5250 C.3   1 <1>   0.2200 
 19 C      -12.4900    -2.6400     0.3220 C.3   1 <1>  -0.1600 
 20 C      -13.3950    -4.9990    -0.2750 C.3   1 <1>  -0.1600 
 21 C      -13.6590    -1.7590    -0.1490 C.3   1 <1>  -0.1600 
 22 C      -14.8490    -4.5360    -0.4660 C.3   1 <1>  -0.1600 
 23 C      -15.0250    -2.1190     0.4550 C.3   1 <1>  -0.1600 
 24 C      -15.3200    -3.6120     0.6670 C.3   1 <1>  -0.1600 
 25 H       -1.8690    -1.5390    -2.4100 H     1 <1>   0.1500 
 26 H       -2.7060     0.3200     1.3350 H     1 <1>   0.1500 
 27 H       -3.8520    -3.0150    -2.1100 H     1 <1>   0.1500 
 28 H       -4.6800    -1.1580     1.6230 H     1 <1>   0.1500 
 29 H       -5.4740    -3.5290     1.9570 H     1 <1>   0.0800 
 30 H       -4.4680    -4.5370     0.9500 H     1 <1>   0.0800 
 31 H       -6.8740    -1.6910    -0.9630 H     1 <1>   0.0800 
 32 H       -6.9590    -1.7760     0.7760 H     1 <1>   0.0800 
 33 H       -6.5030    -5.7180     1.7320 H     1 <1>   0.0800 
 34 H       -6.4180    -5.6220    -0.0070 H     1 <1>   0.0800 
 35 H       -7.8880    -3.8890    -1.1730 H     1 <1>   0.0800 
 36 H       -8.8920    -2.8720    -0.1670 H     1 <1>   0.0800 
 37 H       -8.8610    -6.0960     1.6310 H     1 <1>   0.0800 
 38 H       -8.8480    -6.0070    -0.1000 H     1 <1>   0.0800 
 39 H      -10.4280    -4.5250    -1.1820 H     1 <1>   0.3700 
 40 H      -12.4120    -3.6260    -1.5600 H     1 <1>   0.0800 
 41 H      -11.5870    -2.0650     0.2190 H     1 <1>   0.0800 
 42 H      -12.6030    -2.8860     1.3630 H     1 <1>   0.0800 
 43 H      -13.2830    -5.3880     0.7220 H     1 <1>   0.0800 
 44 H      -13.2090    -5.8060    -0.9600 H     1 <1>   0.0800 
 45 H      -13.7240    -1.7930    -1.2230 H     1 <1>   0.0800 
 46 H      -13.4450    -0.7370     0.1140 H     1 <1>   0.0800 
 47 H      -15.4710    -5.4140    -0.4520 H     1 <1>   0.0800 
 48 H      -14.9830    -4.0640    -1.4240 H     1 <1>   0.0800 
 49 H      -15.7890    -1.7020    -0.1790 H     1 <1>   0.0800 
 50 H      -15.1160    -1.6310     1.4110 H     1 <1>   0.0800 
 51 H      -14.8800    -3.9340     1.5960 H     1 <1>   0.0800 
 52 H      -16.3850    -3.7220     0.7800 H     1 <1>   0.0800 
@<TRIPOS>BOND
  1   1   2  1   
  2   2   3  ar  
  3   2   4  ar  
  4   3   5  ar  
  5   3  25  1   
  6   4   6  ar  
  7   4  26  1   
  8   5   7  ar  
  9   5  27  1   
 10   6   7  ar  
 11   6  28  1   
 12   7   8  1   
 13   8   9  1   
 14   8  10  1   
 15   9  11  1   
 16   9  29  1   
 17   9  30  1   
 18  10  12  1   
 19  10  31  1   
 20  10  32  1   
 21  11  13  1   
 22  11  33  1   
 23  11  34  1   
 24  12  13  1   
 25  12  35  1   
 26  12  36  1   
 27  13  14  1   
 28  14  15  1   
 29  14  37  1   
 30  14  38  1   
 31  15  16  2   
 32  15  17  am  
 33  17  18  1   
 34  17  39  1   
 35  18  19  1   
 36  18  20  1   
 37  18  40  1   
 38  19  21  1   
 39  19  41  1   
 40  19  42  1   
 41  20  22  1   
 42  20  43  1   
 43  20  44  1   
 44  21  23  1   
 45  21  45  1   
 46  21  46  1   
 47  22  24  1   
 48  22  47  1   
 49  22  48  1   
 50  23  24  1   
 51  23  49  1   
 52  23  50  1   
 53  24  51  1   
 54  24  52  1   
@<TRIPOS>SUBSTRUCTURE
  1 ****  12 GROUP 4 **** **** 0

# MOE 2024.06 (io_trps.svl 2023.06)
