@<TRIPOS>MOLECULE
NONAME
35 35 1 0 0 
SMALL
USER_CHARGES


@<TRIPOS>ATOM
  1 O       -7.4180    -0.5320    -0.4940 O.3   1 <1>  -0.3630 
  2 C       -6.8740    -1.6520     0.0350 C.ar  1 <1>   0.0820 
  3 C       -7.3060     0.6330     0.2820 C.3   1 <1>   0.1200 
  4 C       -7.6930    -2.5540     0.7120 C.ar  1 <1>  -0.1440 
  5 C       -5.5090    -1.8990    -0.1130 C.ar  1 <1>  -0.1440 
  6 C       -8.0760     1.7360    -0.4460 C.3   1 <1>   0.3430 
  7 C       -7.1250    -3.6880     1.2720 C.ar  1 <1>  -0.1500 
  8 C       -9.1970    -2.3420     0.8410 C.3   1 <1>   0.1220 
  9 C       -4.9650    -3.0340     0.4640 C.ar  1 <1>  -0.1500 
 10 C       -4.5910    -0.9770    -0.9040 C.3   1 <1>  -0.0970 
 11 N       -8.0320     3.0320     0.2990 N.4   1 <1>  -0.9060 
 12 C       -5.7670    -3.9230     1.1560 C.ar  1 <1>  -0.1500 
 13 C       -9.9110    -2.7960    -0.4200 C.2   1 <1>  -0.2880 
 14 C       -8.7900     4.1070    -0.4100 C.3   1 <1>   0.2630 
 15 C      -10.9170    -3.6750    -0.4650 C.2   1 <1>  -0.3000 
 16 H       -6.2630     0.8770     0.3730 H     1 <1>   0.0800 
 17 H       -7.7290     0.4310     1.2500 H     1 <1>   0.0800 
 18 H       -9.1000     1.4190    -0.5630 H     1 <1>   0.0800 
 19 H       -7.6460     1.8660    -1.4260 H     1 <1>   0.0800 
 20 H       -7.7380    -4.4000     1.7960 H     1 <1>   0.1500 
 21 H       -9.4120    -1.3050     1.0150 H     1 <1>   0.0800 
 22 H       -9.5730    -2.8910     1.6870 H     1 <1>   0.0800 
 23 H       -3.9130    -3.2410     0.3720 H     1 <1>   0.1500 
 24 H       -4.2020    -0.2050    -0.2660 H     1 <1>   0.0800 
 25 H       -5.1200    -0.5290    -1.7260 H     1 <1>   0.0800 
 26 H       -3.7650    -1.5320    -1.3100 H     1 <1>   0.0800 
 27 H       -7.0530     3.3290     0.4220 H     1 <1>   0.4500 
 28 H       -8.4240     2.9040     1.2430 H     1 <1>   0.4500 
 29 H       -5.3360    -4.8050     1.5980 H     1 <1>   0.1500 
 30 H       -9.5110    -2.3310    -1.3060 H     1 <1>   0.1500 
 31 H       -8.3730     4.2770    -1.3910 H     1 <1>   0.0800 
 32 H       -8.7420     5.0300     0.1460 H     1 <1>   0.0800 
 33 H       -9.8250     3.8270    -0.5200 H     1 <1>   0.0800 
 34 H      -11.4010    -3.9840    -1.3750 H     1 <1>   0.1500 
 35 H      -11.3390    -4.1650     0.3960 H     1 <1>   0.1500 
@<TRIPOS>BOND
  1   1   2  1   
  2   1   3  1   
  3   2   4  ar  
  4   2   5  ar  
  5   3   6  1   
  6   3  16  1   
  7   3  17  1   
  8   4   7  ar  
  9   4   8  1   
 10   5   9  ar  
 11   5  10  1   
 12   6  11  1   
 13   6  18  1   
 14   6  19  1   
 15   7  12  ar  
 16   7  20  1   
 17   8  13  1   
 18   8  21  1   
 19   8  22  1   
 20   9  12  ar  
 21   9  23  1   
 22  10  24  1   
 23  10  25  1   
 24  10  26  1   
 25  11  14  1   
 26  11  27  1   
 27  11  28  1   
 28  12  29  1   
 29  13  15  2   
 30  13  30  1   
 31  14  31  1   
 32  14  32  1   
 33  14  33  1   
 34  15  34  1   
 35  15  35  1   
@<TRIPOS>SUBSTRUCTURE
  1 ****   2 GROUP 4 **** **** 0

# MOE 2024.06 (io_trps.svl 2023.06)
