@<TRIPOS>MOLECULE
NONAME
36 37 1 0 0 
SMALL
USER_CHARGES


@<TRIPOS>ATOM
  1 O       -0.4410     1.4750    -2.2180 O.2   1 <1>  -0.5700 
  2 C       -0.1940     2.0320    -1.1790 C.2   1 <1>   0.5690 
  3 N       -1.0450     2.0640    -0.1080 N.am  1 <1>  -0.5470 
  4 C        1.1280     2.7610    -1.0410 C.3   1 <1>  -0.0990 
  5 C       -2.3240     1.4970     0.0810 C.ar  1 <1>   0.1170 
  6 C        2.1060     2.0190    -0.1120 C.3   1 <1>  -0.1600 
  7 C       -3.2070     2.0460     1.0210 C.ar  1 <1>   0.0730 
  8 C       -2.7350     0.3780    -0.6400 C.ar  1 <1>  -0.1500 
  9 C        3.4270     2.7790     0.0760 C.3   1 <1>  -0.0800 
 10 C       -2.8240     3.1870     1.7980 C.1   1 <1>   0.4840 
 11 C       -4.4620     1.4770     1.2030 C.ar  1 <1>  -0.1500 
 12 C       -3.9860    -0.1790    -0.4510 C.ar  1 <1>  -0.1500 
 13 C        4.2490     2.9330    -1.2030 C.3   1 <1>  -0.1600 
 14 C        4.3830     2.0620     1.0260 C.3   1 <1>  -0.1600 
 15 N       -2.4580     4.0840     2.4000 N.1   1 <1>  -0.5570 
 16 C       -4.8540     0.3720     0.4720 C.ar  1 <1>  -0.1500 
 17 C        5.6920     3.1420    -0.7370 C.3   1 <1>  -0.1600 
 18 C        5.7560     2.6560     0.7150 C.3   1 <1>  -0.1600 
 19 H       -0.7090     2.6480     0.6600 H     1 <1>   0.3700 
 20 H        0.9430     3.7520    -0.6660 H     1 <1>   0.0800 
 21 H        1.5610     2.8580    -2.0200 H     1 <1>   0.0800 
 22 H        2.3040     1.0420    -0.5210 H     1 <1>   0.0800 
 23 H        1.6490     1.8810     0.8530 H     1 <1>   0.0800 
 24 H       -2.0750    -0.0730    -1.3590 H     1 <1>   0.1500 
 25 H        3.2290     3.7600     0.4770 H     1 <1>   0.0800 
 26 H       -5.1430     1.9000     1.9220 H     1 <1>   0.1500 
 27 H       -4.2820    -1.0410    -1.0240 H     1 <1>   0.1500 
 28 H        3.9050     3.7540    -1.8080 H     1 <1>   0.0800 
 29 H        4.1960     2.0260    -1.7810 H     1 <1>   0.0800 
 30 H        4.3970     1.0090     0.8030 H     1 <1>   0.0800 
 31 H        4.1090     2.2010     2.0570 H     1 <1>   0.0800 
 32 H       -5.8300    -0.0610     0.6190 H     1 <1>   0.1500 
 33 H        5.9500     4.1860    -0.7820 H     1 <1>   0.0800 
 34 H        6.3740     2.5890    -1.3620 H     1 <1>   0.0800 
 35 H        6.5360     1.9280     0.8570 H     1 <1>   0.0800 
 36 H        5.9410     3.4950     1.3650 H     1 <1>   0.0800 
@<TRIPOS>BOND
  1   1   2  2   
  2   2   3  am  
  3   2   4  1   
  4   3   5  1   
  5   3  19  1   
  6   4   6  1   
  7   4  20  1   
  8   4  21  1   
  9   5   7  ar  
 10   5   8  ar  
 11   6   9  1   
 12   6  22  1   
 13   6  23  1   
 14   7  10  1   
 15   7  11  ar  
 16   8  12  ar  
 17   8  24  1   
 18   9  13  1   
 19   9  14  1   
 20   9  25  1   
 21  10  15  3   
 22  11  16  ar  
 23  11  26  1   
 24  12  16  ar  
 25  12  27  1   
 26  13  17  1   
 27  13  28  1   
 28  13  29  1   
 29  14  18  1   
 30  14  30  1   
 31  14  31  1   
 32  16  32  1   
 33  17  18  1   
 34  17  33  1   
 35  17  34  1   
 36  18  35  1   
 37  18  36  1   
@<TRIPOS>SUBSTRUCTURE
  1 ****   3 GROUP 4 **** **** 0

# MOE 2024.06 (io_trps.svl 2023.06)
