@<TRIPOS>MOLECULE
NONAME
52 54 1 0 0 
SMALL
USER_CHARGES


@<TRIPOS>ATOM
  1 O        0.4560     0.6420    -0.0100 O.2   1 <1>  -0.5700 
  2 C        0.3320     1.8260     0.2450 C.2   1 <1>   0.5440 
  3 N        1.4400     2.5480     0.6460 N.am  1 <1>  -0.6600 
  4 C       -0.9770     2.4380     0.1140 C.ar  1 <1>   0.0860 
  5 C        2.7380     1.8820     0.9480 C.3   1 <1>   0.1400 
  6 C        1.4860     4.0370     0.6720 C.3   1 <1>   0.1400 
  7 C       -1.6050     3.0530     1.1960 C.ar  1 <1>  -0.1500 
  8 C       -1.6530     2.4300    -1.1040 C.ar  1 <1>  -0.1500 
  9 C        3.8090     2.3670    -0.0310 C.3   1 <1>  -0.1600 
 10 C        2.5560     4.5370    -0.3020 C.3   1 <1>  -0.1600 
 11 C       -2.8470     3.6480     1.0640 C.ar  1 <1>  -0.1500 
 12 C       -2.8950     3.0230    -1.2420 C.ar  1 <1>  -0.1500 
 13 C        3.9330     3.9020    -0.0190 C.3   1 <1>  -0.0190 
 14 C       -3.4990     3.6370    -0.1580 C.ar  1 <1>  -0.1440 
 15 C        5.0170     4.3700    -0.9900 C.2   1 <1>   0.5690 
 16 C       -4.8620     4.2900    -0.3080 C.3   1 <1>  -0.0970 
 17 O        4.7250     4.7930    -2.0820 O.2   1 <1>  -0.5700 
 18 N        6.3090     4.2890    -0.5900 N.am  1 <1>  -0.7300 
 19 C        7.4640     4.6020    -1.4440 C.3   1 <1>   0.2840 
 20 C        8.6540     3.8320    -0.9030 C.ar  1 <1>  -0.1440 
 21 C        9.5480     4.4360    -0.0330 C.ar  1 <1>  -0.1500 
 22 C        8.8510     2.5100    -1.2670 C.ar  1 <1>  -0.1500 
 23 C       10.6270     3.7260     0.4650 C.ar  1 <1>  -0.1500 
 24 C        9.9300     1.8000    -0.7690 C.ar  1 <1>  -0.1500 
 25 C       10.8240     2.4050     0.0980 C.ar  1 <1>  -0.1440 
 26 C       12.0080     1.6280     0.6450 C.3   1 <1>  -0.0970 
 27 H        2.6450     0.8110     0.8780 H     1 <1>   0.0800 
 28 H        3.0250     2.1200     1.9570 H     1 <1>   0.0800 
 29 H        1.7160     4.3630     1.6710 H     1 <1>   0.0800 
 30 H        0.5370     4.4600     0.3910 H     1 <1>   0.0800 
 31 H       -1.1090     3.0580     2.1500 H     1 <1>   0.1500 
 32 H       -1.1900     1.9470    -1.9470 H     1 <1>   0.1500 
 33 H        3.5500     2.0310    -1.0210 H     1 <1>   0.0800 
 34 H        4.7510     1.9200     0.2290 H     1 <1>   0.0800 
 35 H        2.6320     5.6070    -0.2310 H     1 <1>   0.0800 
 36 H        2.2460     4.3000    -1.3050 H     1 <1>   0.0800 
 37 H       -3.3060     4.1170     1.9170 H     1 <1>   0.1500 
 38 H       -3.3900     3.0020    -2.1970 H     1 <1>   0.1500 
 39 H        4.2350     4.2070     0.9670 H     1 <1>   0.0800 
 40 H       -4.7430     5.3140    -0.6120 H     1 <1>   0.0800 
 41 H       -5.3980     4.2630     0.6240 H     1 <1>   0.0800 
 42 H       -5.4460     3.7730    -1.0480 H     1 <1>   0.0800 
 43 H        6.5610     3.8790     0.3090 H     1 <1>   0.3700 
 44 H        7.6530     5.6620    -1.4180 H     1 <1>   0.0800 
 45 H        7.2590     4.3150    -2.4610 H     1 <1>   0.0800 
 46 H        9.4080     5.4620     0.2630 H     1 <1>   0.1500 
 47 H        8.1620     2.0270    -1.9390 H     1 <1>   0.1500 
 48 H       11.3130     4.2070     1.1390 H     1 <1>   0.1500 
 49 H       10.0690     0.7740    -1.0610 H     1 <1>   0.1500 
 50 H       12.8480     2.2820     0.7970 H     1 <1>   0.0800 
 51 H       12.3010     0.8550    -0.0410 H     1 <1>   0.0800 
 52 H       11.7440     1.1770     1.5850 H     1 <1>   0.0800 
@<TRIPOS>BOND
  1   1   2  2   
  2   2   3  am  
  3   2   4  1   
  4   3   5  1   
  5   3   6  1   
  6   4   7  ar  
  7   4   8  ar  
  8   5   9  1   
  9   5  27  1   
 10   5  28  1   
 11   6  10  1   
 12   6  29  1   
 13   6  30  1   
 14   7  11  ar  
 15   7  31  1   
 16   8  12  ar  
 17   8  32  1   
 18   9  13  1   
 19   9  33  1   
 20   9  34  1   
 21  10  13  1   
 22  10  35  1   
 23  10  36  1   
 24  11  14  ar  
 25  11  37  1   
 26  12  14  ar  
 27  12  38  1   
 28  13  15  1   
 29  13  39  1   
 30  14  16  1   
 31  15  17  2   
 32  15  18  am  
 33  16  40  1   
 34  16  41  1   
 35  16  42  1   
 36  18  19  1   
 37  18  43  1   
 38  19  20  1   
 39  19  44  1   
 40  19  45  1   
 41  20  21  ar  
 42  20  22  ar  
 43  21  23  ar  
 44  21  46  1   
 45  22  24  ar  
 46  22  47  1   
 47  23  25  ar  
 48  23  48  1   
 49  24  25  ar  
 50  24  49  1   
 51  25  26  1   
 52  26  50  1   
 53  26  51  1   
 54  26  52  1   
@<TRIPOS>SUBSTRUCTURE
  1 ****  13 GROUP 4 **** **** 0

# MOE 2024.06 (io_trps.svl 2023.06)
