@<TRIPOS>MOLECULE
NONAME
48 49 1 0 0 
SMALL
USER_CHARGES


@<TRIPOS>ATOM
  1 F        0.1070    -0.6480    -1.4190 F     1 <1>  -0.1900 
  2 C       -0.5480    -1.6730    -0.9250 C.ar  1 <1>   0.1900 
  3 C        0.1470    -2.7080    -0.2900 C.ar  1 <1>   0.1000 
  4 C       -1.9150    -1.6730    -1.0740 C.ar  1 <1>  -0.1500 
  5 N        1.5280    -2.7650    -0.0980 N.pl3 1 <1>  -0.8380 
  6 C       -0.6290    -3.7640     0.1750 C.ar  1 <1>  -0.1500 
  7 C       -2.6890    -2.7250    -0.5810 C.ar  1 <1>   0.0860 
  8 C        2.3220    -3.7440    -0.9020 C.3   1 <1>   0.2090 
  9 C        2.3040    -1.5390     0.2570 C.3   1 <1>   0.2090 
 10 C       -2.0070    -3.7930     0.0320 C.ar  1 <1>  -0.1430 
 11 C       -4.1200    -2.6460    -0.7370 C.2   1 <1>   0.4230 
 12 C        3.6350    -4.0980    -0.1860 C.3   1 <1>   0.1400 
 13 C        3.6210    -1.9080     0.9630 C.3   1 <1>   0.1400 
 14 C       -2.7420    -5.0300     0.5370 C.3   1 <1>  -0.0960 
 15 O       -4.6500    -2.3760    -1.7840 O.2   1 <1>  -0.5700 
 16 C       -5.0330    -2.8420     0.4560 C.3   1 <1>  -0.1790 
 17 N        4.4310    -2.8630     0.1370 N.am  1 <1>  -0.6600 
 18 C        5.6900    -2.6830    -0.4060 C.2   1 <1>   0.5690 
 19 O        6.1070    -3.5020    -1.1950 O.2   1 <1>  -0.5700 
 20 C        6.6340    -1.4800    -0.0710 C.3   1 <1>   0.0610 
 21 C        8.0250    -1.6760    -0.7230 C.3   1 <1>  -0.2400 
 22 C        6.9080    -1.3540     1.4450 C.3   1 <1>  -0.2400 
 23 C        6.0930    -0.1500    -0.6380 C.3   1 <1>  -0.2400 
 24 H       -2.3960    -0.8530    -1.5770 H     1 <1>   0.1500 
 25 H       -0.1170    -4.5760     0.6590 H     1 <1>   0.1500 
 26 H        2.5480    -3.3170    -1.8640 H     1 <1>   0.0800 
 27 H        1.7460    -4.6390    -1.0600 H     1 <1>   0.0800 
 28 H        1.7110    -0.9150     0.9020 H     1 <1>   0.0800 
 29 H        2.5290    -0.9850    -0.6380 H     1 <1>   0.0800 
 30 H        4.1970    -4.7750    -0.8050 H     1 <1>   0.0800 
 31 H        3.4050    -4.6150     0.7290 H     1 <1>   0.0800 
 32 H        3.3870    -2.3740     1.9050 H     1 <1>   0.0800 
 33 H        4.1530    -1.0080     1.1740 H     1 <1>   0.0800 
 34 H       -2.0640    -5.8580     0.6470 H     1 <1>   0.0800 
 35 H       -3.5060    -5.3270    -0.1590 H     1 <1>   0.0800 
 36 H       -3.1890    -4.8350     1.4950 H     1 <1>   0.0800 
 37 H       -4.4850    -2.7430     1.3750 H     1 <1>   0.0800 
 38 H       -5.4900    -3.8120     0.4080 H     1 <1>   0.0800 
 39 H       -5.8070    -2.0970     0.4370 H     1 <1>   0.0800 
 40 H        8.4760    -2.5890    -0.3740 H     1 <1>   0.0800 
 41 H        8.6870    -0.8610    -0.4920 H     1 <1>   0.0800 
 42 H        7.9330    -1.7420    -1.7930 H     1 <1>   0.0800 
 43 H        7.2980    -2.2830     1.8210 H     1 <1>   0.0800 
 44 H        6.0300    -1.1140     2.0080 H     1 <1>   0.0800 
 45 H        7.6340    -0.5830     1.6350 H     1 <1>   0.0800 
 46 H        5.9420    -0.2440    -1.6990 H     1 <1>   0.0800 
 47 H        6.7950     0.6470    -0.4670 H     1 <1>   0.0800 
 48 H        5.1600     0.1380    -0.1990 H     1 <1>   0.0800 
@<TRIPOS>BOND
  1   1   2  1   
  2   2   3  ar  
  3   2   4  ar  
  4   3   5  1   
  5   3   6  ar  
  6   4   7  ar  
  7   4  24  1   
  8   5   8  1   
  9   5   9  1   
 10   6  10  ar  
 11   6  25  1   
 12   7  10  ar  
 13   7  11  1   
 14   8  12  1   
 15   8  26  1   
 16   8  27  1   
 17   9  13  1   
 18   9  28  1   
 19   9  29  1   
 20  10  14  1   
 21  11  15  2   
 22  11  16  1   
 23  12  17  1   
 24  12  30  1   
 25  12  31  1   
 26  13  17  1   
 27  13  32  1   
 28  13  33  1   
 29  14  34  1   
 30  14  35  1   
 31  14  36  1   
 32  16  37  1   
 33  16  38  1   
 34  16  39  1   
 35  17  18  am  
 36  18  19  2   
 37  18  20  1   
 38  20  21  1   
 39  20  22  1   
 40  20  23  1   
 41  21  40  1   
 42  21  41  1   
 43  21  42  1   
 44  22  43  1   
 45  22  44  1   
 46  22  45  1   
 47  23  46  1   
 48  23  47  1   
 49  23  48  1   
@<TRIPOS>SUBSTRUCTURE
  1 ****   5 GROUP 4 **** **** 0

# MOE 2024.06 (io_trps.svl 2023.06)
