@<TRIPOS>MOLECULE
NONAME
37 38 1 0 0 
SMALL
USER_CHARGES


@<TRIPOS>ATOM
  1 F        6.9350    -0.2620    -0.6430 F     1 <1>  -0.1900 
  2 C        5.8630     0.4440    -0.4210 C.ar  1 <1>   0.1900 
  3 C        5.9950     1.7280     0.0700 C.ar  1 <1>  -0.1500 
  4 C        4.6280    -0.1140    -0.6830 C.ar  1 <1>  -0.1500 
  5 C        4.8500     2.4690     0.3030 C.ar  1 <1>  -0.1500 
  6 C        3.4930     0.6420    -0.4450 C.ar  1 <1>  -0.1500 
  7 C        3.5730     1.9500     0.0530 C.ar  1 <1>   0.0860 
  8 C        2.3880     2.7510     0.3060 C.2   1 <1>   0.6340 
  9 O        2.4250     3.8840     0.7350 O.2   1 <1>  -0.5700 
 10 O        1.1850     2.2170     0.0540 O.3   1 <1>  -0.4300 
 11 C        0.0060     2.9590     0.2920 C.3   1 <1>   0.1200 
 12 C       -1.2020     2.1110    -0.1200 C.3   1 <1>   0.3430 
 13 N       -2.5070     2.7900     0.1710 N.4   1 <1>  -0.9590 
 14 C       -3.6390     1.8320    -0.0060 C.3   1 <1>   0.3430 
 15 C       -2.7070     4.0220    -0.6540 C.3   1 <1>   0.3430 
 16 C       -4.9470     2.4890     0.4360 C.3   1 <1>  -0.1600 
 17 C       -3.9960     4.7270    -0.2270 C.3   1 <1>  -0.1600 
 18 C       -5.2120     3.7960    -0.3220 C.3   1 <1>  -0.1600 
 19 H        6.9730     2.1320     0.2640 H     1 <1>   0.1500 
 20 H        4.5650    -1.1180    -1.0650 H     1 <1>   0.1500 
 21 H        4.9440     3.4720     0.6860 H     1 <1>   0.1500 
 22 H        2.5310     0.2050    -0.6500 H     1 <1>   0.1500 
 23 H        0.0650     3.8630    -0.2900 H     1 <1>   0.0800 
 24 H       -0.0280     3.1960     1.3410 H     1 <1>   0.0800 
 25 H       -1.1580     1.1810     0.4240 H     1 <1>   0.0800 
 26 H       -1.1350     1.8920    -1.1730 H     1 <1>   0.0800 
 27 H       -2.5180     3.0800     1.1590 H     1 <1>   0.4500 
 28 H       -3.4690     0.9430     0.5810 H     1 <1>   0.0800 
 29 H       -3.7150     1.5440    -1.0430 H     1 <1>   0.0800 
 30 H       -2.7710     3.7570    -1.6980 H     1 <1>   0.0800 
 31 H       -1.8770     4.6990    -0.5270 H     1 <1>   0.0800 
 32 H       -4.9130     2.6780     1.4950 H     1 <1>   0.0800 
 33 H       -5.7610     1.8060     0.2600 H     1 <1>   0.0800 
 34 H       -4.1550     5.5830    -0.8600 H     1 <1>   0.0800 
 35 H       -3.8890     5.0900     0.7800 H     1 <1>   0.0800 
 36 H       -6.0810     4.2860     0.0840 H     1 <1>   0.0800 
 37 H       -5.4160     3.5750    -1.3570 H     1 <1>   0.0800 
@<TRIPOS>BOND
  1   1   2  1   
  2   2   3  ar  
  3   2   4  ar  
  4   3   5  ar  
  5   3  19  1   
  6   4   6  ar  
  7   4  20  1   
  8   5   7  ar  
  9   5  21  1   
 10   6   7  ar  
 11   6  22  1   
 12   7   8  1   
 13   8   9  2   
 14   8  10  1   
 15  10  11  1   
 16  11  12  1   
 17  11  23  1   
 18  11  24  1   
 19  12  13  1   
 20  12  25  1   
 21  12  26  1   
 22  13  14  1   
 23  13  15  1   
 24  13  27  1   
 25  14  16  1   
 26  14  28  1   
 27  14  29  1   
 28  15  17  1   
 29  15  30  1   
 30  15  31  1   
 31  16  18  1   
 32  16  32  1   
 33  16  33  1   
 34  17  18  1   
 35  17  34  1   
 36  17  35  1   
 37  18  36  1   
 38  18  37  1   
@<TRIPOS>SUBSTRUCTURE
  1 ****  10 GROUP 4 **** **** 0

# MOE 2024.06 (io_trps.svl 2023.06)
