@<TRIPOS>MOLECULE
NONAME
39 41 1 0 0 
SMALL
USER_CHARGES


@<TRIPOS>ATOM
  1 O       -4.3240     2.4380     1.6660 O.3   1 <1>  -0.6800 
  2 C       -3.2700     1.6040     1.3270 C.3   1 <1>   0.2000 
  3 C       -2.2540     2.3600     0.4690 C.3   1 <1>  -0.0800 
  4 C       -3.7560     0.5370     0.3440 C.3   1 <1>  -0.0800 
  5 C       -1.0120     1.4350     0.4390 C.3   1 <1>   0.4230 
  6 C       -3.0000     2.5090    -0.8840 C.3   1 <1>  -0.1600 
  7 C       -2.6350    -0.5130     0.1600 C.3   1 <1>  -0.1600 
  8 C       -3.9760     1.3230    -0.9580 C.3   1 <1>  -0.1600 
  9 N        0.2400     2.1210    -0.0220 N.4   1 <1>  -0.9590 
 10 C       -1.3010     0.1150    -0.3090 C.3   1 <1>  -0.1600 
 11 C        0.2870     2.4820    -1.4730 C.3   1 <1>   0.3430 
 12 C        1.4410     1.3260     0.3790 C.3   1 <1>   0.3430 
 13 C        1.5510     3.2900    -1.7760 C.3   1 <1>  -0.1600 
 14 C        2.7160     2.1300     0.1240 C.3   1 <1>  -0.1600 
 15 C        2.8250     2.5570    -1.3430 C.3   1 <1>  -0.1600 
 16 H       -4.0710     3.0830     2.3530 H     1 <1>   0.4000 
 17 H       -2.8660     1.1830     2.2330 H     1 <1>   0.0800 
 18 H       -2.0080     3.3070     0.9160 H     1 <1>   0.0800 
 19 H       -4.6600     0.0630     0.6880 H     1 <1>   0.0800 
 20 H       -0.8420     1.1590     1.4670 H     1 <1>   0.0800 
 21 H       -2.3700     2.5250    -1.7490 H     1 <1>   0.0800 
 22 H       -3.5730     3.4220    -0.8720 H     1 <1>   0.0800 
 23 H       -2.4820    -1.0160     1.1000 H     1 <1>   0.0800 
 24 H       -2.9530    -1.2600    -0.5490 H     1 <1>   0.0800 
 25 H       -4.9870     1.6970    -0.9800 H     1 <1>   0.0800 
 26 H       -3.8220     0.7150    -1.8330 H     1 <1>   0.0800 
 27 H        0.2980     3.0090     0.4900 H     1 <1>   0.4500 
 28 H       -0.5130    -0.5960    -0.1430 H     1 <1>   0.0800 
 29 H       -1.3690     0.2940    -1.3670 H     1 <1>   0.0800 
 30 H       -0.5620     3.0860    -1.7340 H     1 <1>   0.0800 
 31 H        0.2750     1.5880    -2.0750 H     1 <1>   0.0800 
 32 H        1.4780     0.4110    -0.1900 H     1 <1>   0.0800 
 33 H        1.3840     1.0720     1.4250 H     1 <1>   0.0800 
 34 H        1.4910     4.2430    -1.2800 H     1 <1>   0.0800 
 35 H        1.5960     3.4850    -2.8340 H     1 <1>   0.0800 
 36 H        3.5690     1.5250     0.3810 H     1 <1>   0.0800 
 37 H        2.7320     2.9950     0.7640 H     1 <1>   0.0800 
 38 H        3.6810     3.1970    -1.4770 H     1 <1>   0.0800 
 39 H        2.9680     1.6860    -1.9630 H     1 <1>   0.0800 
@<TRIPOS>BOND
  1   1   2  1   
  2   1  16  1   
  3   2   3  1   
  4   2   4  1   
  5   2  17  1   
  6   3   5  1   
  7   3   6  1   
  8   3  18  1   
  9   4   7  1   
 10   4   8  1   
 11   4  19  1   
 12   5   9  1   
 13   5  10  1   
 14   5  20  1   
 15   6   8  1   
 16   6  21  1   
 17   6  22  1   
 18   7  10  1   
 19   7  23  1   
 20   7  24  1   
 21   8  25  1   
 22   8  26  1   
 23   9  11  1   
 24   9  12  1   
 25   9  27  1   
 26  10  28  1   
 27  10  29  1   
 28  11  13  1   
 29  11  30  1   
 30  11  31  1   
 31  12  14  1   
 32  12  32  1   
 33  12  33  1   
 34  13  15  1   
 35  13  34  1   
 36  13  35  1   
 37  14  15  1   
 38  14  36  1   
 39  14  37  1   
 40  15  38  1   
 41  15  39  1   
@<TRIPOS>SUBSTRUCTURE
  1 ****   5 GROUP 4 **** **** 0

# MOE 2024.06 (io_trps.svl 2023.06)
