@<TRIPOS>MOLECULE
NONAME
53 55 1 0 0 
SMALL
USER_CHARGES


@<TRIPOS>ATOM
  1 S       -0.6060     0.1380    -1.5650 S.o2  1 <1>   1.4470 
  2 O       -1.3740     0.4050    -2.7570 O.2   1 <1>  -0.6500 
  3 O        0.1270    -1.1020    -1.4660 O.2   1 <1>  -0.6500 
  4 N        0.5750     1.3790    -1.5600 N.am  1 <1>  -0.7570 
  5 C       -1.6140     0.5260    -0.0950 C.ar  1 <1>  -0.0090 
  6 C        1.5160     1.4900    -0.5550 C.ar  1 <1>   0.1990 
  7 C       -1.4080    -0.0200     1.1760 C.ar  1 <1>  -0.1440 
  8 C       -2.6420     1.4510    -0.2380 C.ar  1 <1>  -0.1500 
  9 C        2.7260     0.8150    -0.6380 C.ar  1 <1>  -0.1500 
 10 C        1.2550     2.2740     0.5610 C.ar  1 <1>  -0.1500 
 11 C       -2.2260     0.3520     2.2320 C.ar  1 <1>  -0.1500 
 12 C       -0.2970    -1.0250     1.4620 C.3   1 <1>  -0.0970 
 13 C       -3.4810     1.8320     0.8040 C.ar  1 <1>   0.0860 
 14 C        3.6640     0.9120     0.3770 C.ar  1 <1>  -0.1430 
 15 C        2.1860     2.3780     1.5770 C.ar  1 <1>  -0.1500 
 16 C       -3.2460     1.2620     2.0500 C.ar  1 <1>  -0.1500 
 17 C       -4.5610     2.7780     0.5870 C.2   1 <1>   0.5440 
 18 C        3.3890     1.6980     1.4850 C.ar  1 <1>  -0.1500 
 19 C        4.9840     0.1680     0.2850 C.3   1 <1>  -0.0970 
 20 O       -4.4200     3.7150    -0.1750 O.2   1 <1>  -0.5700 
 21 N       -5.7980     2.6110     1.1670 N.am  1 <1>  -0.6600 
 22 C       -6.7300     3.7750     1.2310 C.3   1 <1>   0.1400 
 23 C       -6.5030     1.3050     1.0280 C.3   1 <1>   0.1400 
 24 C       -7.5930     3.8130    -0.0430 C.3   1 <1>   0.3430 
 25 C       -7.4030     1.3280    -0.2280 C.3   1 <1>   0.3430 
 26 N       -8.3380     2.5140    -0.2540 N.4   1 <1>  -0.9590 
 27 C       -9.1060     2.5560    -1.5360 C.3   1 <1>   0.2630 
 28 H        0.9330     1.4540    -2.5060 H     1 <1>   0.4200 
 29 H       -2.8020     1.9020    -1.2050 H     1 <1>   0.1500 
 30 H        2.9240     0.2020    -1.4990 H     1 <1>   0.1500 
 31 H        0.3210     2.8010     0.6280 H     1 <1>   0.1500 
 32 H       -2.0670    -0.0670     3.2120 H     1 <1>   0.1500 
 33 H        0.6560    -0.6400     1.1470 H     1 <1>   0.0800 
 34 H       -0.4880    -1.9480     0.9440 H     1 <1>   0.0800 
 35 H       -0.2270    -1.2420     2.5130 H     1 <1>   0.0800 
 36 H        1.9770     2.9880     2.4390 H     1 <1>   0.1500 
 37 H       -3.8640     1.5410     2.8860 H     1 <1>   0.1500 
 38 H        4.1110     1.7840     2.2780 H     1 <1>   0.1500 
 39 H        4.9350    -0.6060    -0.4600 H     1 <1>   0.0800 
 40 H        5.2200    -0.2860     1.2300 H     1 <1>   0.0800 
 41 H        5.7700     0.8530     0.0210 H     1 <1>   0.0800 
 42 H       -6.1660     4.6910     1.3080 H     1 <1>   0.0800 
 43 H       -7.3510     3.6990     2.1050 H     1 <1>   0.0800 
 44 H       -7.0960     1.1200     1.9070 H     1 <1>   0.0800 
 45 H       -5.7910     0.5030     0.9390 H     1 <1>   0.0800 
 46 H       -6.9400     4.0000    -0.8810 H     1 <1>   0.0800 
 47 H       -8.2900     4.6320     0.0240 H     1 <1>   0.0800 
 48 H       -7.9700     0.4120    -0.2730 H     1 <1>   0.0800 
 49 H       -6.7630     1.3600    -1.0950 H     1 <1>   0.0800 
 50 H       -9.0020     2.4080     0.5260 H     1 <1>   0.4500 
 51 H       -8.4330     2.6780    -2.3700 H     1 <1>   0.0800 
 52 H       -9.7990     3.3820    -1.5310 H     1 <1>   0.0800 
 53 H       -9.6620     1.6430    -1.6710 H     1 <1>   0.0800 
@<TRIPOS>BOND
  1   1   2  2   
  2   1   3  2   
  3   1   4  am  
  4   1   5  1   
  5   4   6  1   
  6   4  28  1   
  7   5   7  ar  
  8   5   8  ar  
  9   6   9  ar  
 10   6  10  ar  
 11   7  11  ar  
 12   7  12  1   
 13   8  13  ar  
 14   8  29  1   
 15   9  14  ar  
 16   9  30  1   
 17  10  15  ar  
 18  10  31  1   
 19  11  16  ar  
 20  11  32  1   
 21  12  33  1   
 22  12  34  1   
 23  12  35  1   
 24  13  16  ar  
 25  13  17  1   
 26  14  18  ar  
 27  14  19  1   
 28  15  18  ar  
 29  15  36  1   
 30  16  37  1   
 31  17  20  2   
 32  17  21  am  
 33  18  38  1   
 34  19  39  1   
 35  19  40  1   
 36  19  41  1   
 37  21  22  1   
 38  21  23  1   
 39  22  24  1   
 40  22  42  1   
 41  22  43  1   
 42  23  25  1   
 43  23  44  1   
 44  23  45  1   
 45  24  26  1   
 46  24  46  1   
 47  24  47  1   
 48  25  26  1   
 49  25  48  1   
 50  25  49  1   
 51  26  27  1   
 52  26  50  1   
 53  27  51  1   
 54  27  52  1   
 55  27  53  1   
@<TRIPOS>SUBSTRUCTURE
  1 ****   8 GROUP 4 **** **** 0

# MOE 2024.06 (io_trps.svl 2023.06)
