@<TRIPOS>MOLECULE
NONAME
40 40 1 0 0 
SMALL
USER_CHARGES


@<TRIPOS>ATOM
  1 BR       1.1630    -0.2140    -1.5790 Br    1 <1>  -0.1110 
  2 C        0.3180    -1.6670    -0.6350 C.ar  1 <1>   0.1110 
  3 C        0.8560    -2.1360     0.5550 C.ar  1 <1>   0.0820 
  4 C       -0.8330    -2.2060    -1.1790 C.ar  1 <1>  -0.1500 
  5 O        1.9650    -1.5940     1.1000 O.3   1 <1>  -0.3630 
  6 C        0.2150    -3.1730     1.2120 C.ar  1 <1>  -0.1500 
  7 C       -1.4780    -3.2390    -0.5080 C.ar  1 <1>  -0.1430 
  8 C        3.1980    -2.1060     0.6490 C.3   1 <1>   0.0400 
  9 C       -0.9410    -3.7240     0.6810 C.ar  1 <1>  -0.1500 
 10 C       -2.7630    -3.8220    -1.0610 C.3   1 <1>   0.4870 
 11 N       -3.8990    -3.2790    -0.2490 N.4   1 <1>  -0.9590 
 12 C       -5.1550    -4.0890    -0.4590 C.3   1 <1>   0.3430 
 13 C       -4.0690    -1.8090    -0.5330 C.3   1 <1>   0.2630 
 14 C       -6.3180    -3.7340     0.5140 C.3   1 <1>   0.3430 
 15 N       -7.5850    -4.5320     0.3050 N.4   1 <1>  -0.9590 
 16 C       -8.6900    -3.9820     1.1640 C.3   1 <1>   0.2630 
 17 C       -7.4340    -5.9980     0.6010 C.3   1 <1>   0.2630 
 18 H       -1.1990    -1.8080    -2.1090 H     1 <1>   0.1500 
 19 H        0.6290    -3.5400     2.1360 H     1 <1>   0.1500 
 20 H        3.9860    -1.5860     1.1630 H     1 <1>   0.0800 
 21 H        3.2820    -1.9430    -0.4110 H     1 <1>   0.0800 
 22 H        3.2430    -3.1570     0.8730 H     1 <1>   0.0800 
 23 H       -1.4050    -4.5370     1.2130 H     1 <1>   0.1500 
 24 H       -2.7200    -4.8960    -0.9810 H     1 <1>   0.0800 
 25 H       -2.8750    -3.5590    -2.1010 H     1 <1>   0.0800 
 26 H       -3.5630    -3.3610     0.7250 H     1 <1>   0.4500 
 27 H       -4.9170    -5.1330    -0.3320 H     1 <1>   0.0800 
 28 H       -5.4950    -3.9460    -1.4720 H     1 <1>   0.0800 
 29 H       -4.3380    -1.6500    -1.5650 H     1 <1>   0.0800 
 30 H       -3.1480    -1.2810    -0.3370 H     1 <1>   0.0800 
 31 H       -4.8340    -1.3820     0.0960 H     1 <1>   0.0800 
 32 H       -6.5510    -2.6890     0.3930 H     1 <1>   0.0800 
 33 H       -5.9800    -3.8820     1.5270 H     1 <1>   0.0800 
 34 H       -7.9120    -4.4370    -0.6730 H     1 <1>   0.4500 
 35 H       -8.4360    -4.0670     2.2090 H     1 <1>   0.0800 
 36 H       -9.6050    -4.5260     0.9910 H     1 <1>   0.0800 
 37 H       -8.8680    -2.9430     0.9360 H     1 <1>   0.0800 
 38 H       -7.1270    -6.1490     1.6240 H     1 <1>   0.0800 
 39 H       -6.7050    -6.4500    -0.0520 H     1 <1>   0.0800 
 40 H       -8.3750    -6.5060     0.4540 H     1 <1>   0.0800 
@<TRIPOS>BOND
  1   1   2  1   
  2   2   3  ar  
  3   2   4  ar  
  4   3   5  1   
  5   3   6  ar  
  6   4   7  ar  
  7   4  18  1   
  8   5   8  1   
  9   6   9  ar  
 10   6  19  1   
 11   7   9  ar  
 12   7  10  1   
 13   8  20  1   
 14   8  21  1   
 15   8  22  1   
 16   9  23  1   
 17  10  11  1   
 18  10  24  1   
 19  10  25  1   
 20  11  12  1   
 21  11  13  1   
 22  11  26  1   
 23  12  14  1   
 24  12  27  1   
 25  12  28  1   
 26  13  29  1   
 27  13  30  1   
 28  13  31  1   
 29  14  15  1   
 30  14  32  1   
 31  14  33  1   
 32  15  16  1   
 33  15  17  1   
 34  15  34  1   
 35  16  35  1   
 36  16  36  1   
 37  16  37  1   
 38  17  38  1   
 39  17  39  1   
 40  17  40  1   
@<TRIPOS>SUBSTRUCTURE
  1 ****   7 GROUP 4 **** **** 0

# MOE 2024.06 (io_trps.svl 2023.06)
