@<TRIPOS>MOLECULE
NONAME
29 28 1 0 0 
SMALL
USER_CHARGES


@<TRIPOS>ATOM
  1 F       -0.4300     0.7530    -1.3850 F     1 <1>  -0.3400 
  2 C        0.7420     0.6420    -0.7750 C.3   1 <1>   1.0200 
  3 F        1.5270     0.0020    -1.6310 F     1 <1>  -0.3400 
  4 F        0.5600    -0.2050     0.2320 F     1 <1>  -0.3400 
  5 C        1.3590     1.9780    -0.3350 C.3   1 <1>   0.2200 
  6 N        2.7740     1.8450     0.2510 N.am  1 <1>  -0.7300 
  7 C        0.3680     2.6970     0.5930 C.3   1 <1>   1.0200 
  8 C        3.8450     2.4760    -0.2680 C.2   1 <1>   0.6900 
  9 F        0.8320     3.8770     0.9840 F     1 <1>  -0.3400 
 10 F       -0.8130     2.9470     0.0430 F     1 <1>  -0.3400 
 11 F        0.1240     2.0300     1.7150 F     1 <1>  -0.3400 
 12 O        3.7180     3.1770    -1.2490 O.2   1 <1>  -0.5700 
 13 N        5.0390     2.3030     0.3350 N.am  1 <1>  -0.7300 
 14 C        6.3140     2.9050    -0.1160 C.3   1 <1>   0.1400 
 15 C        7.3950     1.8240    -0.2780 C.3   1 <1>  -0.0800 
 16 C        7.7020     1.0990     1.0430 C.3   1 <1>  -0.2400 
 17 C        8.6820     2.4510    -0.8280 C.3   1 <1>  -0.2400 
 18 H        1.4160     2.5790    -1.2220 H     1 <1>   0.0800 
 19 H        2.8920     1.2800     1.0930 H     1 <1>   0.3700 
 20 H        5.1100     1.6950     1.1460 H     1 <1>   0.3700 
 21 H        6.6310     3.6380     0.6060 H     1 <1>   0.0800 
 22 H        6.1650     3.4080    -1.0570 H     1 <1>   0.0800 
 23 H        7.0440     1.1040    -1.0000 H     1 <1>   0.0800 
 24 H        8.0100     1.8010     1.7970 H     1 <1>   0.0800 
 25 H        8.4940     0.3850     0.8980 H     1 <1>   0.0800 
 26 H        6.8390     0.5650     1.3960 H     1 <1>   0.0800 
 27 H        9.0750     3.1800    -0.1410 H     1 <1>   0.0800 
 28 H        8.4900     2.9350    -1.7700 H     1 <1>   0.0800 
 29 H        9.4290     1.6930    -0.9870 H     1 <1>   0.0800 
@<TRIPOS>BOND
  1   1   2  1   
  2   2   3  1   
  3   2   4  1   
  4   2   5  1   
  5   5   6  1   
  6   5   7  1   
  7   5  18  1   
  8   6   8  am  
  9   6  19  1   
 10   7   9  1   
 11   7  10  1   
 12   7  11  1   
 13   8  12  2   
 14   8  13  am  
 15  13  14  1   
 16  13  20  1   
 17  14  15  1   
 18  14  21  1   
 19  14  22  1   
 20  15  16  1   
 21  15  17  1   
 22  15  23  1   
 23  16  24  1   
 24  16  25  1   
 25  16  26  1   
 26  17  27  1   
 27  17  28  1   
 28  17  29  1   
@<TRIPOS>SUBSTRUCTURE
  1 ****   6 GROUP 4 **** **** 0

# MOE 2024.06 (io_trps.svl 2023.06)
