@<TRIPOS>MOLECULE
NONAME
50 51 1 0 0 
SMALL
USER_CHARGES


@<TRIPOS>ATOM
  1 S        0.2880     0.6840     1.1300 S.o2  1 <1>   1.3330 
  2 O       -0.7880     1.2380     1.9180 O.2   1 <1>  -0.6500 
  3 O        1.6500     1.0980     1.3630 O.2   1 <1>  -0.6500 
  4 N        0.2320    -1.0350     1.3010 N.am  1 <1>  -0.6930 
  5 C       -0.0880     0.8930    -0.5970 C.3   1 <1>  -0.1350 
  6 C        1.3160    -1.8350     0.9930 C.ar  1 <1>   0.1990 
  7 C       -0.9960    -1.6320     1.8640 C.3   1 <1>   0.3390 
  8 C        1.3430    -2.5860    -0.1750 C.ar  1 <1>  -0.1500 
  9 C        2.4100    -1.9070     1.8460 C.ar  1 <1>  -0.1500 
 10 C       -2.0800    -1.7350     0.7990 C.ar  1 <1>  -0.1430 
 11 C        2.4250    -3.3910    -0.4720 C.ar  1 <1>  -0.1500 
 12 C        3.4920    -2.7120     1.5460 C.ar  1 <1>  -0.1500 
 13 C       -3.0300    -0.7340     0.6610 C.ar  1 <1>  -0.1500 
 14 C       -2.1350    -2.8400    -0.0390 C.ar  1 <1>  -0.1500 
 15 C        3.5330    -3.4760     0.3760 C.ar  1 <1>   0.0860 
 16 C       -4.0100    -0.8260    -0.3130 C.ar  1 <1>  -0.1500 
 17 C       -3.1140    -2.9330    -1.0130 C.ar  1 <1>  -0.1500 
 18 C        4.6620    -4.3210     0.0410 C.2   1 <1>   0.5440 
 19 C       -4.0510    -1.9240    -1.1520 C.ar  1 <1>  -0.1500 
 20 O        4.5160    -5.3030    -0.6630 O.2   1 <1>  -0.5700 
 21 N        5.9190    -4.0310     0.4980 N.am  1 <1>  -0.7300 
 22 C        7.1350    -4.8140     0.1970 C.3   1 <1>   0.1400 
 23 C        8.3180    -3.8630     0.0390 C.3   1 <1>  -0.1600 
 24 C        9.5870    -4.6350    -0.3130 C.3   1 <1>   0.1200 
 25 O       10.6270    -3.7190    -0.3940 O.3   1 <1>  -0.5600 
 26 C       11.8520    -4.2830    -0.7330 C.3   1 <1>   0.0400 
 27 H       -0.0950     1.9350    -0.8480 H     1 <1>   0.0800 
 28 H       -1.0490     0.4770    -0.8250 H     1 <1>   0.0800 
 29 H        0.6520     0.4000    -1.1970 H     1 <1>   0.0800 
 30 H       -1.3440    -1.0420     2.6950 H     1 <1>   0.0800 
 31 H       -0.7720    -2.6160     2.2400 H     1 <1>   0.0800 
 32 H        0.5120    -2.5310    -0.8530 H     1 <1>   0.1500 
 33 H        2.4030    -1.3180     2.7470 H     1 <1>   0.1500 
 34 H        2.4270    -3.9700    -1.3800 H     1 <1>   0.1500 
 35 H        4.3160    -2.7520     2.2350 H     1 <1>   0.1500 
 36 H       -3.0150     0.1260     1.3110 H     1 <1>   0.1500 
 37 H       -1.4170    -3.6350     0.0630 H     1 <1>   0.1500 
 38 H       -4.7410    -0.0430    -0.4140 H     1 <1>   0.1500 
 39 H       -3.1500    -3.7910    -1.6620 H     1 <1>   0.1500 
 40 H       -4.8130    -1.9960    -1.9090 H     1 <1>   0.1500 
 41 H        6.0750    -3.1610     1.0080 H     1 <1>   0.3700 
 42 H        6.9890    -5.3770    -0.7110 H     1 <1>   0.0800 
 43 H        7.3160    -5.5060     1.0020 H     1 <1>   0.0800 
 44 H        8.4790    -3.3320     0.9600 H     1 <1>   0.0800 
 45 H        8.1100    -3.1630    -0.7510 H     1 <1>   0.0800 
 46 H        9.4820    -5.1270    -1.2660 H     1 <1>   0.0800 
 47 H        9.8220    -5.3560     0.4520 H     1 <1>   0.0800 
 48 H       12.5840    -3.4950    -0.7680 H     1 <1>   0.0800 
 49 H       11.7750    -4.7470    -1.7010 H     1 <1>   0.0800 
 50 H       12.1320    -5.0040     0.0140 H     1 <1>   0.0800 
@<TRIPOS>BOND
  1   1   2  2   
  2   1   3  2   
  3   1   4  am  
  4   1   5  1   
  5   4   6  1   
  6   4   7  1   
  7   5  27  1   
  8   5  28  1   
  9   5  29  1   
 10   6   8  ar  
 11   6   9  ar  
 12   7  10  1   
 13   7  30  1   
 14   7  31  1   
 15   8  11  ar  
 16   8  32  1   
 17   9  12  ar  
 18   9  33  1   
 19  10  13  ar  
 20  10  14  ar  
 21  11  15  ar  
 22  11  34  1   
 23  12  15  ar  
 24  12  35  1   
 25  13  16  ar  
 26  13  36  1   
 27  14  17  ar  
 28  14  37  1   
 29  15  18  1   
 30  16  19  ar  
 31  16  38  1   
 32  17  19  ar  
 33  17  39  1   
 34  18  20  2   
 35  18  21  am  
 36  19  40  1   
 37  21  22  1   
 38  21  41  1   
 39  22  23  1   
 40  22  42  1   
 41  22  43  1   
 42  23  24  1   
 43  23  44  1   
 44  23  45  1   
 45  24  25  1   
 46  24  46  1   
 47  24  47  1   
 48  25  26  1   
 49  26  48  1   
 50  26  49  1   
 51  26  50  1   
@<TRIPOS>SUBSTRUCTURE
  1 ****   8 GROUP 4 **** **** 0

# MOE 2024.06 (io_trps.svl 2023.06)
