@<TRIPOS>MOLECULE
NONAME
34 35 1 0 0 
SMALL
USER_CHARGES


@<TRIPOS>ATOM
  1 S       -0.9140     0.8470     1.1040 S.3   1 <1>  -0.0800 
  2 C        0.5210     0.6890     0.1650 C.2   1 <1>   0.4340 
  3 C       -1.6470    -0.2170    -0.0530 C.2   1 <1>   0.1980 
  4 S        1.9590     1.5820     0.7160 S.3   1 <1>  -0.2860 
  5 N        0.4140    -0.0670    -0.8530 N.2   1 <1>  -0.3380 
  6 N       -0.8470    -0.5910    -0.9740 N.2   1 <1>  -0.3380 
  7 C       -3.1050    -0.5870     0.1400 C.3   1 <1>   0.1640 
  8 C        3.2240     1.1350    -0.5650 C.3   1 <1>   0.1310 
  9 C       -4.0060     0.6380     0.0560 C.ar  1 <1>  -0.1440 
 10 C        4.5120     1.8940    -0.3200 C.2   1 <1>   0.6590 
 11 C       -4.1430     1.3130    -1.1480 C.ar  1 <1>  -0.1500 
 12 C       -4.6940     1.0940     1.1710 C.ar  1 <1>  -0.1500 
 13 O        5.5100     1.3370     0.0590 O.2   1 <1>  -0.5700 
 14 O        4.4810     3.1990    -0.5650 O.3   1 <1>  -0.4300 
 15 C       -4.9600     2.4260    -1.2350 C.ar  1 <1>  -0.1500 
 16 C       -5.5120     2.2080     1.0860 C.ar  1 <1>  -0.1500 
 17 C        5.6140     4.0190    -0.3690 C.3   1 <1>   0.0400 
 18 C       -5.6490     2.8820    -0.1240 C.ar  1 <1>   0.0830 
 19 O       -6.4290     3.9780    -0.2950 O.3   1 <1>  -0.3630 
 20 C       -7.1690     4.5260     0.7740 C.3   1 <1>   0.0400 
 21 H       -3.2200    -1.0740     1.0900 H     1 <1>   0.0800 
 22 H       -3.3920    -1.2880    -0.6240 H     1 <1>   0.0800 
 23 H        2.8140     1.3870    -1.5250 H     1 <1>   0.0800 
 24 H        3.3880     0.0760    -0.4960 H     1 <1>   0.0800 
 25 H       -3.6130     0.9770    -2.0240 H     1 <1>   0.1500 
 26 H       -4.5990     0.5860     2.1160 H     1 <1>   0.1500 
 27 H       -5.0670     2.9510    -2.1670 H     1 <1>   0.1500 
 28 H       -6.0300     2.5350     1.9670 H     1 <1>   0.1500 
 29 H        5.3540     5.0290    -0.6270 H     1 <1>   0.0800 
 30 H        6.4120     3.6670    -1.0010 H     1 <1>   0.0800 
 31 H        5.9080     3.9630     0.6650 H     1 <1>   0.0800 
 32 H       -7.7040     5.3820     0.4050 H     1 <1>   0.0800 
 33 H       -6.4890     4.8260     1.5510 H     1 <1>   0.0800 
 34 H       -7.8640     3.7870     1.1320 H     1 <1>   0.0800 
@<TRIPOS>BOND
  1   1   2  1   
  2   1   3  1   
  3   2   4  1   
  4   2   5  2   
  5   3   6  2   
  6   3   7  1   
  7   4   8  1   
  8   5   6  1   
  9   7   9  1   
 10   7  21  1   
 11   7  22  1   
 12   8  10  1   
 13   8  23  1   
 14   8  24  1   
 15   9  11  ar  
 16   9  12  ar  
 17  10  13  2   
 18  10  14  1   
 19  11  15  ar  
 20  11  25  1   
 21  12  16  ar  
 22  12  26  1   
 23  14  17  1   
 24  15  18  ar  
 25  15  27  1   
 26  16  18  ar  
 27  16  28  1   
 28  17  29  1   
 29  17  30  1   
 30  17  31  1   
 31  18  19  1   
 32  19  20  1   
 33  20  32  1   
 34  20  33  1   
 35  20  34  1   
@<TRIPOS>SUBSTRUCTURE
  1 ****   1 GROUP 4 **** **** 0

# MOE 2024.06 (io_trps.svl 2023.06)
