@<TRIPOS>MOLECULE
NONAME
42 43 1 0 0 
SMALL
USER_CHARGES


@<TRIPOS>ATOM
  1 CL       0.2570    -1.1230     1.1520 Cl    1 <1>  -0.1770 
  2 C        1.9330    -1.4510     0.7930 C.ar  1 <1>   0.1770 
  3 C        2.6850    -2.1940     1.6830 C.ar  1 <1>  -0.1500 
  4 C        2.4830    -0.9620    -0.3780 C.ar  1 <1>  -0.1500 
  5 C        4.0140    -2.4510     1.3930 C.ar  1 <1>  -0.1500 
  6 C        3.8130    -1.2210    -0.6670 C.ar  1 <1>  -0.1500 
  7 C        4.5840    -1.9690     0.2230 C.ar  1 <1>   0.0830 
  8 O        5.8910    -2.2680     0.0190 O.3   1 <1>  -0.3630 
  9 C        6.5760    -1.8210    -1.1470 C.3   1 <1>   0.1810 
 10 C        8.0310    -2.2760    -1.1560 C.2   1 <1>   0.5690 
 11 O        8.7260    -1.9510    -2.0890 O.2   1 <1>  -0.5700 
 12 N        8.5040    -3.0250    -0.1260 N.am  1 <1>  -0.7300 
 13 C        9.8800    -3.5330     0.0200 C.3   1 <1>   0.2200 
 14 C        9.8060    -5.0630     0.1260 C.3   1 <1>  -0.1600 
 15 C       10.5150    -2.8590     1.2540 C.3   1 <1>  -0.1600 
 16 C       11.0730    -5.7970    -0.3430 C.3   1 <1>  -0.1600 
 17 C       11.8380    -2.1460     0.9370 C.3   1 <1>  -0.1600 
 18 C       12.3500    -5.4720     0.4460 C.3   1 <1>  -0.1600 
 19 C       13.0800    -3.0490     0.9800 C.3   1 <1>  -0.1600 
 20 C       13.0850    -4.2040    -0.0340 C.3   1 <1>  -0.1600 
 21 H        2.2340    -2.5630     2.5870 H     1 <1>   0.1500 
 22 H        1.8730    -0.3870    -1.0520 H     1 <1>   0.1500 
 23 H        4.6160    -3.0270     2.0740 H     1 <1>   0.1500 
 24 H        4.2220    -0.8330    -1.5800 H     1 <1>   0.1500 
 25 H        6.5450    -0.7480    -1.1700 H     1 <1>   0.0800 
 26 H        6.0780    -2.2230    -2.0090 H     1 <1>   0.0800 
 27 H        7.8590    -3.2560     0.6320 H     1 <1>   0.3700 
 28 H       10.4290    -3.2730    -0.8700 H     1 <1>   0.0800 
 29 H        9.0030    -5.4080    -0.5030 H     1 <1>   0.0800 
 30 H        9.5710    -5.3540     1.1340 H     1 <1>   0.0800 
 31 H       10.6710    -3.5660     2.0480 H     1 <1>   0.0800 
 32 H        9.8390    -2.1120     1.6330 H     1 <1>   0.0800 
 33 H       11.2330    -5.6100    -1.3920 H     1 <1>   0.0800 
 34 H       10.8840    -6.8520    -0.2440 H     1 <1>   0.0800 
 35 H       11.9810    -1.3710     1.6710 H     1 <1>   0.0800 
 36 H       11.7710    -1.6560    -0.0200 H     1 <1>   0.0800 
 37 H       13.0250    -6.3000     0.3070 H     1 <1>   0.0800 
 38 H       12.1370    -5.4300     1.5000 H     1 <1>   0.0800 
 39 H       13.2190    -3.4340     1.9760 H     1 <1>   0.0800 
 40 H       13.9310    -2.4250     0.7690 H     1 <1>   0.0800 
 41 H       12.7110    -3.8650    -0.9850 H     1 <1>   0.0800 
 42 H       14.1140    -4.4760    -0.1950 H     1 <1>   0.0800 
@<TRIPOS>BOND
  1   1   2  1   
  2   2   3  ar  
  3   2   4  ar  
  4   3   5  ar  
  5   3  21  1   
  6   4   6  ar  
  7   4  22  1   
  8   5   7  ar  
  9   5  23  1   
 10   6   7  ar  
 11   6  24  1   
 12   7   8  1   
 13   8   9  1   
 14   9  10  1   
 15   9  25  1   
 16   9  26  1   
 17  10  11  2   
 18  10  12  am  
 19  12  13  1   
 20  12  27  1   
 21  13  14  1   
 22  13  15  1   
 23  13  28  1   
 24  14  16  1   
 25  14  29  1   
 26  14  30  1   
 27  15  17  1   
 28  15  31  1   
 29  15  32  1   
 30  16  18  1   
 31  16  33  1   
 32  16  34  1   
 33  17  19  1   
 34  17  35  1   
 35  17  36  1   
 36  18  20  1   
 37  18  37  1   
 38  18  38  1   
 39  19  20  1   
 40  19  39  1   
 41  19  40  1   
 42  20  41  1   
 43  20  42  1   
@<TRIPOS>SUBSTRUCTURE
  1 ****  12 GROUP 4 **** **** 0

# MOE 2024.06 (io_trps.svl 2023.06)
