@<TRIPOS>MOLECULE
NONAME
37 39 1 0 0 
SMALL
USER_CHARGES


@<TRIPOS>ATOM
  1 O       -0.0580     0.5020    -0.7630 O.2   1 <1>  -0.5700 
  2 C        0.4290     1.4840    -0.2540 C.2   1 <1>   0.5690 
  3 N        1.7020     1.4050     0.2070 N.am  1 <1>  -0.7300 
  4 C       -0.3730     2.8050    -0.1500 C.3   1 <1>   0.3500 
  5 C        2.5460     2.4910     0.7380 C.3   1 <1>   0.1400 
  6 N       -1.8100     2.6610    -0.5340 N.pl3 1 <1>  -0.8690 
  7 C        0.2410     3.9050    -1.0300 C.3   1 <1>  -0.1600 
  8 C        2.7170     3.6020    -0.3040 C.3   1 <1>  -0.1600 
  9 C       -2.8600     3.4100    -0.0960 C.2   1 <1>  -0.0500 
 10 C        1.5080     4.5450    -0.4360 C.3   1 <1>  -0.1600 
 11 C       -4.1670     3.2030    -0.4370 C.2   1 <1>  -0.0140 
 12 C       -4.7230     2.2070    -1.3000 C.2   1 <1>   0.6160 
 13 C       -5.3010     3.9650     0.0110 C.ar  1 <1>   0.0280 
 14 O       -4.1630     1.3240    -1.9310 O.2   1 <1>  -0.5700 
 15 N       -6.0710     2.3580    -1.3580 N.am  1 <1>  -0.5470 
 16 C       -6.4430     3.4250    -0.5660 C.ar  1 <1>   0.1170 
 17 C       -5.4230     5.0630     0.8580 C.ar  1 <1>  -0.1500 
 18 C       -7.7010     3.9520    -0.3200 C.ar  1 <1>  -0.1500 
 19 C       -6.6760     5.5950     1.1090 C.ar  1 <1>  -0.1500 
 20 C       -7.8110     5.0430     0.5240 C.ar  1 <1>  -0.1500 
 21 H        2.1510     0.4960     0.0750 H     1 <1>   0.3700 
 22 H       -0.3450     3.1240     0.8760 H     1 <1>   0.0800 
 23 H        2.1140     2.8840     1.6430 H     1 <1>   0.0800 
 24 H        3.5130     2.0820     0.9800 H     1 <1>   0.0800 
 25 H       -1.9740     1.8220    -1.1260 H     1 <1>   0.4000 
 26 H        0.4560     3.4980    -2.0020 H     1 <1>   0.0800 
 27 H       -0.4880     4.6860    -1.1580 H     1 <1>   0.0800 
 28 H        3.5600     4.1990    -0.0030 H     1 <1>   0.0800 
 29 H        2.9630     3.1710    -1.2600 H     1 <1>   0.0800 
 30 H       -2.6190     4.2230     0.5690 H     1 <1>   0.1500 
 31 H        1.7940     5.3620    -1.0780 H     1 <1>   0.0800 
 32 H        1.2770     4.9700     0.5260 H     1 <1>   0.0800 
 33 H       -6.6570     1.7440    -1.9190 H     1 <1>   0.3700 
 34 H       -4.5480     5.4910     1.3110 H     1 <1>   0.1500 
 35 H       -8.5690     3.5150    -0.7790 H     1 <1>   0.1500 
 36 H       -6.7780     6.4450     1.7640 H     1 <1>   0.1500 
 37 H       -8.7790     5.4690     0.7300 H     1 <1>   0.1500 
@<TRIPOS>BOND
  1   1   2  2   
  2   2   3  am  
  3   2   4  1   
  4   3   5  1   
  5   3  21  1   
  6   4   6  1   
  7   4   7  1   
  8   4  22  1   
  9   5   8  1   
 10   5  23  1   
 11   5  24  1   
 12   6   9  1   
 13   6  25  1   
 14   7  10  1   
 15   7  26  1   
 16   7  27  1   
 17   8  10  1   
 18   8  28  1   
 19   8  29  1   
 20   9  11  2   
 21   9  30  1   
 22  10  31  1   
 23  10  32  1   
 24  11  12  1   
 25  11  13  1   
 26  12  14  2   
 27  12  15  am  
 28  13  16  ar  
 29  13  17  ar  
 30  15  16  1   
 31  15  33  1   
 32  16  18  ar  
 33  17  19  ar  
 34  17  34  1   
 35  18  20  ar  
 36  18  35  1   
 37  19  20  ar  
 38  19  36  1   
 39  20  37  1   
@<TRIPOS>SUBSTRUCTURE
  1 ****   9 GROUP 4 **** **** 0

# MOE 2024.06 (io_trps.svl 2023.06)
