@<TRIPOS>MOLECULE
NONAME
51 52 1 0 0 
SMALL
USER_CHARGES


@<TRIPOS>ATOM
  1 S       -0.3670     0.0300     1.6780 S.o2  1 <1>   1.4470 
  2 O        0.8240    -0.5170     2.2900 O.2   1 <1>  -0.6500 
  3 O       -1.2590     0.8180     2.5020 O.2   1 <1>  -0.6500 
  4 N        0.1690     1.0330     0.4090 N.am  1 <1>  -0.8490 
  5 C       -1.3750    -1.2500     0.8550 C.ar  1 <1>  -0.0090 
  6 C        0.3530     2.4210     0.8950 C.3   1 <1>   0.1960 
  7 C        1.3820     0.5230    -0.2790 C.3   1 <1>   0.1960 
  8 C       -1.4510    -2.5760     1.2920 C.ar  1 <1>  -0.1440 
  9 C       -2.1360    -0.8920    -0.2510 C.ar  1 <1>  -0.1500 
 10 C        0.7190     3.4670    -0.1780 C.3   1 <1>   0.1200 
 11 C        1.1960    -0.8560    -0.9320 C.3   1 <1>   0.1200 
 12 C       -2.2370    -3.4880     0.6060 C.ar  1 <1>  -0.1500 
 13 C       -0.6920    -3.0700     2.5170 C.3   1 <1>  -0.0960 
 14 C       -2.9420    -1.7850    -0.9520 C.ar  1 <1>   0.0860 
 15 O        2.0860     3.4730    -0.4500 O.3   1 <1>  -0.6800 
 16 O        2.2960    -1.1440    -1.7290 O.3   1 <1>  -0.6800 
 17 C       -2.9650    -3.1010    -0.5000 C.ar  1 <1>  -0.1500 
 18 C       -3.7080    -1.3320    -2.1000 C.2   1 <1>   0.5440 
 19 O       -3.2310    -0.5430    -2.8870 O.2   1 <1>  -0.5700 
 20 N       -4.9860    -1.7410    -2.3590 N.am  1 <1>  -0.5470 
 21 C       -5.8540    -2.5260    -1.5940 C.ar  1 <1>   0.1170 
 22 C       -6.2840    -2.1550    -0.3160 C.ar  1 <1>  -0.1440 
 23 C       -6.2960    -3.7270    -2.1350 C.ar  1 <1>  -0.1500 
 24 C       -7.1170    -3.0030     0.3960 C.ar  1 <1>  -0.1500 
 25 C       -5.8790    -0.8360     0.3330 C.3   1 <1>  -0.0970 
 26 C       -7.1310    -4.5640    -1.4190 C.ar  1 <1>  -0.1500 
 27 C       -7.5390    -4.2030    -0.1480 C.ar  1 <1>  -0.1500 
 28 H        1.0800     2.4420     1.6900 H     1 <1>   0.0800 
 29 H       -0.5830     2.7530     1.3120 H     1 <1>   0.0800 
 30 H        2.2080     0.4830     0.4130 H     1 <1>   0.0800 
 31 H        1.6390     1.1940    -1.0760 H     1 <1>   0.0800 
 32 H       -2.1080     0.1290    -0.5940 H     1 <1>   0.1500 
 33 H        0.4560     4.4520     0.1670 H     1 <1>   0.0800 
 34 H        0.1860     3.2680    -1.0920 H     1 <1>   0.0800 
 35 H        0.3220    -0.8700    -1.5610 H     1 <1>   0.0800 
 36 H        1.1320    -1.6320    -0.1890 H     1 <1>   0.0800 
 37 H       -2.2900    -4.5130     0.9310 H     1 <1>   0.1500 
 38 H        0.3620    -3.1220     2.3040 H     1 <1>   0.0800 
 39 H       -1.0230    -4.0500     2.8100 H     1 <1>   0.0800 
 40 H       -0.8470    -2.4090     3.3510 H     1 <1>   0.0800 
 41 H        2.6000     3.7690     0.3280 H     1 <1>   0.4000 
 42 H        2.3350    -0.5420    -2.4990 H     1 <1>   0.4000 
 43 H       -3.5630    -3.8310    -1.0180 H     1 <1>   0.1500 
 44 H       -5.3400    -1.3960    -3.2510 H     1 <1>   0.3700 
 45 H       -5.9780    -4.0110    -3.1210 H     1 <1>   0.1500 
 46 H       -7.4460    -2.7320     1.3840 H     1 <1>   0.1500 
 47 H       -4.9630    -0.9610     0.8800 H     1 <1>   0.0800 
 48 H       -6.6400    -0.5040     1.0160 H     1 <1>   0.0800 
 49 H       -5.7450    -0.0670    -0.4070 H     1 <1>   0.0800 
 50 H       -7.4620    -5.4940    -1.8470 H     1 <1>   0.1500 
 51 H       -8.1870    -4.8520     0.4150 H     1 <1>   0.1500 
@<TRIPOS>BOND
  1   1   2  2   
  2   1   3  2   
  3   1   4  am  
  4   1   5  1   
  5   4   6  1   
  6   4   7  1   
  7   5   8  ar  
  8   5   9  ar  
  9   6  10  1   
 10   6  28  1   
 11   6  29  1   
 12   7  11  1   
 13   7  30  1   
 14   7  31  1   
 15   8  12  ar  
 16   8  13  1   
 17   9  14  ar  
 18   9  32  1   
 19  10  15  1   
 20  10  33  1   
 21  10  34  1   
 22  11  16  1   
 23  11  35  1   
 24  11  36  1   
 25  12  17  ar  
 26  12  37  1   
 27  13  38  1   
 28  13  39  1   
 29  13  40  1   
 30  14  17  ar  
 31  14  18  1   
 32  15  41  1   
 33  16  42  1   
 34  17  43  1   
 35  18  19  2   
 36  18  20  am  
 37  20  21  1   
 38  20  44  1   
 39  21  22  ar  
 40  21  23  ar  
 41  22  24  ar  
 42  22  25  1   
 43  23  26  ar  
 44  23  45  1   
 45  24  27  ar  
 46  24  46  1   
 47  25  47  1   
 48  25  48  1   
 49  25  49  1   
 50  26  27  ar  
 51  26  50  1   
 52  27  51  1   
@<TRIPOS>SUBSTRUCTURE
  1 ****   9 GROUP 4 **** **** 0

# MOE 2024.06 (io_trps.svl 2023.06)
