@<TRIPOS>MOLECULE
NONAME
41 43 1 0 0 
SMALL
USER_CHARGES


@<TRIPOS>ATOM
  1 S        0.0560    -0.0570     0.6900 S.3   1 <1>  -0.4600 
  2 C        0.0350     1.2830    -0.5520 C.3   1 <1>   0.4320 
  3 C       -1.5460    -0.9070     0.5530 C.3   1 <1>   0.1310 
  4 C        0.9040     2.4190    -0.0170 C.ar  1 <1>  -0.1440 
  5 C       -1.3430     1.8040    -0.9070 C.2   1 <1>  -0.1240 
  6 C       -2.6110    -0.1140     1.2920 C.2   1 <1>   0.5690 
  7 C        1.9060     2.9560    -0.8190 C.ar  1 <1>  -0.1500 
  8 C        0.6910     2.9400     1.2570 C.ar  1 <1>  -0.1500 
  9 C       -1.4820     2.5390    -2.0820 C.2   1 <1>   0.6160 
 10 C       -2.5720     1.7650    -0.3030 C.2   1 <1>   0.2090 
 11 O       -3.1640    -0.5920     2.2480 O.2   1 <1>  -0.5700 
 12 N       -2.9680     1.1160     0.8500 N.am  1 <1>  -0.5390 
 13 C        2.6950     3.9950    -0.3560 C.ar  1 <1>  -0.1500 
 14 C        1.4740     3.9790     1.7310 C.ar  1 <1>  -0.1500 
 15 O       -0.6510     2.7080    -2.9850 O.2   1 <1>  -0.5700 
 16 N       -2.7500     2.9860    -2.1610 N.am  1 <1>  -0.4100 
 17 N       -3.4670     2.4900    -1.0300 N.pl3 1 <1>  -0.4890 
 18 C        2.4640     4.4870     0.9130 C.ar  1 <1>   0.1900 
 19 C       -4.6240     3.2890    -0.5330 C.3   1 <1>   0.2890 
 20 F        3.2060     5.4660     1.3550 F     1 <1>  -0.1900 
 21 C       -4.1940     4.1910     0.6390 C.3   1 <1>  -0.1600 
 22 C       -5.7910     2.3570    -0.1960 C.3   1 <1>  -0.2400 
 23 C       -5.2690     5.2110     1.0460 C.3   1 <1>  -0.2400 
 24 H        0.4880     0.8560    -1.4300 H     1 <1>   0.0800 
 25 H       -1.4270    -1.8740     1.0040 H     1 <1>   0.0800 
 26 H       -1.7850    -1.0130    -0.4890 H     1 <1>   0.0800 
 27 H        2.0710     2.5730    -1.8130 H     1 <1>   0.1500 
 28 H       -0.0860     2.5370     1.8850 H     1 <1>   0.1500 
 29 H       -3.7720     1.5010     1.3400 H     1 <1>   0.3700 
 30 H        3.4730     4.4190    -0.9660 H     1 <1>   0.1500 
 31 H        1.3230     4.3870     2.7140 H     1 <1>   0.1500 
 32 H       -3.1730     2.9980    -3.0940 H     1 <1>   0.3700 
 33 H       -4.9400     3.9280    -1.3400 H     1 <1>   0.0800 
 34 H       -3.3130     4.7330     0.3420 H     1 <1>   0.0800 
 35 H       -3.9430     3.5950     1.4970 H     1 <1>   0.0800 
 36 H       -5.5940     1.7790     0.6870 H     1 <1>   0.0800 
 37 H       -5.9750     1.6910    -1.0200 H     1 <1>   0.0800 
 38 H       -6.6840     2.9310    -0.0290 H     1 <1>   0.0800 
 39 H       -5.5540     5.8160     0.2040 H     1 <1>   0.0800 
 40 H       -4.8820     5.8590     1.8130 H     1 <1>   0.0800 
 41 H       -6.1420     4.7180     1.4340 H     1 <1>   0.0800 
@<TRIPOS>BOND
  1   1   2  1   
  2   1   3  1   
  3   2   4  1   
  4   2   5  1   
  5   2  24  1   
  6   3   6  1   
  7   3  25  1   
  8   3  26  1   
  9   4   7  ar  
 10   4   8  ar  
 11   5   9  1   
 12   5  10  2   
 13   6  11  2   
 14   6  12  am  
 15   7  13  ar  
 16   7  27  1   
 17   8  14  ar  
 18   8  28  1   
 19   9  15  2   
 20   9  16  am  
 21  10  12  1   
 22  10  17  1   
 23  12  29  1   
 24  13  18  ar  
 25  13  30  1   
 26  14  18  ar  
 27  14  31  1   
 28  16  17  1   
 29  16  32  1   
 30  17  19  1   
 31  18  20  1   
 32  19  21  1   
 33  19  22  1   
 34  19  33  1   
 35  21  23  1   
 36  21  34  1   
 37  21  35  1   
 38  22  36  1   
 39  22  37  1   
 40  22  38  1   
 41  23  39  1   
 42  23  40  1   
 43  23  41  1   
@<TRIPOS>SUBSTRUCTURE
  1 ****   5 GROUP 4 **** **** 0

# MOE 2024.06 (io_trps.svl 2023.06)
