@<TRIPOS>MOLECULE
NONAME
36 39 1 0 0 
SMALL
USER_CHARGES


@<TRIPOS>ATOM
  1 O        0.7630     0.2830    -0.9410 O.2   1 <1>  -0.5700 
  2 C        1.1900     1.3680    -0.6350 C.2   1 <1>   0.6300 
  3 N        2.4600     1.7020    -0.9810 N.am  1 <1>  -0.5470 
  4 C        0.3260     2.3420     0.1630 C.3   1 <1>  -0.1000 
  5 C        3.1930     2.8680    -0.7340 C.ar  1 <1>   0.1170 
  6 C       -1.1390     2.1280     0.3810 C.3   1 <1>  -0.1520 
  7 C       -0.6890     3.2160    -0.5400 C.3   1 <1>  -0.2000 
  8 C        4.4600     2.7860    -0.0930 C.ar  1 <1>   0.0000 
  9 C        2.7020     4.0890    -1.1320 C.ar  1 <1>  -0.1500 
 10 C       -2.0860     2.4500     1.5590 C.3   1 <1>   0.0760 
 11 C       -2.1570     1.0660    -0.1000 C.3   1 <1>   0.0760 
 12 C        5.1940     3.9770     0.1140 C.ar  1 <1>   0.0000 
 13 C        5.0280     1.5740     0.3620 C.ar  1 <1>  -0.1500 
 14 C        3.4240     5.2620    -0.9150 C.ar  1 <1>  -0.1500 
 15 C       -3.2310     1.8820     0.6730 C.3   1 <1>   0.0000 
 16 C        4.6460     5.2040    -0.3060 C.ar  1 <1>  -0.1500 
 17 C        6.4560     3.9060     0.7390 C.ar  1 <1>  -0.1500 
 18 C        6.2540     1.5350     0.9680 C.ar  1 <1>  -0.1500 
 19 C        6.9780     2.7150     1.1570 C.ar  1 <1>  -0.1500 
 20 H        2.9630     0.9280    -1.4120 H     1 <1>   0.3700 
 21 H        0.8690     2.7630     0.9890 H     1 <1>   0.1000 
 22 H       -0.8340     3.0870    -1.5990 H     1 <1>   0.1000 
 23 H       -0.7790     4.2420    -0.2310 H     1 <1>   0.1000 
 24 H        1.7510     4.1550    -1.6290 H     1 <1>   0.1500 
 25 H       -2.1770     3.4970     1.7840 H     1 <1>   0.0000 
 26 H       -1.8880     1.8370     2.4220 H     1 <1>   0.0000 
 27 H       -1.9780     0.1000     0.3390 H     1 <1>   0.0000 
 28 H       -2.3020     1.0390    -1.1650 H     1 <1>   0.0000 
 29 H        4.4810     0.6580     0.2340 H     1 <1>   0.1500 
 30 H        3.0110     6.2030    -1.2360 H     1 <1>   0.1500 
 31 H       -3.6940     2.6380     0.0630 H     1 <1>   0.0000 
 32 H       -3.9350     1.2730     1.2110 H     1 <1>   0.0000 
 33 H        5.2110     6.1030    -0.1380 H     1 <1>   0.1500 
 34 H        7.0070     4.8180     0.8840 H     1 <1>   0.1500 
 35 H        6.6740     0.6040     1.3080 H     1 <1>   0.1500 
 36 H        7.9420     2.6680     1.6340 H     1 <1>   0.1500 
@<TRIPOS>BOND
  1   1   2  2   
  2   2   3  am  
  3   2   4  1   
  4   3   5  1   
  5   3  20  1   
  6   4   6  1   
  7   4   7  1   
  8   4  21  1   
  9   5   8  ar  
 10   5   9  ar  
 11   6   7  1   
 12   6  10  1   
 13   6  11  1   
 14   7  22  1   
 15   7  23  1   
 16   8  12  ar  
 17   8  13  ar  
 18   9  14  ar  
 19   9  24  1   
 20  10  15  1   
 21  10  25  1   
 22  10  26  1   
 23  11  15  1   
 24  11  27  1   
 25  11  28  1   
 26  12  16  ar  
 27  12  17  ar  
 28  13  18  ar  
 29  13  29  1   
 30  14  16  ar  
 31  14  30  1   
 32  15  31  1   
 33  15  32  1   
 34  16  33  1   
 35  17  19  ar  
 36  17  34  1   
 37  18  19  ar  
 38  18  35  1   
 39  19  36  1   
@<TRIPOS>SUBSTRUCTURE
  1 ****   5 GROUP 4 **** **** 0

# MOE 2024.06 (io_trps.svl 2023.06)
