@<TRIPOS>MOLECULE
NONAME
53 55 1 0 0 
SMALL
USER_CHARGES


@<TRIPOS>ATOM
  1 O       -0.5990    -1.7710    -1.2850 O.3   1 <1>  -0.3630 
  2 C       -1.6820    -1.7470    -0.4650 C.ar  1 <1>   0.0830 
  3 C        0.3610    -0.7370    -1.2880 C.3   1 <1>   0.0400 
  4 C       -2.5120    -2.8640    -0.4600 C.ar  1 <1>  -0.1440 
  5 C       -1.9840    -0.6640     0.3560 C.ar  1 <1>  -0.1500 
  6 C       -3.6300    -2.8860     0.3570 C.ar  1 <1>  -0.1500 
  7 C       -2.1910    -4.0640    -1.3420 C.3   1 <1>  -0.0960 
  8 C       -3.1040    -0.6940     1.1670 C.ar  1 <1>  -0.1500 
  9 C       -3.9370    -1.8020     1.1670 C.ar  1 <1>  -0.1440 
 10 C       -5.1790    -1.8310     2.0340 C.3   1 <1>   0.4860 
 11 N       -6.2210    -0.9900     1.3880 N.4   1 <1>  -0.9590 
 12 C       -7.4260    -0.8070     2.2790 C.3   1 <1>   0.3430 
 13 C       -6.6190    -1.5380     0.0340 C.3   1 <1>   0.3430 
 14 C       -8.5370     0.0330     1.6140 C.3   1 <1>   0.2090 
 15 C       -7.7260    -0.7070    -0.6440 C.3   1 <1>   0.2090 
 16 N       -8.8820    -0.5260     0.2790 N.pl3 1 <1>  -0.8380 
 17 C      -10.0690    -0.0650    -0.2900 C.ar  1 <1>   0.1000 
 18 C      -11.2160    -0.8670    -0.3480 C.ar  1 <1>  -0.1430 
 19 C      -10.1170     1.2260    -0.8030 C.ar  1 <1>  -0.1500 
 20 C      -12.3870    -0.3560    -0.9020 C.ar  1 <1>  -0.1430 
 21 C      -11.1930    -2.2940     0.2000 C.3   1 <1>  -0.0970 
 22 C      -11.2750     1.7250    -1.3610 C.ar  1 <1>  -0.1500 
 23 C      -12.4060     0.9350    -1.4080 C.ar  1 <1>  -0.1500 
 24 C      -13.6710    -1.1720    -0.9750 C.3   1 <1>  -0.0970 
 25 H       -0.1100     0.1780    -1.6000 H     1 <1>   0.0800 
 26 H        1.1350    -1.0040    -1.9840 H     1 <1>   0.0800 
 27 H        0.7760    -0.6430    -0.3000 H     1 <1>   0.0800 
 28 H       -1.3560     0.2060     0.3750 H     1 <1>   0.1500 
 29 H       -4.2570    -3.7620     0.3570 H     1 <1>   0.1500 
 30 H       -2.1640    -3.7610    -2.3740 H     1 <1>   0.0800 
 31 H       -2.9210    -4.8440    -1.2310 H     1 <1>   0.0800 
 32 H       -1.2260    -4.4590    -1.0790 H     1 <1>   0.0800 
 33 H       -3.3070     0.1550     1.7970 H     1 <1>   0.1500 
 34 H       -4.9390    -1.4450     3.0110 H     1 <1>   0.0800 
 35 H       -5.5300    -2.8440     2.1420 H     1 <1>   0.0800 
 36 H       -5.7980    -0.0700     1.2160 H     1 <1>   0.4500 
 37 H       -7.1360    -0.3330     3.2020 H     1 <1>   0.0800 
 38 H       -7.8440    -1.7710     2.5200 H     1 <1>   0.0800 
 39 H       -6.9830    -2.5460     0.1470 H     1 <1>   0.0800 
 40 H       -5.7600    -1.5700    -0.6170 H     1 <1>   0.0800 
 41 H       -8.2150     1.0540     1.5090 H     1 <1>   0.0800 
 42 H       -9.4160     0.0250     2.2360 H     1 <1>   0.0800 
 43 H       -8.0610    -1.2130    -1.5340 H     1 <1>   0.0800 
 44 H       -7.3380     0.2530    -0.9360 H     1 <1>   0.0800 
 45 H       -9.2430     1.8470    -0.7650 H     1 <1>   0.1500 
 46 H      -11.7190    -2.9610    -0.4570 H     1 <1>   0.0800 
 47 H      -11.6610    -2.3160     1.1670 H     1 <1>   0.0800 
 48 H      -10.1930    -2.6710     0.2960 H     1 <1>   0.0800 
 49 H      -11.3020     2.7250    -1.7560 H     1 <1>   0.1500 
 50 H      -13.3050     1.3350    -1.8420 H     1 <1>   0.1500 
 51 H      -13.9010    -1.5930    -0.0130 H     1 <1>   0.0800 
 52 H      -13.5610    -1.9660    -1.6910 H     1 <1>   0.0800 
 53 H      -14.5020    -0.5590    -1.2750 H     1 <1>   0.0800 
@<TRIPOS>BOND
  1   1   2  1   
  2   1   3  1   
  3   2   4  ar  
  4   2   5  ar  
  5   3  25  1   
  6   3  26  1   
  7   3  27  1   
  8   4   6  ar  
  9   4   7  1   
 10   5   8  ar  
 11   5  28  1   
 12   6   9  ar  
 13   6  29  1   
 14   7  30  1   
 15   7  31  1   
 16   7  32  1   
 17   8   9  ar  
 18   8  33  1   
 19   9  10  1   
 20  10  11  1   
 21  10  34  1   
 22  10  35  1   
 23  11  12  1   
 24  11  13  1   
 25  11  36  1   
 26  12  14  1   
 27  12  37  1   
 28  12  38  1   
 29  13  15  1   
 30  13  39  1   
 31  13  40  1   
 32  14  16  1   
 33  14  41  1   
 34  14  42  1   
 35  15  16  1   
 36  15  43  1   
 37  15  44  1   
 38  16  17  1   
 39  17  18  ar  
 40  17  19  ar  
 41  18  20  ar  
 42  18  21  1   
 43  19  22  ar  
 44  19  45  1   
 45  20  23  ar  
 46  20  24  1   
 47  21  46  1   
 48  21  47  1   
 49  21  48  1   
 50  22  23  ar  
 51  22  49  1   
 52  23  50  1   
 53  24  51  1   
 54  24  52  1   
 55  24  53  1   
@<TRIPOS>SUBSTRUCTURE
  1 ****  13 GROUP 4 **** **** 0

# MOE 2024.06 (io_trps.svl 2023.06)
