@<TRIPOS>MOLECULE
NONAME
48 50 1 0 0 
SMALL
USER_CHARGES


@<TRIPOS>ATOM
  1 CL       0.2770     0.4190     1.3950 Cl    1 <1>  -0.1770 
  2 C        1.8290     0.9860     0.8310 C.ar  1 <1>   0.1770 
  3 C        2.9410     0.1860     0.9950 C.ar  1 <1>  -0.1500 
  4 C        1.9150     2.2270     0.2280 C.ar  1 <1>  -0.1500 
  5 C        4.1820     0.6220     0.5480 C.ar  1 <1>   0.1000 
  6 C        3.1490     2.6710    -0.2180 C.ar  1 <1>  -0.1500 
  7 N        5.2980    -0.1980     0.7090 N.pl3 1 <1>  -0.8380 
  8 C        4.2690     1.8740    -0.0580 C.ar  1 <1>  -0.1500 
  9 C        5.3450    -1.5030    -0.0160 C.3   1 <1>   0.2090 
 10 C        6.6040     0.3590     1.1770 C.3   1 <1>   0.2090 
 11 C        6.4280    -1.4910    -1.1170 C.3   1 <1>   0.3430 
 12 C        7.6680     0.3200     0.0590 C.3   1 <1>   0.3430 
 13 N        7.7700    -1.0350    -0.6050 N.4   1 <1>  -0.9590 
 14 C        8.8070    -1.0490    -1.6700 C.3   1 <1>   0.4860 
 15 C       10.1490    -0.7730    -1.0250 C.ar  1 <1>  -0.1430 
 16 C       10.7550     0.4650    -1.1670 C.ar  1 <1>  -0.1500 
 17 C       10.7790    -1.7510    -0.2720 C.ar  1 <1>  -0.1500 
 18 C       11.9680     0.7340    -0.5550 C.ar  1 <1>   0.0830 
 19 C       11.9920    -1.4960     0.3450 C.ar  1 <1>   0.0830 
 20 O       12.4700     1.9770    -0.7470 O.3   1 <1>  -0.3630 
 21 C       12.5920    -0.2490     0.2060 C.ar  1 <1>  -0.1500 
 22 O       12.5200    -2.5150     1.0660 O.3   1 <1>  -0.3630 
 23 C       13.7480     2.3390    -0.2690 C.3   1 <1>   0.0400 
 24 C       13.7940    -2.4130     1.6660 C.3   1 <1>   0.0400 
 25 H        2.8440    -0.7680     1.4770 H     1 <1>   0.1500 
 26 H        1.0320     2.8300     0.1130 H     1 <1>   0.1500 
 27 H        3.2310     3.6370    -0.6880 H     1 <1>   0.1500 
 28 H        5.2160     2.2310    -0.4140 H     1 <1>   0.1500 
 29 H        4.3880    -1.7030    -0.4670 H     1 <1>   0.0800 
 30 H        5.5470    -2.2910     0.6880 H     1 <1>   0.0800 
 31 H        6.9470    -0.2160     2.0200 H     1 <1>   0.0800 
 32 H        6.4710     1.3720     1.5140 H     1 <1>   0.0800 
 33 H        6.0980    -0.8280    -1.8990 H     1 <1>   0.0800 
 34 H        6.5100    -2.4810    -1.5350 H     1 <1>   0.0800 
 35 H        8.6210     0.5970     0.4800 H     1 <1>   0.0800 
 36 H        7.4070     1.0610    -0.6770 H     1 <1>   0.0800 
 37 H        8.0830    -1.6910     0.1210 H     1 <1>   0.4500 
 38 H        8.5930    -0.2980    -2.4140 H     1 <1>   0.0800 
 39 H        8.8360    -2.0120    -2.1520 H     1 <1>   0.0800 
 40 H       10.3050     1.2470    -1.7550 H     1 <1>   0.1500 
 41 H       10.3510    -2.7310    -0.1490 H     1 <1>   0.1500 
 42 H       13.5280    -0.0460     0.6840 H     1 <1>   0.1500 
 43 H       13.9470     3.3490    -0.5780 H     1 <1>   0.0800 
 44 H       14.4820     1.6770    -0.6940 H     1 <1>   0.0800 
 45 H       13.7510     2.2790     0.8050 H     1 <1>   0.0800 
 46 H       14.0140    -3.3500     2.1460 H     1 <1>   0.0800 
 47 H       13.7750    -1.6250     2.3980 H     1 <1>   0.0800 
 48 H       14.5260    -2.2150     0.9030 H     1 <1>   0.0800 
@<TRIPOS>BOND
  1   1   2  1   
  2   2   3  ar  
  3   2   4  ar  
  4   3   5  ar  
  5   3  25  1   
  6   4   6  ar  
  7   4  26  1   
  8   5   7  1   
  9   5   8  ar  
 10   6   8  ar  
 11   6  27  1   
 12   7   9  1   
 13   7  10  1   
 14   8  28  1   
 15   9  11  1   
 16   9  29  1   
 17   9  30  1   
 18  10  12  1   
 19  10  31  1   
 20  10  32  1   
 21  11  13  1   
 22  11  33  1   
 23  11  34  1   
 24  12  13  1   
 25  12  35  1   
 26  12  36  1   
 27  13  14  1   
 28  13  37  1   
 29  14  15  1   
 30  14  38  1   
 31  14  39  1   
 32  15  16  ar  
 33  15  17  ar  
 34  16  18  ar  
 35  16  40  1   
 36  17  19  ar  
 37  17  41  1   
 38  18  20  1   
 39  18  21  ar  
 40  19  21  ar  
 41  19  22  1   
 42  20  23  1   
 43  21  42  1   
 44  22  24  1   
 45  23  43  1   
 46  23  44  1   
 47  23  45  1   
 48  24  46  1   
 49  24  47  1   
 50  24  48  1   
@<TRIPOS>SUBSTRUCTURE
  1 ****  12 GROUP 4 **** **** 0

# MOE 2024.06 (io_trps.svl 2023.06)
