@<TRIPOS>MOLECULE
NONAME
44 45 1 0 0 
SMALL
USER_CHARGES


@<TRIPOS>ATOM
  1 O       -0.0750    -0.1830    -1.0080 O.2   1 <1>  -0.5700 
  2 C       -0.0410    -0.8710    -0.0070 C.2   1 <1>   0.6900 
  3 N       -1.1730    -1.3050     0.6150 N.am  1 <1>  -0.5470 
  4 N        1.1450    -1.2460     0.5310 N.am  1 <1>  -0.7300 
  5 C       -2.5250    -1.0110     0.3780 C.ar  1 <1>   0.1170 
  6 C        2.4710    -0.8840    -0.0020 C.3   1 <1>   0.2200 
  7 C       -3.4910    -1.9220     0.7900 C.ar  1 <1>  -0.1500 
  8 C       -2.9460     0.1660    -0.2330 C.ar  1 <1>  -0.1500 
  9 C        3.2260    -2.1960    -0.2470 C.3   1 <1>  -0.1600 
 10 C        3.1360     0.0650     1.0050 C.3   1 <1>  -0.1600 
 11 C       -4.8360    -1.6680     0.5920 C.ar  1 <1>  -0.1500 
 12 C       -4.2900     0.4260    -0.4350 C.ar  1 <1>  -0.1500 
 13 C        4.6000    -2.0460    -0.9180 C.3   1 <1>  -0.1600 
 14 C        4.1900     1.0020     0.3820 C.3   1 <1>  -0.1600 
 15 C       -5.2470    -0.4960    -0.0210 C.ar  1 <1>   0.0830 
 16 C        5.7570    -1.7790     0.0630 C.3   1 <1>  -0.1600 
 17 C        5.6330     0.6990     0.8090 C.3   1 <1>  -0.1600 
 18 O       -6.5860    -0.3240    -0.1780 O.3   1 <1>  -0.3620 
 19 C        6.3490    -0.3650    -0.0340 C.3   1 <1>  -0.1600 
 20 C       -7.0950     0.8200    -0.8280 C.3   1 <1>   0.0400 
 21 H       -1.0080    -2.0370     1.2960 H     1 <1>   0.3700 
 22 H        1.1620    -1.7000     1.4390 H     1 <1>   0.3700 
 23 H        2.3400    -0.3720    -0.9420 H     1 <1>   0.0800 
 24 H       -3.1940    -2.8380     1.2640 H     1 <1>   0.1500 
 25 H       -2.2190     0.8900    -0.5540 H     1 <1>   0.1500 
 26 H        2.6160    -2.7870    -0.9090 H     1 <1>   0.0800 
 27 H        3.3270    -2.7450     0.6720 H     1 <1>   0.0800 
 28 H        3.5500    -0.4940     1.8250 H     1 <1>   0.0800 
 29 H        2.3670     0.7010     1.4100 H     1 <1>   0.0800 
 30 H       -5.5790    -2.3760     0.9100 H     1 <1>   0.1500 
 31 H       -4.5670     1.3450    -0.9140 H     1 <1>   0.1500 
 32 H        4.5570    -1.2970    -1.6910 H     1 <1>   0.0800 
 33 H        4.8120    -2.9790    -1.4120 H     1 <1>   0.0800 
 34 H        3.9660     2.0000     0.7170 H     1 <1>   0.0800 
 35 H        4.1150     1.0200    -0.6920 H     1 <1>   0.0800 
 36 H        6.5480    -2.4670    -0.1860 H     1 <1>   0.0800 
 37 H        5.4750    -1.9960     1.0780 H     1 <1>   0.0800 
 38 H        5.6650     0.4270     1.8500 H     1 <1>   0.0800 
 39 H        6.1990     1.6100     0.7120 H     1 <1>   0.0800 
 40 H        6.3940    -0.0500    -1.0630 H     1 <1>   0.0800 
 41 H        7.3660    -0.4140     0.3170 H     1 <1>   0.0800 
 42 H       -8.1670     0.7400    -0.8540 H     1 <1>   0.0800 
 43 H       -6.7060     0.8540    -1.8300 H     1 <1>   0.0800 
 44 H       -6.8070     1.6940    -0.2710 H     1 <1>   0.0800 
@<TRIPOS>BOND
  1   1   2  2   
  2   2   3  am  
  3   2   4  am  
  4   3   5  1   
  5   3  21  1   
  6   4   6  1   
  7   4  22  1   
  8   5   7  ar  
  9   5   8  ar  
 10   6   9  1   
 11   6  10  1   
 12   6  23  1   
 13   7  11  ar  
 14   7  24  1   
 15   8  12  ar  
 16   8  25  1   
 17   9  13  1   
 18   9  26  1   
 19   9  27  1   
 20  10  14  1   
 21  10  28  1   
 22  10  29  1   
 23  11  15  ar  
 24  11  30  1   
 25  12  15  ar  
 26  12  31  1   
 27  13  16  1   
 28  13  32  1   
 29  13  33  1   
 30  14  17  1   
 31  14  34  1   
 32  14  35  1   
 33  15  18  1   
 34  16  19  1   
 35  16  36  1   
 36  16  37  1   
 37  17  19  1   
 38  17  38  1   
 39  17  39  1   
 40  18  20  1   
 41  19  40  1   
 42  19  41  1   
 43  20  42  1   
 44  20  43  1   
 45  20  44  1   
@<TRIPOS>SUBSTRUCTURE
  1 ****   2 GROUP 4 **** **** 0

# MOE 2024.06 (io_trps.svl 2023.06)
