@<TRIPOS>MOLECULE
ka-07817
34 34 1 0 0 
SMALL
USER_CHARGES


@<TRIPOS>ATOM
  1 O       -0.1590    -0.6270     1.0140 O.3   1 <1>  -0.3630 
  2 C        1.0800    -1.0990     0.7300 C.ar  1 <1>   0.0830 
  3 C       -1.1920    -1.4800     1.4790 C.3   1 <1>   0.1200 
  4 C        1.6000    -2.2710     1.2630 C.ar  1 <1>  -0.1500 
  5 C        1.8360    -0.3710    -0.1710 C.ar  1 <1>  -0.1500 
  6 C       -1.5230    -2.5390     0.4100 C.3   1 <1>   0.3430 
  7 C        2.8450    -2.7170     0.8600 C.ar  1 <1>  -0.1500 
  8 C        3.0810    -0.8240    -0.5670 C.ar  1 <1>  -0.1500 
  9 N       -1.3670    -1.9730    -0.9610 N.4   1 <1>  -0.8530 
 10 C        3.6080    -2.0120    -0.0650 C.ar  1 <1>  -0.1430 
 11 C        4.9950    -2.5570    -0.4780 C.3   1 <1>   0.1440 
 12 C        5.7080    -1.6760    -1.5190 C.3   1 <1>  -0.2400 
 13 C        5.9020    -2.6380     0.7590 C.3   1 <1>  -0.2400 
 14 C        4.8390    -3.9580    -1.0890 C.3   1 <1>  -0.2400 
 15 H       -2.0530    -0.8630     1.6670 H     1 <1>   0.0800 
 16 H       -0.8940    -1.9290     2.4110 H     1 <1>   0.0800 
 17 H        1.0680    -2.8440     1.9990 H     1 <1>   0.1500 
 18 H        1.4570     0.5570    -0.5610 H     1 <1>   0.1500 
 19 H       -2.5250    -2.9110     0.5590 H     1 <1>   0.0800 
 20 H       -0.8440    -3.3670     0.5320 H     1 <1>   0.0800 
 21 H        3.2270    -3.6280     1.2880 H     1 <1>   0.1500 
 22 H        3.6280    -0.2220    -1.2700 H     1 <1>   0.1500 
 23 H       -2.0710    -1.2540    -1.1570 H     1 <1>   0.4500 
 24 H       -1.3910    -2.6900    -1.6930 H     1 <1>   0.4500 
 25 H       -0.4480    -1.5020    -0.9910 H     1 <1>   0.4500 
 26 H        6.6630    -2.0980    -1.7790 H     1 <1>   0.0800 
 27 H        5.8800    -0.6900    -1.1260 H     1 <1>   0.0800 
 28 H        5.1230    -1.6010    -2.4170 H     1 <1>   0.0800 
 29 H        5.9920    -1.6670     1.2130 H     1 <1>   0.0800 
 30 H        6.8840    -2.9810     0.4870 H     1 <1>   0.0800 
 31 H        5.5040    -3.3160     1.4900 H     1 <1>   0.0800 
 32 H        4.1820    -3.9190    -1.9390 H     1 <1>   0.0800 
 33 H        4.4330    -4.6510    -0.3760 H     1 <1>   0.0800 
 34 H        5.7920    -4.3370    -1.4130 H     1 <1>   0.0800 
@<TRIPOS>BOND
  1   1   2  1   
  2   1   3  1   
  3   2   4  ar  
  4   2   5  ar  
  5   3   6  1   
  6   3  15  1   
  7   3  16  1   
  8   4   7  ar  
  9   4  17  1   
 10   5   8  ar  
 11   5  18  1   
 12   6   9  1   
 13   6  19  1   
 14   6  20  1   
 15   7  10  ar  
 16   7  21  1   
 17   8  10  ar  
 18   8  22  1   
 19   9  23  1   
 20   9  24  1   
 21   9  25  1   
 22  10  11  1   
 23  11  12  1   
 24  11  13  1   
 25  11  14  1   
 26  12  26  1   
 27  12  27  1   
 28  12  28  1   
 29  13  29  1   
 30  13  30  1   
 31  13  31  1   
 32  14  32  1   
 33  14  33  1   
 34  14  34  1   
@<TRIPOS>SUBSTRUCTURE
  1 ****   7 GROUP 4 **** **** 0

# MOE 2024.06 (io_trps.svl 2023.06)
