@<TRIPOS>MOLECULE
NONAME
44 46 1 0 0 
SMALL
USER_CHARGES


@<TRIPOS>ATOM
  1 S       -0.0500    -0.4790     0.5930 S.3   1 <1>  -0.3710 
  2 C        0.6420     0.9650     1.3290 C.2   1 <1>   0.6410 
  3 C       -1.5810    -0.2990     1.5690 C.3   1 <1>   0.3520 
  4 N       -0.1190     1.5980     2.1320 N.2   1 <1>  -0.6610 
  5 N        1.8950     1.3440     0.9930 N.pl3 1 <1>  -0.5500 
  6 C       -1.7920    -1.4020     2.5650 C.2   1 <1>   0.6590 
  7 C       -1.3370     1.0030     2.3020 C.2   1 <1>   0.7200 
  8 C       -2.8170    -0.3840     0.6770 C.3   1 <1>  -0.1600 
  9 C        2.8540     0.7290     0.1810 C.ar  1 <1>   0.1000 
 10 O       -0.9750    -1.8300     3.3380 O.2   1 <1>  -0.5700 
 11 O       -3.0190    -1.8820     2.4690 O.3   1 <1>  -0.4300 
 12 O       -2.2060     1.4990     2.9730 O.2   1 <1>  -0.5700 
 13 C       -3.8130    -1.1730     1.5420 C.3   1 <1>   0.2000 
 14 C        3.5040     1.4730    -0.7940 C.ar  1 <1>  -0.1500 
 15 C        3.1970    -0.6090     0.3370 C.ar  1 <1>  -0.1500 
 16 C       -4.6860    -2.1600     0.7600 C.3   1 <1>   0.1200 
 17 C        4.4670     0.8940    -1.6010 C.ar  1 <1>  -0.1500 
 18 C        4.1590    -1.1900    -0.4690 C.ar  1 <1>  -0.1500 
 19 O       -5.3170    -1.4730    -0.2730 O.3   1 <1>  -0.5600 
 20 C        4.8010    -0.4410    -1.4430 C.ar  1 <1>  -0.1430 
 21 C       -6.1400    -2.2670    -1.0650 C.3   1 <1>   0.1200 
 22 C        5.8540    -1.0790    -2.3300 C.3   1 <1>  -0.0970 
 23 C       -6.7280    -1.4040    -2.1840 C.3   1 <1>  -0.1600 
 24 C       -5.6530    -0.8180    -3.1090 C.3   1 <1>  -0.2400 
 25 H        2.1610     2.2440     1.3890 H     1 <1>   0.4000 
 26 H       -2.5990    -0.9340    -0.2220 H     1 <1>   0.0800 
 27 H       -3.2110     0.5820     0.4110 H     1 <1>   0.0800 
 28 H       -4.4370    -0.5000     2.1080 H     1 <1>   0.0800 
 29 H        3.2530     2.5090    -0.9290 H     1 <1>   0.1500 
 30 H        2.7140    -1.1990     1.0950 H     1 <1>   0.1500 
 31 H       -4.0780    -2.9380     0.3300 H     1 <1>   0.0800 
 32 H       -5.4370    -2.5840     1.4040 H     1 <1>   0.0800 
 33 H        4.9560     1.4860    -2.3540 H     1 <1>   0.1500 
 34 H        4.4070    -2.2280    -0.3350 H     1 <1>   0.1500 
 35 H       -6.9280    -2.6680    -0.4490 H     1 <1>   0.0800 
 36 H       -5.5560    -3.0720    -1.4790 H     1 <1>   0.0800 
 37 H        6.5900    -0.3520    -2.6220 H     1 <1>   0.0800 
 38 H        5.3910    -1.4790    -3.2140 H     1 <1>   0.0800 
 39 H        6.3530    -1.8760    -1.8080 H     1 <1>   0.0800 
 40 H       -7.3060    -0.6090    -1.7470 H     1 <1>   0.0800 
 41 H       -7.3980    -2.0100    -2.7690 H     1 <1>   0.0800 
 42 H       -4.9960    -0.1700    -2.5560 H     1 <1>   0.0800 
 43 H       -5.0680    -1.6050    -3.5530 H     1 <1>   0.0800 
 44 H       -6.1130    -0.2460    -3.8950 H     1 <1>   0.0800 
@<TRIPOS>BOND
  1   1   2  1   
  2   1   3  1   
  3   2   4  2   
  4   2   5  1   
  5   3   6  1   
  6   3   7  1   
  7   3   8  1   
  8   4   7  1   
  9   5   9  1   
 10   5  25  1   
 11   6  10  2   
 12   6  11  1   
 13   7  12  2   
 14   8  13  1   
 15   8  26  1   
 16   8  27  1   
 17   9  14  ar  
 18   9  15  ar  
 19  11  13  1   
 20  13  16  1   
 21  13  28  1   
 22  14  17  ar  
 23  14  29  1   
 24  15  18  ar  
 25  15  30  1   
 26  16  19  1   
 27  16  31  1   
 28  16  32  1   
 29  17  20  ar  
 30  17  33  1   
 31  18  20  ar  
 32  18  34  1   
 33  19  21  1   
 34  20  22  1   
 35  21  23  1   
 36  21  35  1   
 37  21  36  1   
 38  22  37  1   
 39  22  38  1   
 40  22  39  1   
 41  23  24  1   
 42  23  40  1   
 43  23  41  1   
 44  24  42  1   
 45  24  43  1   
 46  24  44  1   
@<TRIPOS>SUBSTRUCTURE
  1 ****   1 GROUP 4 **** **** 0

# MOE 2024.06 (io_trps.svl 2023.06)
