@<TRIPOS>MOLECULE
NONAME
35 37 1 0 0 
SMALL
USER_CHARGES


@<TRIPOS>ATOM
  1 O        0.4180     0.0380    -0.8220 O.co2 1 <1>  -0.9000 
  2 C        1.4190    -0.6960    -0.9220 C.2   1 <1>   0.9790 
  3 O        2.5140    -0.1440    -1.1650 O.co2 1 <1>  -0.9000 
  4 C        1.2930    -2.1420    -0.7660 C.ar  1 <1>  -0.1790 
  5 C        2.3990    -3.0030    -0.6390 C.ar  1 <1>   0.1170 
  6 C        0.0200    -2.7220    -0.7330 C.ar  1 <1>  -0.1500 
  7 N        3.6920    -2.4780    -0.6570 N.am  1 <1>  -0.5470 
  8 C        2.2000    -4.3750    -0.5150 C.ar  1 <1>  -0.1500 
  9 C       -0.1660    -4.0840    -0.5970 C.ar  1 <1>  -0.1500 
 10 C        4.8640    -2.8730    -0.0720 C.2   1 <1>   0.5690 
 11 C        0.9310    -4.9180    -0.4900 C.ar  1 <1>  -0.1500 
 12 O        4.9400    -3.8440     0.6480 O.2   1 <1>  -0.5700 
 13 C        6.0640    -1.9340    -0.2300 C.3   1 <1>  -0.0190 
 14 C        7.2750    -2.4030    -1.1090 C.3   1 <1>  -0.1860 
 15 C        6.7340    -1.6230     1.1290 C.3   1 <1>   0.0580 
 16 C        7.1570    -3.7830    -1.7390 C.2   1 <1>   0.9060 
 17 C        8.4760    -2.2680    -0.1450 C.3   1 <1>   0.0580 
 18 C        7.6120    -0.4040     0.9010 C.2   1 <1>  -0.2880 
 19 C        7.8330    -2.6810     1.1730 C.3   1 <1>  -0.1600 
 20 O        6.3830    -3.9180    -2.6910 O.co2 1 <1>  -0.9000 
 21 O        7.9000    -4.7020    -1.3690 O.co2 1 <1>  -0.9000 
 22 C        8.6390    -0.7850     0.1450 C.2   1 <1>  -0.2880 
 23 H       -0.8390    -2.0770    -0.8190 H     1 <1>   0.1500 
 24 H        3.6870    -1.5120    -1.0330 H     1 <1>   0.3700 
 25 H        3.0580    -5.0190    -0.4450 H     1 <1>   0.1500 
 26 H       -1.1600    -4.4910    -0.5760 H     1 <1>   0.1500 
 27 H        0.8040    -5.9800    -0.3900 H     1 <1>   0.1500 
 28 H        5.6910    -1.0110    -0.6360 H     1 <1>   0.0800 
 29 H        7.4050    -1.7200    -1.9260 H     1 <1>   0.0800 
 30 H        6.0900    -1.5870     1.9910 H     1 <1>   0.0800 
 31 H        9.3750    -2.8010    -0.4050 H     1 <1>   0.0800 
 32 H        7.3360     0.5550     1.3040 H     1 <1>   0.1500 
 33 H        7.4630    -3.6930     1.1520 H     1 <1>   0.0800 
 34 H        8.4980    -2.5490     2.0090 H     1 <1>   0.0800 
 35 H        9.4690    -0.2370    -0.2640 H     1 <1>   0.1500 
@<TRIPOS>BOND
  1   1   2  ar  
  2   2   3  ar  
  3   2   4  1   
  4   4   5  ar  
  5   4   6  ar  
  6   5   7  1   
  7   5   8  ar  
  8   6   9  ar  
  9   6  23  1   
 10   7  10  am  
 11   7  24  1   
 12   8  11  ar  
 13   8  25  1   
 14   9  11  ar  
 15   9  26  1   
 16  10  12  2   
 17  10  13  1   
 18  11  27  1   
 19  13  14  1   
 20  13  15  1   
 21  13  28  1   
 22  14  16  1   
 23  14  17  1   
 24  14  29  1   
 25  15  18  1   
 26  15  19  1   
 27  15  30  1   
 28  16  20  ar  
 29  16  21  ar  
 30  17  19  1   
 31  17  22  1   
 32  17  31  1   
 33  18  22  2   
 34  18  32  1   
 35  19  33  1   
 36  19  34  1   
 37  22  35  1   
@<TRIPOS>SUBSTRUCTURE
  1 ****  10 GROUP 4 **** **** 0

# MOE 2024.06 (io_trps.svl 2023.06)
