@<TRIPOS>MOLECULE
NONAME
44 44 1 0 0 
SMALL
USER_CHARGES


@<TRIPOS>ATOM
  1 O        0.6190    -0.2160    -0.2030 O.3   1 <1>  -0.3630 
  2 C       -0.6110    -0.7900    -0.2230 C.ar  1 <1>   0.0830 
  3 C        1.7830    -0.9970    -0.0860 C.3   1 <1>   0.1200 
  4 C       -0.8280    -2.1610    -0.1330 C.ar  1 <1>  -0.1500 
  5 C       -1.6950     0.0650    -0.3410 C.ar  1 <1>  -0.1500 
  6 C        2.9780    -0.0430    -0.0960 C.3   1 <1>  -0.1600 
  7 C       -2.1150    -2.6700    -0.1610 C.ar  1 <1>   0.0830 
  8 C       -2.9840    -0.4370    -0.3700 C.ar  1 <1>  -0.1500 
  9 C        4.3120    -0.7940     0.0270 C.3   1 <1>  -0.1600 
 10 O       -2.2370    -4.0180    -0.0680 O.3   1 <1>  -0.3630 
 11 C       -3.1980    -1.8020    -0.2800 C.ar  1 <1>  -0.1500 
 12 C        5.4790     0.1900     0.0140 C.3   1 <1>   0.3430 
 13 C       -3.5020    -4.6420    -0.0860 C.3   1 <1>   0.0400 
 14 N        6.7540    -0.5640     0.1350 N.4   1 <1>  -0.9060 
 15 C        7.9890     0.2250     0.1400 C.3   1 <1>   0.5030 
 16 C        9.1330    -0.7750     0.2730 C.3   1 <1>  -0.2400 
 17 C        7.9900     1.1770     1.3350 C.3   1 <1>  -0.2400 
 18 C        8.1190     0.9910    -1.1750 C.3   1 <1>  -0.2400 
 19 H        1.8190    -1.6750    -0.9220 H     1 <1>   0.0800 
 20 H        1.7300    -1.5450     0.8390 H     1 <1>   0.0800 
 21 H       -0.0210    -2.8590    -0.0400 H     1 <1>   0.1500 
 22 H       -1.5220     1.1240    -0.4100 H     1 <1>   0.1500 
 23 H        2.8700     0.6450     0.7260 H     1 <1>   0.0800 
 24 H        2.9590     0.5170    -1.0160 H     1 <1>   0.0800 
 25 H       -3.8190     0.2350    -0.4620 H     1 <1>   0.1500 
 26 H        4.4030    -1.4800    -0.7980 H     1 <1>   0.0800 
 27 H        4.3140    -1.3510     0.9490 H     1 <1>   0.0800 
 28 H       -4.2070    -2.1660    -0.3040 H     1 <1>   0.1500 
 29 H        5.3760     0.8800     0.8360 H     1 <1>   0.0800 
 30 H        5.4650     0.7520    -0.9060 H     1 <1>   0.0800 
 31 H       -3.3510    -5.7030     0.0000 H     1 <1>   0.0800 
 32 H       -3.9890    -4.4160    -1.0180 H     1 <1>   0.0800 
 33 H       -4.0790    -4.2860     0.7490 H     1 <1>   0.0800 
 34 H        6.8230    -1.2330    -0.6370 H     1 <1>   0.4500 
 35 H        6.7400    -1.1120     1.0000 H     1 <1>   0.4500 
 36 H        9.0610    -1.3310     1.1910 H     1 <1>   0.0800 
 37 H       10.0750    -0.2530     0.2820 H     1 <1>   0.0800 
 38 H        9.1510    -1.4600    -0.5570 H     1 <1>   0.0800 
 39 H        7.8490     0.6430     2.2580 H     1 <1>   0.0800 
 40 H        7.2330     1.9340     1.2410 H     1 <1>   0.0800 
 41 H        8.9380     1.6840     1.3920 H     1 <1>   0.0800 
 42 H        7.3610     1.7480    -1.2710 H     1 <1>   0.0800 
 43 H        9.0710     1.4910    -1.2090 H     1 <1>   0.0800 
 44 H        8.0680     0.3270    -2.0200 H     1 <1>   0.0800 
@<TRIPOS>BOND
  1   1   2  1   
  2   1   3  1   
  3   2   4  ar  
  4   2   5  ar  
  5   3   6  1   
  6   3  19  1   
  7   3  20  1   
  8   4   7  ar  
  9   4  21  1   
 10   5   8  ar  
 11   5  22  1   
 12   6   9  1   
 13   6  23  1   
 14   6  24  1   
 15   7  10  1   
 16   7  11  ar  
 17   8  11  ar  
 18   8  25  1   
 19   9  12  1   
 20   9  26  1   
 21   9  27  1   
 22  10  13  1   
 23  11  28  1   
 24  12  14  1   
 25  12  29  1   
 26  12  30  1   
 27  13  31  1   
 28  13  32  1   
 29  13  33  1   
 30  14  15  1   
 31  14  34  1   
 32  14  35  1   
 33  15  16  1   
 34  15  17  1   
 35  15  18  1   
 36  16  36  1   
 37  16  37  1   
 38  16  38  1   
 39  17  39  1   
 40  17  40  1   
 41  17  41  1   
 42  18  42  1   
 43  18  43  1   
 44  18  44  1   
@<TRIPOS>SUBSTRUCTURE
  1 ****   3 GROUP 4 **** **** 0

# MOE 2024.06 (io_trps.svl 2023.06)
