@<TRIPOS>MOLECULE
NONAME
25 25 1 0 0 
SMALL
USER_CHARGES


@<TRIPOS>ATOM
  1 BR      -0.3640     0.1650    -0.5370 Br    1 <1>  -0.1110 
  2 C        1.3790     0.9320    -0.2430 C.ar  1 <1>   0.1110 
  3 C        2.4500     0.0880    -0.0320 C.ar  1 <1>  -0.1500 
  4 C        1.5100     2.3050    -0.2500 C.ar  1 <1>  -0.1500 
  5 C        3.7040     0.6350     0.1820 C.ar  1 <1>  -0.1440 
  6 C        2.7620     2.8590    -0.0410 C.ar  1 <1>  -0.1440 
  7 C        3.8670     2.0260     0.1740 C.ar  1 <1>   0.1170 
  8 C        4.8740    -0.3130     0.4220 C.3   1 <1>  -0.0960 
  9 C        2.9040     4.3770    -0.0620 C.3   1 <1>  -0.0960 
 10 N        5.1230     2.6080     0.4020 N.am  1 <1>  -0.5470 
 11 C        6.2240     2.5910    -0.4290 C.2   1 <1>   0.5690 
 12 O        6.1970     1.9990    -1.4860 O.2   1 <1>  -0.5700 
 13 C        7.5150     3.3370    -0.0050 C.3   1 <1>   0.9310 
 14 CL       8.8100     2.2280     0.4320 Cl    1 <1>  -0.2900 
 15 CL       8.1400     4.4010    -1.2610 Cl    1 <1>  -0.2900 
 16 CL       7.2340     4.3540     1.4110 Cl    1 <1>  -0.2900 
 17 H        2.2940    -0.9750    -0.0390 H     1 <1>   0.1500 
 18 H        0.6430     2.9170    -0.4200 H     1 <1>   0.1500 
 19 H        4.5250    -1.3060     0.6440 H     1 <1>   0.0800 
 20 H        5.4690     0.0230     1.2510 H     1 <1>   0.0800 
 21 H        5.4910    -0.3610    -0.4570 H     1 <1>   0.0800 
 22 H        1.9660     4.8490    -0.2910 H     1 <1>   0.0800 
 23 H        3.6170     4.6680    -0.8130 H     1 <1>   0.0800 
 24 H        3.2360     4.7330     0.8960 H     1 <1>   0.0800 
 25 H        5.1700     3.1950     1.2380 H     1 <1>   0.3700 
@<TRIPOS>BOND
  1   1   2  1   
  2   2   3  ar  
  3   2   4  ar  
  4   3   5  ar  
  5   3  17  1   
  6   4   6  ar  
  7   4  18  1   
  8   5   7  ar  
  9   5   8  1   
 10   6   7  ar  
 11   6   9  1   
 12   7  10  1   
 13   8  19  1   
 14   8  20  1   
 15   8  21  1   
 16   9  22  1   
 17   9  23  1   
 18   9  24  1   
 19  10  11  am  
 20  10  25  1   
 21  11  12  2   
 22  11  13  1   
 23  13  14  1   
 24  13  15  1   
 25  13  16  1   
@<TRIPOS>SUBSTRUCTURE
  1 ****   7 GROUP 4 **** **** 0

# MOE 2024.06 (io_trps.svl 2023.06)
