@<TRIPOS>MOLECULE
NONAME
41 43 1 0 0 
SMALL
USER_CHARGES


@<TRIPOS>ATOM
  1 O        5.6850     2.2960     0.6690 O.3   1 <1>  -0.5600 
  2 C        4.5470     2.0800     1.4510 C.3   1 <1>   0.1200 
  3 C        5.5540     1.9440    -0.6770 C.3   1 <1>   0.1200 
  4 C        3.3590     2.8910     0.8990 C.3   1 <1>   0.3430 
  5 C        4.4150     2.7510    -1.3300 C.3   1 <1>   0.3430 
  6 N        3.1260     2.6090    -0.5650 N.4   1 <1>  -0.9590 
  7 C        2.0640     3.4900    -1.1550 C.3   1 <1>   0.3430 
  8 C        0.6860     3.2350    -0.5410 C.3   1 <1>   0.1200 
  9 O       -0.2480     4.0650    -1.1950 O.3   1 <1>  -0.3630 
 10 C       -1.5410     4.0500    -0.8170 C.ar  1 <1>   0.3930 
 11 N       -1.9100     3.2690     0.1570 N.ar  1 <1>  -0.6200 
 12 C       -2.4080     4.8990    -1.5200 C.ar  1 <1>  -0.1500 
 13 C       -3.2240     3.2950     0.4960 C.ar  1 <1>   0.3100 
 14 C       -3.7310     4.9470    -1.2030 C.ar  1 <1>  -0.1440 
 15 C       -4.1800     4.1160    -0.1500 C.ar  1 <1>   0.0000 
 16 C       -3.6500     2.4620     1.5430 C.ar  1 <1>  -0.1500 
 17 C       -4.6810     5.8650    -1.9590 C.3   1 <1>  -0.0970 
 18 C       -5.5200     4.0580     0.2920 C.ar  1 <1>  -0.1500 
 19 C       -4.9560     2.4250     1.9520 C.ar  1 <1>  -0.1500 
 20 C       -5.9000     3.2340     1.3170 C.ar  1 <1>  -0.1500 
 21 H        4.7760     2.3940     2.4550 H     1 <1>   0.0800 
 22 H        4.3290     1.0260     1.4640 H     1 <1>   0.0800 
 23 H        5.3740     0.8850    -0.7440 H     1 <1>   0.0800 
 24 H        6.4890     2.1630    -1.1630 H     1 <1>   0.0800 
 25 H        3.5730     3.9380     1.0390 H     1 <1>   0.0800 
 26 H        2.4760     2.6550     1.4690 H     1 <1>   0.0800 
 27 H        4.2810     2.4180    -2.3460 H     1 <1>   0.0800 
 28 H        4.7110     3.7880    -1.3570 H     1 <1>   0.0800 
 29 H        2.8250     1.6290    -0.6510 H     1 <1>   0.4500 
 30 H        1.9970     3.3070    -2.2150 H     1 <1>   0.0800 
 31 H        2.3260     4.5250    -1.0040 H     1 <1>   0.0800 
 32 H        0.6700     3.4860     0.5050 H     1 <1>   0.0800 
 33 H        0.3780     2.2140    -0.6870 H     1 <1>   0.0800 
 34 H       -1.9930     5.4990    -2.3070 H     1 <1>   0.1500 
 35 H       -2.9110     1.8460     2.0210 H     1 <1>   0.1500 
 36 H       -4.1580     6.4150    -2.7200 H     1 <1>   0.0800 
 37 H       -5.1310     6.5690    -1.2820 H     1 <1>   0.0800 
 38 H       -5.4550     5.2860    -2.4320 H     1 <1>   0.0800 
 39 H       -6.2590     4.6730    -0.1860 H     1 <1>   0.1500 
 40 H       -5.2680     1.7810     2.7560 H     1 <1>   0.1500 
 41 H       -6.9250     3.1980     1.6450 H     1 <1>   0.1500 
@<TRIPOS>BOND
  1   1   2  1   
  2   1   3  1   
  3   2   4  1   
  4   2  21  1   
  5   2  22  1   
  6   3   5  1   
  7   3  23  1   
  8   3  24  1   
  9   4   6  1   
 10   4  25  1   
 11   4  26  1   
 12   5   6  1   
 13   5  27  1   
 14   5  28  1   
 15   6   7  1   
 16   6  29  1   
 17   7   8  1   
 18   7  30  1   
 19   7  31  1   
 20   8   9  1   
 21   8  32  1   
 22   8  33  1   
 23   9  10  1   
 24  10  11  ar  
 25  10  12  ar  
 26  11  13  ar  
 27  12  14  ar  
 28  12  34  1   
 29  13  15  ar  
 30  13  16  ar  
 31  14  15  ar  
 32  14  17  1   
 33  15  18  ar  
 34  16  19  ar  
 35  16  35  1   
 36  17  36  1   
 37  17  37  1   
 38  17  38  1   
 39  18  20  ar  
 40  18  39  1   
 41  19  20  ar  
 42  19  40  1   
 43  20  41  1   
@<TRIPOS>SUBSTRUCTURE
  1 ****  11 GROUP 4 **** **** 0

# MOE 2024.06 (io_trps.svl 2023.06)
