@<TRIPOS>MOLECULE
NONAME
34 34 1 0 0 
SMALL
USER_CHARGES


@<TRIPOS>ATOM
  1 O       -0.9200    -1.2380    -2.1030 O.2   1 <1>  -0.5700 
  2 C       -0.4840    -1.4870    -1.0060 C.2   1 <1>   0.5690 
  3 N       -1.2640    -1.6050     0.1080 N.am  1 <1>  -0.5470 
  4 C        1.0120    -1.6980    -0.8540 C.3   1 <1>  -0.0990 
  5 C       -2.6590    -1.5120     0.2220 C.ar  1 <1>   0.1170 
  6 C        1.7870    -0.4050    -0.5430 C.3   1 <1>  -0.1600 
  7 C       -3.3900    -0.3630    -0.1080 C.ar  1 <1>  -0.1430 
  8 C       -3.3280    -2.6260     0.7110 C.ar  1 <1>  -0.1500 
  9 C        1.4840     0.1580     0.8530 C.3   1 <1>  -0.1600 
 10 C       -4.7780    -0.3670     0.0310 C.ar  1 <1>  -0.1430 
 11 C       -2.6750     0.8900    -0.6200 C.3   1 <1>  -0.0970 
 12 C       -4.6990    -2.6210     0.8630 C.ar  1 <1>  -0.1500 
 13 C        2.3270     1.4040     1.1340 C.3   1 <1>  -0.2400 
 14 C       -5.4200    -1.4950     0.5200 C.ar  1 <1>  -0.1500 
 15 C       -5.6360     0.8340    -0.3440 C.3   1 <1>  -0.0970 
 16 H       -0.7820    -1.8750     0.9610 H     1 <1>   0.3700 
 17 H        1.3770    -2.1000    -1.7820 H     1 <1>   0.0800 
 18 H        1.1980    -2.4330    -0.0930 H     1 <1>   0.0800 
 19 H        1.5490     0.3340    -1.2900 H     1 <1>   0.0800 
 20 H        2.8410    -0.6130    -0.6150 H     1 <1>   0.0800 
 21 H       -2.7710    -3.5080     0.9670 H     1 <1>   0.1500 
 22 H        1.6970    -0.5860     1.6010 H     1 <1>   0.0800 
 23 H        0.4440     0.4240     0.9280 H     1 <1>   0.0800 
 24 H       -1.6720     0.9470    -0.2460 H     1 <1>   0.0800 
 25 H       -3.1760     1.7860    -0.3080 H     1 <1>   0.0800 
 26 H       -2.6370     0.8650    -1.6940 H     1 <1>   0.0800 
 27 H       -5.2060    -3.4920     1.2400 H     1 <1>   0.1500 
 28 H        3.3760     1.1680     1.0930 H     1 <1>   0.0800 
 29 H        2.1010     1.7890     2.1130 H     1 <1>   0.0800 
 30 H        2.1160     2.1710     0.4090 H     1 <1>   0.0800 
 31 H       -6.4890    -1.5040     0.6350 H     1 <1>   0.1500 
 32 H       -5.3780     1.1810    -1.3280 H     1 <1>   0.0800 
 33 H       -5.4840     1.6290     0.3640 H     1 <1>   0.0800 
 34 H       -6.6800     0.5780    -0.3470 H     1 <1>   0.0800 
@<TRIPOS>BOND
  1   1   2  2   
  2   2   3  am  
  3   2   4  1   
  4   3   5  1   
  5   3  16  1   
  6   4   6  1   
  7   4  17  1   
  8   4  18  1   
  9   5   7  ar  
 10   5   8  ar  
 11   6   9  1   
 12   6  19  1   
 13   6  20  1   
 14   7  10  ar  
 15   7  11  1   
 16   8  12  ar  
 17   8  21  1   
 18   9  13  1   
 19   9  22  1   
 20   9  23  1   
 21  10  14  ar  
 22  10  15  1   
 23  11  24  1   
 24  11  25  1   
 25  11  26  1   
 26  12  14  ar  
 27  12  27  1   
 28  13  28  1   
 29  13  29  1   
 30  13  30  1   
 31  14  31  1   
 32  15  32  1   
 33  15  33  1   
 34  15  34  1   
@<TRIPOS>SUBSTRUCTURE
  1 ****   3 GROUP 4 **** **** 0

# MOE 2024.06 (io_trps.svl 2023.06)
