@<TRIPOS>MOLECULE
NONAME
49 51 1 0 0 
SMALL
USER_CHARGES


@<TRIPOS>ATOM
  1 I       -0.3900    -1.5930    -4.1600 I     1 <1>  -0.0810 
  2 C       -0.6040    -2.6990    -2.3430 C.ar  1 <1>   0.0810 
  3 C        0.4970    -2.9760    -1.5460 C.ar  1 <1>   0.0830 
  4 C       -1.8780    -3.1140    -2.0050 C.ar  1 <1>  -0.1500 
  5 O        1.7410    -2.5660    -1.8690 O.3   1 <1>  -0.5330 
  6 C        0.3130    -3.7030    -0.3730 C.ar  1 <1>   0.0830 
  7 C       -2.0650    -3.8240    -0.8260 C.ar  1 <1>  -0.1430 
  8 O        1.4220    -3.9650     0.3760 O.3   1 <1>  -0.3630 
  9 C       -0.9700    -4.1220    -0.0200 C.ar  1 <1>  -0.1500 
 10 C       -3.4610    -4.2590    -0.4210 C.3   1 <1>   0.4860 
 11 C        1.3930    -4.8810     1.4500 C.3   1 <1>   0.0400 
 12 N       -3.9780    -3.2990     0.5910 N.4   1 <1>  -0.9590 
 13 C       -5.2960    -3.6180     1.1950 C.3   1 <1>   0.4230 
 14 C       -4.0440    -1.8670     0.1550 C.3   1 <1>   0.3430 
 15 C       -6.3940    -3.9360     0.1570 C.3   1 <1>  -0.1600 
 16 C       -5.6390    -2.3120     1.8850 C.3   1 <1>  -0.1600 
 17 C       -5.3370    -1.3110     0.7750 C.3   1 <1>   0.0000 
 18 C       -6.8110    -2.7850    -0.8090 C.3   1 <1>   0.0000 
 19 C       -6.5040    -1.3710    -0.2360 C.3   1 <1>  -0.1600 
 20 C       -5.1580     0.1120     1.3200 C.3   1 <1>  -0.2400 
 21 C       -6.1580    -2.9550    -2.1970 C.3   1 <1>  -0.2400 
 22 C       -8.3270    -2.8880    -1.0550 C.3   1 <1>  -0.2400 
 23 H       -2.6970    -2.8800    -2.6630 H     1 <1>   0.1500 
 24 H        2.3790    -2.8670    -1.1900 H     1 <1>   0.4500 
 25 H       -1.1180    -4.6820     0.8840 H     1 <1>   0.1500 
 26 H       -3.4210    -5.2510    -0.0020 H     1 <1>   0.0800 
 27 H       -4.1040    -4.2860    -1.2830 H     1 <1>   0.0800 
 28 H        2.3970    -4.9920     1.8210 H     1 <1>   0.0800 
 29 H        1.0320    -5.8290     1.0930 H     1 <1>   0.0800 
 30 H        0.7620    -4.4910     2.2290 H     1 <1>   0.0800 
 31 H       -3.2990    -3.3100     1.3590 H     1 <1>   0.4500 
 32 H       -5.2120    -4.4250     1.9060 H     1 <1>   0.0800 
 33 H       -4.0660    -1.7680    -0.9150 H     1 <1>   0.0800 
 34 H       -3.1870    -1.3310     0.5310 H     1 <1>   0.0800 
 35 H       -7.2570    -4.2030     0.7420 H     1 <1>   0.0800 
 36 H       -6.1480    -4.8270    -0.3920 H     1 <1>   0.0800 
 37 H       -5.0000    -2.1650     2.7380 H     1 <1>   0.0800 
 38 H       -6.6640    -2.2770     2.2140 H     1 <1>   0.0800 
 39 H       -6.3210    -0.6820    -1.0440 H     1 <1>   0.0800 
 40 H       -7.3810    -1.0020     0.2700 H     1 <1>   0.0800 
 41 H       -4.3560     0.1540     2.0370 H     1 <1>   0.0800 
 42 H       -6.0590     0.4450     1.8070 H     1 <1>   0.0800 
 43 H       -4.9350     0.7990     0.5220 H     1 <1>   0.0800 
 44 H       -5.1000    -2.8160    -2.1840 H     1 <1>   0.0800 
 45 H       -6.5610    -2.2340    -2.8870 H     1 <1>   0.0800 
 46 H       -6.3680    -3.9320    -2.5970 H     1 <1>   0.0800 
 47 H       -8.8790    -2.7760    -0.1380 H     1 <1>   0.0800 
 48 H       -8.5830    -3.8420    -1.4830 H     1 <1>   0.0800 
 49 H       -8.6580    -2.1190    -1.7320 H     1 <1>   0.0800 
@<TRIPOS>BOND
  1   1   2  1   
  2   2   3  ar  
  3   2   4  ar  
  4   3   5  1   
  5   3   6  ar  
  6   4   7  ar  
  7   4  23  1   
  8   5  24  1   
  9   6   8  1   
 10   6   9  ar  
 11   7   9  ar  
 12   7  10  1   
 13   8  11  1   
 14   9  25  1   
 15  10  12  1   
 16  10  26  1   
 17  10  27  1   
 18  11  28  1   
 19  11  29  1   
 20  11  30  1   
 21  12  13  1   
 22  12  14  1   
 23  12  31  1   
 24  13  15  1   
 25  13  16  1   
 26  13  32  1   
 27  14  17  1   
 28  14  33  1   
 29  14  34  1   
 30  15  18  1   
 31  15  35  1   
 32  15  36  1   
 33  16  17  1   
 34  16  37  1   
 35  16  38  1   
 36  17  19  1   
 37  17  20  1   
 38  18  19  1   
 39  18  21  1   
 40  18  22  1   
 41  19  39  1   
 42  19  40  1   
 43  20  41  1   
 44  20  42  1   
 45  20  43  1   
 46  21  44  1   
 47  21  45  1   
 48  21  46  1   
 49  22  47  1   
 50  22  48  1   
 51  22  49  1   
@<TRIPOS>SUBSTRUCTURE
  1 ****  10 GROUP 4 **** **** 0

# MOE 2024.06 (io_trps.svl 2023.06)
