@<TRIPOS>MOLECULE
NONAME
51 54 1 0 0 
SMALL
USER_CHARGES


@<TRIPOS>ATOM
  1 S        0.1030     0.0740    -0.1240 S.3   1 <1>  -0.0800 
  2 C        1.5370     1.0790    -0.0890 C.2   1 <1>   0.1240 
  3 C       -0.8760     1.4760    -0.5460 C.2   1 <1>  -0.1400 
  4 N        2.7870     0.6420     0.1860 N.pl3 1 <1>  -0.5340 
  5 C        1.2730     2.3740    -0.3780 C.2   1 <1>  -0.0860 
  6 C       -0.1300     2.5910    -0.6290 C.2   1 <1>  -0.1810 
  7 C       -2.3670     1.3370    -0.7640 C.3   1 <1>   0.0200 
  8 C        3.8370     1.5290     0.1880 C.2   1 <1>   0.4140 
  9 C        2.4010     3.2510    -0.3860 C.2   1 <1>   0.8670 
 10 C       -0.7460     3.9390    -0.9660 C.3   1 <1>   0.0210 
 11 C       -2.8960     2.6170    -1.4360 C.3   1 <1>  -0.1600 
 12 N        3.6600     2.7840    -0.0950 N.2   1 <1>  -0.6610 
 13 C        5.1550     1.0170     0.5030 C.ar  1 <1>   0.0860 
 14 O        2.2850     4.4380    -0.6570 O.2   1 <1>  -0.5700 
 15 C       -2.2820     3.8930    -0.8220 C.3   1 <1>  -0.1600 
 16 C        6.2840     1.4830    -0.1710 C.ar  1 <1>  -0.1500 
 17 C        5.3490     0.0420     1.4830 C.ar  1 <1>  -0.1500 
 18 C        7.5540     0.9880     0.0980 C.ar  1 <1>   0.0820 
 19 C        6.6040    -0.4630     1.7640 C.ar  1 <1>  -0.1500 
 20 O        8.6660     1.4210    -0.5630 O.3   1 <1>  -0.3630 
 21 C        7.7170     0.0000     1.0700 C.ar  1 <1>   0.0820 
 22 C        8.6340     2.5780    -1.3710 C.3   1 <1>   0.0400 
 23 O        8.9670    -0.4780     1.3050 O.3   1 <1>  -0.3620 
 24 C        9.1860    -1.7980     1.7810 C.3   1 <1>   0.1810 
 25 C        8.5380    -2.8650     0.8960 C.2   1 <1>   0.6590 
 26 O        7.6760    -3.5720     1.3480 O.2   1 <1>  -0.5700 
 27 O        8.9490    -3.0380    -0.3590 O.3   1 <1>  -0.4300 
 28 C        9.7150    -2.1080    -1.0910 C.3   1 <1>   0.1200 
 29 C       10.0350    -2.7280    -2.4460 C.3   1 <1>  -0.2400 
 30 H        2.9560    -0.3520     0.3540 H     1 <1>   0.4000 
 31 H       -2.8450     1.1930     0.1890 H     1 <1>   0.0800 
 32 H       -2.5730     0.4840    -1.3860 H     1 <1>   0.0800 
 33 H       -0.4790     4.1970    -1.9760 H     1 <1>   0.0800 
 34 H       -0.3520     4.6980    -0.3130 H     1 <1>   0.0800 
 35 H       -3.9690     2.6480    -1.3520 H     1 <1>   0.0800 
 36 H       -2.6490     2.5860    -2.4830 H     1 <1>   0.0800 
 37 H       -2.7070     4.7650    -1.2890 H     1 <1>   0.0800 
 38 H       -2.5310     3.9280     0.2240 H     1 <1>   0.0800 
 39 H        6.1350     2.2410    -0.9170 H     1 <1>   0.1500 
 40 H        4.5070    -0.3240     2.0440 H     1 <1>   0.1500 
 41 H        6.6980    -1.2120     2.5290 H     1 <1>   0.1500 
 42 H        9.6370     2.7870    -1.6950 H     1 <1>   0.0800 
 43 H        8.2590     3.4020    -0.7890 H     1 <1>   0.0800 
 44 H        8.0060     2.3920    -2.2250 H     1 <1>   0.0800 
 45 H        8.8030    -1.8660     2.7820 H     1 <1>   0.0800 
 46 H       10.2460    -1.9590     1.8140 H     1 <1>   0.0800 
 47 H       10.6210    -1.8910    -0.5500 H     1 <1>   0.0800 
 48 H        9.1370    -1.2070    -1.2130 H     1 <1>   0.0800 
 49 H       10.6020    -3.6330    -2.3170 H     1 <1>   0.0800 
 50 H       10.6150    -2.0400    -3.0330 H     1 <1>   0.0800 
 51 H        9.1240    -2.9470    -2.9750 H     1 <1>   0.0800 
@<TRIPOS>BOND
  1   1   2  1   
  2   1   3  1   
  3   2   4  1   
  4   2   5  2   
  5   3   6  2   
  6   3   7  1   
  7   4   8  1   
  8   4  30  1   
  9   5   6  1   
 10   5   9  1   
 11   6  10  1   
 12   7  11  1   
 13   7  31  1   
 14   7  32  1   
 15   8  12  2   
 16   8  13  1   
 17   9  12  1   
 18   9  14  2   
 19  10  15  1   
 20  10  33  1   
 21  10  34  1   
 22  11  15  1   
 23  11  35  1   
 24  11  36  1   
 25  13  16  ar  
 26  13  17  ar  
 27  15  37  1   
 28  15  38  1   
 29  16  18  ar  
 30  16  39  1   
 31  17  19  ar  
 32  17  40  1   
 33  18  20  1   
 34  18  21  ar  
 35  19  21  ar  
 36  19  41  1   
 37  20  22  1   
 38  21  23  1   
 39  22  42  1   
 40  22  43  1   
 41  22  44  1   
 42  23  24  1   
 43  24  25  1   
 44  24  45  1   
 45  24  46  1   
 46  25  26  2   
 47  25  27  1   
 48  27  28  1   
 49  28  29  1   
 50  28  47  1   
 51  28  48  1   
 52  29  49  1   
 53  29  50  1   
 54  29  51  1   
@<TRIPOS>SUBSTRUCTURE
  1 ****   8 GROUP 4 **** **** 0

# MOE 2024.06 (io_trps.svl 2023.06)
