@<TRIPOS>MOLECULE
NONAME
38 39 1 0 0 
SMALL
USER_CHARGES


@<TRIPOS>ATOM
  1 O       -0.3160    -1.2650    -2.0070 O.2   1 <1>  -0.5700 
  2 C       -0.3900    -2.0180    -1.0570 C.2   1 <1>   0.5690 
  3 N        0.6300    -2.4190    -0.2400 N.am  1 <1>  -0.1110 
  4 C       -1.7110    -2.6980    -0.6590 C.3   1 <1>   0.2510 
  5 N        2.0070    -1.8730    -0.3400 N.3   1 <1>  -0.5490 
  6 C        0.1910    -3.3860     0.6280 C.2   1 <1>   0.5690 
  7 N       -2.7870    -1.8160    -0.0890 N.3   1 <1>  -0.8100 
  8 C       -1.2650    -3.7090     0.4090 C.3   1 <1>  -0.0990 
  9 C        2.3860    -1.2720     0.9680 C.3   1 <1>   0.0300 
 10 C        2.9400    -2.9770    -0.6890 C.3   1 <1>   0.0300 
 11 O        0.8320    -3.9610     1.4770 O.2   1 <1>  -0.5700 
 12 C       -4.0960    -2.5110    -0.0570 C.3   1 <1>   0.1100 
 13 C       -2.9000    -0.5120    -0.7930 C.3   1 <1>   0.1100 
 14 C       -5.2040    -1.6310     0.5600 C.3   1 <1>   0.3430 
 15 C       -4.0060     0.3840    -0.2020 C.3   1 <1>   0.3430 
 16 N       -5.3340    -0.3190    -0.1610 N.4   1 <1>  -0.9590 
 17 C       -6.3800     0.5440     0.4650 C.3   1 <1>   0.2630 
 18 H       -2.0840    -3.2120    -1.5290 H     1 <1>   0.0800 
 19 H       -1.3490    -4.7170     0.0480 H     1 <1>   0.0800 
 20 H       -1.7960    -3.6000     1.3370 H     1 <1>   0.0800 
 21 H        1.6250    -0.5820     1.2870 H     1 <1>   0.0800 
 22 H        3.3110    -0.7350     0.8590 H     1 <1>   0.0800 
 23 H        2.5100    -2.0340     1.7190 H     1 <1>   0.0800 
 24 H        2.5970    -3.4750    -1.5790 H     1 <1>   0.0800 
 25 H        3.0080    -3.6910     0.1140 H     1 <1>   0.0800 
 26 H        3.9180    -2.5720    -0.8810 H     1 <1>   0.0800 
 27 H       -4.0140    -3.4100     0.5310 H     1 <1>   0.0800 
 28 H       -4.3840    -2.7990    -1.0540 H     1 <1>   0.0800 
 29 H       -3.0810    -0.6710    -1.8440 H     1 <1>   0.0800 
 30 H       -1.9740     0.0300    -0.7000 H     1 <1>   0.0800 
 31 H       -4.9610    -1.4550     1.5950 H     1 <1>   0.0800 
 32 H       -6.1400    -2.1640     0.5240 H     1 <1>   0.0800 
 33 H       -4.0830     1.2830    -0.7900 H     1 <1>   0.0800 
 34 H       -3.7140     0.6650     0.7960 H     1 <1>   0.0800 
 35 H       -5.6020    -0.5220    -1.1340 H     1 <1>   0.4500 
 36 H       -6.1150     0.7720     1.4850 H     1 <1>   0.0800 
 37 H       -7.3340     0.0410     0.4610 H     1 <1>   0.0800 
 38 H       -6.4790     1.4690    -0.0800 H     1 <1>   0.0800 
@<TRIPOS>BOND
  1   1   2  2   
  2   2   3  am  
  3   2   4  1   
  4   3   5  1   
  5   3   6  am  
  6   4   7  1   
  7   4   8  1   
  8   4  18  1   
  9   5   9  1   
 10   5  10  1   
 11   6   8  1   
 12   6  11  2   
 13   7  12  1   
 14   7  13  1   
 15   8  19  1   
 16   8  20  1   
 17   9  21  1   
 18   9  22  1   
 19   9  23  1   
 20  10  24  1   
 21  10  25  1   
 22  10  26  1   
 23  12  14  1   
 24  12  27  1   
 25  12  28  1   
 26  13  15  1   
 27  13  29  1   
 28  13  30  1   
 29  14  16  1   
 30  14  31  1   
 31  14  32  1   
 32  15  16  1   
 33  15  33  1   
 34  15  34  1   
 35  16  17  1   
 36  16  35  1   
 37  17  36  1   
 38  17  37  1   
 39  17  38  1   
@<TRIPOS>SUBSTRUCTURE
  1 ****   4 GROUP 4 **** **** 0

# MOE 2024.06 (io_trps.svl 2023.06)
