@<TRIPOS>MOLECULE
NONAME
39 40 1 0 0 
SMALL
USER_CHARGES


@<TRIPOS>ATOM
  1 O       -0.0420     0.4920    -1.4860 O.2   1 <1>  -0.5700 
  2 C       -0.9220     1.1480    -0.9610 C.2   1 <1>   0.7060 
  3 O       -2.1540     0.6290    -1.0180 O.3   1 <1>  -0.2320 
  4 C       -0.7270     2.4150    -0.2970 C.2   1 <1>   0.0290 
  5 C       -3.2410     1.2210    -0.4830 C.ar  1 <1>   0.0830 
  6 C        0.5940     3.0030    -0.2210 C.2   1 <1>   0.6160 
  7 C       -1.8160     3.0280     0.2510 C.2   1 <1>  -0.1780 
  8 C       -3.1120     2.4470     0.1740 C.ar  1 <1>   0.0280 
  9 C       -4.4750     0.5990    -0.5940 C.ar  1 <1>  -0.1500 
 10 O        0.7560     4.0380     0.3960 O.2   1 <1>  -0.5700 
 11 N        1.6950     2.4510    -0.8110 N.am  1 <1>  -0.7300 
 12 C       -4.2560     3.0320     0.7170 C.ar  1 <1>  -0.1500 
 13 C       -5.5970     1.1940    -0.0500 C.ar  1 <1>  -0.1500 
 14 C        3.0710     3.0050    -0.7830 C.3   1 <1>   0.1400 
 15 C       -5.4850     2.4120     0.6060 C.ar  1 <1>  -0.1500 
 16 C        3.8420     2.4390     0.4090 C.3   1 <1>   0.1200 
 17 O        5.1670     2.9250     0.3650 O.3   1 <1>  -0.4300 
 18 C        6.0650     2.5490     1.2650 C.2   1 <1>   0.6590 
 19 O        5.8060     1.7730     2.1480 O.2   1 <1>  -0.5700 
 20 C        7.4460     3.1570     1.1200 C.3   1 <1>  -0.0990 
 21 C        8.1990     2.6130    -0.1050 C.3   1 <1>  -0.1600 
 22 C        9.5950     3.2320    -0.2220 C.3   1 <1>  -0.2400 
 23 H       -1.7290     3.9740     0.7590 H     1 <1>   0.1500 
 24 H       -4.5510    -0.3450    -1.1040 H     1 <1>   0.1500 
 25 H        1.5730     1.5480    -1.2940 H     1 <1>   0.3700 
 26 H       -4.1760     3.9760     1.2260 H     1 <1>   0.1500 
 27 H       -6.5590     0.7160    -0.1330 H     1 <1>   0.1500 
 28 H        3.0250     4.0780    -0.7000 H     1 <1>   0.0800 
 29 H        3.5730     2.7470    -1.6990 H     1 <1>   0.0800 
 30 H       -6.3620     2.8720     1.0280 H     1 <1>   0.1500 
 31 H        3.8750     1.3640     0.3660 H     1 <1>   0.0800 
 32 H        3.3940     2.7580     1.3340 H     1 <1>   0.0800 
 33 H        8.0060     2.9420     2.0130 H     1 <1>   0.0800 
 34 H        7.3390     4.2230     1.0420 H     1 <1>   0.0800 
 35 H        7.6380     2.8300    -0.9980 H     1 <1>   0.0800 
 36 H        8.2890     1.5430    -0.0220 H     1 <1>   0.0800 
 37 H        9.5270     4.3010    -0.3280 H     1 <1>   0.0800 
 38 H       10.1010     2.8360    -1.0850 H     1 <1>   0.0800 
 39 H       10.1820     3.0060     0.6510 H     1 <1>   0.0800 
@<TRIPOS>BOND
  1   1   2  2   
  2   2   3  1   
  3   2   4  1   
  4   3   5  1   
  5   4   6  1   
  6   4   7  2   
  7   5   8  ar  
  8   5   9  ar  
  9   6  10  2   
 10   6  11  am  
 11   7   8  1   
 12   7  23  1   
 13   8  12  ar  
 14   9  13  ar  
 15   9  24  1   
 16  11  14  1   
 17  11  25  1   
 18  12  15  ar  
 19  12  26  1   
 20  13  15  ar  
 21  13  27  1   
 22  14  16  1   
 23  14  28  1   
 24  14  29  1   
 25  15  30  1   
 26  16  17  1   
 27  16  31  1   
 28  16  32  1   
 29  17  18  1   
 30  18  19  2   
 31  18  20  1   
 32  20  21  1   
 33  20  33  1   
 34  20  34  1   
 35  21  22  1   
 36  21  35  1   
 37  21  36  1   
 38  22  37  1   
 39  22  38  1   
 40  22  39  1   
@<TRIPOS>SUBSTRUCTURE
  1 ****   6 GROUP 4 **** **** 0

# MOE 2024.06 (io_trps.svl 2023.06)
