@<TRIPOS>MOLECULE
NONAME
34 34 1 0 0 
SMALL
USER_CHARGES


@<TRIPOS>ATOM
  1 CL       0.5460    -0.7450    -0.3540 Cl    1 <1>  -0.1770 
  2 C       -0.6540     0.4650     0.0870 C.ar  1 <1>   0.1770 
  3 C       -1.9740     0.0440     0.1520 C.ar  1 <1>   0.1770 
  4 C       -0.3370     1.8040     0.3670 C.ar  1 <1>   0.0820 
  5 CL      -2.3980    -1.6180    -0.1920 Cl    1 <1>  -0.1770 
  6 C       -2.9920     0.9160     0.4890 C.ar  1 <1>  -0.1500 
  7 O        0.8940     2.3930     0.3530 O.3   1 <1>  -0.3630 
  8 C       -1.3720     2.6680     0.7040 C.ar  1 <1>  -0.1500 
  9 C       -2.6860     2.2360     0.7670 C.ar  1 <1>  -0.1500 
 10 C        2.0930     1.7290     0.0430 C.3   1 <1>   0.1200 
 11 C        3.2290     2.7480     0.1440 C.3   1 <1>   0.3430 
 12 N        4.5540     2.1230    -0.1720 N.4   1 <1>  -0.9060 
 13 C        5.7220     3.0050    -0.1080 C.3   1 <1>   0.5030 
 14 C        5.5730     4.1370    -1.1240 C.3   1 <1>  -0.2400 
 15 C        5.8800     3.5540     1.3090 C.3   1 <1>  -0.2400 
 16 C        6.9280     2.1430    -0.4670 C.3   1 <1>  -0.2400 
 17 H       -4.0080     0.5640     0.5330 H     1 <1>   0.1500 
 18 H       -1.1450     3.6970     0.9220 H     1 <1>   0.1500 
 19 H       -3.4700     2.9270     1.0310 H     1 <1>   0.1500 
 20 H        2.0140     1.3490    -0.9600 H     1 <1>   0.0800 
 21 H        2.2310     0.9370     0.7590 H     1 <1>   0.0800 
 22 H        3.2440     3.1480     1.1450 H     1 <1>   0.0800 
 23 H        3.0310     3.5520    -0.5450 H     1 <1>   0.0800 
 24 H        4.5310     1.7260    -1.1170 H     1 <1>   0.4500 
 25 H        4.7310     1.3450     0.4720 H     1 <1>   0.4500 
 26 H        5.4120     3.7530    -2.1150 H     1 <1>   0.0800 
 27 H        6.4750     4.7250    -1.1450 H     1 <1>   0.0800 
 28 H        4.7690     4.8020    -0.8640 H     1 <1>   0.0800 
 29 H        5.0760     4.2190     1.5700 H     1 <1>   0.0800 
 30 H        6.7930     4.1210     1.3780 H     1 <1>   0.0800 
 31 H        5.9340     2.7590     2.0310 H     1 <1>   0.0800 
 32 H        6.8390     1.7420    -1.4610 H     1 <1>   0.0800 
 33 H        7.0530     1.3360     0.2330 H     1 <1>   0.0800 
 34 H        7.8250     2.7390    -0.4370 H     1 <1>   0.0800 
@<TRIPOS>BOND
  1   1   2  1   
  2   2   3  ar  
  3   2   4  ar  
  4   3   5  1   
  5   3   6  ar  
  6   4   7  1   
  7   4   8  ar  
  8   6   9  ar  
  9   6  17  1   
 10   7  10  1   
 11   8   9  ar  
 12   8  18  1   
 13   9  19  1   
 14  10  11  1   
 15  10  20  1   
 16  10  21  1   
 17  11  12  1   
 18  11  22  1   
 19  11  23  1   
 20  12  13  1   
 21  12  24  1   
 22  12  25  1   
 23  13  14  1   
 24  13  15  1   
 25  13  16  1   
 26  14  26  1   
 27  14  27  1   
 28  14  28  1   
 29  15  29  1   
 30  15  30  1   
 31  15  31  1   
 32  16  32  1   
 33  16  33  1   
 34  16  34  1   
@<TRIPOS>SUBSTRUCTURE
  1 ****  10 GROUP 4 **** **** 0

# MOE 2024.06 (io_trps.svl 2023.06)
