@<TRIPOS>MOLECULE
NONAME
50 52 1 0 0 
SMALL
USER_CHARGES


@<TRIPOS>ATOM
  1 O       -5.2560     4.2740    -1.9910 O.3   1 <1>  -0.6840 
  2 C       -5.1510     3.2170    -1.0970 C.3   1 <1>   0.1930 
  3 C       -4.3860     3.7050     0.1790 C.3   1 <1>  -0.0080 
  4 C       -4.5570     2.0400    -1.9090 C.3   1 <1>   0.3480 
  5 C       -4.4550     2.6640     1.3100 C.3   1 <1>  -0.2470 
  6 C       -5.0440     4.9890     0.7280 C.3   1 <1>  -0.2470 
  7 C       -2.9050     4.0180    -0.1070 C.3   1 <1>  -0.2470 
  8 N       -4.6550     0.7100    -1.2400 N.pl3 1 <1>  -0.7670 
  9 C       -3.6740    -0.0690    -0.7870 C.cat 1 <1>   1.0690 
 10 C       -5.8520     0.0500    -1.0050 C.ar  1 <1>   0.3030 
 11 N       -2.4050     0.2560    -0.8790 N.pl3 1 <1>  -0.8390 
 12 N       -4.1600    -1.1890    -0.2400 N.pl3 1 <1>  -0.7670 
 13 C       -5.5420    -1.1370    -0.3680 C.ar  1 <1>   0.3030 
 14 C       -7.1730     0.3770    -1.2960 C.ar  1 <1>  -0.1160 
 15 C       -3.4860    -2.3510     0.4020 C.3   1 <1>   0.4930 
 16 C       -6.5470    -2.0220     0.0110 C.ar  1 <1>  -0.1160 
 17 C       -8.1720    -0.5020    -0.9210 C.ar  1 <1>  -0.1570 
 18 C       -1.9890    -2.1400     0.5420 C.ar  1 <1>  -0.1510 
 19 C       -7.8600    -1.6950    -0.2690 C.ar  1 <1>  -0.1570 
 20 C       -1.1210    -2.6120    -0.4330 C.ar  1 <1>  -0.1570 
 21 C       -1.4820    -1.4350     1.6250 C.ar  1 <1>  -0.1570 
 22 C        0.2370    -2.3690    -0.3320 C.ar  1 <1>  -0.1570 
 23 C       -0.1240    -1.1920     1.7220 C.ar  1 <1>  -0.1570 
 24 C        0.7350    -1.6570     0.7430 C.ar  1 <1>  -0.1570 
 25 H       -5.5160     5.0850    -1.5080 H     1 <1>   0.3940 
 26 H       -6.1580     2.9710    -0.8150 H     1 <1>   0.0720 
 27 H       -3.5340     2.2600    -2.1530 H     1 <1>   0.0720 
 28 H       -5.0960     1.9740    -2.8390 H     1 <1>   0.0720 
 29 H       -3.8610     1.8000     1.0940 H     1 <1>   0.0720 
 30 H       -5.4720     2.3550     1.4810 H     1 <1>   0.0720 
 31 H       -4.0770     3.0800     2.2280 H     1 <1>   0.0720 
 32 H       -6.0950     4.8340     0.9020 H     1 <1>   0.0720 
 33 H       -4.9250     5.8170     0.0520 H     1 <1>   0.0720 
 34 H       -4.5930     5.2780     1.6620 H     1 <1>   0.0720 
 35 H       -2.3610     3.1350    -0.3830 H     1 <1>   0.0720 
 36 H       -2.4360     4.4310     0.7690 H     1 <1>   0.0720 
 37 H       -2.8160     4.7390    -0.9010 H     1 <1>   0.0720 
 38 H       -1.6850    -0.3590    -0.4810 H     1 <1>   0.4450 
 39 H       -2.0690     1.1240    -1.2790 H     1 <1>   0.4450 
 40 H       -7.4130     1.2920    -1.8050 H     1 <1>   0.1430 
 41 H       -3.6720    -3.2350    -0.1850 H     1 <1>   0.0720 
 42 H       -3.9110    -2.5090     1.3790 H     1 <1>   0.0720 
 43 H       -6.3110    -2.9440     0.5100 H     1 <1>   0.1430 
 44 H       -9.2040    -0.2700    -1.1330 H     1 <1>   0.1430 
 45 H       -8.6570    -2.3640     0.0140 H     1 <1>   0.1430 
 46 H       -1.4890    -3.1700    -1.2790 H     1 <1>   0.1430 
 47 H       -2.1350    -1.0660     2.3990 H     1 <1>   0.1430 
 48 H        0.9110    -2.7390    -1.0870 H     1 <1>   0.1430 
 49 H        0.2700    -0.6460     2.5640 H     1 <1>   0.1430 
 50 H        1.7940    -1.4720     0.8230 H     1 <1>   0.1430 
@<TRIPOS>BOND
  1   1   2  1   
  2   1  25  1   
  3   2   3  1   
  4   2   4  1   
  5   2  26  1   
  6   3   5  1   
  7   3   6  1   
  8   3   7  1   
  9   4   8  1   
 10   4  27  1   
 11   4  28  1   
 12   5  29  1   
 13   5  30  1   
 14   5  31  1   
 15   6  32  1   
 16   6  33  1   
 17   6  34  1   
 18   7  35  1   
 19   7  36  1   
 20   7  37  1   
 21   8   9  ar  
 22   8  10  1   
 23   9  11  ar  
 24   9  12  ar  
 25  10  13  ar  
 26  10  14  ar  
 27  11  38  1   
 28  11  39  1   
 29  12  13  1   
 30  12  15  1   
 31  13  16  ar  
 32  14  17  ar  
 33  14  40  1   
 34  15  18  1   
 35  15  41  1   
 36  15  42  1   
 37  16  19  ar  
 38  16  43  1   
 39  17  19  ar  
 40  17  44  1   
 41  18  20  ar  
 42  18  21  ar  
 43  19  45  1   
 44  20  22  ar  
 45  20  46  1   
 46  21  23  ar  
 47  21  47  1   
 48  22  24  ar  
 49  22  48  1   
 50  23  24  ar  
 51  23  49  1   
 52  24  50  1   
@<TRIPOS>SUBSTRUCTURE
  1 ****   9 GROUP 4 **** **** 0

# MOE 2024.06 (io_trps.svl 2023.06)
