@<TRIPOS>MOLECULE
NONAME
49 51 1 0 0 
SMALL
USER_CHARGES


@<TRIPOS>ATOM
  1 O        0.4800    -0.1360    -0.8170 O.2   1 <1>  -0.5700 
  2 C        0.9290    -1.1260    -0.2710 C.2   1 <1>   0.6900 
  3 N        2.2810    -1.2500    -0.0790 N.am  1 <1>  -0.6600 
  4 N        0.1100    -2.1410     0.1320 N.am  1 <1>  -0.5470 
  5 C        3.2470    -0.3130    -0.7360 C.3   1 <1>   0.1400 
  6 C        2.9390    -2.1760     0.8970 C.3   1 <1>   0.1400 
  7 C       -1.2870    -2.2370     0.2000 C.ar  1 <1>   0.1170 
  8 C        4.4220    -1.0660    -1.3870 C.3   1 <1>   0.2090 
  9 C        4.0820    -2.9690     0.2390 C.3   1 <1>   0.2090 
 10 C       -2.1170    -1.1260     0.3090 C.ar  1 <1>  -0.1500 
 11 C       -1.8760    -3.4960     0.1810 C.ar  1 <1>  -0.1500 
 12 N        5.0400    -2.0790    -0.4770 N.pl3 1 <1>  -0.8380 
 13 C       -3.4900    -1.2690     0.3920 C.ar  1 <1>  -0.1500 
 14 C       -3.2490    -3.6430     0.2640 C.ar  1 <1>  -0.1500 
 15 C        6.2470    -1.7740     0.1560 C.ar  1 <1>   0.1000 
 16 C       -4.0650    -2.5290     0.3720 C.ar  1 <1>  -0.1430 
 17 C        7.4270    -2.4590    -0.1550 C.ar  1 <1>  -0.1430 
 18 C        6.2760    -0.7800     1.1260 C.ar  1 <1>  -0.1500 
 19 C       -5.5720    -2.6840     0.4600 C.3   1 <1>  -0.0970 
 20 C        8.6060    -2.1500     0.5210 C.ar  1 <1>  -0.1430 
 21 C        7.3930    -3.5440    -1.2330 C.3   1 <1>  -0.0970 
 22 C        7.4450    -0.4660     1.7860 C.ar  1 <1>  -0.1500 
 23 C        8.6060    -1.1520     1.4840 C.ar  1 <1>  -0.1500 
 24 C        9.9160    -2.8760     0.2450 C.3   1 <1>  -0.0970 
 25 H        0.6110    -3.0040     0.2980 H     1 <1>   0.3700 
 26 H        3.6270     0.3710     0.0000 H     1 <1>   0.0800 
 27 H        2.7510     0.2680    -1.4930 H     1 <1>   0.0800 
 28 H        2.2300    -2.8610     1.3220 H     1 <1>   0.0800 
 29 H        3.3470    -1.5930     1.7040 H     1 <1>   0.0800 
 30 H        5.1730    -0.3570    -1.6930 H     1 <1>   0.0800 
 31 H        4.0680    -1.5670    -2.2700 H     1 <1>   0.0800 
 32 H        3.6710    -3.6720    -0.4640 H     1 <1>   0.0800 
 33 H        4.6110    -3.5260     0.9930 H     1 <1>   0.0800 
 34 H       -1.6900    -0.1400     0.3310 H     1 <1>   0.1500 
 35 H       -1.2590    -4.3710     0.0950 H     1 <1>   0.1500 
 36 H       -4.1090    -0.3920     0.4710 H     1 <1>   0.1500 
 37 H       -3.6820    -4.6270     0.2440 H     1 <1>   0.1500 
 38 H        5.3740    -0.2530     1.3660 H     1 <1>   0.1500 
 39 H       -5.9970    -1.8910     1.0490 H     1 <1>   0.0800 
 40 H       -5.8280    -3.6220     0.9200 H     1 <1>   0.0800 
 41 H       -5.9980    -2.6520    -0.5260 H     1 <1>   0.0800 
 42 H        6.7040    -3.2800    -2.0130 H     1 <1>   0.0800 
 43 H        7.0750    -4.4720    -0.7960 H     1 <1>   0.0800 
 44 H        8.3510    -3.6840    -1.6940 H     1 <1>   0.0800 
 45 H        7.4550     0.3070     2.5330 H     1 <1>   0.1500 
 46 H        9.5120    -0.9020     2.0070 H     1 <1>   0.1500 
 47 H        9.7670    -3.9400     0.2930 H     1 <1>   0.0800 
 48 H       10.6640    -2.6130     0.9700 H     1 <1>   0.0800 
 49 H       10.2810    -2.6130    -0.7310 H     1 <1>   0.0800 
@<TRIPOS>BOND
  1   1   2  2   
  2   2   3  am  
  3   2   4  am  
  4   3   5  1   
  5   3   6  1   
  6   4   7  1   
  7   4  25  1   
  8   5   8  1   
  9   5  26  1   
 10   5  27  1   
 11   6   9  1   
 12   6  28  1   
 13   6  29  1   
 14   7  10  ar  
 15   7  11  ar  
 16   8  12  1   
 17   8  30  1   
 18   8  31  1   
 19   9  12  1   
 20   9  32  1   
 21   9  33  1   
 22  10  13  ar  
 23  10  34  1   
 24  11  14  ar  
 25  11  35  1   
 26  12  15  1   
 27  13  16  ar  
 28  13  36  1   
 29  14  16  ar  
 30  14  37  1   
 31  15  17  ar  
 32  15  18  ar  
 33  16  19  1   
 34  17  20  ar  
 35  17  21  1   
 36  18  22  ar  
 37  18  38  1   
 38  19  39  1   
 39  19  40  1   
 40  19  41  1   
 41  20  23  ar  
 42  20  24  1   
 43  21  42  1   
 44  21  43  1   
 45  21  44  1   
 46  22  23  ar  
 47  22  45  1   
 48  23  46  1   
 49  24  47  1   
 50  24  48  1   
 51  24  49  1   
@<TRIPOS>SUBSTRUCTURE
  1 ****   3 GROUP 4 **** **** 0

# MOE 2024.06 (io_trps.svl 2023.06)
