@<TRIPOS>MOLECULE
NONAME
36 37 1 0 0 
SMALL
USER_CHARGES


@<TRIPOS>ATOM
  1 O       -1.5640     0.7410    -0.7500 O.3   1 <1>  -0.3620 
  2 C       -0.7840     1.7660    -0.3100 C.ar  1 <1>   0.0830 
  3 C       -1.0910    -0.1620    -1.7320 C.3   1 <1>   0.0400 
  4 C       -1.2070     2.4610     0.8210 C.ar  1 <1>  -0.1440 
  5 C        0.3970     2.1430    -0.9440 C.ar  1 <1>  -0.1500 
  6 C       -0.4520     3.5170     1.3070 C.ar  1 <1>  -0.1500 
  7 C       -2.4910     2.0640     1.5220 C.3   1 <1>   0.4870 
  8 C        1.1430     3.1990    -0.4530 C.ar  1 <1>  -0.1500 
  9 C        0.7200     3.8860     0.6710 C.ar  1 <1>  -0.1500 
 10 N       -3.6150     2.1970     0.5590 N.4   1 <1>  -0.9590 
 11 C       -3.8150     3.6120     0.1270 C.3   1 <1>   0.3430 
 12 C       -4.8540     1.5380     1.0540 C.3   1 <1>   0.3430 
 13 C       -4.8750     3.6700    -0.9700 C.3   1 <1>  -0.1600 
 14 C       -5.9240     1.5730    -0.0340 C.3   1 <1>  -0.1600 
 15 C       -6.1650     3.0090    -0.4910 C.3   1 <1>   0.2000 
 16 O       -7.0640     2.9950    -1.5290 O.3   1 <1>  -0.6800 
 17 H       -0.9640     0.3630    -2.6630 H     1 <1>   0.0800 
 18 H       -1.8180    -0.9440    -1.8530 H     1 <1>   0.0800 
 19 H       -0.1570    -0.5830    -1.4010 H     1 <1>   0.0800 
 20 H        0.7560     1.6340    -1.8190 H     1 <1>   0.1500 
 21 H       -0.7580     4.0640     2.1830 H     1 <1>   0.1500 
 22 H       -2.6570     2.6900     2.3840 H     1 <1>   0.0800 
 23 H       -2.4040     1.0400     1.8480 H     1 <1>   0.0800 
 24 H        2.0570     3.4880    -0.9440 H     1 <1>   0.1500 
 25 H        1.3080     4.7060     1.0490 H     1 <1>   0.1500 
 26 H       -3.2680     1.6740    -0.2640 H     1 <1>   0.4500 
 27 H       -2.8900     4.0200    -0.2490 H     1 <1>   0.0800 
 28 H       -4.1320     4.2090     0.9670 H     1 <1>   0.0800 
 29 H       -5.2170     2.0520     1.9300 H     1 <1>   0.0800 
 30 H       -4.6480     0.5130     1.3210 H     1 <1>   0.0800 
 31 H       -4.4990     3.1790    -1.8500 H     1 <1>   0.0800 
 32 H       -5.0700     4.7000    -1.2120 H     1 <1>   0.0800 
 33 H       -6.8390     1.1680     0.3620 H     1 <1>   0.0800 
 34 H       -5.6100     0.9590    -0.8600 H     1 <1>   0.0800 
 35 H       -6.6070     3.5850     0.3060 H     1 <1>   0.0800 
 36 H       -6.7220     2.5050    -2.3010 H     1 <1>   0.4000 
@<TRIPOS>BOND
  1   1   2  1   
  2   1   3  1   
  3   2   4  ar  
  4   2   5  ar  
  5   3  17  1   
  6   3  18  1   
  7   3  19  1   
  8   4   6  ar  
  9   4   7  1   
 10   5   8  ar  
 11   5  20  1   
 12   6   9  ar  
 13   6  21  1   
 14   7  10  1   
 15   7  22  1   
 16   7  23  1   
 17   8   9  ar  
 18   8  24  1   
 19   9  25  1   
 20  10  11  1   
 21  10  12  1   
 22  10  26  1   
 23  11  13  1   
 24  11  27  1   
 25  11  28  1   
 26  12  14  1   
 27  12  29  1   
 28  12  30  1   
 29  13  15  1   
 30  13  31  1   
 31  13  32  1   
 32  14  15  1   
 33  14  33  1   
 34  14  34  1   
 35  15  16  1   
 36  15  35  1   
 37  16  36  1   
@<TRIPOS>SUBSTRUCTURE
  1 ****  10 GROUP 4 **** **** 0

# MOE 2024.06 (io_trps.svl 2023.06)
