@<TRIPOS>MOLECULE
NONAME
52 54 1 0 0 
SMALL
USER_CHARGES


@<TRIPOS>ATOM
  1 O       -1.9260     1.2450    -1.4670 O.2   1 <1>  -0.5700 
  2 C       -1.3480     1.2580    -0.3980 C.2   1 <1>   0.5440 
  3 N       -1.5660     0.2410     0.4990 N.am  1 <1>  -0.5390 
  4 C       -0.4260     2.3300    -0.0670 C.ar  1 <1>   0.0860 
  5 C       -2.3600    -0.9160     0.3990 C.2   1 <1>   0.1230 
  6 C        0.6690     2.1370     0.7790 C.ar  1 <1>  -0.1500 
  7 C       -0.6050     3.6100    -0.5920 C.ar  1 <1>  -0.1500 
  8 C       -1.7620    -2.1010     0.9930 C.2   1 <1>   0.6160 
  9 C       -3.5890    -0.8720    -0.1880 C.2   1 <1>  -0.1780 
 10 C        1.5280     3.1740     1.0950 C.ar  1 <1>  -0.1500 
 11 C        0.2530     4.6490    -0.2800 C.ar  1 <1>  -0.1500 
 12 O       -1.5080    -2.0730     2.1860 O.2   1 <1>  -0.5700 
 13 N       -1.4270    -3.2220     0.2540 N.am  1 <1>  -0.6600 
 14 C       -4.5700    -1.9110    -0.3410 C.ar  1 <1>   0.0280 
 15 C        1.3260     4.4370     0.5680 C.ar  1 <1>  -0.1430 
 16 C       -0.8890    -4.4510     0.9080 C.3   1 <1>   0.1400 
 17 C       -1.4710    -3.2300    -1.2350 C.3   1 <1>   0.1400 
 18 C       -5.3820    -1.9490    -1.4780 C.ar  1 <1>   0.1600 
 19 C       -4.7720    -2.9100     0.6040 C.ar  1 <1>  -0.1500 
 20 C        2.2670     5.5770     0.9150 C.3   1 <1>  -0.0970 
 21 C        0.3620    -5.0190     0.2210 C.3   1 <1>  -0.1600 
 22 C       -0.2000    -2.5860    -1.7990 C.3   1 <1>  -0.1600 
 23 N       -6.3090    -2.8540    -1.7440 N.ar  1 <1>  -0.6200 
 24 C       -5.7330    -3.8630     0.3480 C.ar  1 <1>  -0.1500 
 25 C        1.3700    -3.9610    -0.2620 C.3   1 <1>  -0.1600 
 26 C        1.0630    -3.4560    -1.6810 C.3   1 <1>  -0.1600 
 27 C       -6.4640    -3.7930    -0.8250 C.ar  1 <1>   0.1600 
 28 H       -0.9740     0.2510     1.3320 H     1 <1>   0.3700 
 29 H        0.8640     1.1650     1.1940 H     1 <1>   0.1500 
 30 H       -1.4330     3.7890    -1.2570 H     1 <1>   0.1500 
 31 H       -3.9060     0.0630    -0.6150 H     1 <1>   0.1500 
 32 H        2.3610     2.9940     1.7540 H     1 <1>   0.1500 
 33 H        0.0810     5.6250    -0.7010 H     1 <1>   0.1500 
 34 H       -0.6340    -4.2340     1.9310 H     1 <1>   0.0800 
 35 H       -1.6610    -5.2010     0.9250 H     1 <1>   0.0800 
 36 H       -1.5760    -4.2370    -1.5990 H     1 <1>   0.0800 
 37 H       -2.3250    -2.6790    -1.5830 H     1 <1>   0.0800 
 38 H       -5.2420    -1.1770    -2.2140 H     1 <1>   0.1500 
 39 H       -4.2030    -2.9410     1.5160 H     1 <1>   0.1500 
 40 H        3.2540     5.2030     1.1200 H     1 <1>   0.0800 
 41 H        1.9050     6.0960     1.7840 H     1 <1>   0.0800 
 42 H        2.3320     6.2730     0.0980 H     1 <1>   0.0800 
 43 H        0.8520    -5.6570     0.9340 H     1 <1>   0.0800 
 44 H        0.0670    -5.6510    -0.5980 H     1 <1>   0.0800 
 45 H       -0.3650    -2.3800    -2.8410 H     1 <1>   0.0800 
 46 H       -0.0360    -1.6390    -1.3160 H     1 <1>   0.0800 
 47 H       -5.9190    -4.6540     1.0510 H     1 <1>   0.1500 
 48 H        1.4110    -3.1380     0.4310 H     1 <1>   0.0800 
 49 H        2.3460    -4.4140    -0.2810 H     1 <1>   0.0800 
 50 H        0.9740    -4.2990    -2.3450 H     1 <1>   0.0800 
 51 H        1.9010    -2.8740    -2.0240 H     1 <1>   0.0800 
 52 H       -7.2130    -4.5430    -1.0160 H     1 <1>   0.1500 
@<TRIPOS>BOND
  1   1   2  2   
  2   2   3  am  
  3   2   4  1   
  4   3   5  1   
  5   3  28  1   
  6   4   6  ar  
  7   4   7  ar  
  8   5   8  1   
  9   5   9  2   
 10   6  10  ar  
 11   6  29  1   
 12   7  11  ar  
 13   7  30  1   
 14   8  12  2   
 15   8  13  am  
 16   9  14  1   
 17   9  31  1   
 18  10  15  ar  
 19  10  32  1   
 20  11  15  ar  
 21  11  33  1   
 22  13  16  1   
 23  13  17  1   
 24  14  18  ar  
 25  14  19  ar  
 26  15  20  1   
 27  16  21  1   
 28  16  34  1   
 29  16  35  1   
 30  17  22  1   
 31  17  36  1   
 32  17  37  1   
 33  18  23  ar  
 34  18  38  1   
 35  19  24  ar  
 36  19  39  1   
 37  20  40  1   
 38  20  41  1   
 39  20  42  1   
 40  21  25  1   
 41  21  43  1   
 42  21  44  1   
 43  22  26  1   
 44  22  45  1   
 45  22  46  1   
 46  23  27  ar  
 47  24  27  ar  
 48  24  47  1   
 49  25  26  1   
 50  25  48  1   
 51  25  49  1   
 52  26  50  1   
 53  26  51  1   
 54  27  52  1   
@<TRIPOS>SUBSTRUCTURE
  1 ****   5 GROUP 4 **** **** 0

# MOE 2024.06 (io_trps.svl 2023.06)
