@<TRIPOS>MOLECULE
NONAME
51 53 1 0 0 
SMALL
USER_CHARGES


@<TRIPOS>ATOM
  1 F        0.6810    -0.6370    -1.5430 F     1 <1>  -0.3400 
  2 C        1.0160    -1.0080    -0.3150 C.3   1 <1>   1.1640 
  3 F        0.0470    -0.5730     0.4840 F     1 <1>  -0.3400 
  4 F        0.9430    -2.3340    -0.2920 F     1 <1>  -0.3400 
  5 C        2.4050    -0.4870     0.0870 C.ar  1 <1>  -0.1440 
  6 C        3.5500    -1.2010    -0.2460 C.ar  1 <1>  -0.1500 
  7 C        2.5490     0.7110     0.7810 C.ar  1 <1>  -0.1500 
  8 C        4.8180    -0.7520     0.1000 C.ar  1 <1>   0.1000 
  9 C        3.8060     1.1740     1.1310 C.ar  1 <1>  -0.1500 
 10 N        5.9320    -1.5120    -0.2470 N.pl3 1 <1>  -0.8380 
 11 C        4.9310     0.4470     0.7940 C.ar  1 <1>  -0.1500 
 12 C        7.1410    -0.8640    -0.8430 C.3   1 <1>   0.2090 
 13 C        6.1360    -2.8290     0.4250 C.3   1 <1>   0.2090 
 14 C        8.3350    -0.8800     0.1350 C.3   1 <1>   0.3430 
 15 C        7.3450    -2.7880     1.3850 C.3   1 <1>   0.3430 
 16 N        8.5900    -2.2470     0.7290 N.4   1 <1>  -0.9590 
 17 C        9.7490    -2.2390     1.6620 C.3   1 <1>   0.4860 
 18 C       10.9890    -1.8520     0.8820 C.ar  1 <1>  -0.1430 
 19 C       11.6500    -2.7800     0.0890 C.ar  1 <1>  -0.1500 
 20 C       11.4620    -0.5500     0.9480 C.ar  1 <1>  -0.1500 
 21 C       12.7690    -2.3990    -0.6460 C.ar  1 <1>   0.0830 
 22 C       12.5700    -0.1620     0.2140 C.ar  1 <1>   0.0830 
 23 O       13.4660    -3.2440    -1.4440 O.3   1 <1>  -0.3630 
 24 C       13.2220    -1.0920    -0.5860 C.ar  1 <1>  -0.1500 
 25 O       12.9460     1.1340     0.3310 O.3   1 <1>  -0.3630 
 26 C       13.2660    -4.6400    -1.4120 C.3   1 <1>   0.0400 
 27 C       14.1150     1.6130    -0.3000 C.3   1 <1>   0.0400 
 28 H        3.4720    -2.1230    -0.7950 H     1 <1>   0.1500 
 29 H        1.6850     1.2960     1.0520 H     1 <1>   0.1500 
 30 H        3.9030     2.1030     1.6670 H     1 <1>   0.1500 
 31 H        5.8970     0.8170     1.0760 H     1 <1>   0.1500 
 32 H        6.9120     0.1520    -1.1170 H     1 <1>   0.0800 
 33 H        7.4070    -1.3850    -1.7460 H     1 <1>   0.0800 
 34 H        6.2880    -3.5870    -0.3240 H     1 <1>   0.0800 
 35 H        5.2520    -3.0930     0.9810 H     1 <1>   0.0800 
 36 H        8.1290    -0.1780     0.9260 H     1 <1>   0.0800 
 37 H        9.2120    -0.5350    -0.3890 H     1 <1>   0.0800 
 38 H        7.5260    -3.7830     1.7580 H     1 <1>   0.0800 
 39 H        7.0800    -2.1650     2.2220 H     1 <1>   0.0800 
 40 H        8.8390    -2.8610    -0.0560 H     1 <1>   0.4500 
 41 H        9.8900    -3.2170     2.0930 H     1 <1>   0.0800 
 42 H        9.5820    -1.5340     2.4610 H     1 <1>   0.0800 
 43 H       11.2980    -3.7930     0.0420 H     1 <1>   0.1500 
 44 H       10.9870     0.1920     1.5660 H     1 <1>   0.1500 
 45 H       14.0830    -0.8310    -1.1690 H     1 <1>   0.1500 
 46 H       14.0010    -5.0950    -2.0520 H     1 <1>   0.0800 
 47 H       12.2800    -4.8620    -1.7770 H     1 <1>   0.0800 
 48 H       13.3980    -4.9890    -0.4030 H     1 <1>   0.0800 
 49 H       14.2350     2.6500    -0.0410 H     1 <1>   0.0800 
 50 H       14.0050     1.5130    -1.3650 H     1 <1>   0.0800 
 51 H       14.9600     1.0490     0.0540 H     1 <1>   0.0800 
@<TRIPOS>BOND
  1   1   2  1   
  2   2   3  1   
  3   2   4  1   
  4   2   5  1   
  5   5   6  ar  
  6   5   7  ar  
  7   6   8  ar  
  8   6  28  1   
  9   7   9  ar  
 10   7  29  1   
 11   8  10  1   
 12   8  11  ar  
 13   9  11  ar  
 14   9  30  1   
 15  10  12  1   
 16  10  13  1   
 17  11  31  1   
 18  12  14  1   
 19  12  32  1   
 20  12  33  1   
 21  13  15  1   
 22  13  34  1   
 23  13  35  1   
 24  14  16  1   
 25  14  36  1   
 26  14  37  1   
 27  15  16  1   
 28  15  38  1   
 29  15  39  1   
 30  16  17  1   
 31  16  40  1   
 32  17  18  1   
 33  17  41  1   
 34  17  42  1   
 35  18  19  ar  
 36  18  20  ar  
 37  19  21  ar  
 38  19  43  1   
 39  20  22  ar  
 40  20  44  1   
 41  21  23  1   
 42  21  24  ar  
 43  22  24  ar  
 44  22  25  1   
 45  23  26  1   
 46  24  45  1   
 47  25  27  1   
 48  26  46  1   
 49  26  47  1   
 50  26  48  1   
 51  27  49  1   
 52  27  50  1   
 53  27  51  1   
@<TRIPOS>SUBSTRUCTURE
  1 ****  14 GROUP 4 **** **** 0

# MOE 2024.06 (io_trps.svl 2023.06)
