@<TRIPOS>MOLECULE
NONAME
46 47 1 0 0 
SMALL
USER_CHARGES


@<TRIPOS>ATOM
  1 O       -0.1250     0.0070     0.6020 O.2   1 <1>  -0.5700 
  2 C       -0.1230    -0.2650    -0.5820 C.2   1 <1>   0.6900 
  3 N       -1.2830    -0.4060    -1.2580 N.am  1 <1>  -0.7300 
  4 N        1.0240    -0.4440    -1.2770 N.am  1 <1>  -0.7300 
  5 C       -2.6170    -0.2160    -0.6660 C.3   1 <1>   0.2200 
  6 C        2.4120    -0.3140    -0.7780 C.3   1 <1>   0.2200 
  7 C       -3.0880    -1.5350    -0.0360 C.3   1 <1>  -0.0160 
  8 C       -3.5490     0.2820    -1.7700 C.3   1 <1>  -0.2400 
  9 C        2.6660    -1.2330     0.4300 C.3   1 <1>  -0.0170 
 10 C        2.7030     1.1590    -0.4880 C.3   1 <1>  -0.2400 
 11 C       -4.4300    -1.3830     0.6680 C.ar  1 <1>  -0.1440 
 12 C        4.1510    -1.3430     0.7460 C.ar  1 <1>  -0.1440 
 13 C       -5.5920    -1.8780     0.0970 C.ar  1 <1>  -0.1500 
 14 C       -4.4960    -0.7410     1.8950 C.ar  1 <1>  -0.1500 
 15 C        4.9610    -2.1990     0.0140 C.ar  1 <1>  -0.1500 
 16 C        4.7090    -0.5900     1.7680 C.ar  1 <1>  -0.1500 
 17 C       -6.8070    -1.7310     0.7430 C.ar  1 <1>  -0.1500 
 18 C       -5.7100    -0.5920     2.5420 C.ar  1 <1>  -0.1500 
 19 C        6.3120    -2.2970     0.2970 C.ar  1 <1>  -0.1500 
 20 C        6.0600    -0.6870     2.0520 C.ar  1 <1>  -0.1500 
 21 C       -6.8670    -1.0870     1.9670 C.ar  1 <1>  -0.1500 
 22 C        6.8630    -1.5400     1.3160 C.ar  1 <1>  -0.1500 
 23 H       -1.2640    -0.7600    -2.2090 H     1 <1>   0.3700 
 24 H        0.9450    -0.4690    -2.2890 H     1 <1>   0.3700 
 25 H       -2.5530     0.5350     0.1060 H     1 <1>   0.0800 
 26 H        3.0690    -0.6330    -1.5700 H     1 <1>   0.0800 
 27 H       -2.3590    -1.8530     0.6890 H     1 <1>   0.0800 
 28 H       -3.1560    -2.2950    -0.7920 H     1 <1>   0.0800 
 29 H       -3.6640    -0.4600    -2.5390 H     1 <1>   0.0800 
 30 H       -3.1610     1.1890    -2.1980 H     1 <1>   0.0800 
 31 H       -4.5180     0.4990    -1.3580 H     1 <1>   0.0800 
 32 H        2.2840    -2.2140     0.2140 H     1 <1>   0.0800 
 33 H        2.1440    -0.8610     1.2930 H     1 <1>   0.0800 
 34 H        2.1020     1.5070     0.3330 H     1 <1>   0.0800 
 35 H        2.4990     1.7580    -1.3560 H     1 <1>   0.0800 
 36 H        3.7380     1.2850    -0.2280 H     1 <1>   0.0800 
 37 H       -5.5580    -2.3810    -0.8540 H     1 <1>   0.1500 
 38 H       -3.6000    -0.3540     2.3500 H     1 <1>   0.1500 
 39 H        4.5420    -2.7940    -0.7780 H     1 <1>   0.1500 
 40 H        4.0920     0.0760     2.3450 H     1 <1>   0.1500 
 41 H       -7.7050    -2.1170     0.2950 H     1 <1>   0.1500 
 42 H       -5.7520    -0.0920     3.4940 H     1 <1>   0.1500 
 43 H        6.9340    -2.9630    -0.2750 H     1 <1>   0.1500 
 44 H        6.4850    -0.0980     2.8460 H     1 <1>   0.1500 
 45 H       -7.8110    -0.9720     2.4700 H     1 <1>   0.1500 
 46 H        7.9130    -1.6160     1.5370 H     1 <1>   0.1500 
@<TRIPOS>BOND
  1   1   2  2   
  2   2   3  am  
  3   2   4  am  
  4   3   5  1   
  5   3  23  1   
  6   4   6  1   
  7   4  24  1   
  8   5   7  1   
  9   5   8  1   
 10   5  25  1   
 11   6   9  1   
 12   6  10  1   
 13   6  26  1   
 14   7  11  1   
 15   7  27  1   
 16   7  28  1   
 17   8  29  1   
 18   8  30  1   
 19   8  31  1   
 20   9  12  1   
 21   9  32  1   
 22   9  33  1   
 23  10  34  1   
 24  10  35  1   
 25  10  36  1   
 26  11  13  ar  
 27  11  14  ar  
 28  12  15  ar  
 29  12  16  ar  
 30  13  17  ar  
 31  13  37  1   
 32  14  18  ar  
 33  14  38  1   
 34  15  19  ar  
 35  15  39  1   
 36  16  20  ar  
 37  16  40  1   
 38  17  21  ar  
 39  17  41  1   
 40  18  21  ar  
 41  18  42  1   
 42  19  22  ar  
 43  19  43  1   
 44  20  22  ar  
 45  20  44  1   
 46  21  45  1   
 47  22  46  1   
@<TRIPOS>SUBSTRUCTURE
  1 ****   1 GROUP 4 **** **** 0

# MOE 2024.06 (io_trps.svl 2023.06)
