@<TRIPOS>MOLECULE
NONAME
52 54 1 0 0 
SMALL
USER_CHARGES


@<TRIPOS>ATOM
  1 O       -0.3080     0.1220    -0.4150 O.2   1 <1>  -0.5700 
  2 C       -0.1040    -1.0310    -0.0910 C.2   1 <1>   0.5440 
  3 N        1.1660    -1.4700     0.1690 N.am  1 <1>  -0.5470 
  4 C       -1.1860    -1.9900     0.0240 C.ar  1 <1>   0.0860 
  5 C        2.4270    -1.0590    -0.2760 C.ar  1 <1>   0.1170 
  6 C       -0.9670    -3.3410    -0.2450 C.ar  1 <1>  -0.1500 
  7 C       -2.4710    -1.6180     0.4080 C.ar  1 <1>  -0.1500 
  8 C        3.3880    -2.0660    -0.4520 C.ar  1 <1>   0.1000 
  9 C        2.7540     0.2640    -0.5320 C.ar  1 <1>  -0.1500 
 10 C       -1.9630    -4.2900    -0.1100 C.ar  1 <1>   0.0830 
 11 C       -3.4870    -2.5480     0.5420 C.ar  1 <1>   0.0830 
 12 N        3.0480    -3.4160    -0.2180 N.pl3 1 <1>  -0.8380 
 13 C        4.6620    -1.7110    -0.8760 C.ar  1 <1>  -0.1500 
 14 C        4.0280     0.6000    -0.9560 C.ar  1 <1>  -0.1500 
 15 O       -1.6130    -5.5740    -0.3870 O.3   1 <1>  -0.3620 
 16 C       -3.2350    -3.8930     0.2870 C.ar  1 <1>  -0.1500 
 17 O       -4.6960    -2.0700     0.9290 O.3   1 <1>  -0.3620 
 18 C        3.7970    -4.1100     0.8700 C.3   1 <1>   0.2090 
 19 C        2.8700    -4.2450    -1.4490 C.3   1 <1>   0.2090 
 20 C        4.9820    -0.3870    -1.1260 C.ar  1 <1>  -0.1500 
 21 C       -2.5990    -6.5830    -0.4680 C.3   1 <1>   0.0400 
 22 C       -5.8190    -2.9110     1.0720 C.3   1 <1>   0.0400 
 23 C        3.1390    -5.4680     1.2050 C.3   1 <1>   0.3430 
 24 C        2.2240    -5.6080    -1.1130 C.3   1 <1>   0.3430 
 25 N        2.9510    -6.3470    -0.0120 N.4   1 <1>  -0.9590 
 26 C        2.2250    -7.6030     0.3460 C.3   1 <1>   0.2630 
 27 H        1.2260    -2.4310     0.5000 H     1 <1>   0.3700 
 28 H       -0.0030    -3.6650    -0.5770 H     1 <1>   0.1500 
 29 H       -2.6810    -0.5810     0.6070 H     1 <1>   0.1500 
 30 H        2.0130     1.0320    -0.3980 H     1 <1>   0.1500 
 31 H        5.4110    -2.4660    -1.0180 H     1 <1>   0.1500 
 32 H        4.2720     1.6300    -1.1510 H     1 <1>   0.1500 
 33 H       -4.0180    -4.6150     0.3990 H     1 <1>   0.1500 
 34 H        3.8000    -3.4870     1.7490 H     1 <1>   0.0800 
 35 H        4.8200    -4.2630     0.5710 H     1 <1>   0.0800 
 36 H        3.8240    -4.3980    -1.9240 H     1 <1>   0.0800 
 37 H        2.2400    -3.7140    -2.1440 H     1 <1>   0.0800 
 38 H        5.9730    -0.1220    -1.4550 H     1 <1>   0.1500 
 39 H       -2.1250    -7.4970    -0.7750 H     1 <1>   0.0800 
 40 H       -3.3360    -6.2940    -1.1980 H     1 <1>   0.0800 
 41 H       -3.0500    -6.7130     0.5000 H     1 <1>   0.0800 
 42 H       -6.6540    -2.3030     1.3700 H     1 <1>   0.0800 
 43 H       -5.6130    -3.6450     1.8300 H     1 <1>   0.0800 
 44 H       -6.0290    -3.3780     0.1260 H     1 <1>   0.0800 
 45 H        2.1800    -5.2690     1.6530 H     1 <1>   0.0800 
 46 H        3.7430    -5.9790     1.9370 H     1 <1>   0.0800 
 47 H        2.1990    -6.2130    -2.0050 H     1 <1>   0.0800 
 48 H        1.2050    -5.4330    -0.8120 H     1 <1>   0.0800 
 49 H        3.8870    -6.5910    -0.3660 H     1 <1>   0.4500 
 50 H        1.2370    -7.3720     0.7120 H     1 <1>   0.0800 
 51 H        2.7590    -8.1410     1.1120 H     1 <1>   0.0800 
 52 H        2.1310    -8.2410    -0.5180 H     1 <1>   0.0800 
@<TRIPOS>BOND
  1   1   2  2   
  2   2   3  am  
  3   2   4  1   
  4   3   5  1   
  5   3  27  1   
  6   4   6  ar  
  7   4   7  ar  
  8   5   8  ar  
  9   5   9  ar  
 10   6  10  ar  
 11   6  28  1   
 12   7  11  ar  
 13   7  29  1   
 14   8  12  1   
 15   8  13  ar  
 16   9  14  ar  
 17   9  30  1   
 18  10  15  1   
 19  10  16  ar  
 20  11  16  ar  
 21  11  17  1   
 22  12  18  1   
 23  12  19  1   
 24  13  20  ar  
 25  13  31  1   
 26  14  20  ar  
 27  14  32  1   
 28  15  21  1   
 29  16  33  1   
 30  17  22  1   
 31  18  23  1   
 32  18  34  1   
 33  18  35  1   
 34  19  24  1   
 35  19  36  1   
 36  19  37  1   
 37  20  38  1   
 38  21  39  1   
 39  21  40  1   
 40  21  41  1   
 41  22  42  1   
 42  22  43  1   
 43  22  44  1   
 44  23  25  1   
 45  23  45  1   
 46  23  46  1   
 47  24  25  1   
 48  24  47  1   
 49  24  48  1   
 50  25  26  1   
 51  25  49  1   
 52  26  50  1   
 53  26  51  1   
 54  26  52  1   
@<TRIPOS>SUBSTRUCTURE
  1 ****   6 GROUP 4 **** **** 0

# MOE 2024.06 (io_trps.svl 2023.06)
