@<TRIPOS>MOLECULE
NONAME
49 51 1 0 0 
SMALL
USER_CHARGES


@<TRIPOS>ATOM
  1 O        0.1620     0.5470    -1.2770 O.co2 1 <1>  -0.9000 
  2 C       -0.4690     1.6080    -1.3730 C.2   1 <1>   0.9060 
  3 O       -0.9530     1.9810    -2.4440 O.co2 1 <1>  -0.9000 
  4 C       -0.6870     2.4060    -0.0940 C.3   1 <1>  -0.1860 
  5 C       -2.0550     1.9870     0.8110 C.3   1 <1>  -0.0190 
  6 C       -0.7440     4.0250    -0.3630 C.3   1 <1>  -0.0800 
  7 C       -2.8240     0.7000     0.4570 C.2   1 <1>   0.5690 
  8 C       -3.0000     3.3300     0.8960 C.3   1 <1>  -0.0800 
  9 C       -1.8590     3.6800     0.2880 C.3   1 <1>  -0.1600 
 10 C       -1.6790     5.3590    -0.2270 C.3   1 <1>  -0.1600 
 11 O       -3.9990     0.6180     0.7410 O.2   1 <1>  -0.5700 
 12 N       -2.1770    -0.3490    -0.0970 N.am  1 <1>  -0.7300 
 13 C       -3.0300     4.9470     0.6670 C.3   1 <1>  -0.1600 
 14 C       -2.8100    -1.5390    -0.6580 C.3   1 <1>   0.3640 
 15 C       -1.9490    -2.7650    -0.3650 C.ar  1 <1>  -0.1430 
 16 C       -2.9680    -1.3200    -2.1590 C.3   1 <1>  -0.2400 
 17 C       -2.5040    -3.8740     0.2540 C.ar  1 <1>  -0.1500 
 18 C       -0.6070    -2.7990    -0.7120 C.ar  1 <1>  -0.1500 
 19 C       -1.7520    -5.0060     0.5250 C.ar  1 <1>   0.0820 
 20 C        0.1640    -3.9140    -0.4390 C.ar  1 <1>  -0.1500 
 21 O       -2.4400    -6.0230     1.1180 O.3   1 <1>  -0.3620 
 22 C       -0.3870    -5.0280     0.1890 C.ar  1 <1>   0.0820 
 23 C       -2.1120    -7.3700     0.8590 C.3   1 <1>   0.0400 
 24 O        0.3780    -6.1180     0.4950 O.3   1 <1>  -0.3630 
 25 C        1.7870    -6.0640     0.4480 C.3   1 <1>   0.0400 
 26 H        0.1790     2.1890     0.5090 H     1 <1>   0.0800 
 27 H       -1.7050     1.7850     1.8120 H     1 <1>   0.0800 
 28 H        0.1460     4.3470     0.1570 H     1 <1>   0.0800 
 29 H       -3.8680     3.0370     0.3190 H     1 <1>   0.0800 
 30 H       -2.3700     3.4540    -0.7490 H     1 <1>   0.0800 
 31 H       -1.3340     3.8970     1.3160 H     1 <1>   0.0800 
 32 H       -1.9750     5.6930    -1.2110 H     1 <1>   0.0800 
 33 H       -1.1420     6.1660     0.2440 H     1 <1>   0.0800 
 34 H       -1.2160    -0.2010    -0.4600 H     1 <1>   0.3700 
 35 H       -3.0170     5.4560     1.6180 H     1 <1>   0.0800 
 36 H       -3.9280     5.2440     0.1490 H     1 <1>   0.0800 
 37 H       -3.7830    -1.6660    -0.2150 H     1 <1>   0.0800 
 38 H       -2.0120    -1.1190    -2.6120 H     1 <1>   0.0800 
 39 H       -3.6160    -0.4820    -2.3380 H     1 <1>   0.0800 
 40 H       -3.3930    -2.1940    -2.6150 H     1 <1>   0.0800 
 41 H       -3.5410    -3.8690     0.5350 H     1 <1>   0.1500 
 42 H       -0.1540    -1.9480    -1.1970 H     1 <1>   0.1500 
 43 H        1.1960    -3.8800    -0.7290 H     1 <1>   0.1500 
 44 H       -2.9650    -7.9760     1.1040 H     1 <1>   0.0800 
 45 H       -1.2780    -7.6480     1.4770 H     1 <1>   0.0800 
 46 H       -1.8690    -7.4780    -0.1830 H     1 <1>   0.0800 
 47 H        2.1700    -6.9840     0.8510 H     1 <1>   0.0800 
 48 H        2.1240    -5.2350     1.0460 H     1 <1>   0.0800 
 49 H        2.0990    -5.9550    -0.5750 H     1 <1>   0.0800 
@<TRIPOS>BOND
  1   1   2  ar  
  2   2   3  ar  
  3   2   4  1   
  4   4   5  1   
  5   4   6  1   
  6   4  26  1   
  7   5   7  1   
  8   5   8  1   
  9   5  27  1   
 10   6   9  1   
 11   6  10  1   
 12   6  28  1   
 13   7  11  2   
 14   7  12  am  
 15   8   9  1   
 16   8  13  1   
 17   8  29  1   
 18   9  30  1   
 19   9  31  1   
 20  10  13  1   
 21  10  32  1   
 22  10  33  1   
 23  12  14  1   
 24  12  34  1   
 25  13  35  1   
 26  13  36  1   
 27  14  15  1   
 28  14  16  1   
 29  14  37  1   
 30  15  17  ar  
 31  15  18  ar  
 32  16  38  1   
 33  16  39  1   
 34  16  40  1   
 35  17  19  ar  
 36  17  41  1   
 37  18  20  ar  
 38  18  42  1   
 39  19  21  1   
 40  19  22  ar  
 41  20  22  ar  
 42  20  43  1   
 43  21  23  1   
 44  22  24  1   
 45  23  44  1   
 46  23  45  1   
 47  23  46  1   
 48  24  25  1   
 49  25  47  1   
 50  25  48  1   
 51  25  49  1   
@<TRIPOS>SUBSTRUCTURE
  1 ****  12 GROUP 4 **** **** 0

# MOE 2024.06 (io_trps.svl 2023.06)
