@<TRIPOS>MOLECULE
NONAME
28 29 1 0 0 
SMALL
USER_CHARGES


@<TRIPOS>ATOM
  1 S       -0.1310     0.1020    -0.5540 S.o2  1 <1>   1.4470 
  2 O       -0.4910     0.1860    -1.9520 O.2   1 <1>  -0.6500 
  3 O       -0.1840    -1.1930     0.0880 O.2   1 <1>  -0.6500 
  4 N       -1.2120     1.0970     0.2920 N.am  1 <1>  -0.8490 
  5 C        1.4880     0.8300    -0.2010 C.ar  1 <1>  -0.0090 
  6 C       -2.4210     0.3660     0.7190 C.3   1 <1>   0.1960 
  7 C       -1.5770     2.3280    -0.4210 C.3   1 <1>   0.1960 
  8 C        2.0340     1.8480    -0.9730 C.ar  1 <1>   0.1900 
  9 C        2.2380     0.4030     0.8920 C.ar  1 <1>  -0.1500 
 10 C       -3.6430     1.2730     0.9940 C.3   1 <1>   0.1200 
 11 C       -2.4660     3.2470     0.4500 C.3   1 <1>   0.1200 
 12 F        1.3730     2.3090    -2.0000 F     1 <1>  -0.1900 
 13 C        3.2660     2.4300    -0.7140 C.ar  1 <1>  -0.1500 
 14 C        3.4670     0.9810     1.1550 C.ar  1 <1>   0.1900 
 15 O       -3.2470     2.5530     1.3890 O.3   1 <1>  -0.5600 
 16 C        4.0010     1.9880     0.3720 C.ar  1 <1>  -0.1500 
 17 F        4.1500     0.5600     2.1840 F     1 <1>  -0.1900 
 18 H       -2.1870    -0.1870     1.6130 H     1 <1>   0.0800 
 19 H       -2.7050    -0.3530    -0.0330 H     1 <1>   0.0800 
 20 H       -2.1070     2.0790    -1.3250 H     1 <1>   0.0800 
 21 H       -0.6950     2.8740    -0.7030 H     1 <1>   0.0800 
 22 H        1.8690    -0.3770     1.5370 H     1 <1>   0.1500 
 23 H       -4.2490     0.8530     1.7770 H     1 <1>   0.0800 
 24 H       -4.2470     1.3660     0.1090 H     1 <1>   0.0800 
 25 H       -3.1250     3.8220    -0.1760 H     1 <1>   0.0800 
 26 H       -1.8460     3.9300     1.0030 H     1 <1>   0.0800 
 27 H        3.6380     3.2130    -1.3530 H     1 <1>   0.1500 
 28 H        4.9610     2.4100     0.6110 H     1 <1>   0.1500 
@<TRIPOS>BOND
  1   1   2  2   
  2   1   3  2   
  3   1   4  am  
  4   1   5  1   
  5   4   6  1   
  6   4   7  1   
  7   5   8  ar  
  8   5   9  ar  
  9   6  10  1   
 10   6  18  1   
 11   6  19  1   
 12   7  11  1   
 13   7  20  1   
 14   7  21  1   
 15   8  12  1   
 16   8  13  ar  
 17   9  14  ar  
 18   9  22  1   
 19  10  15  1   
 20  10  23  1   
 21  10  24  1   
 22  11  15  1   
 23  11  25  1   
 24  11  26  1   
 25  13  16  ar  
 26  13  27  1   
 27  14  16  ar  
 28  14  17  1   
 29  16  28  1   
@<TRIPOS>SUBSTRUCTURE
  1 ****   5 GROUP 4 **** **** 0

# MOE 2024.06 (io_trps.svl 2023.06)
