@<TRIPOS>MOLECULE
NONAME
37 39 1 0 0 
SMALL
USER_CHARGES


@<TRIPOS>ATOM
  1 S       -0.1000    -0.0510    -0.5100 S.3   1 <1>  -0.4600 
  2 C       -1.4170     0.3450     0.6800 C.3   1 <1>   0.0700 
  3 C       -0.4450    -1.7990    -0.8710 C.3   1 <1>   0.0700 
  4 C       -2.7780    -0.0640     0.1050 C.3   1 <1>   0.2090 
  5 C       -1.9150    -1.9580    -1.2780 C.3   1 <1>   0.2090 
  6 N       -2.8250    -1.5300    -0.1770 N.pl3 1 <1>  -0.8380 
  7 C       -4.0290    -2.1900    -0.0600 C.ar  1 <1>   0.4100 
  8 N       -5.1190    -1.5420    -0.3510 N.ar  1 <1>  -0.6200 
  9 C       -4.0280    -3.5300     0.3560 C.ar  1 <1>  -0.1500 
 10 C       -6.3120    -2.1940    -0.2630 C.ar  1 <1>   0.3100 
 11 C       -5.1870    -4.2320     0.4540 C.ar  1 <1>  -0.1430 
 12 C       -7.5350    -1.5240    -0.5780 C.ar  1 <1>   0.0820 
 13 C       -6.3880    -3.5600     0.1240 C.ar  1 <1>   0.0000 
 14 C       -5.1710    -5.6850     0.9080 C.3   1 <1>  -0.0970 
 15 O       -7.6280    -0.2150    -0.9440 O.3   1 <1>  -0.3630 
 16 C       -8.7330    -2.1920    -0.5390 C.ar  1 <1>  -0.1500 
 17 C       -7.6470    -4.1960     0.1580 C.ar  1 <1>  -0.1500 
 18 C       -6.8530     0.7780    -0.3080 C.3   1 <1>   0.0400 
 19 C       -8.7950    -3.5320    -0.1690 C.ar  1 <1>  -0.1500 
 20 H       -1.3740     1.4030     0.8620 H     1 <1>   0.0800 
 21 H       -1.2100    -0.1930     1.5880 H     1 <1>   0.0800 
 22 H       -0.2290    -2.3660     0.0160 H     1 <1>   0.0800 
 23 H        0.2130    -2.0950    -1.6670 H     1 <1>   0.0800 
 24 H       -2.9720     0.4830    -0.8020 H     1 <1>   0.0800 
 25 H       -3.5450     0.1880     0.8160 H     1 <1>   0.0800 
 26 H       -2.1050    -2.9870    -1.5270 H     1 <1>   0.0800 
 27 H       -2.1130    -1.3640    -2.1540 H     1 <1>   0.0800 
 28 H       -3.0780    -3.9660     0.5960 H     1 <1>   0.1500 
 29 H       -4.1690    -6.0070     1.1280 H     1 <1>   0.0800 
 30 H       -5.5670    -6.3180     0.1340 H     1 <1>   0.0800 
 31 H       -5.7640    -5.8000     1.7970 H     1 <1>   0.0800 
 32 H       -9.6400    -1.6730    -0.7950 H     1 <1>   0.1500 
 33 H       -7.7100    -5.2290     0.4450 H     1 <1>   0.1500 
 34 H       -7.3690     1.7160    -0.4000 H     1 <1>   0.0800 
 35 H       -5.8990     0.8380    -0.8010 H     1 <1>   0.0800 
 36 H       -6.7290     0.5210     0.7290 H     1 <1>   0.0800 
 37 H       -9.7500    -4.0280    -0.1440 H     1 <1>   0.1500 
@<TRIPOS>BOND
  1   1   2  1   
  2   1   3  1   
  3   2   4  1   
  4   2  20  1   
  5   2  21  1   
  6   3   5  1   
  7   3  22  1   
  8   3  23  1   
  9   4   6  1   
 10   4  24  1   
 11   4  25  1   
 12   5   6  1   
 13   5  26  1   
 14   5  27  1   
 15   6   7  1   
 16   7   8  ar  
 17   7   9  ar  
 18   8  10  ar  
 19   9  11  ar  
 20   9  28  1   
 21  10  12  ar  
 22  10  13  ar  
 23  11  13  ar  
 24  11  14  1   
 25  12  15  1   
 26  12  16  ar  
 27  13  17  ar  
 28  14  29  1   
 29  14  30  1   
 30  14  31  1   
 31  15  18  1   
 32  16  19  ar  
 33  16  32  1   
 34  17  19  ar  
 35  17  33  1   
 36  18  34  1   
 37  18  35  1   
 38  18  36  1   
 39  19  37  1   
@<TRIPOS>SUBSTRUCTURE
  1 ****   8 GROUP 4 **** **** 0

# MOE 2024.06 (io_trps.svl 2023.06)
