@<TRIPOS>MOLECULE
NONAME
33 34 1 0 0 
SMALL
USER_CHARGES


@<TRIPOS>ATOM
  1 BR      -2.2820    -2.2250    -1.7380 Br    1 <1>  -0.1110 
  2 C       -0.8520    -2.6140    -0.5130 C.ar  1 <1>   0.1110 
  3 C        0.3090    -3.1790    -1.0040 C.ar  1 <1>  -0.1500 
  4 C       -1.0270    -2.3160     0.8260 C.ar  1 <1>  -0.1500 
  5 C        1.3610    -3.4630    -0.1350 C.ar  1 <1>   0.0860 
  6 C        0.0080    -2.6020     1.7010 C.ar  1 <1>  -0.1500 
  7 C        1.1760    -3.1690     1.2170 C.ar  1 <1>   0.1770 
  8 C        2.5880    -4.0410    -0.6280 C.2   1 <1>   0.5440 
  9 CL       2.4410    -3.5170     2.3700 Cl    1 <1>  -0.1770 
 10 O        2.5870    -5.2110    -0.9580 O.2   1 <1>  -0.5700 
 11 N        3.7420    -3.2960    -0.7720 N.am  1 <1>  -0.6600 
 12 C        3.7870    -1.8100    -0.6670 C.3   1 <1>   0.1400 
 13 C        5.0470    -3.9420    -1.0830 C.3   1 <1>   0.1400 
 14 C        4.8300    -1.3900     0.3720 C.3   1 <1>  -0.1600 
 15 C        6.0900    -3.5310    -0.0390 C.3   1 <1>  -0.1600 
 16 C        6.2120    -2.0010     0.0710 C.3   1 <1>  -0.0190 
 17 C        7.2630    -1.6060     1.1080 C.2   1 <1>   0.5690 
 18 O        6.9720    -1.4760     2.2680 O.2   1 <1>  -0.5700 
 19 N        8.5340    -1.4050     0.7160 N.am  1 <1>  -0.8000 
 20 H        0.4040    -3.4040    -2.0520 H     1 <1>   0.1500 
 21 H       -1.9460    -1.8760     1.1710 H     1 <1>   0.1500 
 22 H       -0.0870    -2.3910     2.7520 H     1 <1>   0.1500 
 23 H        2.8280    -1.4100    -0.3920 H     1 <1>   0.0800 
 24 H        4.0510    -1.4040    -1.6290 H     1 <1>   0.0800 
 25 H        5.3640    -3.6370    -2.0650 H     1 <1>   0.0800 
 26 H        4.9510    -5.0150    -1.0820 H     1 <1>   0.0800 
 27 H        4.4980    -1.7050     1.3460 H     1 <1>   0.0800 
 28 H        4.9060    -0.3170     0.3890 H     1 <1>   0.0800 
 29 H        7.0410    -3.9560    -0.3040 H     1 <1>   0.0800 
 30 H        5.8040    -3.9400     0.9160 H     1 <1>   0.0800 
 31 H        6.5370    -1.6210    -0.8810 H     1 <1>   0.0800 
 32 H        9.2300    -1.1500     1.4180 H     1 <1>   0.3700 
 33 H        8.8670    -1.5090    -0.2410 H     1 <1>   0.3700 
@<TRIPOS>BOND
  1   1   2  1   
  2   2   3  ar  
  3   2   4  ar  
  4   3   5  ar  
  5   3  20  1   
  6   4   6  ar  
  7   4  21  1   
  8   5   7  ar  
  9   5   8  1   
 10   6   7  ar  
 11   6  22  1   
 12   7   9  1   
 13   8  10  2   
 14   8  11  am  
 15  11  12  1   
 16  11  13  1   
 17  12  14  1   
 18  12  23  1   
 19  12  24  1   
 20  13  15  1   
 21  13  25  1   
 22  13  26  1   
 23  14  16  1   
 24  14  27  1   
 25  14  28  1   
 26  15  16  1   
 27  15  29  1   
 28  15  30  1   
 29  16  17  1   
 30  16  31  1   
 31  17  18  2   
 32  17  19  am  
 33  19  32  1   
 34  19  33  1   
@<TRIPOS>SUBSTRUCTURE
  1 ****  11 GROUP 4 **** **** 0

# MOE 2024.06 (io_trps.svl 2023.06)
