@<TRIPOS>MOLECULE
NONAME
44 46 1 0 0 
SMALL
USER_CHARGES


@<TRIPOS>ATOM
  1 O       -2.3440    -0.2270    -1.7110 O.3   1 <1>  -0.6800 
  2 C       -2.8860    -0.8060    -0.5910 C.3   1 <1>   0.7670 
  3 C       -1.7990    -1.5280     0.1390 C.1   1 <1>  -0.2000 
  4 C       -4.0510    -1.6950    -0.9970 C.ar  1 <1>  -0.1440 
  5 C       -3.5830     0.2600     0.2410 C.ar  1 <1>  -0.1440 
  6 C       -0.9040    -2.0880     0.6890 C.1   1 <1>  -0.2000 
  7 C       -5.2210    -1.2090    -0.4410 C.ar  1 <1>   0.0000 
  8 C       -4.0530    -2.8290    -1.7920 C.ar  1 <1>  -0.1500 
  9 C       -4.9370    -0.0200     0.3110 C.ar  1 <1>   0.0000 
 10 C       -3.0480     1.3710     0.8690 C.ar  1 <1>  -0.1500 
 11 C        0.2700    -2.7580     1.3030 C.3   1 <1>   0.5430 
 12 C       -6.4190    -1.8720    -0.6710 C.ar  1 <1>  -0.1500 
 13 C       -5.2510    -3.4870    -2.0200 C.ar  1 <1>  -0.1500 
 14 C       -5.7760     0.8200     1.0310 C.ar  1 <1>  -0.1500 
 15 C       -3.8890     2.2080     1.5860 C.ar  1 <1>  -0.1500 
 16 N        1.2770    -2.9610     0.2260 N.4   1 <1>  -0.9590 
 17 C       -6.4280    -3.0110    -1.4600 C.ar  1 <1>  -0.1500 
 18 C       -5.2470     1.9310     1.6670 C.ar  1 <1>  -0.1500 
 19 C        2.3330    -3.9320     0.6150 C.3   1 <1>   0.3430 
 20 C        1.8420    -1.6570    -0.2260 C.3   1 <1>   0.3430 
 21 C        1.7610    -5.3450     0.6120 C.3   1 <1>  -0.2400 
 22 C        2.4410    -1.8150    -1.6190 C.3   1 <1>  -0.2400 
 23 H       -3.0750     0.2370    -2.1580 H     1 <1>   0.4000 
 24 H       -3.1400    -3.1950    -2.2280 H     1 <1>   0.1500 
 25 H       -1.9950     1.5850     0.8020 H     1 <1>   0.1500 
 26 H       -0.0430    -3.7040     1.7140 H     1 <1>   0.0800 
 27 H        0.6770    -2.1510     2.0950 H     1 <1>   0.0800 
 28 H       -7.3310    -1.5010    -0.2390 H     1 <1>   0.1500 
 29 H       -5.2710    -4.3710    -2.6350 H     1 <1>   0.1500 
 30 H       -6.8280     0.6070     1.0920 H     1 <1>   0.1500 
 31 H       -3.4890     3.0760     2.0810 H     1 <1>   0.1500 
 32 H        0.7510    -3.3450    -0.5690 H     1 <1>   0.4500 
 33 H       -7.3540    -3.5290    -1.6420 H     1 <1>   0.1500 
 34 H       -5.8930     2.5860     2.2270 H     1 <1>   0.1500 
 35 H        2.7270    -3.6890     1.5900 H     1 <1>   0.0800 
 36 H        3.1460    -3.8920    -0.0920 H     1 <1>   0.0800 
 37 H        2.5920    -1.3110     0.4680 H     1 <1>   0.0800 
 38 H        1.0610    -0.9140    -0.2760 H     1 <1>   0.0800 
 39 H        1.0110    -5.4760     1.3700 H     1 <1>   0.0800 
 40 H        2.5540    -6.0440     0.8180 H     1 <1>   0.0800 
 41 H        1.3510    -5.5890    -0.3520 H     1 <1>   0.0800 
 42 H        3.2810    -2.4850    -1.6200 H     1 <1>   0.0800 
 43 H        2.7890    -0.8560    -1.9600 H     1 <1>   0.0800 
 44 H        1.6970    -2.1600    -2.3150 H     1 <1>   0.0800 
@<TRIPOS>BOND
  1   1   2  1   
  2   1  23  1   
  3   2   3  1   
  4   2   4  1   
  5   2   5  1   
  6   3   6  3   
  7   4   7  ar  
  8   4   8  ar  
  9   5   9  ar  
 10   5  10  ar  
 11   6  11  1   
 12   7   9  1   
 13   7  12  ar  
 14   8  13  ar  
 15   8  24  1   
 16   9  14  ar  
 17  10  15  ar  
 18  10  25  1   
 19  11  16  1   
 20  11  26  1   
 21  11  27  1   
 22  12  17  ar  
 23  12  28  1   
 24  13  17  ar  
 25  13  29  1   
 26  14  18  ar  
 27  14  30  1   
 28  15  18  ar  
 29  15  31  1   
 30  16  19  1   
 31  16  20  1   
 32  16  32  1   
 33  17  33  1   
 34  18  34  1   
 35  19  21  1   
 36  19  35  1   
 37  19  36  1   
 38  20  22  1   
 39  20  37  1   
 40  20  38  1   
 41  21  39  1   
 42  21  40  1   
 43  21  41  1   
 44  22  42  1   
 45  22  43  1   
 46  22  44  1   
@<TRIPOS>SUBSTRUCTURE
  1 ****   3 GROUP 4 **** **** 0

# MOE 2024.06 (io_trps.svl 2023.06)
