@<TRIPOS>MOLECULE
NONAME
40 41 1 0 0 
SMALL
USER_CHARGES


@<TRIPOS>ATOM
  1 O        0.1040    -0.6720     0.6860 O.3   1 <1>  -0.3630 
  2 C       -1.0780    -1.0390     0.1270 C.ar  1 <1>   0.0830 
  3 C        1.1770    -0.6120    -0.2110 C.3   1 <1>   0.1200 
  4 C       -1.4070    -2.3910     0.0390 C.ar  1 <1>   0.0830 
  5 C       -1.9530    -0.0580    -0.3370 C.ar  1 <1>   0.0830 
  6 C        2.4200    -0.2660     0.6060 C.3   1 <1>   0.3430 
  7 O       -0.4990    -3.3060     0.4890 O.3   1 <1>  -0.3630 
  8 C       -2.6340    -2.7550    -0.5090 C.ar  1 <1>  -0.1500 
  9 O       -1.5610     1.2460    -0.2450 O.3   1 <1>  -0.3630 
 10 C       -3.1750    -0.4430    -0.8810 C.ar  1 <1>  -0.1500 
 11 N        3.6620    -0.2300    -0.2330 N.4   1 <1>  -0.9590 
 12 C       -0.8900    -4.6360     0.7540 C.3   1 <1>   0.0400 
 13 C       -3.5100    -1.7840    -0.9630 C.ar  1 <1>  -0.1500 
 14 C       -2.4830     2.2960    -0.4400 C.3   1 <1>   0.0400 
 15 C        4.0450    -1.5500    -0.7940 C.3   1 <1>   0.3430 
 16 C        4.8420     0.2410     0.5310 C.3   1 <1>   0.3430 
 17 C        5.5220    -1.4040    -1.1340 C.3   1 <1>  -0.1600 
 18 C        6.0350    -0.2350    -0.2860 C.3   1 <1>  -0.1600 
 19 H        0.9600     0.1490    -0.9390 H     1 <1>   0.0800 
 20 H        1.2670    -1.5760    -0.6810 H     1 <1>   0.0800 
 21 H        2.5330    -1.0000     1.3870 H     1 <1>   0.0800 
 22 H        2.2650     0.6970     1.0630 H     1 <1>   0.0800 
 23 H       -2.9240    -3.7850    -0.5970 H     1 <1>   0.1500 
 24 H       -3.8760     0.2820    -1.2490 H     1 <1>   0.1500 
 25 H        3.5250     0.4210    -1.0170 H     1 <1>   0.4500 
 26 H       -0.0680    -5.1390     1.2310 H     1 <1>   0.0800 
 27 H       -1.1280    -5.1250    -0.1740 H     1 <1>   0.0800 
 28 H       -1.7410    -4.6250     1.4130 H     1 <1>   0.0800 
 29 H       -4.4570    -2.0730    -1.3850 H     1 <1>   0.1500 
 30 H       -1.9890     3.2230    -0.2100 H     1 <1>   0.0800 
 31 H       -3.3190     2.1550     0.2240 H     1 <1>   0.0800 
 32 H       -2.8020     2.2980    -1.4670 H     1 <1>   0.0800 
 33 H        3.4580    -1.8030    -1.6630 H     1 <1>   0.0800 
 34 H        3.9230    -2.3150    -0.0440 H     1 <1>   0.0800 
 35 H        4.8600    -0.2310     1.5010 H     1 <1>   0.0800 
 36 H        4.8400     1.3130     0.6530 H     1 <1>   0.0800 
 37 H        5.6370    -1.1870    -2.1820 H     1 <1>   0.0800 
 38 H        6.0480    -2.3170    -0.9150 H     1 <1>   0.0800 
 39 H        6.8400    -0.5340     0.3630 H     1 <1>   0.0800 
 40 H        6.3840     0.5630    -0.9180 H     1 <1>   0.0800 
@<TRIPOS>BOND
  1   1   2  1   
  2   1   3  1   
  3   2   4  ar  
  4   2   5  ar  
  5   3   6  1   
  6   3  19  1   
  7   3  20  1   
  8   4   7  1   
  9   4   8  ar  
 10   5   9  1   
 11   5  10  ar  
 12   6  11  1   
 13   6  21  1   
 14   6  22  1   
 15   7  12  1   
 16   8  13  ar  
 17   8  23  1   
 18   9  14  1   
 19  10  13  ar  
 20  10  24  1   
 21  11  15  1   
 22  11  16  1   
 23  11  25  1   
 24  12  26  1   
 25  12  27  1   
 26  12  28  1   
 27  13  29  1   
 28  14  30  1   
 29  14  31  1   
 30  14  32  1   
 31  15  17  1   
 32  15  33  1   
 33  15  34  1   
 34  16  18  1   
 35  16  35  1   
 36  16  36  1   
 37  17  18  1   
 38  17  37  1   
 39  17  38  1   
 40  18  39  1   
 41  18  40  1   
@<TRIPOS>SUBSTRUCTURE
  1 ****   3 GROUP 4 **** **** 0

# MOE 2024.06 (io_trps.svl 2023.06)
