@<TRIPOS>MOLECULE
NONAME
51 51 1 0 0 
SMALL
USER_CHARGES


@<TRIPOS>ATOM
  1 O       -1.0230    -5.2900     1.7860 O.2   1 <1>  -0.5700 
  2 C       -1.1420    -4.4510     0.9180 C.2   1 <1>   0.6340 
  3 O       -0.0360    -4.0710     0.2640 O.3   1 <1>  -0.4300 
  4 C       -2.4100    -3.8420     0.5560 C.ar  1 <1>   0.0860 
  5 C        1.2190    -4.6330     0.5880 C.3   1 <1>   0.1200 
  6 C       -3.5890    -4.1970     1.2100 C.ar  1 <1>  -0.1500 
  7 C       -2.5190    -2.8830    -0.4510 C.ar  1 <1>  -0.1500 
  8 C        2.2830    -4.0250    -0.3320 C.3   1 <1>   0.3430 
  9 C       -4.8030    -3.6270     0.8770 C.ar  1 <1>  -0.1500 
 10 C       -3.7340    -2.3120    -0.7850 C.ar  1 <1>  -0.1500 
 11 N        3.6850    -4.4600     0.0220 N.4   1 <1>  -0.9590 
 12 C       -4.9050    -2.6720    -0.1270 C.ar  1 <1>  -0.1430 
 13 C        4.7510    -3.6640    -0.6600 C.3   1 <1>   0.5030 
 14 C        3.8300    -5.9480    -0.1630 C.3   1 <1>   0.2630 
 15 C       -6.2860    -2.0640    -0.4620 C.3   1 <1>   0.1440 
 16 C        4.5940    -2.1890    -0.2780 C.3   1 <1>  -0.2400 
 17 C        4.6700    -3.8180    -2.1820 C.3   1 <1>  -0.2400 
 18 C        6.1230    -4.1330    -0.1640 C.3   1 <1>  -0.2400 
 19 C       -7.2450    -3.1790    -0.9050 C.3   1 <1>  -0.2400 
 20 C       -6.8550    -1.3650     0.7810 C.3   1 <1>  -0.2400 
 21 C       -6.2310    -1.0240    -1.5940 C.3   1 <1>  -0.2400 
 22 H        1.1440    -5.6980     0.4520 H     1 <1>   0.0800 
 23 H        1.4240    -4.4030     1.6200 H     1 <1>   0.0800 
 24 H       -3.5530    -4.9340     1.9940 H     1 <1>   0.1500 
 25 H       -1.6410    -2.5730    -0.9880 H     1 <1>   0.1500 
 26 H        2.2040    -2.9550    -0.2480 H     1 <1>   0.0800 
 27 H        2.0650    -4.3020    -1.3500 H     1 <1>   0.0800 
 28 H       -5.6790    -3.9410     1.4170 H     1 <1>   0.1500 
 29 H       -3.7390    -1.5800    -1.5710 H     1 <1>   0.1500 
 30 H        3.8200    -4.2610     1.0210 H     1 <1>   0.4500 
 31 H        3.7120    -6.2110    -1.2010 H     1 <1>   0.0800 
 32 H        3.0860    -6.4760     0.4110 H     1 <1>   0.0800 
 33 H        4.7990    -6.2810     0.1690 H     1 <1>   0.0800 
 34 H        3.7180    -1.7470    -0.7160 H     1 <1>   0.0800 
 35 H        5.4350    -1.6260    -0.6460 H     1 <1>   0.0800 
 36 H        4.5640    -2.0660     0.7900 H     1 <1>   0.0800 
 37 H        3.7360    -3.4560    -2.5700 H     1 <1>   0.0800 
 38 H        4.8100    -4.8390    -2.4860 H     1 <1>   0.0800 
 39 H        5.4510    -3.2380    -2.6430 H     1 <1>   0.0800 
 40 H        6.1760    -4.1070     0.9090 H     1 <1>   0.0800 
 41 H        6.8910    -3.4830    -0.5450 H     1 <1>   0.0800 
 42 H        6.3600    -5.1220    -0.5120 H     1 <1>   0.0800 
 43 H       -7.3990    -3.8940    -0.1180 H     1 <1>   0.0800 
 44 H       -6.8390    -3.6970    -1.7560 H     1 <1>   0.0800 
 45 H       -8.2020    -2.7720    -1.1770 H     1 <1>   0.0800 
 46 H       -7.0060    -2.0630     1.5840 H     1 <1>   0.0800 
 47 H       -7.8010    -0.9040     0.5590 H     1 <1>   0.0800 
 48 H       -6.1750    -0.6040     1.1190 H     1 <1>   0.0800 
 49 H       -5.8640    -1.4700    -2.5010 H     1 <1>   0.0800 
 50 H       -5.5920    -0.2030    -1.3220 H     1 <1>   0.0800 
 51 H       -7.2110    -0.6290    -1.7920 H     1 <1>   0.0800 
@<TRIPOS>BOND
  1   1   2  2   
  2   2   3  1   
  3   2   4  1   
  4   3   5  1   
  5   4   6  ar  
  6   4   7  ar  
  7   5   8  1   
  8   5  22  1   
  9   5  23  1   
 10   6   9  ar  
 11   6  24  1   
 12   7  10  ar  
 13   7  25  1   
 14   8  11  1   
 15   8  26  1   
 16   8  27  1   
 17   9  12  ar  
 18   9  28  1   
 19  10  12  ar  
 20  10  29  1   
 21  11  13  1   
 22  11  14  1   
 23  11  30  1   
 24  12  15  1   
 25  13  16  1   
 26  13  17  1   
 27  13  18  1   
 28  14  31  1   
 29  14  32  1   
 30  14  33  1   
 31  15  19  1   
 32  15  20  1   
 33  15  21  1   
 34  16  34  1   
 35  16  35  1   
 36  16  36  1   
 37  17  37  1   
 38  17  38  1   
 39  17  39  1   
 40  18  40  1   
 41  18  41  1   
 42  18  42  1   
 43  19  43  1   
 44  19  44  1   
 45  19  45  1   
 46  20  46  1   
 47  20  47  1   
 48  20  48  1   
 49  21  49  1   
 50  21  50  1   
 51  21  51  1   
@<TRIPOS>SUBSTRUCTURE
  1 ****   3 GROUP 4 **** **** 0

# MOE 2024.06 (io_trps.svl 2023.06)
