@<TRIPOS>MOLECULE
NONAME
39 40 1 0 0 
SMALL
USER_CHARGES


@<TRIPOS>ATOM
  1 O       -5.6380     3.5960    -0.1370 O.3   1 <1>  -0.3630 
  2 C       -4.7840     2.5470    -0.0130 C.ar  1 <1>   0.0830 
  3 C       -7.0100     3.5100     0.1600 C.3   1 <1>   0.1200 
  4 C       -3.4470     2.7620    -0.3560 C.ar  1 <1>   0.0730 
  5 C       -5.1970     1.2940     0.4370 C.ar  1 <1>  -0.1500 
  6 C       -7.6080     4.8960    -0.1080 C.3   1 <1>   0.3430 
  7 C       -3.0040     4.0450    -0.8210 C.1   1 <1>   0.4840 
  8 C       -2.5480     1.7080    -0.2420 C.ar  1 <1>  -0.1500 
  9 C       -4.2860     0.2600     0.5430 C.ar  1 <1>  -0.1500 
 10 N       -9.0730     4.9780     0.2040 N.4   1 <1>  -0.9590 
 11 N       -2.6640     5.0700    -1.1890 N.1   1 <1>  -0.5570 
 12 C       -2.9610     0.4660     0.2040 C.ar  1 <1>  -0.1500 
 13 C       -9.9020     4.1510    -0.7250 C.3   1 <1>   0.3430 
 14 C       -9.5130     6.4040     0.1880 C.3   1 <1>   0.3430 
 15 C      -11.3670     4.1970    -0.2900 C.3   1 <1>  -0.1600 
 16 C      -10.9690     6.5000     0.6440 C.3   1 <1>  -0.1600 
 17 C      -11.8930     5.6380    -0.2280 C.3   1 <1>  -0.0800 
 18 C      -13.3270     5.6670     0.3110 C.3   1 <1>  -0.2400 
 19 H       -7.1120     3.2390     1.1960 H     1 <1>   0.0800 
 20 H       -7.4410     2.7630    -0.4830 H     1 <1>   0.0800 
 21 H       -6.2160     1.0970     0.7100 H     1 <1>   0.1500 
 22 H       -7.4450     5.1520    -1.1430 H     1 <1>   0.0800 
 23 H       -7.0750     5.6090     0.5000 H     1 <1>   0.0800 
 24 H       -1.5130     1.8590    -0.5030 H     1 <1>   0.1500 
 25 H       -4.6030    -0.7100     0.8910 H     1 <1>   0.1500 
 26 H       -9.2340     4.6320     1.1600 H     1 <1>   0.4500 
 27 H       -2.2520    -0.3420     0.2880 H     1 <1>   0.1500 
 28 H       -9.5640     3.1270    -0.7200 H     1 <1>   0.0800 
 29 H       -9.8140     4.5320    -1.7310 H     1 <1>   0.0800 
 30 H       -9.4220     6.8050    -0.8090 H     1 <1>   0.0800 
 31 H       -8.8940     6.9920     0.8470 H     1 <1>   0.0800 
 32 H      -11.4690     3.7200     0.6700 H     1 <1>   0.0800 
 33 H      -11.9560     3.6330    -0.9920 H     1 <1>   0.0800 
 34 H      -11.2840     7.5280     0.5870 H     1 <1>   0.0800 
 35 H      -11.0410     6.2000     1.6750 H     1 <1>   0.0800 
 36 H      -11.9030     6.0450    -1.2270 H     1 <1>   0.0800 
 37 H      -13.3740     5.2700     1.3110 H     1 <1>   0.0800 
 38 H      -13.9770     5.0820    -0.3170 H     1 <1>   0.0800 
 39 H      -13.7020     6.6760     0.3290 H     1 <1>   0.0800 
@<TRIPOS>BOND
  1   1   2  1   
  2   1   3  1   
  3   2   4  ar  
  4   2   5  ar  
  5   3   6  1   
  6   3  19  1   
  7   3  20  1   
  8   4   7  1   
  9   4   8  ar  
 10   5   9  ar  
 11   5  21  1   
 12   6  10  1   
 13   6  22  1   
 14   6  23  1   
 15   7  11  3   
 16   8  12  ar  
 17   8  24  1   
 18   9  12  ar  
 19   9  25  1   
 20  10  13  1   
 21  10  14  1   
 22  10  26  1   
 23  12  27  1   
 24  13  15  1   
 25  13  28  1   
 26  13  29  1   
 27  14  16  1   
 28  14  30  1   
 29  14  31  1   
 30  15  17  1   
 31  15  32  1   
 32  15  33  1   
 33  16  17  1   
 34  16  34  1   
 35  16  35  1   
 36  17  18  1   
 37  17  36  1   
 38  18  37  1   
 39  18  38  1   
 40  18  39  1   
@<TRIPOS>SUBSTRUCTURE
  1 ****   3 GROUP 4 **** **** 0

# MOE 2024.06 (io_trps.svl 2023.06)
