@<TRIPOS>MOLECULE
NONAME
36 37 1 0 0 
SMALL
USER_CHARGES


@<TRIPOS>ATOM
  1 S       -1.0760    -0.0510     1.0630 S.3   1 <1>  -0.3310 
  2 C       -1.4370     1.3570    -0.0120 C.ar  1 <1>   0.1020 
  3 C        0.5190     0.3010     1.9260 C.3   1 <1>  -0.0100 
  4 C       -2.5000     1.2600    -0.9160 C.ar  1 <1>   0.0860 
  5 C       -0.6660     2.5060     0.0730 C.ar  1 <1>  -0.1500 
  6 C       -3.3430     0.0890    -1.0310 C.2   1 <1>   0.5440 
  7 C       -2.7430     2.3570    -1.7410 C.ar  1 <1>  -0.1500 
  8 C       -0.9370     3.5820    -0.7540 C.ar  1 <1>  -0.1500 
  9 O       -3.2350    -0.6100    -2.0230 O.2   1 <1>  -0.5700 
 10 N       -4.3040    -0.2220    -0.0860 N.am  1 <1>  -0.6600 
 11 C       -1.9760     3.5050    -1.6640 C.ar  1 <1>  -0.1500 
 12 C       -4.5460     0.6300     1.1140 C.3   1 <1>   0.1400 
 13 C       -5.0870    -1.4820    -0.1950 C.3   1 <1>   0.1400 
 14 C       -6.0190     0.7030     1.5430 C.3   1 <1>  -0.1600 
 15 C       -6.3740    -1.2270    -0.9850 C.3   1 <1>  -0.1600 
 16 C       -7.0170     0.8720     0.3850 C.3   1 <1>  -0.1600 
 17 C       -7.4650    -0.4730    -0.2090 C.3   1 <1>  -0.1600 
 18 H        0.7790    -0.5740     2.4930 H     1 <1>   0.0800 
 19 H        0.3680     1.1440     2.5760 H     1 <1>   0.0800 
 20 H        1.2630     0.5050     1.1780 H     1 <1>   0.0800 
 21 H        0.1440     2.5860     0.7700 H     1 <1>   0.1500 
 22 H       -3.5470     2.2960    -2.4540 H     1 <1>   0.1500 
 23 H       -0.3400     4.4760    -0.6930 H     1 <1>   0.1500 
 24 H       -2.1860     4.3380    -2.3130 H     1 <1>   0.1500 
 25 H       -4.2150     1.6330     0.9080 H     1 <1>   0.0800 
 26 H       -3.9550     0.2540     1.9310 H     1 <1>   0.0800 
 27 H       -5.3070    -1.8730     0.7830 H     1 <1>   0.0800 
 28 H       -4.4960    -2.2200    -0.7110 H     1 <1>   0.0800 
 29 H       -6.1150     1.5480     2.2020 H     1 <1>   0.0800 
 30 H       -6.2680    -0.1660     2.1260 H     1 <1>   0.0800 
 31 H       -6.7750    -2.1790    -1.2840 H     1 <1>   0.0800 
 32 H       -6.1270    -0.6930    -1.8860 H     1 <1>   0.0800 
 33 H       -6.5970     1.4980    -0.3850 H     1 <1>   0.0800 
 34 H       -7.8920     1.3700     0.7650 H     1 <1>   0.0800 
 35 H       -7.8370    -1.1020     0.5810 H     1 <1>   0.0800 
 36 H       -8.2860    -0.2910    -0.8810 H     1 <1>   0.0800 
@<TRIPOS>BOND
  1   1   2  1   
  2   1   3  1   
  3   2   4  ar  
  4   2   5  ar  
  5   3  18  1   
  6   3  19  1   
  7   3  20  1   
  8   4   6  1   
  9   4   7  ar  
 10   5   8  ar  
 11   5  21  1   
 12   6   9  2   
 13   6  10  am  
 14   7  11  ar  
 15   7  22  1   
 16   8  11  ar  
 17   8  23  1   
 18  10  12  1   
 19  10  13  1   
 20  11  24  1   
 21  12  14  1   
 22  12  25  1   
 23  12  26  1   
 24  13  15  1   
 25  13  27  1   
 26  13  28  1   
 27  14  16  1   
 28  14  29  1   
 29  14  30  1   
 30  15  17  1   
 31  15  31  1   
 32  15  32  1   
 33  16  17  1   
 34  16  33  1   
 35  16  34  1   
 36  17  35  1   
 37  17  36  1   
@<TRIPOS>SUBSTRUCTURE
  1 ****   6 GROUP 4 **** **** 0

# MOE 2024.06 (io_trps.svl 2023.06)
