@<TRIPOS>MOLECULE
NONAME
39 40 1 0 0 
SMALL
USER_CHARGES


@<TRIPOS>ATOM
  1 F       -0.5920    -0.6110     0.8960 F     1 <1>  -0.1900 
  2 C       -1.7660    -1.0310     0.5120 C.ar  1 <1>   0.1900 
  3 C       -2.3810    -2.0390     1.2290 C.ar  1 <1>  -0.1500 
  4 C       -2.3510    -0.4540    -0.5980 C.ar  1 <1>  -0.1500 
  5 C       -3.6290    -2.4790     0.8200 C.ar  1 <1>  -0.1500 
  6 C       -3.5990    -0.9000    -1.0000 C.ar  1 <1>  -0.1500 
  7 C       -4.2450    -1.9080    -0.2900 C.ar  1 <1>  -0.1430 
  8 C       -5.6180    -2.3840    -0.7290 C.3   1 <1>   0.4870 
  9 N       -6.6360    -1.8320     0.2060 N.4   1 <1>  -0.9590 
 10 C       -7.9910    -2.4520    -0.0250 C.3   1 <1>   0.3430 
 11 C       -6.6880    -0.3230     0.1370 C.3   1 <1>   0.3430 
 12 C       -9.0690    -1.8740     0.9140 C.3   1 <1>   0.1400 
 13 C       -7.7540     0.2650     1.0790 C.3   1 <1>   0.1400 
 14 N       -9.0750    -0.3840     0.8360 N.am  1 <1>  -0.6600 
 15 C      -10.1640     0.3440     0.4310 C.2   1 <1>   0.7800 
 16 O      -10.1020     1.5400     0.2350 O.2   1 <1>  -0.5700 
 17 O      -11.3050    -0.3120     0.2250 O.3   1 <1>  -0.4300 
 18 C      -12.4690     0.3740    -0.1790 C.3   1 <1>   0.1200 
 19 C      -13.5920    -0.6470    -0.3300 C.3   1 <1>  -0.2400 
 20 H       -1.8850    -2.4660     2.0830 H     1 <1>   0.1500 
 21 H       -1.8320     0.3240    -1.1310 H     1 <1>   0.1500 
 22 H       -4.1030    -3.2720     1.3750 H     1 <1>   0.1500 
 23 H       -4.0500    -0.4540    -1.8710 H     1 <1>   0.1500 
 24 H       -5.6400    -3.4620    -0.7090 H     1 <1>   0.0800 
 25 H       -5.8180    -2.0570    -1.7360 H     1 <1>   0.0800 
 26 H       -6.3240    -2.0720     1.1550 H     1 <1>   0.4500 
 27 H       -7.9370    -3.5190     0.1200 H     1 <1>   0.0800 
 28 H       -8.3020    -2.2730    -1.0410 H     1 <1>   0.0800 
 29 H       -6.9200    -0.0130    -0.8690 H     1 <1>   0.0800 
 30 H       -5.7270     0.0910     0.3960 H     1 <1>   0.0800 
 31 H       -8.8730    -2.1750     1.9280 H     1 <1>   0.0800 
 32 H      -10.0280    -2.2770     0.6370 H     1 <1>   0.0800 
 33 H       -7.8160     1.3280     0.9200 H     1 <1>   0.0800 
 34 H       -7.4640     0.1100     2.1040 H     1 <1>   0.0800 
 35 H      -12.2690     0.8690    -1.1150 H     1 <1>   0.0800 
 36 H      -12.7120     1.1070     0.5720 H     1 <1>   0.0800 
 37 H      -13.3350    -1.3770    -1.0760 H     1 <1>   0.0800 
 38 H      -14.4940    -0.1480    -0.6360 H     1 <1>   0.0800 
 39 H      -13.7770    -1.1370     0.6090 H     1 <1>   0.0800 
@<TRIPOS>BOND
  1   1   2  1   
  2   2   3  ar  
  3   2   4  ar  
  4   3   5  ar  
  5   3  20  1   
  6   4   6  ar  
  7   4  21  1   
  8   5   7  ar  
  9   5  22  1   
 10   6   7  ar  
 11   6  23  1   
 12   7   8  1   
 13   8   9  1   
 14   8  24  1   
 15   8  25  1   
 16   9  10  1   
 17   9  11  1   
 18   9  26  1   
 19  10  12  1   
 20  10  27  1   
 21  10  28  1   
 22  11  13  1   
 23  11  29  1   
 24  11  30  1   
 25  12  14  1   
 26  12  31  1   
 27  12  32  1   
 28  13  14  1   
 29  13  33  1   
 30  13  34  1   
 31  14  15  am  
 32  15  16  2   
 33  15  17  1   
 34  17  18  1   
 35  18  19  1   
 36  18  35  1   
 37  18  36  1   
 38  19  37  1   
 39  19  38  1   
 40  19  39  1   
@<TRIPOS>SUBSTRUCTURE
  1 ****  11 GROUP 4 **** **** 0

# MOE 2024.06 (io_trps.svl 2023.06)
