@<TRIPOS>MOLECULE
NONAME
56 59 1 0 0 
SMALL
USER_CHARGES


@<TRIPOS>ATOM
  1 O       -0.1640     1.8970     1.3150 O.2   1 <1>  -0.5700 
  2 C        0.2240     0.7920     1.0390 C.2   1 <1>   0.4950 
  3 C        1.4810     0.4770     0.4180 C.2   1 <1>  -0.1240 
  4 C       -0.7020    -0.3600     1.3940 C.3   1 <1>  -0.0990 
  5 C        1.7860    -0.7860     0.0520 C.2   1 <1>  -0.0620 
  6 C        2.4970     1.6020     0.1600 C.3   1 <1>   0.4810 
  7 C       -0.6240    -1.5220     0.3850 C.3   1 <1>   0.0000 
  8 O        2.9500    -1.1300    -0.4950 O.3   1 <1>  -0.1530 
  9 C        0.8460    -1.9680     0.2290 C.3   1 <1>  -0.0220 
 10 C        3.8470     1.0670    -0.3630 C.2   1 <1>  -0.1240 
 11 C        2.6610     2.5090     1.3960 C.2   1 <1>   0.5690 
 12 C        1.8920     2.6090    -0.8210 C.ar  1 <1>  -0.1440 
 13 C       -1.4710    -2.7000     0.8910 C.3   1 <1>  -0.2400 
 14 C       -1.1860    -1.0730    -0.9780 C.3   1 <1>  -0.2400 
 15 C        3.9550    -0.2650    -0.6640 C.2   1 <1>   0.1770 
 16 C        4.9030     2.0200    -0.4990 C.2   1 <1>   0.7060 
 17 O        3.1260     2.1650     2.4590 O.2   1 <1>  -0.5700 
 18 N        2.2100     3.7580     1.1150 N.am  1 <1>  -0.5470 
 19 C        1.7520     3.8330    -0.1920 C.ar  1 <1>   0.1170 
 20 C        1.5080     2.4420    -2.1390 C.ar  1 <1>  -0.1500 
 21 N        5.0580    -0.8880    -1.1640 N.pl3 1 <1>  -0.9000 
 22 O        4.7480     3.2240    -0.4150 O.2   1 <1>  -0.5700 
 23 O        6.1500     1.5720    -0.7350 O.3   1 <1>  -0.4300 
 24 C        1.2190     4.9170    -0.8690 C.ar  1 <1>  -0.1500 
 25 C        0.9750     3.5260    -2.8210 C.ar  1 <1>  -0.1500 
 26 C        7.3400     2.3210    -0.8760 C.3   1 <1>   0.2800 
 27 C        0.8310     4.7560    -2.1890 C.ar  1 <1>  -0.1500 
 28 C        8.4340     1.2790    -1.1150 C.3   1 <1>  -0.2400 
 29 C        7.6450     3.0830     0.4190 C.3   1 <1>  -0.2400 
 30 C        7.2490     3.2430    -2.0980 C.3   1 <1>  -0.2400 
 31 H       -1.7110     0.0090     1.4490 H     1 <1>   0.0800 
 32 H       -0.4290    -0.7050     2.3750 H     1 <1>   0.0800 
 33 H        1.1620    -2.5170     1.0990 H     1 <1>   0.0800 
 34 H        0.9320    -2.6270    -0.6180 H     1 <1>   0.0800 
 35 H       -1.1190    -3.0420     1.8480 H     1 <1>   0.0800 
 36 H       -1.4250    -3.5240     0.2000 H     1 <1>   0.0800 
 37 H       -2.5020    -2.4070     0.9960 H     1 <1>   0.0800 
 38 H       -0.6170    -0.2600    -1.3920 H     1 <1>   0.0800 
 39 H       -2.2060    -0.7460    -0.8750 H     1 <1>   0.0800 
 40 H       -1.1650    -1.8860    -1.6820 H     1 <1>   0.0800 
 41 H        2.2090     4.5100     1.8010 H     1 <1>   0.3700 
 42 H        1.6190     1.4890    -2.6290 H     1 <1>   0.1500 
 43 H        5.9510    -0.3860    -1.2690 H     1 <1>   0.4000 
 44 H        5.0950    -1.8990    -1.3230 H     1 <1>   0.4000 
 45 H        1.1130     5.8630    -0.3710 H     1 <1>   0.1500 
 46 H        0.6700     3.4150    -3.8470 H     1 <1>   0.1500 
 47 H        0.4150     5.5880    -2.7300 H     1 <1>   0.1500 
 48 H        8.4930     0.6020    -0.2810 H     1 <1>   0.0800 
 49 H        9.3880     1.7610    -1.2260 H     1 <1>   0.0800 
 50 H        8.2310     0.7210    -2.0110 H     1 <1>   0.0800 
 51 H        7.6250     2.4160     1.2610 H     1 <1>   0.0800 
 52 H        6.9380     3.8760     0.5810 H     1 <1>   0.0800 
 53 H        8.6210     3.5300     0.3600 H     1 <1>   0.0800 
 54 H        6.9570     2.6850    -2.9680 H     1 <1>   0.0800 
 55 H        8.2050     3.6950    -2.2870 H     1 <1>   0.0800 
 56 H        6.5440     4.0370    -1.9340 H     1 <1>   0.0800 
@<TRIPOS>BOND
  1   1   2  2   
  2   2   3  1   
  3   2   4  1   
  4   3   5  2   
  5   3   6  1   
  6   4   7  1   
  7   4  31  1   
  8   4  32  1   
  9   5   8  1   
 10   5   9  1   
 11   6  10  1   
 12   6  11  1   
 13   6  12  1   
 14   7   9  1   
 15   7  13  1   
 16   7  14  1   
 17   8  15  1   
 18   9  33  1   
 19   9  34  1   
 20  10  15  2   
 21  10  16  1   
 22  11  17  2   
 23  11  18  am  
 24  12  19  ar  
 25  12  20  ar  
 26  13  35  1   
 27  13  36  1   
 28  13  37  1   
 29  14  38  1   
 30  14  39  1   
 31  14  40  1   
 32  15  21  1   
 33  16  22  2   
 34  16  23  1   
 35  18  19  1   
 36  18  41  1   
 37  19  24  ar  
 38  20  25  ar  
 39  20  42  1   
 40  21  43  1   
 41  21  44  1   
 42  23  26  1   
 43  24  27  ar  
 44  24  45  1   
 45  25  27  ar  
 46  25  46  1   
 47  26  28  1   
 48  26  29  1   
 49  26  30  1   
 50  27  47  1   
 51  28  48  1   
 52  28  49  1   
 53  28  50  1   
 54  29  51  1   
 55  29  52  1   
 56  29  53  1   
 57  30  54  1   
 58  30  55  1   
 59  30  56  1   
@<TRIPOS>SUBSTRUCTURE
  1 ****   6 GROUP 4 **** **** 0

# MOE 2024.06 (io_trps.svl 2023.06)
