@<TRIPOS>MOLECULE
NONAME
36 36 1 0 0 
SMALL
USER_CHARGES


@<TRIPOS>ATOM
  1 O        7.9860    -3.0940     1.6520 O.3   1 <1>  -0.3630 
  2 C        8.7060    -2.5450     0.6330 C.ar  1 <1>   0.0830 
  3 C        6.7000    -3.5560     1.3230 C.3   1 <1>   0.1200 
  4 C        9.7040    -3.3000     0.0190 C.ar  1 <1>   0.0830 
  5 C        8.4620    -1.2340     0.2250 C.ar  1 <1>   0.0830 
  6 C        6.8510    -4.8460     0.5110 C.3   1 <1>   0.3430 
  7 O        9.8890    -4.5910     0.4140 O.3   1 <1>  -0.3630 
  8 C       10.4670    -2.7350    -0.9960 C.ar  1 <1>  -0.1500 
  9 O        7.4610    -0.5410     0.8380 O.3   1 <1>  -0.3630 
 10 C        9.2350    -0.6830    -0.7930 C.ar  1 <1>  -0.1500 
 11 N        5.5270    -5.4130     0.1180 N.4   1 <1>  -0.9060 
 12 C       11.2100    -5.0800     0.5200 C.3   1 <1>   0.0400 
 13 C       10.2320    -1.4310    -1.3960 C.ar  1 <1>  -0.1500 
 14 C        7.4440     0.8710     0.8140 C.3   1 <1>   0.0400 
 15 C        5.6790    -6.6430    -0.6860 C.3   1 <1>   0.3430 
 16 C        4.2910    -7.1470    -1.0480 C.3   1 <1>  -0.2400 
 17 H        6.1930    -2.7880     0.7670 H     1 <1>   0.0800 
 18 H        6.1860    -3.7390     2.2490 H     1 <1>   0.0800 
 19 H        7.3980    -5.5630     1.1020 H     1 <1>   0.0800 
 20 H        7.4270    -4.6290    -0.3740 H     1 <1>   0.0800 
 21 H       11.2370    -3.3000    -1.4880 H     1 <1>   0.1500 
 22 H        9.0730     0.3230    -1.1330 H     1 <1>   0.1500 
 23 H        5.0020    -4.7180    -0.4280 H     1 <1>   0.4500 
 24 H        4.9730    -5.6230     0.9580 H     1 <1>   0.4500 
 25 H       11.1860    -5.9980     1.0790 H     1 <1>   0.0800 
 26 H       11.8120    -4.3540     1.0400 H     1 <1>   0.0800 
 27 H       11.6010    -5.2650    -0.4640 H     1 <1>   0.0800 
 28 H       10.8270    -0.9960    -2.1820 H     1 <1>   0.1500 
 29 H        6.6840     1.2080     1.4960 H     1 <1>   0.0800 
 30 H        7.2110     1.2030    -0.1820 H     1 <1>   0.0800 
 31 H        8.4050     1.2380     1.1290 H     1 <1>   0.0800 
 32 H        6.2070    -7.3960    -0.1200 H     1 <1>   0.0800 
 33 H        6.2390    -6.4340    -1.5850 H     1 <1>   0.0800 
 34 H        3.7240    -7.3870    -0.1650 H     1 <1>   0.0800 
 35 H        4.3830    -8.0440    -1.6350 H     1 <1>   0.0800 
 36 H        3.7580    -6.4210    -1.6370 H     1 <1>   0.0800 
@<TRIPOS>BOND
  1   1   2  1   
  2   1   3  1   
  3   2   4  ar  
  4   2   5  ar  
  5   3   6  1   
  6   3  17  1   
  7   3  18  1   
  8   4   7  1   
  9   4   8  ar  
 10   5   9  1   
 11   5  10  ar  
 12   6  11  1   
 13   6  19  1   
 14   6  20  1   
 15   7  12  1   
 16   8  13  ar  
 17   8  21  1   
 18   9  14  1   
 19  10  13  ar  
 20  10  22  1   
 21  11  15  1   
 22  11  23  1   
 23  11  24  1   
 24  12  25  1   
 25  12  26  1   
 26  12  27  1   
 27  13  28  1   
 28  14  29  1   
 29  14  30  1   
 30  14  31  1   
 31  15  16  1   
 32  15  32  1   
 33  15  33  1   
 34  16  34  1   
 35  16  35  1   
 36  16  36  1   
@<TRIPOS>SUBSTRUCTURE
  1 ****   2 GROUP 4 **** **** 0

# MOE 2024.06 (io_trps.svl 2023.06)
