@<TRIPOS>MOLECULE
NONAME
37 37 1 0 0 
SMALL
USER_CHARGES


@<TRIPOS>ATOM
  1 CL      -0.6870     0.0410     0.7760 Cl    1 <1>  -0.1770 
  2 C       -0.3720    -1.6150     0.3030 C.ar  1 <1>   0.1770 
  3 C       -1.4330    -2.4760     0.0310 C.ar  1 <1>   0.0820 
  4 C        0.9450    -2.0310     0.2110 C.ar  1 <1>  -0.1500 
  5 O       -2.6980    -1.9900     0.1450 O.3   1 <1>  -0.3630 
  6 C       -1.1510    -3.7880    -0.3430 C.ar  1 <1>  -0.1500 
  7 C        1.2200    -3.3370    -0.1620 C.ar  1 <1>  -0.1500 
  8 C       -3.8330    -2.7780    -0.1080 C.3   1 <1>   0.1200 
  9 C        0.1680    -4.1960    -0.4330 C.ar  1 <1>   0.1770 
 10 C       -5.0500    -1.8820     0.1260 C.3   1 <1>  -0.1600 
 11 CL       0.5150    -5.8400    -0.9020 Cl    1 <1>  -0.1770 
 12 C       -6.3520    -2.6330    -0.1210 C.3   1 <1>   0.3430 
 13 N       -7.4880    -1.7110     0.1260 N.4   1 <1>  -0.9060 
 14 C       -8.8160    -2.3040    -0.1150 C.3   1 <1>   0.4230 
 15 C       -9.8280    -1.1530    -0.2060 C.3   1 <1>  -0.1600 
 16 C       -9.1350    -3.2700     1.0260 C.3   1 <1>  -0.2400 
 17 C      -11.2310    -1.6100    -0.6340 C.3   1 <1>  -0.2400 
 18 H        1.7410    -1.3400     0.4280 H     1 <1>   0.1500 
 19 H       -1.9190    -4.5020    -0.5660 H     1 <1>   0.1500 
 20 H        2.2340    -3.6880    -0.2420 H     1 <1>   0.1500 
 21 H       -3.8220    -3.6130     0.5730 H     1 <1>   0.0800 
 22 H       -3.7860    -3.1200    -1.1280 H     1 <1>   0.0800 
 23 H       -4.9830    -1.0410    -0.5430 H     1 <1>   0.0800 
 24 H       -5.0200    -1.5320     1.1440 H     1 <1>   0.0800 
 25 H       -6.4110    -3.4820     0.5420 H     1 <1>   0.0800 
 26 H       -6.3800    -2.9900    -1.1390 H     1 <1>   0.0800 
 27 H       -7.3880    -0.8860    -0.4770 H     1 <1>   0.4500 
 28 H       -7.4570    -1.3690     1.0940 H     1 <1>   0.4500 
 29 H       -8.8110    -2.8380    -1.0530 H     1 <1>   0.0800 
 30 H       -9.4880    -0.4410    -0.9380 H     1 <1>   0.0800 
 31 H       -9.9050    -0.6500     0.7430 H     1 <1>   0.0800 
 32 H       -9.1800    -2.7560     1.9700 H     1 <1>   0.0800 
 33 H       -8.4130    -4.0630     1.0840 H     1 <1>   0.0800 
 34 H      -10.0910    -3.7330     0.8570 H     1 <1>   0.0800 
 35 H      -11.1940    -2.1510    -1.5640 H     1 <1>   0.0800 
 36 H      -11.8670    -0.7520    -0.7720 H     1 <1>   0.0800 
 37 H      -11.6870    -2.2360     0.1140 H     1 <1>   0.0800 
@<TRIPOS>BOND
  1   1   2  1   
  2   2   3  ar  
  3   2   4  ar  
  4   3   5  1   
  5   3   6  ar  
  6   4   7  ar  
  7   4  18  1   
  8   5   8  1   
  9   6   9  ar  
 10   6  19  1   
 11   7   9  ar  
 12   7  20  1   
 13   8  10  1   
 14   8  21  1   
 15   8  22  1   
 16   9  11  1   
 17  10  12  1   
 18  10  23  1   
 19  10  24  1   
 20  12  13  1   
 21  12  25  1   
 22  12  26  1   
 23  13  14  1   
 24  13  27  1   
 25  13  28  1   
 26  14  15  1   
 27  14  16  1   
 28  14  29  1   
 29  15  17  1   
 30  15  30  1   
 31  15  31  1   
 32  16  32  1   
 33  16  33  1   
 34  16  34  1   
 35  17  35  1   
 36  17  36  1   
 37  17  37  1   
@<TRIPOS>SUBSTRUCTURE
  1 ****   8 GROUP 4 **** **** 0

# MOE 2024.06 (io_trps.svl 2023.06)
