@<TRIPOS>MOLECULE
NONAME
26 26 1 0 0 
SMALL
USER_CHARGES


@<TRIPOS>ATOM
  1 S       -0.0550    -0.1250    -0.7840 S.o2  1 <1>   1.3330 
  2 O        0.4620    -1.4080    -0.3790 O.2   1 <1>  -0.6500 
  3 O       -0.9060    -0.0050    -1.9400 O.2   1 <1>  -0.6500 
  4 N        1.2940     0.8640    -1.1610 N.am  1 <1>  -0.7570 
  5 C       -0.7960     0.7380     0.6080 C.3   1 <1>  -0.0550 
  6 C        2.4110     1.0210    -0.3530 C.ar  1 <1>   0.1990 
  7 C       -2.0700     0.0750     1.1610 C.3   1 <1>  -0.2400 
  8 C        2.7440     2.2790     0.1650 C.ar  1 <1>  -0.1440 
  9 C        3.2210    -0.0680    -0.0570 C.ar  1 <1>  -0.1500 
 10 C        3.8620     2.4310     0.9730 C.ar  1 <1>  -0.1500 
 11 C        1.8900     3.5020    -0.1510 C.3   1 <1>  -0.0970 
 12 C        4.3250     0.1130     0.7470 C.ar  1 <1>   0.1900 
 13 C        4.6650     1.3430     1.2720 C.ar  1 <1>  -0.1500 
 14 F        5.0820    -0.9160     1.0220 F     1 <1>  -0.1900 
 15 H        1.4710     0.7840    -2.1580 H     1 <1>   0.4200 
 16 H       -1.0370     1.7390     0.3060 H     1 <1>   0.0800 
 17 H       -0.0740     0.8020     1.3990 H     1 <1>   0.0800 
 18 H       -2.8230     0.0210     0.3940 H     1 <1>   0.0800 
 19 H       -2.4570     0.6420     1.9890 H     1 <1>   0.0800 
 20 H       -1.8510    -0.9240     1.4970 H     1 <1>   0.0800 
 21 H        2.9950    -1.0450    -0.4440 H     1 <1>   0.1500 
 22 H        4.1190     3.3970     1.3750 H     1 <1>   0.1500 
 23 H        0.9100     3.3870     0.2730 H     1 <1>   0.0800 
 24 H        1.7950     3.6200    -1.2160 H     1 <1>   0.0800 
 25 H        2.3310     4.3980     0.2480 H     1 <1>   0.0800 
 26 H        5.5340     1.4440     1.8970 H     1 <1>   0.1500 
@<TRIPOS>BOND
  1   1   2  2   
  2   1   3  2   
  3   1   4  am  
  4   1   5  1   
  5   4   6  1   
  6   4  15  1   
  7   5   7  1   
  8   5  16  1   
  9   5  17  1   
 10   6   8  ar  
 11   6   9  ar  
 12   7  18  1   
 13   7  19  1   
 14   7  20  1   
 15   8  10  ar  
 16   8  11  1   
 17   9  12  ar  
 18   9  21  1   
 19  10  13  ar  
 20  10  22  1   
 21  11  23  1   
 22  11  24  1   
 23  11  25  1   
 24  12  13  ar  
 25  12  14  1   
 26  13  26  1   
@<TRIPOS>SUBSTRUCTURE
  1 ****   6 GROUP 4 **** **** 0

# MOE 2024.06 (io_trps.svl 2023.06)
