@<TRIPOS>MOLECULE
NONAME
36 37 1 0 0 
SMALL
USER_CHARGES


@<TRIPOS>ATOM
  1 O       -0.0910    -0.4830     1.1470 O.2   1 <1>  -0.5700 
  2 C        0.1010    -1.4660     0.4720 C.2   1 <1>   0.5690 
  3 N        1.3540    -1.8390     0.0570 N.am  1 <1>  -0.5470 
  4 C       -1.1130    -2.3440     0.0700 C.3   1 <1>   0.0610 
  5 C        2.6140    -1.2470     0.2330 C.ar  1 <1>   0.1170 
  6 C       -2.0930    -1.5140    -0.7810 C.3   1 <1>  -0.2400 
  7 C       -1.8500    -2.8260     1.3340 C.3   1 <1>  -0.2400 
  8 C       -0.7190    -3.5940    -0.7480 C.3   1 <1>  -0.2400 
  9 C        3.7770    -2.0640     0.1700 C.ar  1 <1>   0.0000 
 10 C        2.7520     0.1100     0.4370 C.ar  1 <1>  -0.1500 
 11 C        5.0510    -1.4590     0.2950 C.ar  1 <1>   0.3100 
 12 C        3.7530    -3.4630    -0.0020 C.ar  1 <1>  -0.1500 
 13 C        4.0060     0.7000     0.5760 C.ar  1 <1>  -0.1500 
 14 N        6.2130    -2.1570     0.2260 N.ar  1 <1>  -0.6200 
 15 C        5.1300    -0.0760     0.5020 C.ar  1 <1>  -0.1500 
 16 C        4.9340    -4.1380    -0.0600 C.ar  1 <1>  -0.1500 
 17 C        6.1430    -3.4390     0.0560 C.ar  1 <1>   0.1670 
 18 C        7.4540    -4.1950    -0.0150 C.3   1 <1>  -0.0970 
 19 H        1.3700    -2.7180    -0.4520 H     1 <1>   0.3700 
 20 H       -1.6090    -1.1660    -1.6760 H     1 <1>   0.0800 
 21 H       -2.4300    -0.6550    -0.2270 H     1 <1>   0.0800 
 22 H       -2.9530    -2.0970    -1.0580 H     1 <1>   0.0800 
 23 H       -2.1900    -1.9830     1.9120 H     1 <1>   0.0800 
 24 H       -1.1910    -3.4090     1.9530 H     1 <1>   0.0800 
 25 H       -2.7050    -3.4260     1.0780 H     1 <1>   0.0800 
 26 H       -1.5950    -4.1660    -1.0010 H     1 <1>   0.0800 
 27 H       -0.2340    -3.3120    -1.6670 H     1 <1>   0.0800 
 28 H       -0.0620    -4.2300    -0.1810 H     1 <1>   0.0800 
 29 H        1.8870     0.7470     0.4870 H     1 <1>   0.1500 
 30 H        2.8230    -3.9920    -0.0790 H     1 <1>   0.1500 
 31 H        4.0760     1.7620     0.7370 H     1 <1>   0.1500 
 32 H        6.1080     0.3570     0.6020 H     1 <1>   0.1500 
 33 H        4.9540    -5.2050    -0.1910 H     1 <1>   0.1500 
 34 H        8.0570    -3.7920    -0.8080 H     1 <1>   0.0800 
 35 H        7.2940    -5.2410    -0.1970 H     1 <1>   0.0800 
 36 H        7.9830    -4.0790     0.9130 H     1 <1>   0.0800 
@<TRIPOS>BOND
  1   1   2  2   
  2   2   3  am  
  3   2   4  1   
  4   3   5  1   
  5   3  19  1   
  6   4   6  1   
  7   4   7  1   
  8   4   8  1   
  9   5   9  ar  
 10   5  10  ar  
 11   6  20  1   
 12   6  21  1   
 13   6  22  1   
 14   7  23  1   
 15   7  24  1   
 16   7  25  1   
 17   8  26  1   
 18   8  27  1   
 19   8  28  1   
 20   9  11  ar  
 21   9  12  ar  
 22  10  13  ar  
 23  10  29  1   
 24  11  14  ar  
 25  11  15  ar  
 26  12  16  ar  
 27  12  30  1   
 28  13  15  ar  
 29  13  31  1   
 30  14  17  ar  
 31  15  32  1   
 32  16  17  ar  
 33  16  33  1   
 34  17  18  1   
 35  18  34  1   
 36  18  35  1   
 37  18  36  1   
@<TRIPOS>SUBSTRUCTURE
  1 ****   5 GROUP 4 **** **** 0

# MOE 2024.06 (io_trps.svl 2023.06)
