@<TRIPOS>MOLECULE
NONAME
33 35 1 0 0 
SMALL
USER_CHARGES


@<TRIPOS>ATOM
  1 O       -0.0920    -0.2770    -0.2890 O.2   1 <1>  -0.5700 
  2 C       -0.5060    -1.4320    -0.1400 C.2   1 <1>   0.4690 
  3 C        0.4420    -2.4890     0.1150 C.ar  1 <1>   0.0860 
  4 C       -1.8910    -1.7300    -0.2190 C.2   1 <1>  -0.1240 
  5 C       -0.0420    -3.7930     0.2670 C.ar  1 <1>   0.1000 
  6 C        1.8220    -2.2810     0.2190 C.ar  1 <1>  -0.1500 
  7 C       -2.3130    -3.0320    -0.0710 C.2   1 <1>   0.2000 
  8 C       -2.8220    -0.5380    -0.4920 C.3   1 <1>  -0.0220 
  9 N       -1.4050    -4.0110     0.1650 N.pl3 1 <1>  -0.6000 
 10 C        0.8370    -4.8440     0.5180 C.ar  1 <1>  -0.1500 
 11 C        2.6870    -3.3260     0.4660 C.ar  1 <1>  -0.1500 
 12 N       -3.5910    -3.5120    -0.1370 N.pl3 1 <1>  -0.8380 
 13 C       -4.3330    -0.7610    -0.3380 C.3   1 <1>  -0.1600 
 14 C        2.1920    -4.6150     0.6170 C.ar  1 <1>  -0.1500 
 15 C       -4.6820    -3.0400     0.7560 C.3   1 <1>   0.2090 
 16 C       -3.9820    -4.4760    -1.1990 C.3   1 <1>   0.1290 
 17 C       -4.6690    -1.5210     0.9530 C.3   1 <1>  -0.1600 
 18 H        2.2050    -1.2820     0.1020 H     1 <1>   0.1500 
 19 H       -2.6260    -0.1750    -1.4860 H     1 <1>   0.0800 
 20 H       -2.5480     0.2510     0.1870 H     1 <1>   0.0800 
 21 H       -1.7980    -4.9360     0.3310 H     1 <1>   0.4000 
 22 H        0.4490    -5.8390     0.6340 H     1 <1>   0.1500 
 23 H        3.7460    -3.1470     0.5440 H     1 <1>   0.1500 
 24 H       -4.7140    -1.2930    -1.1930 H     1 <1>   0.0800 
 25 H       -4.8130     0.2020    -0.3180 H     1 <1>   0.0800 
 26 H        2.8700    -5.4280     0.8110 H     1 <1>   0.1500 
 27 H       -4.5960    -3.5310     1.7100 H     1 <1>   0.0800 
 28 H       -5.6290    -3.3180     0.3250 H     1 <1>   0.0800 
 29 H       -3.1390    -4.6910    -1.8340 H     1 <1>   0.0800 
 30 H       -4.7650    -4.0530    -1.8030 H     1 <1>   0.0800 
 31 H       -4.3300    -5.3910    -0.7530 H     1 <1>   0.0800 
 32 H       -5.6430    -1.2250     1.2990 H     1 <1>   0.0800 
 33 H       -3.9680    -1.2670     1.7290 H     1 <1>   0.0800 
@<TRIPOS>BOND
  1   1   2  2   
  2   2   3  1   
  3   2   4  1   
  4   3   5  ar  
  5   3   6  ar  
  6   4   7  2   
  7   4   8  1   
  8   5   9  1   
  9   5  10  ar  
 10   6  11  ar  
 11   6  18  1   
 12   7   9  1   
 13   7  12  1   
 14   8  13  1   
 15   8  19  1   
 16   8  20  1   
 17   9  21  1   
 18  10  14  ar  
 19  10  22  1   
 20  11  14  ar  
 21  11  23  1   
 22  12  15  1   
 23  12  16  1   
 24  13  17  1   
 25  13  24  1   
 26  13  25  1   
 27  14  26  1   
 28  15  17  1   
 29  15  27  1   
 30  15  28  1   
 31  16  29  1   
 32  16  30  1   
 33  16  31  1   
 34  17  32  1   
 35  17  33  1   
@<TRIPOS>SUBSTRUCTURE
  1 ****   7 GROUP 4 **** **** 0

# MOE 2024.06 (io_trps.svl 2023.06)
