@<TRIPOS>MOLECULE
NONAME
25 26 1 0 0 
SMALL
USER_CHARGES


@<TRIPOS>ATOM
  1 O        0.0550    -0.3160    -0.3420 O.3   1 <1>  -0.5600 
  2 C        0.2200    -1.4260     0.4930 C.3   1 <1>   0.1200 
  3 C        1.1310     0.5780    -0.2910 C.3   1 <1>   0.1200 
  4 C        1.5000    -2.1960     0.1200 C.3   1 <1>   0.1100 
  5 C        2.4390    -0.1300    -0.6870 C.3   1 <1>   0.1100 
  6 N        2.6810    -1.3130     0.1650 N.3   1 <1>  -0.8100 
  7 C        3.8980    -2.0360    -0.2540 C.3   1 <1>   0.2900 
  8 C        5.1670    -1.2800     0.1140 C.2   1 <1>  -0.0400 
  9 O        6.3010    -1.6440    -0.4550 O.3   1 <1>  -0.2800 
 10 C        5.3790    -0.2520     0.9650 C.2   1 <1>  -0.1500 
 11 C        7.2530    -0.8620     0.0140 C.2   1 <1>  -0.0100 
 12 C        6.7500     0.0250     0.8980 C.2   1 <1>  -0.1500 
 13 H       -0.6430    -2.0560     0.3770 H     1 <1>   0.0800 
 14 H        0.2690    -1.0860     1.5130 H     1 <1>   0.0800 
 15 H        1.2040     0.9740     0.7070 H     1 <1>   0.0800 
 16 H        0.9220     1.3840    -0.9720 H     1 <1>   0.0800 
 17 H        1.3820    -2.6090    -0.8680 H     1 <1>   0.0800 
 18 H        1.6340    -3.0080     0.8130 H     1 <1>   0.0800 
 19 H        3.2550     0.5640    -0.5880 H     1 <1>   0.0800 
 20 H        2.3750    -0.4240    -1.7210 H     1 <1>   0.0800 
 21 H        3.8760    -2.2000    -1.3170 H     1 <1>   0.0800 
 22 H        3.9360    -2.9950     0.2320 H     1 <1>   0.0800 
 23 H        4.6580     0.2570     1.5790 H     1 <1>   0.1500 
 24 H        8.2610    -1.0040    -0.3360 H     1 <1>   0.1500 
 25 H        7.2610     0.7910     1.4530 H     1 <1>   0.1500 
@<TRIPOS>BOND
  1   1   2  1   
  2   1   3  1   
  3   2   4  1   
  4   2  13  1   
  5   2  14  1   
  6   3   5  1   
  7   3  15  1   
  8   3  16  1   
  9   4   6  1   
 10   4  17  1   
 11   4  18  1   
 12   5   6  1   
 13   5  19  1   
 14   5  20  1   
 15   6   7  1   
 16   7   8  1   
 17   7  21  1   
 18   7  22  1   
 19   8   9  1   
 20   8  10  2   
 21   9  11  1   
 22  10  12  1   
 23  10  23  1   
 24  11  12  2   
 25  11  24  1   
 26  12  25  1   
@<TRIPOS>SUBSTRUCTURE
  1 ****   6 GROUP 4 **** **** 0

# MOE 2024.06 (io_trps.svl 2023.06)
