@<TRIPOS>MOLECULE
NONAME
59 61 1 0 0 
SMALL
USER_CHARGES


@<TRIPOS>ATOM
  1 O       -0.0020    -0.2680    -1.4750 O.2   1 <1>  -0.5700 
  2 C        0.0970    -0.9900    -0.5100 C.2   1 <1>   0.4950 
  3 C        1.3280    -1.5080    -0.0100 C.2   1 <1>  -0.1240 
  4 C       -1.1940    -1.4200     0.1700 C.3   1 <1>  -0.0990 
  5 C        1.4040    -2.4300     0.9800 C.2   1 <1>  -0.0380 
  6 C        2.6110    -0.9840    -0.6540 C.3   1 <1>   0.3400 
  7 C       -0.9710    -1.8920     1.6170 C.3   1 <1>  -0.1600 
  8 N        2.6010    -2.9810     1.3610 N.pl3 1 <1>  -0.6000 
  9 C        0.1630    -2.9250     1.7070 C.3   1 <1>  -0.0220 
 10 C        3.8820    -1.7480    -0.2440 C.2   1 <1>  -0.1240 
 11 C        2.7860     0.4930    -0.2850 C.ar  1 <1>  -0.1430 
 12 C        3.7940    -2.6950     0.7330 C.2   1 <1>  -0.0380 
 13 C        5.0610    -1.3080    -0.9370 C.2   1 <1>   0.7060 
 14 C        3.1820     0.8550     0.9950 C.ar  1 <1>  -0.1500 
 15 C        2.5640     1.4860    -1.2290 C.ar  1 <1>  -0.1500 
 16 C        4.9490    -3.5380     1.2540 C.3   1 <1>  -0.1020 
 17 O        6.1850    -1.4400    -0.4950 O.2   1 <1>  -0.5700 
 18 O        4.8980    -0.6940    -2.1200 O.3   1 <1>  -0.4300 
 19 C        3.3810     2.1840     1.3230 C.ar  1 <1>   0.0830 
 20 C        2.7370     2.8300    -0.9110 C.ar  1 <1>   0.0830 
 21 C        5.8720     0.0040    -2.8700 C.3   1 <1>   0.2000 
 22 O        3.7870     2.4650     2.5850 O.3   1 <1>  -0.3630 
 23 C        3.1530     3.1800     0.3730 C.ar  1 <1>   0.0830 
 24 O        2.5030     3.8290    -1.8120 O.3   1 <1>  -0.3620 
 25 C        6.9580    -0.9450    -3.3820 C.3   1 <1>  -0.2400 
 26 C        6.4170     1.1880    -2.0670 C.3   1 <1>  -0.2400 
 27 C        5.1100     2.9360     2.7150 C.3   1 <1>   0.0400 
 28 O        3.3290     4.4900     0.6950 O.3   1 <1>  -0.3630 
 29 C        1.7870     3.5780    -3.0010 C.3   1 <1>   0.0400 
 30 C        2.2050     5.1090     1.2720 C.3   1 <1>   0.0400 
 31 H       -1.6260    -2.2160    -0.4100 H     1 <1>   0.0800 
 32 H       -1.8820    -0.5940     0.1630 H     1 <1>   0.0800 
 33 H        2.4870    -1.0830    -1.7190 H     1 <1>   0.0800 
 34 H       -1.8800    -2.3080     2.0150 H     1 <1>   0.0800 
 35 H       -0.7060    -1.0390     2.2190 H     1 <1>   0.0800 
 36 H        2.6090    -3.6700     2.1220 H     1 <1>   0.4000 
 37 H        0.3920    -3.0960     2.7440 H     1 <1>   0.0800 
 38 H       -0.1490    -3.8580     1.2720 H     1 <1>   0.0800 
 39 H        3.3480     0.1050     1.7490 H     1 <1>   0.1500 
 40 H        2.2520     1.1920    -2.2130 H     1 <1>   0.1500 
 41 H        5.3140    -3.1230     2.1760 H     1 <1>   0.0800 
 42 H        5.7600    -3.5870     0.5530 H     1 <1>   0.0800 
 43 H        4.6240    -4.5470     1.4310 H     1 <1>   0.0800 
 44 H        5.3480     0.3990    -3.7240 H     1 <1>   0.0800 
 45 H        7.5740    -1.3030    -2.5780 H     1 <1>   0.0800 
 46 H        7.5910    -0.4250    -4.0760 H     1 <1>   0.0800 
 47 H        6.5090    -1.7800    -3.8890 H     1 <1>   0.0800 
 48 H        7.0070     0.8550    -1.2330 H     1 <1>   0.0800 
 49 H        5.6050     1.7970    -1.7090 H     1 <1>   0.0800 
 50 H        7.0420     1.7950    -2.6950 H     1 <1>   0.0800 
 51 H        5.7750     2.2350     2.2420 H     1 <1>   0.0800 
 52 H        5.3380     3.0140     3.7620 H     1 <1>   0.0800 
 53 H        5.1900     3.9010     2.2490 H     1 <1>   0.0800 
 54 H        1.5980     4.5210    -3.4810 H     1 <1>   0.0800 
 55 H        0.8560     3.0980    -2.7550 H     1 <1>   0.0800 
 56 H        2.3840     2.9550    -3.6430 H     1 <1>   0.0800 
 57 H        2.4530     6.1340     1.4770 H     1 <1>   0.0800 
 58 H        1.9570     4.5960     2.1840 H     1 <1>   0.0800 
 59 H        1.3870     5.0570     0.5750 H     1 <1>   0.0800 
@<TRIPOS>BOND
  1   1   2  2   
  2   2   3  1   
  3   2   4  1   
  4   3   5  2   
  5   3   6  1   
  6   4   7  1   
  7   4  31  1   
  8   4  32  1   
  9   5   8  1   
 10   5   9  1   
 11   6  10  1   
 12   6  11  1   
 13   6  33  1   
 14   7   9  1   
 15   7  34  1   
 16   7  35  1   
 17   8  12  1   
 18   8  36  1   
 19   9  37  1   
 20   9  38  1   
 21  10  12  2   
 22  10  13  1   
 23  11  14  ar  
 24  11  15  ar  
 25  12  16  1   
 26  13  17  2   
 27  13  18  1   
 28  14  19  ar  
 29  14  39  1   
 30  15  20  ar  
 31  15  40  1   
 32  16  41  1   
 33  16  42  1   
 34  16  43  1   
 35  18  21  1   
 36  19  22  1   
 37  19  23  ar  
 38  20  23  ar  
 39  20  24  1   
 40  21  25  1   
 41  21  26  1   
 42  21  44  1   
 43  22  27  1   
 44  23  28  1   
 45  24  29  1   
 46  25  45  1   
 47  25  46  1   
 48  25  47  1   
 49  26  48  1   
 50  26  49  1   
 51  26  50  1   
 52  27  51  1   
 53  27  52  1   
 54  27  53  1   
 55  28  30  1   
 56  29  54  1   
 57  29  55  1   
 58  29  56  1   
 59  30  57  1   
 60  30  58  1   
 61  30  59  1   
@<TRIPOS>SUBSTRUCTURE
  1 ****  11 GROUP 4 **** **** 0

# MOE 2024.06 (io_trps.svl 2023.06)
