@<TRIPOS>MOLECULE
NONAME
35 35 1 0 0 
SMALL
USER_CHARGES


@<TRIPOS>ATOM
  1 S        0.2390     0.2880     0.7150 S.2   1 <1>  -0.7500 
  2 C       -1.2090     0.3800     0.0110 C.2   1 <1>   0.7960 
  3 S       -1.6280     1.6300    -0.9420 S.2   1 <1>  -0.7500 
  4 N       -2.1220    -0.5520     0.3320 N.am  1 <1>  -0.9660 
  5 C       -3.3540    -0.9040    -0.4320 C.3   1 <1>   0.1400 
  6 C       -4.5920    -0.2260     0.1830 C.3   1 <1>   0.3430 
  7 N       -4.2700     1.1920     0.4760 N.4   1 <1>  -0.9060 
  8 C       -4.7270     2.1660    -0.5570 C.3   1 <1>   0.3430 
  9 C       -6.2020     2.5610    -0.4030 C.3   1 <1>   0.1200 
 10 O       -7.0120     1.4050    -0.3300 O.3   1 <1>  -0.3630 
 11 C       -8.3600     1.4880    -0.1740 C.ar  1 <1>   0.0820 
 12 C       -9.0810     0.2960    -0.1420 C.ar  1 <1>  -0.1430 
 13 C       -9.0320     2.7030    -0.0470 C.ar  1 <1>  -0.1500 
 14 C      -10.4570     0.3330     0.0210 C.ar  1 <1>  -0.1500 
 15 C       -8.3850    -1.0500    -0.2870 C.3   1 <1>  -0.0970 
 16 C      -10.4050     2.7260     0.1150 C.ar  1 <1>  -0.1500 
 17 C      -11.1180     1.5420     0.1500 C.ar  1 <1>  -0.1500 
 18 H       -1.7130    -1.2880     0.9180 H     1 <1>   0.3700 
 19 H       -3.4850    -1.9730    -0.4320 H     1 <1>   0.0800 
 20 H       -3.2450    -0.5900    -1.4570 H     1 <1>   0.0800 
 21 H       -4.8400    -0.7350     1.0990 H     1 <1>   0.0800 
 22 H       -5.4330    -0.3020    -0.4860 H     1 <1>   0.0800 
 23 H       -3.2240     1.1990     0.4330 H     1 <1>   0.4500 
 24 H       -4.5250     1.4610     1.4270 H     1 <1>   0.4500 
 25 H       -4.5630     1.7520    -1.5390 H     1 <1>   0.0800 
 26 H       -4.1210     3.0550    -0.4900 H     1 <1>   0.0800 
 27 H       -6.5170     3.1440    -1.2510 H     1 <1>   0.0800 
 28 H       -6.3390     3.1320     0.4990 H     1 <1>   0.0800 
 29 H       -8.5160     3.6420    -0.0700 H     1 <1>   0.1500 
 30 H      -11.0270    -0.5790     0.0490 H     1 <1>   0.1500 
 31 H       -7.8090    -1.0680    -1.1940 H     1 <1>   0.0800 
 32 H       -9.1010    -1.8510    -0.3250 H     1 <1>   0.0800 
 33 H       -7.7330    -1.2130     0.5510 H     1 <1>   0.0800 
 34 H      -10.9240     3.6640     0.2140 H     1 <1>   0.1500 
 35 H      -12.1870     1.5590     0.2770 H     1 <1>   0.1500 
@<TRIPOS>BOND
  1   1   2  ar  
  2   2   3  ar  
  3   2   4  am  
  4   4   5  1   
  5   4  18  1   
  6   5   6  1   
  7   5  19  1   
  8   5  20  1   
  9   6   7  1   
 10   6  21  1   
 11   6  22  1   
 12   7   8  1   
 13   7  23  1   
 14   7  24  1   
 15   8   9  1   
 16   8  25  1   
 17   8  26  1   
 18   9  10  1   
 19   9  27  1   
 20   9  28  1   
 21  10  11  1   
 22  11  12  ar  
 23  11  13  ar  
 24  12  14  ar  
 25  12  15  1   
 26  13  16  ar  
 27  13  29  1   
 28  14  17  ar  
 29  14  30  1   
 30  15  31  1   
 31  15  32  1   
 32  15  33  1   
 33  16  17  ar  
 34  16  34  1   
 35  17  35  1   
@<TRIPOS>SUBSTRUCTURE
  1 ****  10 GROUP 4 **** **** 0

# MOE 2024.06 (io_trps.svl 2023.06)
