@<TRIPOS>MOLECULE
NONAME
32 32 1 0 0 
SMALL
USER_CHARGES


@<TRIPOS>ATOM
  1 S        0.2100     0.7140     0.8870 S.o2  1 <1>   1.3330 
  2 O       -0.1960     0.9360     2.2510 O.2   1 <1>  -0.6500 
  3 O        0.5960     1.8200     0.0460 O.2   1 <1>  -0.6500 
  4 N        1.5760    -0.3120     1.0220 N.am  1 <1>  -0.7570 
  5 C       -0.9870    -0.3350     0.0600 C.3   1 <1>  -0.0550 
  6 C        2.3240    -0.7680    -0.0540 C.ar  1 <1>   0.1990 
  7 C       -2.3420     0.3490    -0.1860 C.3   1 <1>  -0.1600 
  8 C        2.3840    -2.1350    -0.3470 C.ar  1 <1>  -0.1430 
  9 C        3.0280     0.1370    -0.8460 C.ar  1 <1>  -0.1500 
 10 C       -3.3190    -0.5940    -0.8980 C.3   1 <1>  -0.1600 
 11 C        3.1310    -2.5740    -1.4300 C.ar  1 <1>  -0.1500 
 12 C        1.6430    -3.1570     0.5070 C.3   1 <1>  -0.0970 
 13 C        3.7750    -0.2960    -1.9260 C.ar  1 <1>  -0.1500 
 14 C       -4.6640     0.0940    -1.1410 C.3   1 <1>  -0.2400 
 15 C        3.8100    -1.6490    -2.1980 C.ar  1 <1>   0.1900 
 16 F        4.5130    -2.0690    -3.2190 F     1 <1>  -0.1900 
 17 H        2.1050    -0.0200     1.8400 H     1 <1>   0.4200 
 18 H       -1.1460    -1.2130     0.6550 H     1 <1>   0.0800 
 19 H       -0.5810    -0.6460    -0.8830 H     1 <1>   0.0800 
 20 H       -2.1880     1.2310    -0.7850 H     1 <1>   0.0800 
 21 H       -2.7590     0.6580     0.7590 H     1 <1>   0.0800 
 22 H        2.9870     1.1880    -0.6170 H     1 <1>   0.1500 
 23 H       -3.4770    -1.4760    -0.2990 H     1 <1>   0.0800 
 24 H       -2.9050    -0.9020    -1.8430 H     1 <1>   0.0800 
 25 H        3.1950    -3.6170    -1.6850 H     1 <1>   0.1500 
 26 H        0.5820    -3.0260     0.4020 H     1 <1>   0.0800 
 27 H        1.9070    -3.0340     1.5420 H     1 <1>   0.0800 
 28 H        1.8930    -4.1610     0.2130 H     1 <1>   0.0800 
 29 H        4.3180     0.3960    -2.5450 H     1 <1>   0.1500 
 30 H       -5.1100     0.3910    -0.2070 H     1 <1>   0.0800 
 31 H       -5.3380    -0.5800    -1.6400 H     1 <1>   0.0800 
 32 H       -4.5360     0.9660    -1.7570 H     1 <1>   0.0800 
@<TRIPOS>BOND
  1   1   2  2   
  2   1   3  2   
  3   1   4  am  
  4   1   5  1   
  5   4   6  1   
  6   4  17  1   
  7   5   7  1   
  8   5  18  1   
  9   5  19  1   
 10   6   8  ar  
 11   6   9  ar  
 12   7  10  1   
 13   7  20  1   
 14   7  21  1   
 15   8  11  ar  
 16   8  12  1   
 17   9  13  ar  
 18   9  22  1   
 19  10  14  1   
 20  10  23  1   
 21  10  24  1   
 22  11  15  ar  
 23  11  25  1   
 24  12  26  1   
 25  12  27  1   
 26  12  28  1   
 27  13  15  ar  
 28  13  29  1   
 29  14  30  1   
 30  14  31  1   
 31  14  32  1   
 32  15  16  1   
@<TRIPOS>SUBSTRUCTURE
  1 ****   6 GROUP 4 **** **** 0

# MOE 2024.06 (io_trps.svl 2023.06)
