@<TRIPOS>MOLECULE
NONAME
35 35 1 0 0 
SMALL
USER_CHARGES


@<TRIPOS>ATOM
  1 CL      -0.3880     0.4270    -0.0100 Cl    1 <1>  -0.1770 
  2 C        1.2460     1.0430    -0.0030 C.ar  1 <1>   0.1770 
  3 C        1.4560     2.4090     0.0450 C.ar  1 <1>  -0.1500 
  4 C        2.3050     0.1550    -0.0470 C.ar  1 <1>  -0.1500 
  5 C        2.7530     2.8910     0.0500 C.ar  1 <1>  -0.1500 
  6 C        3.6030     0.6410    -0.0420 C.ar  1 <1>  -0.1500 
  7 C        3.8300     2.0160     0.0060 C.ar  1 <1>   0.0830 
  8 O        5.0650     2.5770     0.0150 O.3   1 <1>  -0.3630 
  9 C        6.2300     1.7910    -0.0260 C.3   1 <1>   0.1200 
 10 C        7.4250     2.7460    -0.0030 C.3   1 <1>  -0.1600 
 11 C        8.7630     1.9940    -0.0450 C.3   1 <1>  -0.1600 
 12 C        9.9290     2.9810    -0.0210 C.3   1 <1>   0.3430 
 13 N       11.2050     2.2290    -0.0620 N.4   1 <1>  -0.9060 
 14 C       12.3850     3.1450    -0.0400 C.3   1 <1>   0.3430 
 15 C       13.7100     2.3730    -0.0820 C.3   1 <1>   0.1200 
 16 O       14.7290     3.3040    -0.0580 O.3   1 <1>  -0.6800 
 17 H        0.6160     3.0790     0.0780 H     1 <1>   0.1500 
 18 H        2.1100    -0.9020    -0.0840 H     1 <1>   0.1500 
 19 H        2.9390     3.9500     0.0870 H     1 <1>   0.1500 
 20 H        4.4130    -0.0620    -0.0760 H     1 <1>   0.1500 
 21 H        6.2150     1.2100    -0.9330 H     1 <1>   0.0800 
 22 H        6.2330     1.1450     0.8350 H     1 <1>   0.0800 
 23 H        7.3680     3.3400     0.8940 H     1 <1>   0.0800 
 24 H        7.3500     3.4040    -0.8530 H     1 <1>   0.0800 
 25 H        8.8030     1.4040    -0.9450 H     1 <1>   0.0800 
 26 H        8.8210     1.3400     0.8080 H     1 <1>   0.0800 
 27 H        9.8790     3.5780     0.8770 H     1 <1>   0.0800 
 28 H        9.8610     3.6420    -0.8710 H     1 <1>   0.0800 
 29 H       11.2290     1.6520    -0.9120 H     1 <1>   0.4500 
 30 H       11.2460     1.5910     0.7430 H     1 <1>   0.4500 
 31 H       12.3650     3.7420     0.8570 H     1 <1>   0.0800 
 32 H       12.3470     3.8070    -0.8910 H     1 <1>   0.0800 
 33 H       13.8020     1.8020    -0.9900 H     1 <1>   0.0800 
 34 H       13.8200     1.7370     0.7790 H     1 <1>   0.0800 
 35 H       15.6150     2.8810    -0.0830 H     1 <1>   0.4000 
@<TRIPOS>BOND
  1   1   2  1   
  2   2   3  ar  
  3   2   4  ar  
  4   3   5  ar  
  5   3  17  1   
  6   4   6  ar  
  7   4  18  1   
  8   5   7  ar  
  9   5  19  1   
 10   6   7  ar  
 11   6  20  1   
 12   7   8  1   
 13   8   9  1   
 14   9  10  1   
 15   9  21  1   
 16   9  22  1   
 17  10  11  1   
 18  10  23  1   
 19  10  24  1   
 20  11  12  1   
 21  11  25  1   
 22  11  26  1   
 23  12  13  1   
 24  12  27  1   
 25  12  28  1   
 26  13  14  1   
 27  13  29  1   
 28  13  30  1   
 29  14  15  1   
 30  14  31  1   
 31  14  32  1   
 32  15  16  1   
 33  15  33  1   
 34  15  34  1   
 35  16  35  1   
@<TRIPOS>SUBSTRUCTURE
  1 ****   9 GROUP 4 **** **** 0

# MOE 2024.06 (io_trps.svl 2023.06)
