@<TRIPOS>MOLECULE
NONAME
41 41 1 0 0 
SMALL
USER_CHARGES


@<TRIPOS>ATOM
  1 O       -0.1530     0.1100    -0.8730 O.2   1 <1>  -0.5700 
  2 C       -0.1790    -0.8700    -0.1570 C.2   1 <1>   0.6900 
  3 N       -1.3410    -1.5140     0.1470 N.am  1 <1>  -0.5470 
  4 N        0.9590    -1.3790     0.3690 N.am  1 <1>  -0.7300 
  5 C       -2.6770    -1.1940    -0.1330 C.ar  1 <1>   0.1170 
  6 C        2.3290    -0.8830     0.2140 C.3   1 <1>   0.5000 
  7 C       -3.1100     0.1030    -0.3920 C.ar  1 <1>  -0.1500 
  8 C       -3.6230    -2.2120    -0.1320 C.ar  1 <1>  -0.1500 
  9 C        3.1220    -1.7830     1.1080 C.1   1 <1>  -0.2000 
 10 C        2.3980     0.5930     0.6920 C.3   1 <1>  -0.1600 
 11 C        2.7550    -1.0980    -1.2590 C.3   1 <1>  -0.1600 
 12 C       -4.4430     0.3710    -0.6470 C.ar  1 <1>  -0.1500 
 13 C       -4.9580    -1.9470    -0.3850 C.ar  1 <1>  -0.1500 
 14 C        3.7470    -2.5060     1.8170 C.1   1 <1>  -0.1770 
 15 C        3.7400     1.0940     1.2670 C.3   1 <1>  -0.2400 
 16 C        4.2040    -0.7260    -1.6210 C.3   1 <1>  -0.2400 
 17 C       -5.3780    -0.6520    -0.6430 C.ar  1 <1>  -0.1430 
 18 C       -6.8420    -0.3570    -0.9220 C.3   1 <1>  -0.0170 
 19 C       -7.1380    -0.4730    -2.4190 C.3   1 <1>  -0.2400 
 20 H       -1.2030    -2.4240     0.5710 H     1 <1>   0.3700 
 21 H        0.9070    -2.1090     1.0710 H     1 <1>   0.3700 
 22 H       -2.4040     0.9130    -0.3950 H     1 <1>   0.1500 
 23 H       -3.3180    -3.2230     0.0640 H     1 <1>   0.1500 
 24 H        1.6600     0.7360     1.4610 H     1 <1>   0.0800 
 25 H        2.1230     1.2290    -0.1310 H     1 <1>   0.0800 
 26 H        2.1040    -0.5300    -1.8990 H     1 <1>   0.0800 
 27 H        2.6120    -2.1370    -1.4980 H     1 <1>   0.0800 
 28 H       -4.7490     1.3820    -0.8490 H     1 <1>   0.1500 
 29 H       -5.6710    -2.7520    -0.3820 H     1 <1>   0.1500 
 30 H        4.3200    -3.1560     2.4560 H     1 <1>   0.1770 
 31 H        3.9750     0.5840     2.1850 H     1 <1>   0.0800 
 32 H        3.6700     2.1460     1.4820 H     1 <1>   0.0800 
 33 H        4.5490     0.9460     0.5780 H     1 <1>   0.0800 
 34 H        4.3430     0.3380    -1.5770 H     1 <1>   0.0800 
 35 H        4.4170    -1.0440    -2.6270 H     1 <1>   0.0800 
 36 H        4.9050    -1.2050    -0.9600 H     1 <1>   0.0800 
 37 H       -7.0830     0.6350    -0.5820 H     1 <1>   0.0800 
 38 H       -7.4620    -1.0480    -0.3760 H     1 <1>   0.0800 
 39 H       -6.5340     0.2260    -2.9700 H     1 <1>   0.0800 
 40 H       -8.1750    -0.2620    -2.6100 H     1 <1>   0.0800 
 41 H       -6.9160    -1.4670    -2.7650 H     1 <1>   0.0800 
@<TRIPOS>BOND
  1   1   2  2   
  2   2   3  am  
  3   2   4  am  
  4   3   5  1   
  5   3  20  1   
  6   4   6  1   
  7   4  21  1   
  8   5   7  ar  
  9   5   8  ar  
 10   6   9  1   
 11   6  10  1   
 12   6  11  1   
 13   7  12  ar  
 14   7  22  1   
 15   8  13  ar  
 16   8  23  1   
 17   9  14  3   
 18  10  15  1   
 19  10  24  1   
 20  10  25  1   
 21  11  16  1   
 22  11  26  1   
 23  11  27  1   
 24  12  17  ar  
 25  12  28  1   
 26  13  17  ar  
 27  13  29  1   
 28  14  30  1   
 29  15  31  1   
 30  15  32  1   
 31  15  33  1   
 32  16  34  1   
 33  16  35  1   
 34  16  36  1   
 35  17  18  1   
 36  18  19  1   
 37  18  37  1   
 38  18  38  1   
 39  19  39  1   
 40  19  40  1   
 41  19  41  1   
@<TRIPOS>SUBSTRUCTURE
  1 ****   2 GROUP 4 **** **** 0

# MOE 2024.06 (io_trps.svl 2023.06)
