@<TRIPOS>MOLECULE
NONAME
40 40 1 0 0 
SMALL
USER_CHARGES


@<TRIPOS>ATOM
  1 CL       0.0800     0.3160     0.3070 Cl    1 <1>  -0.1770 
  2 C        1.7070     0.9500     0.2900 C.ar  1 <1>   0.1770 
  3 C        1.9050     2.3100     0.4350 C.ar  1 <1>  -0.1500 
  4 C        2.7710     0.0810     0.1320 C.ar  1 <1>  -0.1500 
  5 C        3.1970     2.8080     0.4210 C.ar  1 <1>  -0.1500 
  6 C        4.0620     0.5820     0.1180 C.ar  1 <1>  -0.1500 
  7 C        4.2790     1.9520     0.2630 C.ar  1 <1>   0.0830 
  8 O        5.5080     2.5250     0.2610 O.3   1 <1>  -0.3630 
  9 C        6.6780     1.7590     0.1090 C.3   1 <1>   0.1200 
 10 C        7.8650     2.7240     0.1540 C.3   1 <1>  -0.1600 
 11 C        9.2070     1.9930    -0.0030 C.3   1 <1>  -0.1600 
 12 C       10.3650     2.9890     0.0470 C.3   1 <1>   0.3430 
 13 N       11.6460     2.2530    -0.1070 N.4   1 <1>  -0.9060 
 14 C       12.8730     3.0530    -0.0830 C.3   1 <1>   0.5030 
 15 C       14.0270     2.0710    -0.2580 C.3   1 <1>  -0.2400 
 16 C       12.8620     4.0530    -1.2380 C.3   1 <1>  -0.2400 
 17 C       12.9990     3.7680     1.2620 C.3   1 <1>  -0.2400 
 18 H        1.0620     2.9660     0.5570 H     1 <1>   0.1500 
 19 H        2.5840    -0.9720     0.0220 H     1 <1>   0.1500 
 20 H        3.3750     3.8620     0.5320 H     1 <1>   0.1500 
 21 H        4.8770    -0.1060    -0.0060 H     1 <1>   0.1500 
 22 H        6.6270     1.2500    -0.8380 H     1 <1>   0.0800 
 23 H        6.7240     1.0490     0.9170 H     1 <1>   0.0800 
 24 H        7.8430     3.2460     1.0960 H     1 <1>   0.0800 
 25 H        7.7480     3.4440    -0.6380 H     1 <1>   0.0800 
 26 H        9.2130     1.4750    -0.9470 H     1 <1>   0.0800 
 27 H        9.3080     1.2760     0.7930 H     1 <1>   0.0800 
 28 H       10.3470     3.5120     0.9900 H     1 <1>   0.0800 
 29 H       10.2520     3.7110    -0.7460 H     1 <1>   0.0800 
 30 H       11.6340     1.7400    -0.9930 H     1 <1>   0.4500 
 31 H       11.7240     1.5540     0.6370 H     1 <1>   0.4500 
 32 H       13.9580     1.5520    -1.1980 H     1 <1>   0.0800 
 33 H       14.0540     1.3540     0.5430 H     1 <1>   0.0800 
 34 H       14.9640     2.6020    -0.2490 H     1 <1>   0.0800 
 35 H       12.7240     3.5560    -2.1820 H     1 <1>   0.0800 
 36 H       13.8050     4.5710    -1.2770 H     1 <1>   0.0800 
 37 H       12.0970     4.7980    -1.1130 H     1 <1>   0.0800 
 38 H       12.2350     4.5120     1.3900 H     1 <1>   0.0800 
 39 H       12.9580     3.0690     2.0790 H     1 <1>   0.0800 
 40 H       13.9470     4.2750     1.3140 H     1 <1>   0.0800 
@<TRIPOS>BOND
  1   1   2  1   
  2   2   3  ar  
  3   2   4  ar  
  4   3   5  ar  
  5   3  18  1   
  6   4   6  ar  
  7   4  19  1   
  8   5   7  ar  
  9   5  20  1   
 10   6   7  ar  
 11   6  21  1   
 12   7   8  1   
 13   8   9  1   
 14   9  10  1   
 15   9  22  1   
 16   9  23  1   
 17  10  11  1   
 18  10  24  1   
 19  10  25  1   
 20  11  12  1   
 21  11  26  1   
 22  11  27  1   
 23  12  13  1   
 24  12  28  1   
 25  12  29  1   
 26  13  14  1   
 27  13  30  1   
 28  13  31  1   
 29  14  15  1   
 30  14  16  1   
 31  14  17  1   
 32  15  32  1   
 33  15  33  1   
 34  15  34  1   
 35  16  35  1   
 36  16  36  1   
 37  16  37  1   
 38  17  38  1   
 39  17  39  1   
 40  17  40  1   
@<TRIPOS>SUBSTRUCTURE
  1 ****   9 GROUP 4 **** **** 0

# MOE 2024.06 (io_trps.svl 2023.06)
