@<TRIPOS>MOLECULE
NONAME
47 48 1 0 0 
SMALL
USER_CHARGES


@<TRIPOS>ATOM
  1 CL      -1.7600     5.5270    -1.3500 Cl    1 <1>  -0.1770 
  2 C       -2.4290     4.0630    -0.6650 C.ar  1 <1>   0.1770 
  3 C       -1.6030     2.9910    -0.3490 C.ar  1 <1>   0.0830 
  4 C       -3.7930     4.0110    -0.4520 C.ar  1 <1>  -0.1500 
  5 O       -0.2700     3.1090    -0.5850 O.3   1 <1>  -0.3630 
  6 C       -2.1850     1.8500     0.1950 C.ar  1 <1>  -0.1500 
  7 C       -4.3830     2.8730     0.0860 C.ar  1 <1>  -0.0090 
  8 C        0.6320     2.0610    -0.3040 C.3   1 <1>   0.0400 
  9 C       -3.5540     1.8020     0.4070 C.ar  1 <1>  -0.1500 
 10 S       -6.1670     2.7930     0.3900 S.o2  1 <1>   1.4470 
 11 O       -6.6740     1.4640     0.1270 O.2   1 <1>  -0.6500 
 12 O       -6.8600     3.8900    -0.2460 O.2   1 <1>  -0.6500 
 13 N       -6.3060     3.0390     2.0400 N.am  1 <1>  -0.9140 
 14 C       -7.6120     2.6600     2.5800 C.3   1 <1>   0.3370 
 15 C       -8.7510     3.5790     2.0560 C.2   1 <1>   0.5690 
 16 C       -7.4870     2.7280     4.1030 C.3   1 <1>  -0.2400 
 17 O       -8.6970     4.7410     2.3930 O.2   1 <1>  -0.5700 
 18 N       -9.7390     3.1570     1.1880 N.am  1 <1>  -0.6600 
 19 C      -10.6540     4.1680     0.5730 C.3   1 <1>   0.1400 
 20 C       -9.7940     1.8430     0.4700 C.3   1 <1>   0.1400 
 21 C      -10.2400     4.3960    -0.8900 C.3   1 <1>   0.3430 
 22 C       -9.4710     2.0260    -1.0320 C.3   1 <1>   0.3430 
 23 N      -10.2860     3.1150    -1.6890 N.4   1 <1>  -0.9590 
 24 C       -9.7910     3.3580    -3.0760 C.3   1 <1>   0.2630 
 25 H       -4.3920     4.8670    -0.7110 H     1 <1>   0.1500 
 26 H       -1.5930     0.9940     0.4600 H     1 <1>   0.1500 
 27 H        1.6180     2.3890    -0.5790 H     1 <1>   0.0800 
 28 H        0.3590     1.1990    -0.8850 H     1 <1>   0.0800 
 29 H        0.6000     1.8450     0.7490 H     1 <1>   0.0800 
 30 H       -3.9880     0.9110     0.8320 H     1 <1>   0.1500 
 31 H       -6.2650     4.0530     2.1630 H     1 <1>   0.4200 
 32 H       -7.8130     1.6350     2.3350 H     1 <1>   0.0800 
 33 H       -7.2550     3.7290     4.4230 H     1 <1>   0.0800 
 34 H       -6.7170     2.0600     4.4440 H     1 <1>   0.0800 
 35 H       -8.4170     2.4370     4.5580 H     1 <1>   0.0800 
 36 H      -10.6120     5.1050     1.1020 H     1 <1>   0.0800 
 37 H      -11.6700     3.8180     0.6240 H     1 <1>   0.0800 
 38 H      -10.7820     1.4280     0.5740 H     1 <1>   0.0800 
 39 H       -9.1100     1.1310     0.8890 H     1 <1>   0.0800 
 40 H       -9.2370     4.7940    -0.8960 H     1 <1>   0.0800 
 41 H      -10.8920     5.1290    -1.3330 H     1 <1>   0.0800 
 42 H       -9.6300     1.0910    -1.5430 H     1 <1>   0.0800 
 43 H       -8.4270     2.2680    -1.1260 H     1 <1>   0.0800 
 44 H      -11.2650     2.8020    -1.7290 H     1 <1>   0.4500 
 45 H       -8.7650     3.6920    -3.0520 H     1 <1>   0.0800 
 46 H      -10.3870     4.1140    -3.5610 H     1 <1>   0.0800 
 47 H       -9.8450     2.4530    -3.6590 H     1 <1>   0.0800 
@<TRIPOS>BOND
  1   1   2  1   
  2   2   3  ar  
  3   2   4  ar  
  4   3   5  1   
  5   3   6  ar  
  6   4   7  ar  
  7   4  25  1   
  8   5   8  1   
  9   6   9  ar  
 10   6  26  1   
 11   7   9  ar  
 12   7  10  1   
 13   8  27  1   
 14   8  28  1   
 15   8  29  1   
 16   9  30  1   
 17  10  11  2   
 18  10  12  2   
 19  10  13  am  
 20  13  14  1   
 21  13  31  1   
 22  14  15  1   
 23  14  16  1   
 24  14  32  1   
 25  15  17  2   
 26  15  18  am  
 27  16  33  1   
 28  16  34  1   
 29  16  35  1   
 30  18  19  1   
 31  18  20  1   
 32  19  21  1   
 33  19  36  1   
 34  19  37  1   
 35  20  22  1   
 36  20  38  1   
 37  20  39  1   
 38  21  23  1   
 39  21  40  1   
 40  21  41  1   
 41  22  23  1   
 42  22  42  1   
 43  22  43  1   
 44  23  24  1   
 45  23  44  1   
 46  24  45  1   
 47  24  46  1   
 48  24  47  1   
@<TRIPOS>SUBSTRUCTURE
  1 ****  10 GROUP 4 **** **** 0

# MOE 2024.06 (io_trps.svl 2023.06)
