@<TRIPOS>MOLECULE
NONAME
34 35 1 0 0 
SMALL
USER_CHARGES


@<TRIPOS>ATOM
  1 BR      -0.5270    -2.2990     2.8810 Br    1 <1>  -0.1110 
  2 C       -2.1390    -2.0780     1.8550 C.ar  1 <1>   0.1110 
  3 C       -3.3490    -2.3930     2.4390 C.ar  1 <1>  -0.1500 
  4 C       -2.0480    -1.6090     0.5610 C.ar  1 <1>  -0.1500 
  5 C       -4.5060    -2.2310     1.6950 C.ar  1 <1>  -0.1500 
  6 C       -3.2120    -1.4520    -0.1720 C.ar  1 <1>  -0.1500 
  7 C       -4.4540    -1.7650     0.3810 C.ar  1 <1>  -0.1430 
  8 C       -5.7540    -1.5810    -0.4250 C.3   1 <1>   0.7240 
  9 O       -5.5130    -1.6400    -1.7790 O.3   1 <1>  -0.6800 
 10 N       -6.7930    -2.5910    -0.1160 N.am  1 <1>  -0.2980 
 11 C       -6.4340    -0.2520    -0.1070 C.3   1 <1>  -0.0990 
 12 N       -7.9450    -1.9690     0.3600 N.2   1 <1>  -0.5120 
 13 C       -6.5380    -3.9340    -0.3850 C.2   1 <1>   0.7800 
 14 C       -7.7830    -0.7230     0.3630 C.2   1 <1>   0.3280 
 15 O       -5.5800    -4.2710    -1.0550 O.2   1 <1>  -0.5700 
 16 O       -7.3130    -4.9260     0.0700 O.3   1 <1>  -0.4300 
 17 C       -8.8100     0.2970     0.7990 C.3   1 <1>  -0.1790 
 18 C       -8.4320    -4.7800     0.9100 C.3   1 <1>   0.1200 
 19 C       -8.9090    -6.1750     1.3040 C.3   1 <1>  -0.2400 
 20 H       -3.3830    -2.7570     3.4500 H     1 <1>   0.1500 
 21 H       -1.0880    -1.3730     0.1370 H     1 <1>   0.1500 
 22 H       -5.4500    -2.4750     2.1540 H     1 <1>   0.1500 
 23 H       -3.1400    -1.0820    -1.1810 H     1 <1>   0.1500 
 24 H       -5.2670    -2.5750    -1.9570 H     1 <1>   0.4000 
 25 H       -6.5150     0.3770    -0.9730 H     1 <1>   0.0800 
 26 H       -5.9240     0.2670     0.6830 H     1 <1>   0.0800 
 27 H       -8.4320     0.8700     1.6260 H     1 <1>   0.0800 
 28 H       -9.7120    -0.2010     1.1050 H     1 <1>   0.0800 
 29 H       -9.0390     0.9580    -0.0170 H     1 <1>   0.0800 
 30 H       -9.1990    -4.2540     0.3690 H     1 <1>   0.0800 
 31 H       -8.1390    -4.2180     1.7800 H     1 <1>   0.0800 
 32 H       -9.1860    -6.7300     0.4260 H     1 <1>   0.0800 
 33 H       -9.7670    -6.0970     1.9470 H     1 <1>   0.0800 
 34 H       -8.1300    -6.6970     1.8290 H     1 <1>   0.0800 
@<TRIPOS>BOND
  1   1   2  1   
  2   2   3  ar  
  3   2   4  ar  
  4   3   5  ar  
  5   3  20  1   
  6   4   6  ar  
  7   4  21  1   
  8   5   7  ar  
  9   5  22  1   
 10   6   7  ar  
 11   6  23  1   
 12   7   8  1   
 13   8   9  1   
 14   8  10  1   
 15   8  11  1   
 16   9  24  1   
 17  10  12  1   
 18  10  13  am  
 19  11  14  1   
 20  11  25  1   
 21  11  26  1   
 22  12  14  2   
 23  13  15  2   
 24  13  16  1   
 25  14  17  1   
 26  16  18  1   
 27  17  27  1   
 28  17  28  1   
 29  17  29  1   
 30  18  19  1   
 31  18  30  1   
 32  18  31  1   
 33  19  32  1   
 34  19  33  1   
 35  19  34  1   
@<TRIPOS>SUBSTRUCTURE
  1 ****   8 GROUP 4 **** **** 0

# MOE 2024.06 (io_trps.svl 2023.06)
