@<TRIPOS>MOLECULE
NONAME
48 50 1 0 0 
SMALL
USER_CHARGES


@<TRIPOS>ATOM
  1 F       -1.7950    -0.2590     1.5430 F     1 <1>  -0.1900 
  2 C       -2.8420     0.0310     0.8200 C.ar  1 <1>   0.1900 
  3 C       -3.5380    -1.0010     0.2220 C.ar  1 <1>  -0.1500 
  4 C       -3.2150     1.3540     0.6840 C.ar  1 <1>  -0.1500 
  5 C       -4.6600    -0.7010    -0.5400 C.ar  1 <1>  -0.1440 
  6 C       -4.3280     1.6490    -0.0840 C.ar  1 <1>  -0.1500 
  7 C       -5.0440     0.6280    -0.6920 C.ar  1 <1>  -0.1500 
  8 C       -5.4630    -1.8090    -1.1940 C.3   1 <1>   0.4870 
  9 N       -6.2420    -2.5170    -0.1420 N.4   1 <1>  -0.9590 
 10 C       -6.9200    -3.7360    -0.7150 C.3   1 <1>   0.3430 
 11 C       -7.2350    -1.5820     0.5070 C.3   1 <1>   0.3430 
 12 C       -7.8350    -4.4380     0.3130 C.3   1 <1>   0.1400 
 13 C       -8.1370    -2.3020     1.5320 C.3   1 <1>   0.1400 
 14 N       -8.8070    -3.4720     0.8990 N.am  1 <1>  -0.6600 
 15 C       -9.9040    -3.1890     0.1460 C.2   1 <1>   0.6900 
 16 O       -9.7360    -2.6770    -0.9450 O.2   1 <1>  -0.5700 
 17 N      -11.1250    -3.4680     0.6740 N.am  1 <1>  -0.5470 
 18 C      -12.4290    -3.2680     0.1930 C.ar  1 <1>   0.1170 
 19 C      -13.4840    -3.3440     1.0960 C.ar  1 <1>  -0.1500 
 20 C      -12.7240    -3.0090    -1.1430 C.ar  1 <1>  -0.1500 
 21 C      -14.7910    -3.1600     0.6810 C.ar  1 <1>  -0.1500 
 22 C      -14.0290    -2.8230    -1.5640 C.ar  1 <1>  -0.1500 
 23 C      -15.0740    -2.8970    -0.6490 C.ar  1 <1>   0.0830 
 24 O      -16.3830    -2.7270    -0.9740 O.3   1 <1>  -0.3620 
 25 C      -16.7650    -2.4330    -2.2990 C.3   1 <1>   0.0400 
 26 H       -3.1880    -2.0090     0.3600 H     1 <1>   0.1500 
 27 H       -2.6450     2.1290     1.1650 H     1 <1>   0.1500 
 28 H       -4.6330     2.6750    -0.2100 H     1 <1>   0.1500 
 29 H       -5.9030     0.8890    -1.2890 H     1 <1>   0.1500 
 30 H       -4.7900    -2.4940    -1.6840 H     1 <1>   0.0800 
 31 H       -6.1290    -1.3950    -1.9350 H     1 <1>   0.0800 
 32 H       -5.5780    -2.8110     0.5830 H     1 <1>   0.4500 
 33 H       -6.1830    -4.4370    -1.0690 H     1 <1>   0.0800 
 34 H       -7.5300    -3.4450    -1.5560 H     1 <1>   0.0800 
 35 H       -7.8710    -1.1510    -0.2500 H     1 <1>   0.0800 
 36 H       -6.7150    -0.7760     0.9990 H     1 <1>   0.0800 
 37 H       -7.2450    -4.8810     1.0970 H     1 <1>   0.0800 
 38 H       -8.3750    -5.2310    -0.1800 H     1 <1>   0.0800 
 39 H       -8.8830    -1.6130     1.8910 H     1 <1>   0.0800 
 40 H       -7.5550    -2.6280     2.3770 H     1 <1>   0.0800 
 41 H      -11.0670    -3.8710     1.6050 H     1 <1>   0.3700 
 42 H      -13.2900    -3.5460     2.1330 H     1 <1>   0.1500 
 43 H      -11.9370    -2.9540    -1.8700 H     1 <1>   0.1500 
 44 H      -15.6020    -3.2190     1.3840 H     1 <1>   0.1500 
 45 H      -14.2090    -2.6230    -2.6020 H     1 <1>   0.1500 
 46 H      -17.8350    -2.3320    -2.3240 H     1 <1>   0.0800 
 47 H      -16.4600    -3.2430    -2.9380 H     1 <1>   0.0800 
 48 H      -16.3040    -1.5090    -2.5990 H     1 <1>   0.0800 
@<TRIPOS>BOND
  1   1   2  1   
  2   2   3  ar  
  3   2   4  ar  
  4   3   5  ar  
  5   3  26  1   
  6   4   6  ar  
  7   4  27  1   
  8   5   7  ar  
  9   5   8  1   
 10   6   7  ar  
 11   6  28  1   
 12   7  29  1   
 13   8   9  1   
 14   8  30  1   
 15   8  31  1   
 16   9  10  1   
 17   9  11  1   
 18   9  32  1   
 19  10  12  1   
 20  10  33  1   
 21  10  34  1   
 22  11  13  1   
 23  11  35  1   
 24  11  36  1   
 25  12  14  1   
 26  12  37  1   
 27  12  38  1   
 28  13  14  1   
 29  13  39  1   
 30  13  40  1   
 31  14  15  am  
 32  15  16  2   
 33  15  17  am  
 34  17  18  1   
 35  17  41  1   
 36  18  19  ar  
 37  18  20  ar  
 38  19  21  ar  
 39  19  42  1   
 40  20  22  ar  
 41  20  43  1   
 42  21  23  ar  
 43  21  44  1   
 44  22  23  ar  
 45  22  45  1   
 46  23  24  1   
 47  24  25  1   
 48  25  46  1   
 49  25  47  1   
 50  25  48  1   
@<TRIPOS>SUBSTRUCTURE
  1 ****  16 GROUP 4 **** **** 0

# MOE 2024.06 (io_trps.svl 2023.06)
