@<TRIPOS>MOLECULE
NONAME
45 47 1 0 0 
SMALL
USER_CHARGES


@<TRIPOS>ATOM
  1 O       -1.1030     2.4120    -2.7780 O.2   1 <1>  -0.5700 
  2 C       -1.4470     2.7980    -1.6520 C.2   1 <1>   0.5330 
  3 C       -0.6160     3.8040    -1.0200 C.ar  1 <1>   0.0860 
  4 C       -2.6420     2.2540    -1.0730 C.cat 1 <1>   0.7510 
  5 C       -1.1430     4.9040    -0.3380 C.ar  1 <1>  -0.1500 
  6 C        0.7770     3.7280    -1.1150 C.ar  1 <1>  -0.1500 
  7 N       -3.5340     1.4880    -1.7830 N.pl3 1 <1>  -0.7000 
  8 N       -3.1400     2.3380     0.1890 N.pl3 1 <1>  -0.8080 
  9 C       -0.3260     5.8700     0.2170 C.ar  1 <1>  -0.1500 
 10 C        1.6020     4.6900    -0.5630 C.ar  1 <1>  -0.1500 
 11 C       -4.5630     1.1250    -0.9710 C.2   1 <1>   0.1820 
 12 O       -2.5950     2.8930     1.2020 O.3   1 <1>  -0.4420 
 13 C       -4.3190     1.6370     0.2530 C.2   1 <1>   0.1820 
 14 C        1.0510     5.7760     0.1110 C.ar  1 <1>   0.0830 
 15 C       -5.7460     0.3050    -1.4530 C.3   1 <1>   0.0080 
 16 C       -5.1140     1.5060     1.5400 C.3   1 <1>   0.0080 
 17 O        1.7820     6.7620     0.6790 O.3   1 <1>  -0.3630 
 18 C       -7.0380     0.7080    -0.7250 C.3   1 <1>  -0.1600 
 19 C       -5.9180     0.1970     1.5910 C.3   1 <1>  -0.1600 
 20 C        3.1900     6.7280     0.6880 C.3   1 <1>   0.1200 
 21 C       -7.1790     0.1610     0.7070 C.3   1 <1>  -0.1600 
 22 C        3.6920     7.9620     1.4380 C.3   1 <1>  -0.1600 
 23 C        5.2240     7.9980     1.4930 C.3   1 <1>  -0.2400 
 24 H       -2.2100     4.9980    -0.2260 H     1 <1>   0.1500 
 25 H        1.2170     2.8970    -1.6390 H     1 <1>   0.1500 
 26 H       -3.3540     1.2610    -2.7600 H     1 <1>   0.4500 
 27 H       -0.7530     6.7030     0.7460 H     1 <1>   0.1500 
 28 H        2.6650     4.5810    -0.6660 H     1 <1>   0.1500 
 29 H       -5.5440    -0.7440    -1.3240 H     1 <1>   0.0800 
 30 H       -5.8790     0.4910    -2.5040 H     1 <1>   0.0800 
 31 H       -5.7500     2.3640     1.6610 H     1 <1>   0.0800 
 32 H       -4.4150     1.5030     2.3570 H     1 <1>   0.0800 
 33 H       -7.8810     0.3600    -1.2980 H     1 <1>   0.0800 
 34 H       -7.1010     1.7830    -0.7020 H     1 <1>   0.0800 
 35 H       -6.2200     0.0250     2.6100 H     1 <1>   0.0800 
 36 H       -5.2650    -0.6150     1.3210 H     1 <1>   0.0800 
 37 H        3.5360     6.7340    -0.3300 H     1 <1>   0.0800 
 38 H        3.5030     5.8260     1.1860 H     1 <1>   0.0800 
 39 H       -7.5150    -0.8610     0.6550 H     1 <1>   0.0800 
 40 H       -7.9590     0.7180     1.1990 H     1 <1>   0.0800 
 41 H        3.3010     7.9480     2.4410 H     1 <1>   0.0800 
 42 H        3.3330     8.8470     0.9420 H     1 <1>   0.0800 
 43 H        5.6040     7.1290     2.0010 H     1 <1>   0.0800 
 44 H        5.5510     8.8740     2.0250 H     1 <1>   0.0800 
 45 H        5.6360     8.0290     0.4990 H     1 <1>   0.0800 
@<TRIPOS>BOND
  1   1   2  2   
  2   2   3  1   
  3   2   4  1   
  4   3   5  ar  
  5   3   6  ar  
  6   4   7  ar  
  7   4   8  ar  
  8   5   9  ar  
  9   5  24  1   
 10   6  10  ar  
 11   6  25  1   
 12   7  11  1   
 13   7  26  1   
 14   8  12  1   
 15   8  13  1   
 16   9  14  ar  
 17   9  27  1   
 18  10  14  ar  
 19  10  28  1   
 20  11  13  2   
 21  11  15  1   
 22  13  16  1   
 23  14  17  1   
 24  15  18  1   
 25  15  29  1   
 26  15  30  1   
 27  16  19  1   
 28  16  31  1   
 29  16  32  1   
 30  17  20  1   
 31  18  21  1   
 32  18  33  1   
 33  18  34  1   
 34  19  21  1   
 35  19  35  1   
 36  19  36  1   
 37  20  22  1   
 38  20  37  1   
 39  20  38  1   
 40  21  39  1   
 41  21  40  1   
 42  22  23  1   
 43  22  41  1   
 44  22  42  1   
 45  23  43  1   
 46  23  44  1   
 47  23  45  1   
@<TRIPOS>SUBSTRUCTURE
  1 ****   3 GROUP 4 **** **** 0

# MOE 2024.06 (io_trps.svl 2023.06)
