@<TRIPOS>MOLECULE
NONAME
43 44 1 0 0 
SMALL
USER_CHARGES


@<TRIPOS>ATOM
  1 N       -0.1770     0.2080     0.1120 N.4   1 <1>  -0.9590 
  2 C        1.1670     0.8310     0.3990 C.3   1 <1>   0.4230 
  3 C       -1.3480     1.1200     0.4340 C.3   1 <1>   0.3430 
  4 C       -0.3050    -1.0710     0.8740 C.3   1 <1>   0.3430 
  5 C        1.2500     2.2930    -0.0860 C.3   1 <1>  -0.1600 
  6 C        2.2550    -0.0060    -0.3010 C.3   1 <1>  -0.1600 
  7 C       -2.7530     0.6680    -0.0710 C.3   1 <1>   0.3430 
  8 C       -1.0430    -2.1430     0.0710 C.3   1 <1>  -0.1600 
  9 C        2.6550     2.8840     0.1080 C.3   1 <1>  -0.1600 
 10 C        3.6570     0.5830    -0.0910 C.3   1 <1>  -0.1600 
 11 N       -3.1420    -0.7770     0.1580 N.4   1 <1>  -0.9590 
 12 C       -2.3230    -1.7240    -0.6540 C.3   1 <1>   0.3430 
 13 C        3.7300     2.0340    -0.5800 C.3   1 <1>  -0.0800 
 14 C       -4.5900    -0.9570    -0.2040 C.3   1 <1>   0.2630 
 15 C        5.1220     2.6170    -0.3150 C.3   1 <1>  -0.2400 
 16 H       -0.1460     0.0100    -0.8970 H     1 <1>   0.4500 
 17 H        1.3530     0.8220     1.4620 H     1 <1>   0.0800 
 18 H       -1.1730     2.0910     0.0040 H     1 <1>   0.0800 
 19 H       -1.3980     1.2610     1.5010 H     1 <1>   0.0800 
 20 H       -0.8260    -0.8870     1.8000 H     1 <1>   0.0800 
 21 H        0.6670    -1.4560     1.1360 H     1 <1>   0.0800 
 22 H        0.5800     2.9210     0.4730 H     1 <1>   0.0800 
 23 H        0.9990     2.3510    -1.1310 H     1 <1>   0.0800 
 24 H        2.0640    -0.0420    -1.3590 H     1 <1>   0.0800 
 25 H        2.2770    -1.0130     0.0730 H     1 <1>   0.0800 
 26 H       -2.8090     0.8780    -1.1270 H     1 <1>   0.0800 
 27 H       -3.4840     1.3040     0.4030 H     1 <1>   0.0800 
 28 H       -1.2830    -2.9500     0.7420 H     1 <1>   0.0800 
 29 H       -0.3660    -2.5580    -0.6550 H     1 <1>   0.0800 
 30 H        2.8740     2.9540     1.1610 H     1 <1>   0.0800 
 31 H        2.6810     3.8840    -0.2930 H     1 <1>   0.0800 
 32 H        4.3780    -0.0110    -0.6280 H     1 <1>   0.0800 
 33 H        3.9160     0.5400     0.9540 H     1 <1>   0.0800 
 34 H       -3.0670    -1.0250     1.1570 H     1 <1>   0.4500 
 35 H       -2.8960    -2.6140    -0.8670 H     1 <1>   0.0800 
 36 H       -2.0770    -1.2680    -1.6000 H     1 <1>   0.0800 
 37 H        3.5590     2.0520    -1.6450 H     1 <1>   0.0800 
 38 H       -4.7540    -0.7290    -1.2450 H     1 <1>   0.0800 
 39 H       -5.2130    -0.3070     0.3910 H     1 <1>   0.0800 
 40 H       -4.8990    -1.9750    -0.0250 H     1 <1>   0.0800 
 41 H        5.3440     2.6220     0.7380 H     1 <1>   0.0800 
 42 H        5.1810     3.6270    -0.6810 H     1 <1>   0.0800 
 43 H        5.8730     2.0350    -0.8200 H     1 <1>   0.0800 
@<TRIPOS>BOND
  1   1   2  1   
  2   1   3  1   
  3   1   4  1   
  4   1  16  1   
  5   2   5  1   
  6   2   6  1   
  7   2  17  1   
  8   3   7  1   
  9   3  18  1   
 10   3  19  1   
 11   4   8  1   
 12   4  20  1   
 13   4  21  1   
 14   5   9  1   
 15   5  22  1   
 16   5  23  1   
 17   6  10  1   
 18   6  24  1   
 19   6  25  1   
 20   7  11  1   
 21   7  26  1   
 22   7  27  1   
 23   8  12  1   
 24   8  28  1   
 25   8  29  1   
 26   9  13  1   
 27   9  30  1   
 28   9  31  1   
 29  10  13  1   
 30  10  32  1   
 31  10  33  1   
 32  11  12  1   
 33  11  14  1   
 34  11  34  1   
 35  12  35  1   
 36  12  36  1   
 37  13  15  1   
 38  13  37  1   
 39  14  38  1   
 40  14  39  1   
 41  14  40  1   
 42  15  41  1   
 43  15  42  1   
 44  15  43  1   
@<TRIPOS>SUBSTRUCTURE
  1 ****   1 GROUP 4 **** **** 0

# MOE 2024.06 (io_trps.svl 2023.06)
