@<TRIPOS>MOLECULE
NONAME
44 45 1 0 0 
SMALL
USER_CHARGES


@<TRIPOS>ATOM
  1 O        0.0840     0.6450    -1.7850 O.2   1 <1>  -0.5700 
  2 C       -0.0490     1.5380    -0.9720 C.2   1 <1>   0.6160 
  3 N        1.0170     1.8550    -0.1750 N.am  1 <1>  -0.7300 
  4 C       -1.2910     2.2550    -0.8450 C.2   1 <1>   0.0790 
  5 C        2.3620     1.2460    -0.2530 C.3   1 <1>   0.2200 
  6 C       -2.4520     1.5000    -1.2000 C.1   1 <1>   0.4920 
  7 C       -1.3750     3.5480    -0.4200 C.2   1 <1>  -0.1500 
  8 C        3.4340     2.3450    -0.4090 C.3   1 <1>  -0.0800 
  9 C        2.5860     0.4170     1.0170 C.3   1 <1>  -0.1600 
 10 N       -3.4230     0.9520    -1.4450 N.1   1 <1>  -0.5570 
 11 C       -2.5480     4.3470    -0.2350 C.2   1 <1>  -0.1500 
 12 C        4.8440     1.7280    -0.3750 C.3   1 <1>  -0.1600 
 13 C        3.2550     3.1450    -1.7110 C.3   1 <1>  -0.2400 
 14 C        3.9950    -0.1900     1.0450 C.3   1 <1>  -0.1600 
 15 C       -2.5600     5.6330     0.1850 C.2   1 <1>  -0.1780 
 16 C        5.0670     0.8970     0.8960 C.3   1 <1>  -0.1600 
 17 C       -3.6890     6.5050     0.3970 C.ar  1 <1>   0.0280 
 18 C       -3.4820     7.8050     0.8590 C.ar  1 <1>  -0.1500 
 19 C       -5.0080     6.1130     0.1610 C.ar  1 <1>  -0.1500 
 20 C       -4.5360     8.6730     1.0760 C.ar  1 <1>  -0.1500 
 21 C       -6.0670     6.9770     0.3760 C.ar  1 <1>  -0.1500 
 22 C       -5.8340     8.2600     0.8350 C.ar  1 <1>  -0.1500 
 23 H        0.9070     2.5320     0.5780 H     1 <1>   0.3700 
 24 H        2.4150     0.5880    -1.1060 H     1 <1>   0.0800 
 25 H       -0.4620     4.0710    -0.1920 H     1 <1>   0.1500 
 26 H        3.3530     3.0220     0.4240 H     1 <1>   0.0800 
 27 H        2.4560     1.0400     1.8840 H     1 <1>   0.0800 
 28 H        1.8600    -0.3770     1.0540 H     1 <1>   0.0800 
 29 H       -3.4810     3.8570    -0.4560 H     1 <1>   0.1500 
 30 H        4.9800     1.0950    -1.2360 H     1 <1>   0.0800 
 31 H        5.5840     2.5080    -0.4200 H     1 <1>   0.0800 
 32 H        3.2990     2.4900    -2.5630 H     1 <1>   0.0800 
 33 H        4.0300     3.8850    -1.8060 H     1 <1>   0.0800 
 34 H        2.3070     3.6510    -1.7210 H     1 <1>   0.0800 
 35 H        4.1420    -0.7190     1.9710 H     1 <1>   0.0800 
 36 H        4.0930    -0.9000     0.2410 H     1 <1>   0.0800 
 37 H       -1.6170     6.1030     0.4000 H     1 <1>   0.1500 
 38 H        6.0400     0.4390     0.8600 H     1 <1>   0.0800 
 39 H        5.0410     1.5450     1.7560 H     1 <1>   0.0800 
 40 H       -2.4810     8.1450     1.0520 H     1 <1>   0.1500 
 41 H       -5.2220     5.1240    -0.1970 H     1 <1>   0.1500 
 42 H       -4.3490     9.6710     1.4330 H     1 <1>   0.1500 
 43 H       -7.0750     6.6510     0.1870 H     1 <1>   0.1500 
 44 H       -6.6560     8.9330     1.0030 H     1 <1>   0.1500 
@<TRIPOS>BOND
  1   1   2  2   
  2   2   3  am  
  3   2   4  1   
  4   3   5  1   
  5   3  23  1   
  6   4   6  1   
  7   4   7  2   
  8   5   8  1   
  9   5   9  1   
 10   5  24  1   
 11   6  10  3   
 12   7  11  1   
 13   7  25  1   
 14   8  12  1   
 15   8  13  1   
 16   8  26  1   
 17   9  14  1   
 18   9  27  1   
 19   9  28  1   
 20  11  15  2   
 21  11  29  1   
 22  12  16  1   
 23  12  30  1   
 24  12  31  1   
 25  13  32  1   
 26  13  33  1   
 27  13  34  1   
 28  14  16  1   
 29  14  35  1   
 30  14  36  1   
 31  15  17  1   
 32  15  37  1   
 33  16  38  1   
 34  16  39  1   
 35  17  18  ar  
 36  17  19  ar  
 37  18  20  ar  
 38  18  40  1   
 39  19  21  ar  
 40  19  41  1   
 41  20  22  ar  
 42  20  42  1   
 43  21  22  ar  
 44  21  43  1   
 45  22  44  1   
@<TRIPOS>SUBSTRUCTURE
  1 ****   7 GROUP 4 **** **** 0

# MOE 2024.06 (io_trps.svl 2023.06)
