@<TRIPOS>MOLECULE
NONAME
46 47 1 0 0 
SMALL
USER_CHARGES


@<TRIPOS>ATOM
  1 N       -0.0060     0.3800     0.3900 N.pl3 1 <1>  -0.8380 
  2 C       -1.2920     0.8200     0.0810 C.ar  1 <1>   0.1000 
  3 C        1.0770     0.8340    -0.5270 C.3   1 <1>   0.2090 
  4 C        0.1090    -1.0380     0.8310 C.3   1 <1>   0.2090 
  5 C       -1.9470     1.7440     0.8950 C.ar  1 <1>  -0.1440 
  6 C       -1.9420     0.3390    -1.0520 C.ar  1 <1>  -0.1500 
  7 C        2.4630     0.5540     0.0890 C.3   1 <1>   0.3430 
  8 C        1.5000    -1.3070     1.4410 C.3   1 <1>   0.3430 
  9 C       -3.2240     2.1640     0.5660 C.ar  1 <1>  -0.1500 
 10 C       -1.2750     2.2980     2.1430 C.3   1 <1>  -0.0970 
 11 C       -3.2180     0.7600    -1.3800 C.ar  1 <1>  -0.1440 
 12 N        2.6240    -0.8810     0.5300 N.4   1 <1>  -0.9590 
 13 C       -3.8580     1.6760    -0.5630 C.ar  1 <1>  -0.1500 
 14 C       -3.9250     0.2330    -2.6160 C.3   1 <1>  -0.0970 
 15 C        3.9500    -1.1290     1.1330 C.3   1 <1>   0.4810 
 16 C        4.9720    -1.0280     0.0160 C.2   1 <1>  -0.2760 
 17 C        5.0200    -1.9360    -0.9710 C.2   1 <1>  -0.2880 
 18 C        5.9020     0.1740     0.1780 C.3   1 <1>  -0.1020 
 19 C        5.9690    -2.0040    -2.1610 C.3   1 <1>  -0.1020 
 20 H        0.9880     0.3300    -1.4740 H     1 <1>   0.0800 
 21 H        0.9690     1.8910    -0.7030 H     1 <1>   0.0800 
 22 H       -0.6510    -1.2390     1.5680 H     1 <1>   0.0800 
 23 H       -0.0600    -1.6940    -0.0050 H     1 <1>   0.0800 
 24 H       -1.4410    -0.3710    -1.6790 H     1 <1>   0.1500 
 25 H        2.5880     1.2070     0.9360 H     1 <1>   0.0800 
 26 H        3.2220     0.8010    -0.6350 H     1 <1>   0.0800 
 27 H        1.5870    -2.3560     1.6670 H     1 <1>   0.0800 
 28 H        1.5640    -0.7610     2.3680 H     1 <1>   0.0800 
 29 H       -3.7390     2.8760     1.1870 H     1 <1>   0.1500 
 30 H       -1.9140     2.9980     2.6500 H     1 <1>   0.0800 
 31 H       -0.3640     2.8000     1.8720 H     1 <1>   0.0800 
 32 H       -1.0440     1.4950     2.8180 H     1 <1>   0.0800 
 33 H        2.6010    -1.4550    -0.3220 H     1 <1>   0.4500 
 34 H       -4.8510     2.0140    -0.8030 H     1 <1>   0.1500 
 35 H       -4.2290     1.0530    -3.2410 H     1 <1>   0.0800 
 36 H       -4.7980    -0.3250    -2.3260 H     1 <1>   0.0800 
 37 H       -3.2800    -0.4110    -3.1860 H     1 <1>   0.0800 
 38 H        4.1580    -0.4160     1.9150 H     1 <1>   0.0800 
 39 H        3.9850    -2.1220     1.5510 H     1 <1>   0.0800 
 40 H        4.3410    -2.7730    -1.0040 H     1 <1>   0.1500 
 41 H        6.4490     0.0930     1.1020 H     1 <1>   0.0800 
 42 H        5.3440     1.0930     0.1930 H     1 <1>   0.0800 
 43 H        6.6220     0.2450    -0.6140 H     1 <1>   0.0800 
 44 H        5.4080    -1.9860    -3.0780 H     1 <1>   0.0800 
 45 H        6.5280    -2.9230    -2.1260 H     1 <1>   0.0800 
 46 H        6.6710    -1.1930    -2.1860 H     1 <1>   0.0800 
@<TRIPOS>BOND
  1   1   2  1   
  2   1   3  1   
  3   1   4  1   
  4   2   5  ar  
  5   2   6  ar  
  6   3   7  1   
  7   3  20  1   
  8   3  21  1   
  9   4   8  1   
 10   4  22  1   
 11   4  23  1   
 12   5   9  ar  
 13   5  10  1   
 14   6  11  ar  
 15   6  24  1   
 16   7  12  1   
 17   7  25  1   
 18   7  26  1   
 19   8  12  1   
 20   8  27  1   
 21   8  28  1   
 22   9  13  ar  
 23   9  29  1   
 24  10  30  1   
 25  10  31  1   
 26  10  32  1   
 27  11  13  ar  
 28  11  14  1   
 29  12  15  1   
 30  12  33  1   
 31  13  34  1   
 32  14  35  1   
 33  14  36  1   
 34  14  37  1   
 35  15  16  1   
 36  15  38  1   
 37  15  39  1   
 38  16  17  2   
 39  16  18  1   
 40  17  19  1   
 41  17  40  1   
 42  18  41  1   
 43  18  42  1   
 44  18  43  1   
 45  19  44  1   
 46  19  45  1   
 47  19  46  1   
@<TRIPOS>SUBSTRUCTURE
  1 ****   1 GROUP 4 **** **** 0

# MOE 2024.06 (io_trps.svl 2023.06)
