@<TRIPOS>MOLECULE
NONAME
51 53 1 0 0 
SMALL
USER_CHARGES


@<TRIPOS>ATOM
  1 O       -1.1430    -2.5340     0.3220 O.3   1 <1>  -0.3630 
  2 C       -2.4940    -2.4100     0.2750 C.ar  1 <1>   0.0830 
  3 C       -0.5510    -3.4700    -0.5640 C.3   1 <1>   0.2000 
  4 C       -3.2850    -3.3680    -0.3630 C.ar  1 <1>   0.0830 
  5 C       -3.0860    -1.3100     0.8700 C.ar  1 <1>  -0.1500 
  6 C       -1.3900    -4.7580    -0.5930 C.3   1 <1>   0.1200 
  7 C        0.8900    -3.7430    -0.1130 C.3   1 <1>   0.1200 
  8 O       -2.7310    -4.4670    -0.9350 O.3   1 <1>  -0.3630 
  9 C       -4.6590    -3.2070    -0.4140 C.ar  1 <1>  -0.1500 
 10 C       -4.4620    -1.1560     0.8220 C.ar  1 <1>  -0.1500 
 11 O        1.6300    -2.5570    -0.1390 O.3   1 <1>  -0.5600 
 12 C       -5.2470    -2.1010     0.1790 C.ar  1 <1>  -0.1500 
 13 C        2.8880    -2.6320     0.4550 C.3   1 <1>   0.1200 
 14 C        3.4850    -1.2180     0.4790 C.3   1 <1>   0.2000 
 15 O        3.2940    -0.6340    -0.7730 O.3   1 <1>  -0.6800 
 16 C        4.9900    -1.1920     0.8090 C.3   1 <1>   0.3430 
 17 N        5.5790     0.0740     0.2920 N.4   1 <1>  -0.9060 
 18 C        6.9970     0.0530    -0.0620 C.3   1 <1>   0.5660 
 19 C        7.4320     1.5020    -0.1910 C.ar  1 <1>  -0.1430 
 20 C        7.1970    -0.7300    -1.3560 C.3   1 <1>  -0.2400 
 21 C        6.8970     2.3470    -1.1570 C.ar  1 <1>  -0.1500 
 22 C        8.3810     2.0010     0.6920 C.ar  1 <1>  -0.1500 
 23 C        7.3020     3.6680    -1.2340 C.ar  1 <1>  -0.1500 
 24 C        8.7850     3.3220     0.6130 C.ar  1 <1>  -0.1500 
 25 C        8.2450     4.1560    -0.3490 C.ar  1 <1>  -0.1500 
 26 H       -0.5420    -3.0340    -1.5470 H     1 <1>   0.0800 
 27 H       -2.4690    -0.5810     1.3640 H     1 <1>   0.1500 
 28 H       -1.3900    -5.2300     0.3740 H     1 <1>   0.0800 
 29 H       -1.0090    -5.4480    -1.3240 H     1 <1>   0.0800 
 30 H        1.3610    -4.4490    -0.7750 H     1 <1>   0.0800 
 31 H        0.8830    -4.1360     0.8890 H     1 <1>   0.0800 
 32 H       -5.2590    -3.9460    -0.9120 H     1 <1>   0.1500 
 33 H       -4.9220    -0.2990     1.2830 H     1 <1>   0.1500 
 34 H       -6.3150    -1.9760     0.1410 H     1 <1>   0.1500 
 35 H        3.5000    -3.3020    -0.1250 H     1 <1>   0.0800 
 36 H        2.7810    -3.0120     1.4580 H     1 <1>   0.0800 
 37 H        2.9440    -0.6270     1.1990 H     1 <1>   0.0800 
 38 H        2.3870    -0.8990    -1.0700 H     1 <1>   0.4000 
 39 H        5.4540    -2.0330     0.3220 H     1 <1>   0.0800 
 40 H        5.1470    -1.2870     1.8710 H     1 <1>   0.0800 
 41 H        5.4140     0.8680     0.9200 H     1 <1>   0.4500 
 42 H        5.0300     0.2890    -0.5590 H     1 <1>   0.4500 
 43 H        7.5650    -0.4090     0.7300 H     1 <1>   0.0800 
 44 H        6.5830    -0.3420    -2.1500 H     1 <1>   0.0800 
 45 H        6.9810    -1.7720    -1.2140 H     1 <1>   0.0800 
 46 H        8.2250    -0.6470    -1.6620 H     1 <1>   0.0800 
 47 H        6.1640     1.9980    -1.8640 H     1 <1>   0.1500 
 48 H        8.8200     1.3750     1.4500 H     1 <1>   0.1500 
 49 H        6.8870     4.3190    -1.9850 H     1 <1>   0.1500 
 50 H        9.5220     3.7060     1.2990 H     1 <1>   0.1500 
 51 H        8.5610     5.1840    -0.4100 H     1 <1>   0.1500 
@<TRIPOS>BOND
  1   1   2  1   
  2   1   3  1   
  3   2   4  ar  
  4   2   5  ar  
  5   3   6  1   
  6   3   7  1   
  7   3  26  1   
  8   4   8  1   
  9   4   9  ar  
 10   5  10  ar  
 11   5  27  1   
 12   6   8  1   
 13   6  28  1   
 14   6  29  1   
 15   7  11  1   
 16   7  30  1   
 17   7  31  1   
 18   9  12  ar  
 19   9  32  1   
 20  10  12  ar  
 21  10  33  1   
 22  11  13  1   
 23  12  34  1   
 24  13  14  1   
 25  13  35  1   
 26  13  36  1   
 27  14  15  1   
 28  14  16  1   
 29  14  37  1   
 30  15  38  1   
 31  16  17  1   
 32  16  39  1   
 33  16  40  1   
 34  17  18  1   
 35  17  41  1   
 36  17  42  1   
 37  18  19  1   
 38  18  20  1   
 39  18  43  1   
 40  19  21  ar  
 41  19  22  ar  
 42  20  44  1   
 43  20  45  1   
 44  20  46  1   
 45  21  23  ar  
 46  21  47  1   
 47  22  24  ar  
 48  22  48  1   
 49  23  25  ar  
 50  23  49  1   
 51  24  25  ar  
 52  24  50  1   
 53  25  51  1   
@<TRIPOS>SUBSTRUCTURE
  1 ****  15 GROUP 4 **** **** 0

# MOE 2024.06 (io_trps.svl 2023.06)
