@<TRIPOS>MOLECULE
NONAME
44 46 1 0 0 
SMALL
USER_CHARGES


@<TRIPOS>ATOM
  1 CL       2.2900     1.7990    -3.6580 Cl    1 <1>  -0.1770 
  2 C        2.6400     1.6320    -1.9560 C.ar  1 <1>   0.1770 
  3 C        3.8070     1.0070    -1.5680 C.ar  1 <1>  -0.1500 
  4 C        1.7420     2.1270    -1.0290 C.ar  1 <1>  -0.1500 
  5 C        4.0960     0.8680    -0.2150 C.ar  1 <1>   0.1000 
  6 C        2.0250     1.9910     0.3200 C.ar  1 <1>  -0.1500 
  7 N        5.2600     0.2450     0.2180 N.pl3 1 <1>  -0.8380 
  8 C        3.1940     1.3660     0.7180 C.ar  1 <1>  -0.1500 
  9 C        6.5400     0.9610    -0.0560 C.3   1 <1>   0.2090 
 10 C        5.3270    -1.2340     0.0350 C.3   1 <1>   0.2090 
 11 C        7.6930     0.3480     0.7660 C.3   1 <1>   0.3430 
 12 C        6.4870    -1.8330     0.8590 C.3   1 <1>   0.3430 
 13 N        7.8070    -1.1510     0.5890 N.4   1 <1>  -0.9590 
 14 C        8.8990    -1.7180     1.4240 C.3   1 <1>   0.4860 
 15 C       10.2160    -1.1240     0.9630 C.ar  1 <1>  -0.1430 
 16 C       10.8290    -0.1270     1.7110 C.ar  1 <1>  -0.1500 
 17 C       10.8150    -1.5690    -0.2100 C.ar  1 <1>  -0.1500 
 18 C       12.0190     0.4320     1.2810 C.ar  1 <1>  -0.1500 
 19 C       12.0070    -1.0130    -0.6420 C.ar  1 <1>  -0.1500 
 20 C       12.6000    -0.0110     0.1090 C.ar  1 <1>   0.1020 
 21 S       14.1450     0.7730    -0.3810 S.3   1 <1>  -0.3320 
 22 C       14.7290    -0.0880    -1.9080 C.3   1 <1>  -0.0100 
 23 H        4.4810     0.6340    -2.3140 H     1 <1>   0.1500 
 24 H        0.8390     2.6100    -1.3600 H     1 <1>   0.1500 
 25 H        1.3360     2.3720     1.0560 H     1 <1>   0.1500 
 26 H        3.4170     1.2590     1.7640 H     1 <1>   0.1500 
 27 H        6.4270     2.0000     0.2050 H     1 <1>   0.0800 
 28 H        6.7700     0.9070    -1.1060 H     1 <1>   0.0800 
 29 H        5.4580    -1.4650    -1.0080 H     1 <1>   0.0800 
 30 H        4.3960    -1.6720     0.3560 H     1 <1>   0.0800 
 31 H        7.5170     0.5760     1.8040 H     1 <1>   0.0800 
 32 H        8.6170     0.8240     0.4770 H     1 <1>   0.0800 
 33 H        6.5640    -2.8850     0.6400 H     1 <1>   0.0800 
 34 H        6.2360    -1.7300     1.9020 H     1 <1>   0.0800 
 35 H        8.0650    -1.3120    -0.3910 H     1 <1>   0.4500 
 36 H        8.9350    -2.7900     1.3140 H     1 <1>   0.0800 
 37 H        8.7350    -1.4870     2.4640 H     1 <1>   0.0800 
 38 H       10.3960     0.2260     2.6320 H     1 <1>   0.1500 
 39 H       10.3700    -2.3530    -0.7990 H     1 <1>   0.1500 
 40 H       12.5050     1.2060     1.8510 H     1 <1>   0.1500 
 41 H       12.4600    -1.3630    -1.5490 H     1 <1>   0.1500 
 42 H       15.6680     0.3540    -2.1890 H     1 <1>   0.0800 
 43 H       13.9930     0.0610    -2.6780 H     1 <1>   0.0800 
 44 H       14.8540    -1.1300    -1.6750 H     1 <1>   0.0800 
@<TRIPOS>BOND
  1   1   2  1   
  2   2   3  ar  
  3   2   4  ar  
  4   3   5  ar  
  5   3  23  1   
  6   4   6  ar  
  7   4  24  1   
  8   5   7  1   
  9   5   8  ar  
 10   6   8  ar  
 11   6  25  1   
 12   7   9  1   
 13   7  10  1   
 14   8  26  1   
 15   9  11  1   
 16   9  27  1   
 17   9  28  1   
 18  10  12  1   
 19  10  29  1   
 20  10  30  1   
 21  11  13  1   
 22  11  31  1   
 23  11  32  1   
 24  12  13  1   
 25  12  33  1   
 26  12  34  1   
 27  13  14  1   
 28  13  35  1   
 29  14  15  1   
 30  14  36  1   
 31  14  37  1   
 32  15  16  ar  
 33  15  17  ar  
 34  16  18  ar  
 35  16  38  1   
 36  17  19  ar  
 37  17  39  1   
 38  18  20  ar  
 39  18  40  1   
 40  19  20  ar  
 41  19  41  1   
 42  20  21  1   
 43  21  22  1   
 44  22  42  1   
 45  22  43  1   
 46  22  44  1   
@<TRIPOS>SUBSTRUCTURE
  1 ****  11 GROUP 4 **** **** 0

# MOE 2024.06 (io_trps.svl 2023.06)
