@<TRIPOS>MOLECULE
NONAME
46 46 1 0 0 
SMALL
USER_CHARGES


@<TRIPOS>ATOM
  1 O        1.0610    -0.3060    -1.1620 O.3   1 <1>  -0.3630 
  2 C        0.4570    -0.8970    -0.0970 C.ar  1 <1>   0.0830 
  3 C        1.3270     1.0750    -1.3000 C.3   1 <1>   0.1200 
  4 C        0.1540    -2.2590    -0.1940 C.ar  1 <1>  -0.1440 
  5 C        0.1780    -0.2060     1.0810 C.ar  1 <1>  -0.1500 
  6 C        2.8310     1.3370    -1.1190 C.3   1 <1>  -0.1600 
  7 C       -0.3930    -2.8990     0.9100 C.ar  1 <1>  -0.1500 
  8 C        0.3580    -3.0980    -1.4660 C.3   1 <1>   0.0640 
  9 C       -0.3760    -0.8620     2.1630 C.ar  1 <1>  -0.1500 
 10 C        3.4290     0.8740     0.2130 C.3   1 <1>   0.3430 
 11 C       -0.6540    -2.2110     2.0810 C.ar  1 <1>  -0.1500 
 12 C        1.8330    -3.2470    -1.8570 C.3   1 <1>  -0.2400 
 13 C       -0.4750    -2.5670    -2.6380 C.3   1 <1>  -0.2400 
 14 N        3.4690    -0.6090     0.2770 N.4   1 <1>  -0.9060 
 15 C        4.0730    -1.2250     1.4580 C.3   1 <1>   0.5030 
 16 C        3.4200    -0.7010     2.7360 C.3   1 <1>  -0.2400 
 17 C        3.8350    -2.7240     1.3360 C.3   1 <1>  -0.2400 
 18 C        5.5720    -0.9330     1.4560 C.3   1 <1>  -0.2400 
 19 H        0.7200     1.6520    -0.6290 H     1 <1>   0.0800 
 20 H        1.0380     1.3460    -2.3020 H     1 <1>   0.0800 
 21 H        0.3760     0.8410     1.1950 H     1 <1>   0.1500 
 22 H        2.9790     2.4000    -1.1900 H     1 <1>   0.0800 
 23 H        3.3730     0.8980    -1.9380 H     1 <1>   0.0800 
 24 H       -0.6360    -3.9470     0.8680 H     1 <1>   0.1500 
 25 H       -0.0060    -4.0930    -1.2700 H     1 <1>   0.0800 
 26 H       -0.5980    -0.3260     3.0710 H     1 <1>   0.1500 
 27 H        2.8400     1.2630     1.0280 H     1 <1>   0.0800 
 28 H        4.4300     1.2650     0.3040 H     1 <1>   0.0800 
 29 H       -1.0860    -2.7270     2.9220 H     1 <1>   0.1500 
 30 H        2.2610    -2.3030    -2.1360 H     1 <1>   0.0800 
 31 H        1.9180    -3.9140    -2.6970 H     1 <1>   0.0800 
 32 H        2.3870    -3.6680    -1.0400 H     1 <1>   0.0800 
 33 H       -0.1190    -1.6110    -2.9730 H     1 <1>   0.0800 
 34 H       -1.5030    -2.4620    -2.3380 H     1 <1>   0.0800 
 35 H       -0.4330    -3.2530    -3.4650 H     1 <1>   0.0800 
 36 H        3.9410    -0.9760    -0.5520 H     1 <1>   0.4500 
 37 H        2.4960    -0.9470     0.1940 H     1 <1>   0.4500 
 38 H        3.6010     0.3490     2.8790 H     1 <1>   0.0800 
 39 H        3.8330    -1.2130     3.5880 H     1 <1>   0.0800 
 40 H        2.3630    -0.8870     2.7310 H     1 <1>   0.0800 
 41 H        2.7810    -2.9460     1.3270 H     1 <1>   0.0800 
 42 H        4.2670    -3.2350     2.1790 H     1 <1>   0.0800 
 43 H        4.2910    -3.1200     0.4460 H     1 <1>   0.0800 
 44 H        5.7700     0.1160     1.5830 H     1 <1>   0.0800 
 45 H        6.0330    -1.2750     0.5470 H     1 <1>   0.0800 
 46 H        6.0430    -1.4490     2.2750 H     1 <1>   0.0800 
@<TRIPOS>BOND
  1   1   2  1   
  2   1   3  1   
  3   2   4  ar  
  4   2   5  ar  
  5   3   6  1   
  6   3  19  1   
  7   3  20  1   
  8   4   7  ar  
  9   4   8  1   
 10   5   9  ar  
 11   5  21  1   
 12   6  10  1   
 13   6  22  1   
 14   6  23  1   
 15   7  11  ar  
 16   7  24  1   
 17   8  12  1   
 18   8  13  1   
 19   8  25  1   
 20   9  11  ar  
 21   9  26  1   
 22  10  14  1   
 23  10  27  1   
 24  10  28  1   
 25  11  29  1   
 26  12  30  1   
 27  12  31  1   
 28  12  32  1   
 29  13  33  1   
 30  13  34  1   
 31  13  35  1   
 32  14  15  1   
 33  14  36  1   
 34  14  37  1   
 35  15  16  1   
 36  15  17  1   
 37  15  18  1   
 38  16  38  1   
 39  16  39  1   
 40  16  40  1   
 41  17  41  1   
 42  17  42  1   
 43  17  43  1   
 44  18  44  1   
 45  18  45  1   
 46  18  46  1   
@<TRIPOS>SUBSTRUCTURE
  1 ****   2 GROUP 4 **** **** 0

# MOE 2024.06 (io_trps.svl 2023.06)
