@<TRIPOS>MOLECULE
NONAME
57 60 1 0 0 
SMALL
USER_CHARGES


@<TRIPOS>ATOM
  1 O        4.6930     4.1790     0.8460 O.co2 1 <1>  -0.9000 
  2 C        4.0470     3.1870     1.2030 C.2   1 <1>   0.9060 
  3 O        4.4330     2.5010     2.1580 O.co2 1 <1>  -0.9000 
  4 C        2.9130     2.7080     0.3180 C.3   1 <1>  -0.1860 
  5 C        3.1790     1.2710    -0.2080 C.3   1 <1>  -0.0190 
  6 C        1.4850     2.7960     0.9130 C.3   1 <1>  -0.0800 
  7 C        4.1860     1.3160    -1.3640 C.2   1 <1>   0.5690 
  8 C        1.8140     0.5770    -0.4720 C.3   1 <1>  -0.0800 
  9 C        0.5100     2.7530    -0.2850 C.3   1 <1>  -0.1600 
 10 C        1.1970     1.5530     1.7850 C.3   1 <1>  -0.1600 
 11 O        3.7730     1.2720    -2.5010 O.2   1 <1>  -0.5700 
 12 N        5.5340     1.4850    -1.1340 N.am  1 <1>  -0.6600 
 13 C        0.8350     1.5380    -1.1890 C.3   1 <1>  -0.1600 
 14 C        1.2030     0.2690     0.9160 C.3   1 <1>  -0.1600 
 15 C        6.2960     2.3820    -2.0480 C.3   1 <1>   0.1400 
 16 C        6.2850     1.0640     0.1040 C.3   1 <1>   0.1400 
 17 C        6.9350     3.5420    -1.2610 C.3   1 <1>   0.3430 
 18 C        7.0670     2.2140     0.7800 C.3   1 <1>   0.3430 
 19 N        7.8690     3.0330    -0.1990 N.4   1 <1>  -0.9590 
 20 C        8.6080     4.1570     0.4430 C.3   1 <1>   0.4230 
 21 C        9.7640     3.6020     1.2860 C.3   1 <1>  -0.1600 
 22 C        7.7190     5.0920     1.2810 C.3   1 <1>  -0.1600 
 23 C       10.5980     4.7410     1.8920 C.3   1 <1>  -0.1600 
 24 C        8.5450     6.2330     1.8910 C.3   1 <1>  -0.1600 
 25 C        9.7190     5.6890     2.7170 C.3   1 <1>  -0.1600 
 26 H        2.9330     3.3730    -0.5270 H     1 <1>   0.0800 
 27 H        3.6280     0.6970     0.5770 H     1 <1>   0.0800 
 28 H        1.3620     3.7040     1.4780 H     1 <1>   0.0800 
 29 H        1.9490    -0.3280    -1.0390 H     1 <1>   0.0800 
 30 H        0.5880     3.6610    -0.8570 H     1 <1>   0.0800 
 31 H       -0.5000     2.6810     0.0790 H     1 <1>   0.0800 
 32 H        0.2460     1.6570     2.2750 H     1 <1>   0.0800 
 33 H        1.9530     1.4810     2.5490 H     1 <1>   0.0800 
 34 H       -0.0730     1.0190    -1.4380 H     1 <1>   0.0800 
 35 H        1.2770     1.8780    -2.1090 H     1 <1>   0.0800 
 36 H        1.7690    -0.4990     1.4130 H     1 <1>   0.0800 
 37 H        0.1980    -0.0930     0.7930 H     1 <1>   0.0800 
 38 H        5.6350     2.7990    -2.7890 H     1 <1>   0.0800 
 39 H        7.0500     1.8150    -2.5620 H     1 <1>   0.0800 
 40 H        6.9810     0.2950    -0.1740 H     1 <1>   0.0800 
 41 H        5.6300     0.6340     0.8360 H     1 <1>   0.0800 
 42 H        6.1490     4.1260    -0.8100 H     1 <1>   0.0800 
 43 H        7.4680     4.1780    -1.9450 H     1 <1>   0.0800 
 44 H        7.7130     1.7940     1.5300 H     1 <1>   0.0800 
 45 H        6.3810     2.8560     1.2950 H     1 <1>   0.0800 
 46 H        8.5470     2.4120    -0.6440 H     1 <1>   0.4500 
 47 H        9.0470     4.7560    -0.3380 H     1 <1>   0.0800 
 48 H       10.4040     2.9910     0.6750 H     1 <1>   0.0800 
 49 H        9.3790     3.0030     2.0930 H     1 <1>   0.0800 
 50 H        7.2440     4.5540     2.0820 H     1 <1>   0.0800 
 51 H        6.9440     5.5210     0.6710 H     1 <1>   0.0800 
 52 H       11.0810     5.2970     1.1050 H     1 <1>   0.0800 
 53 H       11.3690     4.3300     2.5220 H     1 <1>   0.0800 
 54 H        7.9100     6.8330     2.5220 H     1 <1>   0.0800 
 55 H        8.9210     6.8680     1.1070 H     1 <1>   0.0800 
 56 H       10.3140     6.5100     3.0800 H     1 <1>   0.0800 
 57 H        9.3330     5.1640     3.5760 H     1 <1>   0.0800 
@<TRIPOS>BOND
  1   1   2  ar  
  2   2   3  ar  
  3   2   4  1   
  4   4   5  1   
  5   4   6  1   
  6   4  26  1   
  7   5   7  1   
  8   5   8  1   
  9   5  27  1   
 10   6   9  1   
 11   6  10  1   
 12   6  28  1   
 13   7  11  2   
 14   7  12  am  
 15   8  13  1   
 16   8  14  1   
 17   8  29  1   
 18   9  13  1   
 19   9  30  1   
 20   9  31  1   
 21  10  14  1   
 22  10  32  1   
 23  10  33  1   
 24  12  15  1   
 25  12  16  1   
 26  13  34  1   
 27  13  35  1   
 28  14  36  1   
 29  14  37  1   
 30  15  17  1   
 31  15  38  1   
 32  15  39  1   
 33  16  18  1   
 34  16  40  1   
 35  16  41  1   
 36  17  19  1   
 37  17  42  1   
 38  17  43  1   
 39  18  19  1   
 40  18  44  1   
 41  18  45  1   
 42  19  20  1   
 43  19  46  1   
 44  20  21  1   
 45  20  22  1   
 46  20  47  1   
 47  21  23  1   
 48  21  48  1   
 49  21  49  1   
 50  22  24  1   
 51  22  50  1   
 52  22  51  1   
 53  23  25  1   
 54  23  52  1   
 55  23  53  1   
 56  24  25  1   
 57  24  54  1   
 58  24  55  1   
 59  25  56  1   
 60  25  57  1   
@<TRIPOS>SUBSTRUCTURE
  1 ****   2 GROUP 4 **** **** 0

# MOE 2024.06 (io_trps.svl 2023.06)
