@<TRIPOS>MOLECULE
NONAME
38 39 1 0 0 
SMALL
USER_CHARGES


@<TRIPOS>ATOM
  1 O        0.5490    -0.1120     0.8380 O.3   1 <1>  -0.6800 
  2 C        1.7140    -0.8320     0.6580 C.3   1 <1>   0.1200 
  3 C        2.7830     0.1100     0.0830 C.3   1 <1>  -0.0800 
  4 C        4.0360    -0.6970    -0.3090 C.3   1 <1>   0.3430 
  5 C        3.1280     1.2620     1.0490 C.3   1 <1>  -0.1600 
  6 N        5.3000     0.1010    -0.1920 N.4   1 <1>  -0.9590 
  7 C        4.1800     2.2040     0.4340 C.3   1 <1>  -0.1600 
  8 C        5.1090     1.5270    -0.5810 C.3   1 <1>   0.3430 
  9 C        6.4330    -0.5360    -0.9160 C.3   1 <1>   0.4860 
 10 C        7.7130     0.1750    -0.5270 C.ar  1 <1>  -0.1430 
 11 C        8.3330     1.0360    -1.4200 C.ar  1 <1>  -0.1500 
 12 C        8.2720    -0.0230     0.7280 C.ar  1 <1>  -0.1500 
 13 C        9.4910     1.7000    -1.0570 C.ar  1 <1>  -0.1500 
 14 C        9.4300     0.6440     1.0870 C.ar  1 <1>  -0.1500 
 15 C       10.0440     1.5090     0.1970 C.ar  1 <1>  -0.1430 
 16 C       11.3150     2.2400     0.5940 C.3   1 <1>  -0.0970 
 17 H       -0.1650    -0.6690     1.2110 H     1 <1>   0.4000 
 18 H        1.5000    -1.6400    -0.0230 H     1 <1>   0.0800 
 19 H        2.0140    -1.2320     1.6120 H     1 <1>   0.0800 
 20 H        2.3780     0.5320    -0.8210 H     1 <1>   0.0800 
 21 H        3.9130    -1.0450    -1.3220 H     1 <1>   0.0800 
 22 H        4.1130    -1.5620     0.3290 H     1 <1>   0.0800 
 23 H        3.5040     0.8530     1.9710 H     1 <1>   0.0800 
 24 H        2.2430     1.8290     1.2900 H     1 <1>   0.0800 
 25 H        5.5700     0.1320     0.7990 H     1 <1>   0.4500 
 26 H        4.7680     2.6440     1.2210 H     1 <1>   0.0800 
 27 H        3.6810     3.0150    -0.0680 H     1 <1>   0.0800 
 28 H        4.6680     1.5760    -1.5630 H     1 <1>   0.0800 
 29 H        6.0520     2.0500    -0.6030 H     1 <1>   0.0800 
 30 H        6.2820    -0.4680    -1.9810 H     1 <1>   0.0800 
 31 H        6.5110    -1.5760    -0.6450 H     1 <1>   0.0800 
 32 H        7.9310     1.2010    -2.4050 H     1 <1>   0.1500 
 33 H        7.8240    -0.6950     1.4390 H     1 <1>   0.1500 
 34 H        9.9650     2.3680    -1.7560 H     1 <1>   0.1500 
 35 H        9.8570     0.4870     2.0630 H     1 <1>   0.1500 
 36 H       11.0670     3.1770     1.0600 H     1 <1>   0.0800 
 37 H       11.9250     2.4330    -0.2700 H     1 <1>   0.0800 
 38 H       11.8890     1.6500     1.2860 H     1 <1>   0.0800 
@<TRIPOS>BOND
  1   1   2  1   
  2   1  17  1   
  3   2   3  1   
  4   2  18  1   
  5   2  19  1   
  6   3   4  1   
  7   3   5  1   
  8   3  20  1   
  9   4   6  1   
 10   4  21  1   
 11   4  22  1   
 12   5   7  1   
 13   5  23  1   
 14   5  24  1   
 15   6   8  1   
 16   6   9  1   
 17   6  25  1   
 18   7   8  1   
 19   7  26  1   
 20   7  27  1   
 21   8  28  1   
 22   8  29  1   
 23   9  10  1   
 24   9  30  1   
 25   9  31  1   
 26  10  11  ar  
 27  10  12  ar  
 28  11  13  ar  
 29  11  32  1   
 30  12  14  ar  
 31  12  33  1   
 32  13  15  ar  
 33  13  34  1   
 34  14  15  ar  
 35  14  35  1   
 36  15  16  1   
 37  16  36  1   
 38  16  37  1   
 39  16  38  1   
@<TRIPOS>SUBSTRUCTURE
  1 ****   6 GROUP 4 **** **** 0

# MOE 2024.06 (io_trps.svl 2023.06)
