@<TRIPOS>MOLECULE
NONAME
40 40 1 0 0 
SMALL
USER_CHARGES


@<TRIPOS>ATOM
  1 O       -1.3250    -6.7380     0.2360 O.3   1 <1>  -0.3630 
  2 C       -2.5370    -6.1650     0.0260 C.ar  1 <1>   0.0830 
  3 C       -0.1370    -6.0890    -0.1360 C.3   1 <1>   0.1200 
  4 C       -3.6460    -6.8870     0.4360 C.ar  1 <1>  -0.1500 
  5 C       -2.7150    -4.9180    -0.5670 C.ar  1 <1>  -0.1500 
  6 C        1.0180    -7.0150     0.2520 C.3   1 <1>   0.3430 
  7 C       -4.9200    -6.3770     0.2590 C.ar  1 <1>  -0.1500 
  8 C       -3.9920    -4.4120    -0.7420 C.ar  1 <1>  -0.1500 
  9 N        2.3470    -6.4270    -0.0970 N.4   1 <1>  -0.9060 
 10 C       -5.1000    -5.1360    -0.3320 C.ar  1 <1>  -0.1430 
 11 C        3.4640    -7.3250     0.2790 C.3   1 <1>   0.3430 
 12 C       -6.5000    -4.5750    -0.5250 C.3   1 <1>  -0.0170 
 13 C        4.7840    -6.6620    -0.1070 C.3   1 <1>  -0.1600 
 14 C       -6.9210    -3.7500     0.6920 C.3   1 <1>  -0.2400 
 15 C        5.9730    -7.5570     0.2650 C.3   1 <1>  -0.1600 
 16 C        7.2980    -6.8940    -0.1210 C.3   1 <1>  -0.2400 
 17 H       -0.0860    -5.1570     0.4000 H     1 <1>   0.0800 
 18 H       -0.1660    -5.9260    -1.1990 H     1 <1>   0.0800 
 19 H       -3.5120    -7.8500     0.8940 H     1 <1>   0.1500 
 20 H       -1.8870    -4.3230    -0.8990 H     1 <1>   0.1500 
 21 H        0.8910    -7.9550    -0.2600 H     1 <1>   0.0800 
 22 H        0.9700    -7.1960     1.3140 H     1 <1>   0.0800 
 23 H       -5.7710    -6.9480     0.5850 H     1 <1>   0.1500 
 24 H       -4.1250    -3.4460    -1.1980 H     1 <1>   0.1500 
 25 H        2.4710    -5.5260     0.3810 H     1 <1>   0.4500 
 26 H        2.3960    -6.2430    -1.1080 H     1 <1>   0.4500 
 27 H        3.3710    -8.2700    -0.2340 H     1 <1>   0.0800 
 28 H        3.4510    -7.5110     1.3420 H     1 <1>   0.0800 
 29 H       -7.1970    -5.3820    -0.6730 H     1 <1>   0.0800 
 30 H       -6.5250    -3.9580    -1.4070 H     1 <1>   0.0800 
 31 H        4.8840    -5.7220     0.4090 H     1 <1>   0.0800 
 32 H        4.8050    -6.4820    -1.1680 H     1 <1>   0.0800 
 33 H       -6.9140    -4.3630     1.5760 H     1 <1>   0.0800 
 34 H       -7.9110    -3.3570     0.5500 H     1 <1>   0.0800 
 35 H       -6.2400    -2.9300     0.8380 H     1 <1>   0.0800 
 36 H        5.8980    -8.5040    -0.2440 H     1 <1>   0.0800 
 37 H        5.9770    -7.7480     1.3250 H     1 <1>   0.0800 
 38 H        7.3420    -6.7160    -1.1820 H     1 <1>   0.0800 
 39 H        8.1210    -7.5350     0.1460 H     1 <1>   0.0800 
 40 H        7.4210    -5.9570     0.3930 H     1 <1>   0.0800 
@<TRIPOS>BOND
  1   1   2  1   
  2   1   3  1   
  3   2   4  ar  
  4   2   5  ar  
  5   3   6  1   
  6   3  17  1   
  7   3  18  1   
  8   4   7  ar  
  9   4  19  1   
 10   5   8  ar  
 11   5  20  1   
 12   6   9  1   
 13   6  21  1   
 14   6  22  1   
 15   7  10  ar  
 16   7  23  1   
 17   8  10  ar  
 18   8  24  1   
 19   9  11  1   
 20   9  25  1   
 21   9  26  1   
 22  10  12  1   
 23  11  13  1   
 24  11  27  1   
 25  11  28  1   
 26  12  14  1   
 27  12  29  1   
 28  12  30  1   
 29  13  15  1   
 30  13  31  1   
 31  13  32  1   
 32  14  33  1   
 33  14  34  1   
 34  14  35  1   
 35  15  16  1   
 36  15  36  1   
 37  15  37  1   
 38  16  38  1   
 39  16  39  1   
 40  16  40  1   
@<TRIPOS>SUBSTRUCTURE
  1 ****   3 GROUP 4 **** **** 0

# MOE 2024.06 (io_trps.svl 2023.06)
