@<TRIPOS>MOLECULE
NONAME
37 39 1 0 0 
SMALL
USER_CHARGES


@<TRIPOS>ATOM
  1 S       -0.0290    -0.2330     1.6400 S.o2  1 <1>   1.4470 
  2 O       -0.7990     0.7260     2.4060 O.2   1 <1>  -0.6500 
  3 O        0.1850    -1.5580     2.1790 O.2   1 <1>  -0.6500 
  4 N       -0.8300    -0.4370     0.1620 N.am  1 <1>  -0.8490 
  5 C        1.5590     0.4880     1.1400 C.ar  1 <1>  -0.0090 
  6 C       -2.0310    -1.2420     0.2780 C.3   1 <1>   0.1960 
  7 C       -1.2490     0.7990    -0.4780 C.3   1 <1>   0.1960 
  8 C        2.4330    -0.2120     0.3180 C.ar  1 <1>  -0.1500 
  9 C        1.9400     1.7610     1.5470 C.ar  1 <1>  -0.1500 
 10 C       -2.7960    -0.9810    -1.0150 C.3   1 <1>  -0.1600 
 11 C       -2.2500     0.3490    -1.5350 C.3   1 <1>  -0.1600 
 12 C        3.6380     0.3360    -0.0860 C.ar  1 <1>  -0.1500 
 13 C        3.1440     2.3140     1.1460 C.ar  1 <1>  -0.1500 
 14 C        4.0130     1.6120     0.3190 C.ar  1 <1>   0.1170 
 15 N        5.2390     2.1800    -0.0980 N.am  1 <1>  -0.2370 
 16 C        5.3920     3.4520    -0.5860 C.2   1 <1>   0.5690 
 17 C        6.4530     1.5430    -0.0820 C.2   1 <1>   0.5690 
 18 O        4.5250     4.2750    -0.7330 O.2   1 <1>  -0.5700 
 19 C        6.8310     3.7430    -0.9430 C.3   1 <1>  -0.0990 
 20 O        6.6690     0.4150     0.2780 O.2   1 <1>  -0.5700 
 21 C        7.5590     2.4380    -0.5920 C.3   1 <1>  -0.0990 
 22 H       -2.6150    -0.9100     1.1230 H     1 <1>   0.0800 
 23 H       -1.7850    -2.2840     0.4010 H     1 <1>   0.0800 
 24 H       -0.4110     1.3180    -0.9120 H     1 <1>   0.0800 
 25 H       -1.7450     1.4410     0.2320 H     1 <1>   0.0800 
 26 H        2.1620    -1.2030    -0.0090 H     1 <1>   0.1500 
 27 H        1.2850     2.3300     2.1870 H     1 <1>   0.1500 
 28 H       -3.8540    -0.9380    -0.8260 H     1 <1>   0.0800 
 29 H       -2.5970    -1.7690    -1.7200 H     1 <1>   0.0800 
 30 H       -1.7400     0.2010    -2.4710 H     1 <1>   0.0800 
 31 H       -3.0240     1.0840    -1.6690 H     1 <1>   0.0800 
 32 H        4.2930    -0.2370    -0.7190 H     1 <1>   0.1500 
 33 H        3.4050     3.3050     1.4760 H     1 <1>   0.1500 
 34 H        7.1950     4.5690    -0.3590 H     1 <1>   0.0800 
 35 H        6.9090     3.9710    -1.9910 H     1 <1>   0.0800 
 36 H        8.0190     1.9960    -1.4570 H     1 <1>   0.0800 
 37 H        8.2930     2.5880     0.1790 H     1 <1>   0.0800 
@<TRIPOS>BOND
  1   1   2  2   
  2   1   3  2   
  3   1   4  am  
  4   1   5  1   
  5   4   6  1   
  6   4   7  1   
  7   5   8  ar  
  8   5   9  ar  
  9   6  10  1   
 10   6  22  1   
 11   6  23  1   
 12   7  11  1   
 13   7  24  1   
 14   7  25  1   
 15   8  12  ar  
 16   8  26  1   
 17   9  13  ar  
 18   9  27  1   
 19  10  11  1   
 20  10  28  1   
 21  10  29  1   
 22  11  30  1   
 23  11  31  1   
 24  12  14  ar  
 25  12  32  1   
 26  13  14  ar  
 27  13  33  1   
 28  14  15  1   
 29  15  16  am  
 30  15  17  am  
 31  16  18  2   
 32  16  19  1   
 33  17  20  2   
 34  17  21  1   
 35  19  21  1   
 36  19  34  1   
 37  19  35  1   
 38  21  36  1   
 39  21  37  1   
@<TRIPOS>SUBSTRUCTURE
  1 ****   8 GROUP 4 **** **** 0

# MOE 2024.06 (io_trps.svl 2023.06)
