@<TRIPOS>MOLECULE
NONAME
28 28 1 0 0 
SMALL
USER_CHARGES


@<TRIPOS>ATOM
  1 S        0.2060    -0.1930     1.1530 S.o2  1 <1>   1.5760 
  2 O       -0.1360     1.1420     0.7250 O.2   1 <1>  -0.6500 
  3 O       -0.2970    -0.7670     2.3760 O.2   1 <1>  -0.6500 
  4 N       -0.0750    -1.2870    -0.1070 N.am  1 <1>  -0.8490 
  5 N        1.9020    -0.3590     1.2570 N.am  1 <1>  -0.7570 
  6 C        0.0790    -0.6850    -1.4370 C.3   1 <1>   0.1160 
  7 C       -1.3880    -1.9280     0.0000 C.3   1 <1>   0.1160 
  8 C        2.8260     0.1510     0.3600 C.ar  1 <1>   0.1990 
  9 C        3.7120    -0.6990    -0.3060 C.ar  1 <1>  -0.1430 
 10 C        2.8820     1.5230     0.1210 C.ar  1 <1>  -0.1500 
 11 C        4.6180    -0.1250    -1.1880 C.ar  1 <1>   0.1900 
 12 C        3.6670    -2.2100    -0.0720 C.3   1 <1>  -0.0970 
 13 C        3.7940     2.0660    -0.7670 C.ar  1 <1>  -0.1500 
 14 F        5.4660    -0.8830    -1.8340 F     1 <1>  -0.1900 
 15 C        4.6750     1.2340    -1.4320 C.ar  1 <1>  -0.1500 
 16 H        2.0800    -1.2830     1.6220 H     1 <1>   0.4200 
 17 H        1.0560    -0.2480    -1.5420 H     1 <1>   0.0800 
 18 H       -0.6590     0.0850    -1.5910 H     1 <1>   0.0800 
 19 H       -0.0350    -1.4370    -2.1980 H     1 <1>   0.0800 
 20 H       -1.4620    -2.4660     0.9310 H     1 <1>   0.0800 
 21 H       -1.5260    -2.6300    -0.8040 H     1 <1>   0.0800 
 22 H       -2.1710    -1.1890    -0.0360 H     1 <1>   0.0800 
 23 H        2.2020     2.1730     0.6440 H     1 <1>   0.1500 
 24 H        3.9670    -2.4320     0.9360 H     1 <1>   0.0800 
 25 H        4.3220    -2.7380    -0.7400 H     1 <1>   0.0800 
 26 H        2.6690    -2.5780    -0.2310 H     1 <1>   0.0800 
 27 H        3.8170     3.1290    -0.9350 H     1 <1>   0.1500 
 28 H        5.3960     1.6280    -2.1260 H     1 <1>   0.1500 
@<TRIPOS>BOND
  1   1   2  2   
  2   1   3  2   
  3   1   4  am  
  4   1   5  am  
  5   4   6  1   
  6   4   7  1   
  7   5   8  1   
  8   5  16  1   
  9   6  17  1   
 10   6  18  1   
 11   6  19  1   
 12   7  20  1   
 13   7  21  1   
 14   7  22  1   
 15   8   9  ar  
 16   8  10  ar  
 17   9  11  ar  
 18   9  12  1   
 19  10  13  ar  
 20  10  23  1   
 21  11  14  1   
 22  11  15  ar  
 23  12  24  1   
 24  12  25  1   
 25  12  26  1   
 26  13  15  ar  
 27  13  27  1   
 28  15  28  1   
@<TRIPOS>SUBSTRUCTURE
  1 ****   8 GROUP 4 **** **** 0

# MOE 2024.06 (io_trps.svl 2023.06)
