@<TRIPOS>MOLECULE
NONAME
43 43 1 0 0 
SMALL
USER_CHARGES


@<TRIPOS>ATOM
  1 O        0.4880    -1.5010    -0.3730 O.3   1 <1>  -0.3630 
  2 C       -0.8380    -1.5410    -0.0730 C.ar  1 <1>   0.0830 
  3 C        1.4020    -0.7910     0.4200 C.3   1 <1>   0.1200 
  4 C       -1.6690    -2.2700    -0.9200 C.ar  1 <1>  -0.1440 
  5 C       -1.3850    -0.8910     1.0310 C.ar  1 <1>  -0.1500 
  6 C        2.7790    -0.9700    -0.2170 C.3   1 <1>  -0.1600 
  7 C       -3.0270    -2.3390    -0.6540 C.ar  1 <1>  -0.1500 
  8 C       -1.1020    -2.9930    -2.1330 C.3   1 <1>  -0.0960 
  9 C       -2.7430    -0.9680     1.2830 C.ar  1 <1>  -0.1500 
 10 C        3.8470    -0.2310     0.5780 C.3   1 <1>   0.3430 
 11 C       -3.5710    -1.6910     0.4430 C.ar  1 <1>  -0.1440 
 12 N        5.1590    -0.4360    -0.0790 N.4   1 <1>  -0.9060 
 13 C       -5.0610    -1.7780     0.7190 C.3   1 <1>  -0.0970 
 14 C        6.2680     0.2500     0.6260 C.3   1 <1>   0.3430 
 15 C        7.5700    -0.0190    -0.1220 C.3   1 <1>  -0.1600 
 16 C        8.7500     0.6730     0.5720 C.3   1 <1>  -0.1600 
 17 C       10.0580     0.4060    -0.1770 C.3   1 <1>  -0.2400 
 18 H        1.3720    -1.2020     1.4150 H     1 <1>   0.0800 
 19 H        1.1040     0.2440     0.4290 H     1 <1>   0.0800 
 20 H       -0.7800    -0.3200     1.7060 H     1 <1>   0.1500 
 21 H        2.7390    -0.5860    -1.2220 H     1 <1>   0.0800 
 22 H        3.0050    -2.0220    -0.2430 H     1 <1>   0.0800 
 23 H       -3.6710    -2.9030    -1.3050 H     1 <1>   0.1500 
 24 H       -0.3700    -3.7140    -1.8180 H     1 <1>   0.0800 
 25 H       -0.6330    -2.2850    -2.7910 H     1 <1>   0.0800 
 26 H       -1.8750    -3.5060    -2.6760 H     1 <1>   0.0800 
 27 H       -3.1540    -0.4630     2.1400 H     1 <1>   0.1500 
 28 H        3.8750    -0.6100     1.5880 H     1 <1>   0.0800 
 29 H        3.6100     0.8220     0.6130 H     1 <1>   0.0800 
 30 H        5.1140    -0.0970    -1.0490 H     1 <1>   0.4500 
 31 H        5.3630    -1.4420    -0.1320 H     1 <1>   0.4500 
 32 H       -5.2730    -2.6680     1.2850 H     1 <1>   0.0800 
 33 H       -5.6110    -1.8130    -0.2040 H     1 <1>   0.0800 
 34 H       -5.3920    -0.9220     1.2790 H     1 <1>   0.0800 
 35 H        6.3500    -0.1180     1.6370 H     1 <1>   0.0800 
 36 H        6.0850     1.3130     0.6620 H     1 <1>   0.0800 
 37 H        7.4960     0.3530    -1.1300 H     1 <1>   0.0800 
 38 H        7.7610    -1.0780    -0.1550 H     1 <1>   0.0800 
 39 H        8.8490     0.3130     1.5830 H     1 <1>   0.0800 
 40 H        8.5850     1.7380     0.6120 H     1 <1>   0.0800 
 41 H       10.2710    -0.6490    -0.2100 H     1 <1>   0.0800 
 42 H       10.8750     0.8980     0.3230 H     1 <1>   0.0800 
 43 H       10.0060     0.7800    -1.1840 H     1 <1>   0.0800 
@<TRIPOS>BOND
  1   1   2  1   
  2   1   3  1   
  3   2   4  ar  
  4   2   5  ar  
  5   3   6  1   
  6   3  18  1   
  7   3  19  1   
  8   4   7  ar  
  9   4   8  1   
 10   5   9  ar  
 11   5  20  1   
 12   6  10  1   
 13   6  21  1   
 14   6  22  1   
 15   7  11  ar  
 16   7  23  1   
 17   8  24  1   
 18   8  25  1   
 19   8  26  1   
 20   9  11  ar  
 21   9  27  1   
 22  10  12  1   
 23  10  28  1   
 24  10  29  1   
 25  11  13  1   
 26  12  14  1   
 27  12  30  1   
 28  12  31  1   
 29  13  32  1   
 30  13  33  1   
 31  13  34  1   
 32  14  15  1   
 33  14  35  1   
 34  14  36  1   
 35  15  16  1   
 36  15  37  1   
 37  15  38  1   
 38  16  17  1   
 39  16  39  1   
 40  16  40  1   
 41  17  41  1   
 42  17  42  1   
 43  17  43  1   
@<TRIPOS>SUBSTRUCTURE
  1 ****   3 GROUP 4 **** **** 0

# MOE 2024.06 (io_trps.svl 2023.06)
