@<TRIPOS>MOLECULE
NONAME
36 37 1 0 0 
SMALL
USER_CHARGES


@<TRIPOS>ATOM
  1 O       -3.4630     2.7730     0.3290 O.3   1 <1>  -0.5600 
  2 C       -4.6950     2.1580     0.4380 C.3   1 <1>   0.2000 
  3 C       -2.4340     1.8490     0.5130 C.3   1 <1>   0.1200 
  4 C       -4.4740     0.7760    -0.1680 C.3   1 <1>  -0.1600 
  5 C       -5.7250     3.0400    -0.2850 C.3   1 <1>   0.3430 
  6 C       -3.0300     0.4780     0.2000 C.3   1 <1>  -0.1600 
  7 N       -7.0780     2.4080    -0.3440 N.4   1 <1>  -0.9060 
  8 C       -8.0690     3.2430    -1.0380 C.3   1 <1>   0.4810 
  9 C       -9.3780     2.5170    -0.8860 C.2   1 <1>  -0.2880 
 10 C      -10.3820     2.9110    -0.0830 C.2   1 <1>  -0.1780 
 11 C      -11.6580     2.2600     0.1210 C.ar  1 <1>   0.0280 
 12 C      -12.4500     2.6130     1.2100 C.ar  1 <1>  -0.1500 
 13 C      -12.1430     1.2760    -0.7390 C.ar  1 <1>  -0.1500 
 14 C      -13.6710     2.0050     1.4400 C.ar  1 <1>  -0.1500 
 15 C      -13.3630     0.6640    -0.5140 C.ar  1 <1>  -0.1500 
 16 C      -14.1300     1.0260     0.5780 C.ar  1 <1>  -0.1500 
 17 H       -4.9190     2.0840     1.4890 H     1 <1>   0.0800 
 18 H       -1.6250     2.1010    -0.1530 H     1 <1>   0.0800 
 19 H       -2.0990     1.9090     1.5350 H     1 <1>   0.0800 
 20 H       -5.1510     0.0400     0.2280 H     1 <1>   0.0800 
 21 H       -4.5710     0.8190    -1.2400 H     1 <1>   0.0800 
 22 H       -5.3670     3.2200    -1.2860 H     1 <1>   0.0800 
 23 H       -5.7840     3.9850     0.2300 H     1 <1>   0.0800 
 24 H       -2.5000    -0.0030    -0.6040 H     1 <1>   0.0800 
 25 H       -2.9720    -0.1460     1.0750 H     1 <1>   0.0800 
 26 H       -7.0270     1.4980    -0.8140 H     1 <1>   0.4500 
 27 H       -7.4390     2.2310     0.6020 H     1 <1>   0.4500 
 28 H       -8.1300     4.2140    -0.5730 H     1 <1>   0.0800 
 29 H       -7.8180     3.3650    -2.0800 H     1 <1>   0.0800 
 30 H       -9.4360     1.6300    -1.4920 H     1 <1>   0.1500 
 31 H      -10.2770     3.8080     0.5050 H     1 <1>   0.1500 
 32 H      -12.1140     3.3710     1.8940 H     1 <1>   0.1500 
 33 H      -11.5750     0.9810    -1.6000 H     1 <1>   0.1500 
 34 H      -14.2670     2.2920     2.2900 H     1 <1>   0.1500 
 35 H      -13.7210    -0.0950    -1.1890 H     1 <1>   0.1500 
 36 H      -15.0790     0.5510     0.7550 H     1 <1>   0.1500 
@<TRIPOS>BOND
  1   1   2  1   
  2   1   3  1   
  3   2   4  1   
  4   2   5  1   
  5   2  17  1   
  6   3   6  1   
  7   3  18  1   
  8   3  19  1   
  9   4   6  1   
 10   4  20  1   
 11   4  21  1   
 12   5   7  1   
 13   5  22  1   
 14   5  23  1   
 15   6  24  1   
 16   6  25  1   
 17   7   8  1   
 18   7  26  1   
 19   7  27  1   
 20   8   9  1   
 21   8  28  1   
 22   8  29  1   
 23   9  10  2   
 24   9  30  1   
 25  10  11  1   
 26  10  31  1   
 27  11  12  ar  
 28  11  13  ar  
 29  12  14  ar  
 30  12  32  1   
 31  13  15  ar  
 32  13  33  1   
 33  14  16  ar  
 34  14  34  1   
 35  15  16  ar  
 36  15  35  1   
 37  16  36  1   
@<TRIPOS>SUBSTRUCTURE
  1 ****   9 GROUP 4 **** **** 0

# MOE 2024.06 (io_trps.svl 2023.06)
