@<TRIPOS>MOLECULE
NONAME
46 47 1 0 0 
SMALL
USER_CHARGES


@<TRIPOS>ATOM
  1 S       -0.7120    -1.2410     0.0010 S.o2  1 <1>   1.4470 
  2 O       -1.7140    -0.1950    -0.0160 O.2   1 <1>  -0.6500 
  3 O       -0.9420    -2.4040    -0.8270 O.2   1 <1>  -0.6500 
  4 N       -0.7670    -1.7920     1.5860 N.am  1 <1>  -0.9140 
  5 C        0.9680    -0.5930    -0.1940 C.ar  1 <1>  -0.0090 
  6 C       -1.7460    -2.8230     1.9200 C.3   1 <1>   0.1960 
  7 C        1.2030     0.7640    -0.3790 C.ar  1 <1>  -0.1500 
  8 C        2.0670    -1.4400    -0.1500 C.ar  1 <1>  -0.1500 
  9 C       -3.1930    -2.3140     1.8220 C.3   1 <1>  -0.1600 
 10 C        2.4850     1.2720    -0.5170 C.ar  1 <1>  -0.1430 
 11 C        3.3520    -0.9480    -0.2860 C.ar  1 <1>  -0.1500 
 12 C       -3.7940    -2.5380     0.4280 C.3   1 <1>   0.3430 
 13 C        3.5720     0.4070    -0.4700 C.ar  1 <1>  -0.1440 
 14 C        2.6720     2.7690    -0.7190 C.3   1 <1>  -0.0970 
 15 N       -5.0150    -1.7120     0.2410 N.4   1 <1>  -0.9590 
 16 C        5.0000     0.9120    -0.6170 C.3   1 <1>  -0.0970 
 17 C       -5.8740    -2.2180    -0.8810 C.3   1 <1>   0.3430 
 18 C       -4.6920    -0.2590     0.0050 C.3   1 <1>   0.3430 
 19 C       -7.0990    -1.3030    -1.1180 C.3   1 <1>   0.1200 
 20 C       -5.9680     0.5730    -0.2540 C.3   1 <1>   0.1200 
 21 O       -7.1190    -0.2300    -0.2150 O.3   1 <1>  -0.5600 
 22 H       -0.9150    -0.9660     2.1630 H     1 <1>   0.4200 
 23 H       -1.5590    -3.1280     2.9370 H     1 <1>   0.0800 
 24 H       -1.5960    -3.6910     1.2980 H     1 <1>   0.0800 
 25 H        0.3630     1.4360    -0.4170 H     1 <1>   0.1500 
 26 H        1.9180    -2.4970    -0.0070 H     1 <1>   0.1500 
 27 H       -3.2230    -1.2810     2.1150 H     1 <1>   0.0800 
 28 H       -3.7870    -2.8730     2.5230 H     1 <1>   0.0800 
 29 H        4.1830    -1.6320    -0.2480 H     1 <1>   0.1500 
 30 H       -4.0320    -3.5830     0.3150 H     1 <1>   0.0800 
 31 H       -3.0860    -2.2810    -0.3380 H     1 <1>   0.0800 
 32 H        1.7270     3.2810    -0.7340 H     1 <1>   0.0800 
 33 H        3.1700     2.9560    -1.6540 H     1 <1>   0.0800 
 34 H        3.2640     3.1780     0.0800 H     1 <1>   0.0800 
 35 H       -5.6090    -1.7370     1.0820 H     1 <1>   0.4500 
 36 H        5.2240     1.6170     0.1620 H     1 <1>   0.0800 
 37 H        5.1260     1.3900    -1.5710 H     1 <1>   0.0800 
 38 H        5.7050     0.1020    -0.5510 H     1 <1>   0.0800 
 39 H       -6.2180    -3.2150    -0.6610 H     1 <1>   0.0800 
 40 H       -5.2970    -2.2680    -1.7900 H     1 <1>   0.0800 
 41 H       -4.0340    -0.1630    -0.8430 H     1 <1>   0.0800 
 42 H       -4.1700     0.1520     0.8530 H     1 <1>   0.0800 
 43 H       -8.0100    -1.8610    -0.9830 H     1 <1>   0.0800 
 44 H       -7.0920    -0.9100    -2.1200 H     1 <1>   0.0800 
 45 H       -5.9170     1.0580    -1.2140 H     1 <1>   0.0800 
 46 H       -6.0730     1.3330     0.5000 H     1 <1>   0.0800 
@<TRIPOS>BOND
  1   1   2  2   
  2   1   3  2   
  3   1   4  am  
  4   1   5  1   
  5   4   6  1   
  6   4  22  1   
  7   5   7  ar  
  8   5   8  ar  
  9   6   9  1   
 10   6  23  1   
 11   6  24  1   
 12   7  10  ar  
 13   7  25  1   
 14   8  11  ar  
 15   8  26  1   
 16   9  12  1   
 17   9  27  1   
 18   9  28  1   
 19  10  13  ar  
 20  10  14  1   
 21  11  13  ar  
 22  11  29  1   
 23  12  15  1   
 24  12  30  1   
 25  12  31  1   
 26  13  16  1   
 27  14  32  1   
 28  14  33  1   
 29  14  34  1   
 30  15  17  1   
 31  15  18  1   
 32  15  35  1   
 33  16  36  1   
 34  16  37  1   
 35  16  38  1   
 36  17  19  1   
 37  17  39  1   
 38  17  40  1   
 39  18  20  1   
 40  18  41  1   
 41  18  42  1   
 42  19  21  1   
 43  19  43  1   
 44  19  44  1   
 45  20  21  1   
 46  20  45  1   
 47  20  46  1   
@<TRIPOS>SUBSTRUCTURE
  1 ****   2 GROUP 4 **** **** 0

# MOE 2024.06 (io_trps.svl 2023.06)
