@<TRIPOS>MOLECULE
ka-07559
35 35 1 0 0 
SMALL
USER_CHARGES


@<TRIPOS>ATOM
  1 O       -0.2430     0.5100     0.3160 O.3   1 <1>  -0.3630 
  2 C        0.9960     1.0370     0.1280 C.ar  1 <1>   0.0830 
  3 C       -1.3560     1.0000    -0.3870 C.3   1 <1>   0.1200 
  4 C        1.2720     2.0770    -0.7570 C.ar  1 <1>  -0.1500 
  5 C        2.0250     0.4870     0.8750 C.ar  1 <1>  -0.1500 
  6 C       -2.5680     0.1860     0.0740 C.3   1 <1>   0.3430 
  7 C        2.5670     2.5490    -0.8800 C.ar  1 <1>  -0.1500 
  8 C        3.3190     0.9610     0.7500 C.ar  1 <1>  -0.1500 
  9 N       -3.8250     0.6150    -0.6080 N.4   1 <1>  -0.8530 
 10 C        3.5970     2.0000    -0.1330 C.ar  1 <1>   0.0830 
 11 O        4.8330     2.5360    -0.3240 O.3   1 <1>  -0.3630 
 12 C        5.9880     2.0470     0.3250 C.3   1 <1>   0.1200 
 13 C        6.4980     0.7970    -0.4000 C.3   1 <1>  -0.1600 
 14 C        7.7680     0.2510     0.2650 C.3   1 <1>  -0.1600 
 15 C        8.2800    -0.9940    -0.4640 C.3   1 <1>  -0.2400 
 16 H       -1.1700     0.8640    -1.4380 H     1 <1>   0.0800 
 17 H       -1.4690     2.0420    -0.1430 H     1 <1>   0.0800 
 18 H        0.5100     2.5340    -1.3560 H     1 <1>   0.1500 
 19 H        1.8120    -0.3160     1.5580 H     1 <1>   0.1500 
 20 H       -2.6760     0.3040     1.1410 H     1 <1>   0.0800 
 21 H       -2.3800    -0.8560    -0.1340 H     1 <1>   0.0800 
 22 H        2.7940     3.3520    -1.5590 H     1 <1>   0.1500 
 23 H        4.0910     0.5100     1.3440 H     1 <1>   0.1500 
 24 H       -4.0410     1.5990    -0.4110 H     1 <1>   0.4500 
 25 H       -4.6210     0.0520    -0.2800 H     1 <1>   0.4500 
 26 H       -3.7600     0.4930    -1.6260 H     1 <1>   0.4500 
 27 H        5.7650     1.8620     1.3600 H     1 <1>   0.0800 
 28 H        6.7290     2.8250     0.2730 H     1 <1>   0.0800 
 29 H        6.7130     1.0530    -1.4230 H     1 <1>   0.0800 
 30 H        5.7390     0.0350    -0.3930 H     1 <1>   0.0800 
 31 H        7.5600    -0.0010     1.2910 H     1 <1>   0.0800 
 32 H        8.5360     1.0060     0.2550 H     1 <1>   0.0800 
 33 H        7.5360    -1.7720    -0.4490 H     1 <1>   0.0800 
 34 H        9.1700    -1.3630     0.0150 H     1 <1>   0.0800 
 35 H        8.5150    -0.7610    -1.4880 H     1 <1>   0.0800 
@<TRIPOS>BOND
  1   1   2  1   
  2   1   3  1   
  3   2   4  ar  
  4   2   5  ar  
  5   3   6  1   
  6   3  16  1   
  7   3  17  1   
  8   4   7  ar  
  9   4  18  1   
 10   5   8  ar  
 11   5  19  1   
 12   6   9  1   
 13   6  20  1   
 14   6  21  1   
 15   7  10  ar  
 16   7  22  1   
 17   8  10  ar  
 18   8  23  1   
 19   9  24  1   
 20   9  25  1   
 21   9  26  1   
 22  10  11  1   
 23  11  12  1   
 24  12  13  1   
 25  12  27  1   
 26  12  28  1   
 27  13  14  1   
 28  13  29  1   
 29  13  30  1   
 30  14  15  1   
 31  14  31  1   
 32  14  32  1   
 33  15  33  1   
 34  15  34  1   
 35  15  35  1   
@<TRIPOS>SUBSTRUCTURE
  1 ****   8 GROUP 4 **** **** 0

# MOE 2024.06 (io_trps.svl 2023.06)
