@<TRIPOS>MOLECULE
NONAME
38 41 1 0 0 
SMALL
USER_CHARGES


@<TRIPOS>ATOM
  1 O       -0.7280    -0.4880     1.4100 O.2   1 <1>  -0.5700 
  2 C       -1.3840    -1.2360     0.7320 C.2   1 <1>   0.5690 
  3 N       -1.0740    -2.5170     0.2970 N.am  1 <1>  -0.2370 
  4 C       -2.7250    -0.9000     0.1660 C.3   1 <1>  -0.0190 
  5 C        0.2030    -3.1260     0.3510 C.ar  1 <1>   0.1170 
  6 C       -2.2340    -3.0980    -0.1990 C.2   1 <1>   0.5690 
  7 C       -3.9340     0.0150     0.3230 C.3   1 <1>   0.4180 
  8 C       -3.3860    -2.2660     0.2760 C.3   1 <1>  -0.0190 
  9 C        1.3620    -2.3780     0.1610 C.ar  1 <1>  -0.1500 
 10 C        0.3340    -4.4900     0.5950 C.ar  1 <1>  -0.1500 
 11 O       -2.3510    -4.1010    -0.8540 O.2   1 <1>  -0.5700 
 12 O       -4.6890    -0.6260    -0.6560 O.3   1 <1>  -0.5600 
 13 C       -4.8430    -0.2910     1.5000 C.2   1 <1>  -0.2880 
 14 C       -3.7700     1.4860    -0.0280 C.3   1 <1>  -0.2400 
 15 C       -4.8330    -1.8930    -0.0990 C.3   1 <1>   0.4180 
 16 C        2.6150    -2.9660     0.2140 C.ar  1 <1>  -0.1440 
 17 C        1.5810    -5.0860     0.6460 C.ar  1 <1>  -0.1500 
 18 C       -5.4480    -1.4410     1.2080 C.2   1 <1>  -0.2880 
 19 C       -5.6490    -2.8100    -0.9950 C.3   1 <1>  -0.2400 
 20 C        2.7200    -4.3250     0.4560 C.ar  1 <1>  -0.1500 
 21 C        3.8670    -2.1320     0.0080 C.3   1 <1>  -0.0970 
 22 H       -2.4510    -0.7210    -0.8650 H     1 <1>   0.0800 
 23 H       -3.4390    -2.5720     1.3090 H     1 <1>   0.0800 
 24 H        1.2860    -1.3230    -0.0280 H     1 <1>   0.1500 
 25 H       -0.5400    -5.0990     0.7420 H     1 <1>   0.1500 
 26 H       -4.9120     0.3770     2.3400 H     1 <1>   0.1500 
 27 H       -3.2990     1.5940    -0.9870 H     1 <1>   0.0800 
 28 H       -3.1590     1.9670     0.7140 H     1 <1>   0.0800 
 29 H       -4.7320     1.9660    -0.0460 H     1 <1>   0.0800 
 30 H        1.6650    -6.1420     0.8330 H     1 <1>   0.1500 
 31 H       -6.1820    -2.0350     1.7230 H     1 <1>   0.1500 
 32 H       -5.1340    -2.9670    -1.9250 H     1 <1>   0.0800 
 33 H       -6.6120    -2.3730    -1.1850 H     1 <1>   0.0800 
 34 H       -5.7860    -3.7600    -0.5140 H     1 <1>   0.0800 
 35 H        3.6880    -4.7950     0.4980 H     1 <1>   0.1500 
 36 H        3.6690    -1.0940     0.2060 H     1 <1>   0.0800 
 37 H        4.2090    -2.2340    -1.0060 H     1 <1>   0.0800 
 38 H        4.6460    -2.4600     0.6730 H     1 <1>   0.0800 
@<TRIPOS>BOND
  1   1   2  2   
  2   2   3  am  
  3   2   4  1   
  4   3   5  1   
  5   3   6  am  
  6   4   7  1   
  7   4   8  1   
  8   4  22  1   
  9   5   9  ar  
 10   5  10  ar  
 11   6   8  1   
 12   6  11  2   
 13   7  12  1   
 14   7  13  1   
 15   7  14  1   
 16   8  15  1   
 17   8  23  1   
 18   9  16  ar  
 19   9  24  1   
 20  10  17  ar  
 21  10  25  1   
 22  12  15  1   
 23  13  18  2   
 24  13  26  1   
 25  14  27  1   
 26  14  28  1   
 27  14  29  1   
 28  15  18  1   
 29  15  19  1   
 30  16  20  ar  
 31  16  21  1   
 32  17  20  ar  
 33  17  30  1   
 34  18  31  1   
 35  19  32  1   
 36  19  33  1   
 37  19  34  1   
 38  20  35  1   
 39  21  36  1   
 40  21  37  1   
 41  21  38  1   
@<TRIPOS>SUBSTRUCTURE
  1 ****   3 GROUP 4 **** **** 0

# MOE 2024.06 (io_trps.svl 2023.06)
