@<TRIPOS>MOLECULE
NONAME
51 53 1 0 0 
SMALL
USER_CHARGES


@<TRIPOS>ATOM
  1 S       -0.2660     0.4310    -0.1970 S.3   1 <1>  -0.0800 
  2 C       -0.4130    -1.3260    -0.1010 C.2   1 <1>   0.1040 
  3 C        1.4780     0.3420    -0.0620 C.2   1 <1>  -0.1400 
  4 N       -1.6800    -1.9240    -0.1400 N.am  1 <1>  -0.4940 
  5 C        0.8190    -1.8900     0.0380 C.2   1 <1>   0.0190 
  6 C        1.8870    -0.9280     0.0620 C.2   1 <1>  -0.1810 
  7 C        2.3180     1.5980    -0.0920 C.3   1 <1>   0.0200 
  8 C       -2.8860    -1.4380    -0.5820 C.2   1 <1>   0.5690 
  9 C        1.0490    -3.2960     0.1510 C.1   1 <1>   0.5380 
 10 C        3.3640    -1.2640     0.2050 C.3   1 <1>   0.0210 
 11 C        3.8020     1.2230    -0.3040 C.3   1 <1>  -0.0800 
 12 O       -2.9980    -0.3960    -1.1820 O.2   1 <1>  -0.5700 
 13 C       -4.1430    -2.2840    -0.2980 C.3   1 <1>   0.1710 
 14 N        1.1800    -4.4240     0.2540 N.1   1 <1>  -0.5570 
 15 C        4.1900    -0.0080     0.5530 C.3   1 <1>  -0.1600 
 16 C        4.6930     2.4490    -0.0200 C.3   1 <1>  -0.1600 
 17 N       -5.4290    -1.5310    -0.2100 N.3   1 <1>  -0.8100 
 18 C        6.1580     2.2500    -0.4290 C.3   1 <1>  -0.2400 
 19 C       -6.6240    -2.3960    -0.0950 C.3   1 <1>   0.1100 
 20 C       -5.4290    -0.4760     0.8360 C.3   1 <1>   0.1100 
 21 C       -7.9370    -1.5710    -0.1140 C.3   1 <1>   0.3430 
 22 C       -6.7220     0.3760     0.8000 C.3   1 <1>   0.3430 
 23 N       -7.6540    -0.1050    -0.2730 N.4   1 <1>  -0.9590 
 24 C       -8.8760     0.7350    -0.4240 C.3   1 <1>   0.2630 
 25 H       -1.6980    -2.8940     0.1760 H     1 <1>   0.3700 
 26 H        2.1890     2.1170     0.8420 H     1 <1>   0.0800 
 27 H        1.9850     2.2400    -0.8890 H     1 <1>   0.0800 
 28 H        3.7150    -1.6790    -0.7240 H     1 <1>   0.0800 
 29 H        3.5060    -2.0010     0.9760 H     1 <1>   0.0800 
 30 H        3.9200     0.9540    -1.3400 H     1 <1>   0.0800 
 31 H       -3.9930    -2.8250     0.6200 H     1 <1>   0.0800 
 32 H       -4.2240    -3.0020    -1.0950 H     1 <1>   0.0800 
 33 H        5.2300    -0.2460     0.4230 H     1 <1>   0.0800 
 34 H        4.0370     0.2310     1.5910 H     1 <1>   0.0800 
 35 H        4.6470     2.6980     1.0270 H     1 <1>   0.0800 
 36 H        4.3080     3.2910    -0.5700 H     1 <1>   0.0800 
 37 H        6.6370     1.5090     0.1860 H     1 <1>   0.0800 
 38 H        6.6960     3.1740    -0.3130 H     1 <1>   0.0800 
 39 H        6.2250     1.9450    -1.4580 H     1 <1>   0.0800 
 40 H       -6.5760    -2.9710     0.8150 H     1 <1>   0.0800 
 41 H       -6.6410    -3.0910    -0.9180 H     1 <1>   0.0800 
 42 H       -4.5910     0.1860     0.6920 H     1 <1>   0.0800 
 43 H       -5.3230    -0.9230     1.8100 H     1 <1>   0.0800 
 44 H       -8.4780    -1.7440     0.8020 H     1 <1>   0.0800 
 45 H       -8.5530    -1.9160    -0.9280 H     1 <1>   0.0800 
 46 H       -6.4520     1.4040     0.6160 H     1 <1>   0.0800 
 47 H       -7.2060     0.3300     1.7610 H     1 <1>   0.0800 
 48 H       -7.0690    -0.0590    -1.1270 H     1 <1>   0.4500 
 49 H       -9.4750     0.6890     0.4710 H     1 <1>   0.0800 
 50 H       -9.4670     0.3880    -1.2560 H     1 <1>   0.0800 
 51 H       -8.6010     1.7620    -0.6040 H     1 <1>   0.0800 
@<TRIPOS>BOND
  1   1   2  1   
  2   1   3  1   
  3   2   4  1   
  4   2   5  2   
  5   3   6  2   
  6   3   7  1   
  7   4   8  am  
  8   4  25  1   
  9   5   6  1   
 10   5   9  1   
 11   6  10  1   
 12   7  11  1   
 13   7  26  1   
 14   7  27  1   
 15   8  12  2   
 16   8  13  1   
 17   9  14  3   
 18  10  15  1   
 19  10  28  1   
 20  10  29  1   
 21  11  15  1   
 22  11  16  1   
 23  11  30  1   
 24  13  17  1   
 25  13  31  1   
 26  13  32  1   
 27  15  33  1   
 28  15  34  1   
 29  16  18  1   
 30  16  35  1   
 31  16  36  1   
 32  17  19  1   
 33  17  20  1   
 34  18  37  1   
 35  18  38  1   
 36  18  39  1   
 37  19  21  1   
 38  19  40  1   
 39  19  41  1   
 40  20  22  1   
 41  20  42  1   
 42  20  43  1   
 43  21  23  1   
 44  21  44  1   
 45  21  45  1   
 46  22  23  1   
 47  22  46  1   
 48  22  47  1   
 49  23  24  1   
 50  23  48  1   
 51  24  49  1   
 52  24  50  1   
 53  24  51  1   
@<TRIPOS>SUBSTRUCTURE
  1 ****   2 GROUP 4 **** **** 0

# MOE 2024.06 (io_trps.svl 2023.06)
