@<TRIPOS>MOLECULE
NONAME
36 38 1 0 0 
SMALL
USER_CHARGES


@<TRIPOS>ATOM
  1 O       -8.0610     2.3770     0.0550 O.3   1 <1>  -0.3630 
  2 C       -6.8210     2.9290     0.0230 C.ar  1 <1>   0.0830 
  3 C       -9.2080     3.1430    -0.2170 C.3   1 <1>   0.1200 
  4 C       -5.7580     2.0800     0.2960 C.ar  1 <1>  -0.1500 
  5 C       -6.5770     4.2730    -0.2650 C.ar  1 <1>  -0.1500 
  6 C      -10.4230     2.2220    -0.1050 C.3   1 <1>  -0.1600 
  7 C       -4.4690     2.5780     0.2780 C.ar  1 <1>  -0.1440 
  8 C       -5.2800     4.7610    -0.2790 C.ar  1 <1>  -0.1500 
  9 C      -11.7180     2.9850    -0.3990 C.3   1 <1>   0.0960 
 10 C       -4.2330     3.9000    -0.0050 C.ar  1 <1>  -0.1430 
 11 C       -3.1840     1.8350     0.5440 C.3   1 <1>  -0.0170 
 12 N      -12.8820     2.0860    -0.2880 N.pl3 1 <1>   0.0480 
 13 C       -2.7590     4.2130     0.0340 C.3   1 <1>  -0.0170 
 14 C       -2.0990     2.8240     0.0820 C.3   1 <1>  -0.1600 
 15 C      -13.4770     1.3730    -1.2700 C.2   1 <1>   0.0360 
 16 C      -13.5890     1.7960     0.8190 C.2   1 <1>  -0.3020 
 17 N      -14.4870     0.6700    -0.8740 N.2   1 <1>  -0.5650 
 18 C      -14.5600     0.9350     0.4440 C.2   1 <1>   0.0770 
 19 H       -9.1180     3.5420    -1.2120 H     1 <1>   0.0800 
 20 H       -9.2610     3.9390     0.5050 H     1 <1>   0.0800 
 21 H       -5.9470     1.0460     0.5170 H     1 <1>   0.1500 
 22 H       -7.3780     4.9530    -0.4790 H     1 <1>   0.1500 
 23 H      -10.4640     1.8170     0.8910 H     1 <1>   0.0800 
 24 H      -10.3150     1.4150    -0.8100 H     1 <1>   0.0800 
 25 H       -5.0850     5.7960    -0.4990 H     1 <1>   0.1500 
 26 H      -11.6930     3.3930    -1.3940 H     1 <1>   0.0800 
 27 H      -11.8420     3.7930     0.3010 H     1 <1>   0.0800 
 28 H       -3.1400     0.9120    -0.0070 H     1 <1>   0.0800 
 29 H       -3.0970     1.6390     1.5980 H     1 <1>   0.0800 
 30 H       -2.5360     4.7710     0.9270 H     1 <1>   0.0800 
 31 H       -2.4490     4.7690    -0.8330 H     1 <1>   0.0800 
 32 H       -1.7890     2.5550    -0.9130 H     1 <1>   0.0800 
 33 H       -1.2420     2.8090     0.7320 H     1 <1>   0.0800 
 34 H      -13.1260     1.4000    -2.2870 H     1 <1>   0.1500 
 35 H      -13.3710     2.2040     1.7890 H     1 <1>   0.1500 
 36 H      -15.3190     0.4840     1.0620 H     1 <1>   0.1500 
@<TRIPOS>BOND
  1   1   2  1   
  2   1   3  1   
  3   2   4  ar  
  4   2   5  ar  
  5   3   6  1   
  6   3  19  1   
  7   3  20  1   
  8   4   7  ar  
  9   4  21  1   
 10   5   8  ar  
 11   5  22  1   
 12   6   9  1   
 13   6  23  1   
 14   6  24  1   
 15   7  10  ar  
 16   7  11  1   
 17   8  10  ar  
 18   8  25  1   
 19   9  12  1   
 20   9  26  1   
 21   9  27  1   
 22  10  13  1   
 23  11  14  1   
 24  11  28  1   
 25  11  29  1   
 26  12  15  1   
 27  12  16  1   
 28  13  14  1   
 29  13  30  1   
 30  13  31  1   
 31  14  32  1   
 32  14  33  1   
 33  15  17  2   
 34  15  34  1   
 35  16  18  2   
 36  16  35  1   
 37  17  18  1   
 38  18  36  1   
@<TRIPOS>SUBSTRUCTURE
  1 ****   1 GROUP 4 **** **** 0

# MOE 2024.06 (io_trps.svl 2023.06)
