@<TRIPOS>MOLECULE
NONAME
43 44 1 0 0 
SMALL
USER_CHARGES


@<TRIPOS>ATOM
  1 O        0.4000    -0.4280    -1.8620 O.2   1 <1>  -0.5700 
  2 C        0.4730    -1.5360    -1.3820 C.2   1 <1>   0.5690 
  3 N        1.6040    -2.1120    -0.8700 N.am  1 <1>  -0.2370 
  4 C       -0.7070    -2.5220    -1.3660 C.3   1 <1>   0.2510 
  5 C        2.8170    -1.4410    -0.5860 C.ar  1 <1>   0.1170 
  6 C        1.3820    -3.4480    -0.6800 C.2   1 <1>   0.5690 
  7 N       -1.7330    -2.3350    -0.2920 N.3   1 <1>  -0.8100 
  8 C        0.0030    -3.8600    -1.1240 C.3   1 <1>  -0.0990 
  9 C        3.4460    -1.6070     0.6440 C.ar  1 <1>  -0.1500 
 10 C        3.4110    -0.6010    -1.5230 C.ar  1 <1>  -0.1500 
 11 O        2.1670    -4.2500    -0.2420 O.2   1 <1>  -0.5700 
 12 C       -2.9390    -3.1380    -0.5510 C.3   1 <1>   0.1100 
 13 C       -2.0770    -0.9250    -0.0270 C.3   1 <1>   0.1100 
 14 C        4.6330    -0.9590     0.9340 C.ar  1 <1>  -0.1500 
 15 C        4.5970     0.0500    -1.2380 C.ar  1 <1>  -0.1500 
 16 C       -3.5870    -3.5180     0.7780 C.3   1 <1>  -0.2400 
 17 C       -1.2700    -0.4320     1.1710 C.3   1 <1>  -0.2400 
 18 C        5.2180    -0.1220    -0.0120 C.ar  1 <1>   0.0830 
 19 O        6.3810     0.5520     0.1850 O.3   1 <1>  -0.3630 
 20 C        7.1000     0.4240     1.3890 C.3   1 <1>   0.1200 
 21 C        8.3510     1.2910     1.2850 C.3   1 <1>  -0.2400 
 22 H       -1.1820    -2.5030    -2.3310 H     1 <1>   0.0800 
 23 H        0.0840    -4.4200    -2.0360 H     1 <1>   0.0800 
 24 H       -0.4650    -4.4580    -0.3630 H     1 <1>   0.0800 
 25 H        3.0040    -2.2560     1.3800 H     1 <1>   0.1500 
 26 H        2.9430    -0.4510    -2.4800 H     1 <1>   0.1500 
 27 H       -2.6820    -4.0470    -1.0680 H     1 <1>   0.0800 
 28 H       -3.6310    -2.5900    -1.1700 H     1 <1>   0.0800 
 29 H       -3.1210    -0.8310     0.2210 H     1 <1>   0.0800 
 30 H       -1.9010    -0.3090    -0.8930 H     1 <1>   0.0800 
 31 H        5.0850    -1.1190     1.8950 H     1 <1>   0.1500 
 32 H        5.0500     0.6990    -1.9660 H     1 <1>   0.1500 
 33 H       -2.8840    -4.0570     1.3870 H     1 <1>   0.0800 
 34 H       -4.4380    -4.1490     0.5980 H     1 <1>   0.0800 
 35 H       -3.9190    -2.6460     1.3100 H     1 <1>   0.0800 
 36 H       -1.4660    -1.0550     2.0260 H     1 <1>   0.0800 
 37 H       -1.5590     0.5750     1.4080 H     1 <1>   0.0800 
 38 H       -0.2170    -0.4370     0.9640 H     1 <1>   0.0800 
 39 H        7.3650    -0.6120     1.5190 H     1 <1>   0.0800 
 40 H        6.4730     0.7560     2.1980 H     1 <1>   0.0800 
 41 H        8.9610     0.9610     0.4640 H     1 <1>   0.0800 
 42 H        8.9230     1.2150     2.1920 H     1 <1>   0.0800 
 43 H        8.0750     2.3200     1.1370 H     1 <1>   0.0800 
@<TRIPOS>BOND
  1   1   2  2   
  2   2   3  am  
  3   2   4  1   
  4   3   5  1   
  5   3   6  am  
  6   4   7  1   
  7   4   8  1   
  8   4  22  1   
  9   5   9  ar  
 10   5  10  ar  
 11   6   8  1   
 12   6  11  2   
 13   7  12  1   
 14   7  13  1   
 15   8  23  1   
 16   8  24  1   
 17   9  14  ar  
 18   9  25  1   
 19  10  15  ar  
 20  10  26  1   
 21  12  16  1   
 22  12  27  1   
 23  12  28  1   
 24  13  17  1   
 25  13  29  1   
 26  13  30  1   
 27  14  18  ar  
 28  14  31  1   
 29  15  18  ar  
 30  15  32  1   
 31  16  33  1   
 32  16  34  1   
 33  16  35  1   
 34  17  36  1   
 35  17  37  1   
 36  17  38  1   
 37  18  19  1   
 38  19  20  1   
 39  20  21  1   
 40  20  39  1   
 41  20  40  1   
 42  21  41  1   
 43  21  42  1   
 44  21  43  1   
@<TRIPOS>SUBSTRUCTURE
  1 ****   3 GROUP 4 **** **** 0

# MOE 2024.06 (io_trps.svl 2023.06)
