@<TRIPOS>MOLECULE
Structure1666
27 27 1 0 0 
SMALL
USER_CHARGES


@<TRIPOS>ATOM
  1 O       -0.4630    -1.8070     2.1670 O.co2 1 <1>  -0.9000 
  2 C       -0.8490    -1.6280     1.0220 C.2   1 <1>   0.9060 
  3 O       -0.2220    -1.9750     0.0150 O.co2 1 <1>  -0.9000 
  4 C       -2.2750    -1.2570     0.8080 C.3   1 <1>  -0.2660 
  5 C       -2.9930    -2.5790     0.6120 C.3   1 <1>   0.4230 
  6 N       -2.4700    -3.2000    -0.6180 N.4   1 <1>  -0.8530 
  7 C       -4.5280    -2.4360     0.5510 C.3   1 <1>  -0.0800 
  8 C       -5.2150    -3.8150     0.6620 C.3   1 <1>  -0.0220 
  9 C       -5.0530    -1.6560    -0.6800 C.3   1 <1>  -0.1600 
 10 C       -6.7080    -3.7130     0.4110 C.2   1 <1>  -0.2880 
 11 C       -6.5630    -1.3970    -0.5730 C.3   1 <1>  -0.0220 
 12 C       -7.3020    -2.6440    -0.1240 C.2   1 <1>  -0.2880 
 13 H       -2.3560    -0.6010    -0.0370 H     1 <1>   0.0800 
 14 H       -2.6300    -0.7550     1.6880 H     1 <1>   0.0800 
 15 H       -2.7380    -3.2030     1.4560 H     1 <1>   0.0800 
 16 H       -2.8390    -2.7470    -1.4510 H     1 <1>   0.4500 
 17 H       -2.5790    -4.2120    -0.6390 H     1 <1>   0.4500 
 18 H       -1.4390    -2.9860    -0.6050 H     1 <1>   0.4500 
 19 H       -4.8220    -1.8790     1.4250 H     1 <1>   0.0800 
 20 H       -5.0530    -4.2110     1.6500 H     1 <1>   0.0800 
 21 H       -4.8080    -4.5120    -0.0490 H     1 <1>   0.0800 
 22 H       -4.8770    -2.2250    -1.5760 H     1 <1>   0.0800 
 23 H       -4.5550    -0.7080    -0.7780 H     1 <1>   0.0800 
 24 H       -7.2540    -4.5940     0.7090 H     1 <1>   0.1500 
 25 H       -6.9380    -1.0800    -1.5320 H     1 <1>   0.0800 
 26 H       -6.7540    -0.6080     0.1350 H     1 <1>   0.0800 
 27 H       -8.3680    -2.5840    -0.2770 H     1 <1>   0.1500 
@<TRIPOS>BOND
  1   1   2  ar  
  2   2   3  ar  
  3   2   4  1   
  4   4   5  1   
  5   4  13  1   
  6   4  14  1   
  7   5   6  1   
  8   5   7  1   
  9   5  15  1   
 10   6  16  1   
 11   6  17  1   
 12   6  18  1   
 13   7   8  1   
 14   7   9  1   
 15   7  19  1   
 16   8  10  1   
 17   8  20  1   
 18   8  21  1   
 19   9  11  1   
 20   9  22  1   
 21   9  23  1   
 22  10  12  2   
 23  10  24  1   
 24  11  12  1   
 25  11  25  1   
 26  11  26  1   
 27  12  27  1   
@<TRIPOS>SUBSTRUCTURE
  1 ****   5 GROUP 4 **** **** 0

# MOE 2024.06 (io_trps.svl 2023.06)
