@<TRIPOS>MOLECULE
NONAME
35 36 1 0 0 
SMALL
USER_CHARGES


@<TRIPOS>ATOM
  1 O       -0.7890     0.5690     1.3590 O.2   1 <1>  -0.5700 
  2 C       -1.4580     1.2300     0.5990 C.2   1 <1>   0.4950 
  3 C       -1.1540     2.5780     0.2050 C.2   1 <1>   0.0290 
  4 C       -2.7140     0.5260     0.1030 C.3   1 <1>  -0.0990 
  5 C       -2.3010     3.4040    -0.0770 C.2   1 <1>   0.4950 
  6 C        0.1440     3.0680     0.1170 C.2   1 <1>  -0.0380 
  7 C       -3.4970     1.3440    -0.9230 C.3   1 <1>  -0.1600 
  8 O       -2.3100     4.6160    -0.0800 O.2   1 <1>  -0.5700 
  9 C       -3.6460     2.7740    -0.4060 C.3   1 <1>  -0.0990 
 10 N        0.4180     4.3740    -0.1280 N.pl3 1 <1>  -0.8690 
 11 C        1.3770     2.1790     0.2750 C.3   1 <1>  -0.1020 
 12 C        1.7040     5.1040    -0.1710 C.3   1 <1>   0.3530 
 13 C        1.4290     6.5890    -0.0010 C.ar  1 <1>  -0.1430 
 14 C        0.8060     7.0550     1.1470 C.ar  1 <1>  -0.1500 
 15 C        1.7970     7.4950    -0.9860 C.ar  1 <1>  -0.1500 
 16 C        0.5570     8.4060     1.3120 C.ar  1 <1>  -0.1500 
 17 C        1.5490     8.8470    -0.8230 C.ar  1 <1>  -0.1500 
 18 C        0.9300     9.3030     0.3270 C.ar  1 <1>  -0.1500 
 19 H       -2.4350    -0.4200    -0.3260 H     1 <1>   0.0800 
 20 H       -3.3390     0.3250     0.9560 H     1 <1>   0.0800 
 21 H       -4.4650     0.9030    -1.0920 H     1 <1>   0.0800 
 22 H       -2.9640     1.3560    -1.8600 H     1 <1>   0.0800 
 23 H       -4.2570     2.7900     0.4790 H     1 <1>   0.0800 
 24 H       -4.1370     3.3730    -1.1540 H     1 <1>   0.0800 
 25 H       -0.3830     5.0270    -0.2310 H     1 <1>   0.4000 
 26 H        2.1670     2.4940    -0.3800 H     1 <1>   0.0800 
 27 H        1.1700     1.1560     0.0240 H     1 <1>   0.0800 
 28 H        1.7260     2.2220     1.2910 H     1 <1>   0.0800 
 29 H        2.3440     4.7630     0.6240 H     1 <1>   0.0800 
 30 H        2.1870     4.9170    -1.1140 H     1 <1>   0.0800 
 31 H        0.5070     6.3590     1.9130 H     1 <1>   0.1500 
 32 H        2.2760     7.1520    -1.8870 H     1 <1>   0.1500 
 33 H        0.0700     8.7560     2.2050 H     1 <1>   0.1500 
 34 H        1.8370     9.5430    -1.5900 H     1 <1>   0.1500 
 35 H        0.7350    10.3540     0.4550 H     1 <1>   0.1500 
@<TRIPOS>BOND
  1   1   2  2   
  2   2   3  1   
  3   2   4  1   
  4   3   5  1   
  5   3   6  2   
  6   4   7  1   
  7   4  19  1   
  8   4  20  1   
  9   5   8  2   
 10   5   9  1   
 11   6  10  1   
 12   6  11  1   
 13   7   9  1   
 14   7  21  1   
 15   7  22  1   
 16   9  23  1   
 17   9  24  1   
 18  10  12  1   
 19  10  25  1   
 20  11  26  1   
 21  11  27  1   
 22  11  28  1   
 23  12  13  1   
 24  12  29  1   
 25  12  30  1   
 26  13  14  ar  
 27  13  15  ar  
 28  14  16  ar  
 29  14  31  1   
 30  15  17  ar  
 31  15  32  1   
 32  16  18  ar  
 33  16  33  1   
 34  17  18  ar  
 35  17  34  1   
 36  18  35  1   
@<TRIPOS>SUBSTRUCTURE
  1 ****  10 GROUP 4 **** **** 0

# MOE 2024.06 (io_trps.svl 2023.06)
