@<TRIPOS>MOLECULE
NONAME
44 46 1 0 0 
SMALL
USER_CHARGES


@<TRIPOS>ATOM
  1 O        0.7980     2.5310    -2.1250 O.2   1 <1>  -0.5700 
  2 C        0.0460     2.1360    -1.2650 C.2   1 <1>   0.5690 
  3 N        0.4370     1.4470    -0.1560 N.am  1 <1>  -0.5470 
  4 C       -1.4570     2.4000    -1.4030 C.3   1 <1>   0.1710 
  5 C        1.6550     0.9150     0.2960 C.ar  1 <1>   0.1170 
  6 N       -2.3040     1.5380    -0.5230 N.3   1 <1>  -0.8100 
  7 C        1.6260    -0.0320     1.3270 C.ar  1 <1>   0.0830 
  8 C        2.8810     1.2940    -0.2360 C.ar  1 <1>  -0.1500 
  9 C       -2.3710     0.1550    -1.0360 C.3   1 <1>   0.1100 
 10 C       -3.6510     2.1000    -0.3630 C.3   1 <1>   0.1100 
 11 O        0.3990    -0.3790     1.8210 O.3   1 <1>  -0.3630 
 12 C        2.8140    -0.5790     1.8010 C.ar  1 <1>  -0.1500 
 13 C        4.0590     0.7460     0.2390 C.ar  1 <1>  -0.1500 
 14 C       -3.0730    -0.7310    -0.0100 C.3   1 <1>  -0.1600 
 15 C       -4.4160     1.2950     0.6880 C.3   1 <1>  -0.1600 
 16 C        0.2600    -1.3520     2.8320 C.3   1 <1>   0.0400 
 17 C        4.0270    -0.1900     1.2570 C.ar  1 <1>  -0.1500 
 18 C       -4.4600    -0.1840     0.2990 C.3   1 <1>   0.5600 
 19 O       -5.0350    -0.9410     1.3090 O.3   1 <1>  -0.5600 
 20 O       -5.2800    -0.3660    -0.8100 O.3   1 <1>  -0.5600 
 21 C       -6.3950    -1.0280     1.0850 C.3   1 <1>   0.1200 
 22 C       -6.5530    -0.6990    -0.3870 C.3   1 <1>   0.1200 
 23 H       -0.3720     1.1490     0.4060 H     1 <1>   0.3700 
 24 H       -1.7410     2.2680    -2.4320 H     1 <1>   0.0800 
 25 H       -1.6130     3.4320    -1.1470 H     1 <1>   0.0800 
 26 H        2.9200     2.0230    -1.0250 H     1 <1>   0.1500 
 27 H       -1.3800    -0.2310    -1.2090 H     1 <1>   0.0800 
 28 H       -2.9100     0.1320    -1.9700 H     1 <1>   0.0800 
 29 H       -4.1770     2.0740    -1.3040 H     1 <1>   0.0800 
 30 H       -3.5820     3.1240    -0.0370 H     1 <1>   0.0800 
 31 H        2.8200    -1.3060     2.5900 H     1 <1>   0.1500 
 32 H        5.0000     1.0510    -0.1860 H     1 <1>   0.1500 
 33 H       -2.4860    -0.7460     0.8900 H     1 <1>   0.0800 
 34 H       -3.1570    -1.7340    -0.3820 H     1 <1>   0.0800 
 35 H       -5.4090     1.6840     0.7950 H     1 <1>   0.0800 
 36 H       -3.9070     1.3940     1.6290 H     1 <1>   0.0800 
 37 H       -0.7890    -1.4650     3.0430 H     1 <1>   0.0800 
 38 H        0.7750    -1.0160     3.7140 H     1 <1>   0.0800 
 39 H        0.6630    -2.2840     2.4780 H     1 <1>   0.0800 
 40 H        4.9450    -0.6140     1.6250 H     1 <1>   0.1500 
 41 H       -6.8990    -0.3100     1.7070 H     1 <1>   0.0800 
 42 H       -6.7280    -2.0240     1.3180 H     1 <1>   0.0800 
 43 H       -6.8970    -1.5460    -0.9530 H     1 <1>   0.0800 
 44 H       -7.2070     0.1420    -0.5390 H     1 <1>   0.0800 
@<TRIPOS>BOND
  1   1   2  2   
  2   2   3  am  
  3   2   4  1   
  4   3   5  1   
  5   3  23  1   
  6   4   6  1   
  7   4  24  1   
  8   4  25  1   
  9   5   7  ar  
 10   5   8  ar  
 11   6   9  1   
 12   6  10  1   
 13   7  11  1   
 14   7  12  ar  
 15   8  13  ar  
 16   8  26  1   
 17   9  14  1   
 18   9  27  1   
 19   9  28  1   
 20  10  15  1   
 21  10  29  1   
 22  10  30  1   
 23  11  16  1   
 24  12  17  ar  
 25  12  31  1   
 26  13  17  ar  
 27  13  32  1   
 28  14  18  1   
 29  14  33  1   
 30  14  34  1   
 31  15  18  1   
 32  15  35  1   
 33  15  36  1   
 34  16  37  1   
 35  16  38  1   
 36  16  39  1   
 37  17  40  1   
 38  18  19  1   
 39  18  20  1   
 40  19  21  1   
 41  20  22  1   
 42  21  22  1   
 43  21  41  1   
 44  21  42  1   
 45  22  43  1   
 46  22  44  1   
@<TRIPOS>SUBSTRUCTURE
  1 ****   6 GROUP 4 **** **** 0

# MOE 2024.06 (io_trps.svl 2023.06)
