@<TRIPOS>MOLECULE
NONAME
40 40 1 0 0 
SMALL
USER_CHARGES


@<TRIPOS>ATOM
  1 O        0.3940    -1.7810     1.3900 O.2   1 <1>  -0.5700 
  2 C        0.7050    -2.0390     0.2570 C.2   1 <1>   0.6590 
  3 O        1.1910    -3.2160    -0.1070 O.3   1 <1>  -0.4300 
  4 C        0.5610    -1.0270    -0.8490 C.3   1 <1>  -0.1790 
  5 C        1.4020    -4.2670     0.8130 C.3   1 <1>   0.2000 
  6 C        2.5550    -5.1460     0.3050 C.3   1 <1>   0.0400 
  7 C        0.0960    -5.0560     0.9350 C.3   1 <1>  -0.2400 
  8 C        3.8510    -4.4050     0.2630 C.1   1 <1>  -0.2000 
  9 C        4.8770    -3.8040     0.2450 C.1   1 <1>  -0.2000 
 10 C        6.1520    -3.0330     0.2270 C.3   1 <1>   0.3100 
 11 N        7.3110    -3.9490     0.2110 N.3   1 <1>  -0.8100 
 12 C        7.3780    -4.7600    -1.0340 C.3   1 <1>   0.1100 
 13 C        8.5830    -3.2240     0.4290 C.3   1 <1>   0.1100 
 14 C        8.6110    -5.6970    -1.0660 C.3   1 <1>   0.3430 
 15 C        9.8040    -4.1780     0.4670 C.3   1 <1>   0.3430 
 16 N        9.3950    -5.5990     0.2090 N.4   1 <1>  -0.9590 
 17 C       10.5210    -6.5720     0.2950 C.3   1 <1>   0.2630 
 18 H        1.5220    -0.8350    -1.2850 H     1 <1>   0.0800 
 19 H       -0.1020    -1.4110    -1.6000 H     1 <1>   0.0800 
 20 H        0.1600    -0.1120    -0.4540 H     1 <1>   0.0800 
 21 H        1.6730    -3.8450     1.7670 H     1 <1>   0.0800 
 22 H        2.3190    -5.5210    -0.6740 H     1 <1>   0.0800 
 23 H        2.6700    -5.9870     0.9640 H     1 <1>   0.0800 
 24 H       -0.1990    -5.4510    -0.0210 H     1 <1>   0.0800 
 25 H       -0.6840    -4.4200     1.3140 H     1 <1>   0.0800 
 26 H        0.2210    -5.8730     1.6220 H     1 <1>   0.0800 
 27 H        6.1870    -2.4210     1.1120 H     1 <1>   0.0800 
 28 H        6.1720    -2.3870    -0.6340 H     1 <1>   0.0800 
 29 H        7.4040    -4.1130    -1.8950 H     1 <1>   0.0800 
 30 H        6.4920    -5.3670    -1.1180 H     1 <1>   0.0800 
 31 H        8.5350    -2.6900     1.3630 H     1 <1>   0.0800 
 32 H        8.7280    -2.4960    -0.3520 H     1 <1>   0.0800 
 33 H        9.2350    -5.4330    -1.9030 H     1 <1>   0.0800 
 34 H        8.2730    -6.7100    -1.2140 H     1 <1>   0.0800 
 35 H       10.2720    -4.1040     1.4350 H     1 <1>   0.0800 
 36 H       10.5240    -3.8610    -0.2690 H     1 <1>   0.0800 
 37 H        8.6880    -5.7870     0.9410 H     1 <1>   0.4500 
 38 H       11.2500    -6.3700    -0.4720 H     1 <1>   0.0800 
 39 H       10.1550    -7.5780     0.1690 H     1 <1>   0.0800 
 40 H       11.0020    -6.5010     1.2570 H     1 <1>   0.0800 
@<TRIPOS>BOND
  1   1   2  2   
  2   2   3  1   
  3   2   4  1   
  4   3   5  1   
  5   4  18  1   
  6   4  19  1   
  7   4  20  1   
  8   5   6  1   
  9   5   7  1   
 10   5  21  1   
 11   6   8  1   
 12   6  22  1   
 13   6  23  1   
 14   7  24  1   
 15   7  25  1   
 16   7  26  1   
 17   8   9  3   
 18   9  10  1   
 19  10  11  1   
 20  10  27  1   
 21  10  28  1   
 22  11  12  1   
 23  11  13  1   
 24  12  14  1   
 25  12  29  1   
 26  12  30  1   
 27  13  15  1   
 28  13  31  1   
 29  13  32  1   
 30  14  16  1   
 31  14  33  1   
 32  14  34  1   
 33  15  16  1   
 34  15  35  1   
 35  15  36  1   
 36  16  17  1   
 37  16  37  1   
 38  17  38  1   
 39  17  39  1   
 40  17  40  1   
@<TRIPOS>SUBSTRUCTURE
  1 ****   9 GROUP 4 **** **** 0

# MOE 2024.06 (io_trps.svl 2023.06)
