@<TRIPOS>MOLECULE
NONAME
39 39 1 0 0 
SMALL
USER_CHARGES


@<TRIPOS>ATOM
  1 BR       1.2900    -0.6820    -0.8060 Br    1 <1>  -0.1110 
  2 C        0.2150    -2.0920    -0.0510 C.ar  1 <1>   0.1110 
  3 C        0.5570    -2.6650     1.1600 C.ar  1 <1>   0.1900 
  4 C       -0.9050    -2.5130    -0.7440 C.ar  1 <1>  -0.1500 
  5 F        1.6150    -2.2550     1.8080 F     1 <1>  -0.1900 
  6 C       -0.2120    -3.6760     1.7020 C.ar  1 <1>  -0.1500 
  7 C       -1.6960    -3.5220    -0.2020 C.ar  1 <1>  -0.1440 
  8 C       -1.3380    -4.1040     1.0140 C.ar  1 <1>  -0.1500 
  9 C       -2.9430    -3.9870    -0.9320 C.3   1 <1>   0.4870 
 10 N       -4.1340    -3.4310    -0.2140 N.4   1 <1>  -0.9590 
 11 C       -5.3880    -4.1890    -0.5840 C.3   1 <1>   0.3430 
 12 C       -4.2190    -1.9560    -0.4370 C.3   1 <1>   0.3430 
 13 C       -6.6460    -3.8260     0.2610 C.3   1 <1>   0.3430 
 14 C       -4.4300    -1.2720     0.9070 C.3   1 <1>  -0.2400 
 15 N       -7.8980    -4.5890    -0.1050 N.4   1 <1>  -0.9590 
 16 C       -9.0800    -4.0270     0.6340 C.3   1 <1>   0.2630 
 17 C       -7.8150    -6.0640     0.1780 C.3   1 <1>   0.2630 
 18 H       -1.1310    -2.0480    -1.6890 H     1 <1>   0.1500 
 19 H        0.0750    -4.1170     2.6420 H     1 <1>   0.1500 
 20 H       -1.9210    -4.9020     1.4430 H     1 <1>   0.1500 
 21 H       -2.9670    -5.0650    -0.9240 H     1 <1>   0.0800 
 22 H       -2.9250    -3.6520    -1.9570 H     1 <1>   0.0800 
 23 H       -3.9000    -3.5580     0.7830 H     1 <1>   0.4500 
 24 H       -5.1990    -5.2430    -0.4650 H     1 <1>   0.0800 
 25 H       -5.6090    -4.0060    -1.6230 H     1 <1>   0.0800 
 26 H       -5.0220    -1.7140    -1.1160 H     1 <1>   0.0800 
 27 H       -3.3010    -1.5860    -0.8650 H     1 <1>   0.0800 
 28 H       -6.8420    -2.7730     0.1370 H     1 <1>   0.0800 
 29 H       -6.4270    -4.0010     1.3020 H     1 <1>   0.0800 
 30 H       -5.3460    -1.5720     1.3790 H     1 <1>   0.0800 
 31 H       -4.4740    -0.2070     0.7530 H     1 <1>   0.0800 
 32 H       -3.6000    -1.4660     1.5650 H     1 <1>   0.0800 
 33 H       -8.1100    -4.4700    -1.1120 H     1 <1>   0.4500 
 34 H       -8.9480    -4.1350     1.6990 H     1 <1>   0.0800 
 35 H       -9.9820    -4.5450     0.3490 H     1 <1>   0.0800 
 36 H       -9.2070    -2.9800     0.4070 H     1 <1>   0.0800 
 37 H       -7.6290    -6.2380     1.2260 H     1 <1>   0.0800 
 38 H       -7.0270    -6.5230    -0.3960 H     1 <1>   0.0800 
 39 H       -8.7440    -6.5460    -0.0830 H     1 <1>   0.0800 
@<TRIPOS>BOND
  1   1   2  1   
  2   2   3  ar  
  3   2   4  ar  
  4   3   5  1   
  5   3   6  ar  
  6   4   7  ar  
  7   4  18  1   
  8   6   8  ar  
  9   6  19  1   
 10   7   8  ar  
 11   7   9  1   
 12   8  20  1   
 13   9  10  1   
 14   9  21  1   
 15   9  22  1   
 16  10  11  1   
 17  10  12  1   
 18  10  23  1   
 19  11  13  1   
 20  11  24  1   
 21  11  25  1   
 22  12  14  1   
 23  12  26  1   
 24  12  27  1   
 25  13  15  1   
 26  13  28  1   
 27  13  29  1   
 28  14  30  1   
 29  14  31  1   
 30  14  32  1   
 31  15  16  1   
 32  15  17  1   
 33  15  33  1   
 34  16  34  1   
 35  16  35  1   
 36  16  36  1   
 37  17  37  1   
 38  17  38  1   
 39  17  39  1   
@<TRIPOS>SUBSTRUCTURE
  1 ****  10 GROUP 4 **** **** 0

# MOE 2024.06 (io_trps.svl 2023.06)
