@<TRIPOS>MOLECULE
NONAME
52 55 1 0 0 
SMALL
USER_CHARGES


@<TRIPOS>ATOM
  1 O       -0.6790    -0.2730     0.0540 O.2   1 <1>  -0.5700 
  2 C       -1.2130    -1.3280    -0.1830 C.2   1 <1>   0.5690 
  3 N       -2.3690    -1.7090     0.4150 N.am  1 <1>  -0.7300 
  4 C       -0.5830    -2.2670    -1.1930 C.3   1 <1>  -0.0990 
  5 C       -3.1410    -0.8910     1.3840 C.3   1 <1>   0.1400 
  6 C       -0.0060    -3.5380    -0.5480 C.3   1 <1>  -0.2400 
  7 C       -4.5570    -0.5560     0.8690 C.3   1 <1>   0.0000 
  8 C       -5.3840    -1.8380     0.6060 C.3   1 <1>  -0.1600 
  9 C       -5.2920     0.2820     1.9380 C.3   1 <1>  -0.1600 
 10 C       -4.4920     0.2680    -0.4380 C.3   1 <1>  -0.1600 
 11 C       -6.8200    -1.5160     0.1210 C.3   1 <1>   0.1430 
 12 C       -6.7120     0.6390     1.4680 C.3   1 <1>  -0.0800 
 13 C       -5.9090     0.6220    -0.9210 C.3   1 <1>  -0.0800 
 14 C       -7.6640    -2.7830    -0.1510 C.ar  1 <1>  -0.1440 
 15 C       -7.5020    -0.6570     1.2110 C.3   1 <1>  -0.1600 
 16 C       -6.6990    -0.6760    -1.1730 C.3   1 <1>  -0.1600 
 17 C       -6.6240     1.4490     0.1620 C.3   1 <1>  -0.1600 
 18 C       -8.9710    -2.6480    -0.6080 C.ar  1 <1>  -0.1500 
 19 C       -7.1830    -4.0760     0.0400 C.ar  1 <1>  -0.1500 
 20 C       -9.7650    -3.7520    -0.8660 C.ar  1 <1>  -0.1500 
 21 C       -7.9740    -5.1820    -0.2160 C.ar  1 <1>  -0.1500 
 22 C       -9.2710    -5.0290    -0.6700 C.ar  1 <1>  -0.1440 
 23 C      -10.1390    -6.2410    -0.9530 C.3   1 <1>  -0.0970 
 24 H       -2.7860    -2.6050     0.1660 H     1 <1>   0.3700 
 25 H        0.2050    -1.7400    -1.7010 H     1 <1>   0.0800 
 26 H       -1.3230    -2.5330    -1.9260 H     1 <1>   0.0800 
 27 H       -2.6090     0.0250     1.5810 H     1 <1>   0.0800 
 28 H       -3.2110    -1.4320     2.3120 H     1 <1>   0.0800 
 29 H        0.7390    -3.2720     0.1820 H     1 <1>   0.0800 
 30 H        0.4530    -4.1580    -1.2980 H     1 <1>   0.0800 
 31 H       -0.7810    -4.1020    -0.0610 H     1 <1>   0.0800 
 32 H       -5.4330    -2.4140     1.5130 H     1 <1>   0.0800 
 33 H       -4.8930    -2.4300    -0.1450 H     1 <1>   0.0800 
 34 H       -4.7440     1.1880     2.1340 H     1 <1>   0.0800 
 35 H       -5.3510    -0.2680     2.8620 H     1 <1>   0.0800 
 36 H       -3.9870    -0.2910    -1.2060 H     1 <1>   0.0800 
 37 H       -3.9280     1.1700    -0.2730 H     1 <1>   0.0800 
 38 H       -7.2090     1.2230     2.2240 H     1 <1>   0.0800 
 39 H       -5.8470     1.1930    -1.8320 H     1 <1>   0.0800 
 40 H       -7.5770    -1.2260     2.1210 H     1 <1>   0.0800 
 41 H       -8.5010    -0.3990     0.9120 H     1 <1>   0.0800 
 42 H       -6.2100    -1.2590    -1.9330 H     1 <1>   0.0800 
 43 H       -7.6730    -0.4170    -1.5440 H     1 <1>   0.0800 
 44 H       -6.0840     2.3640     0.3360 H     1 <1>   0.0800 
 45 H       -7.6120     1.7120    -0.1720 H     1 <1>   0.0800 
 46 H       -9.3940    -1.6740    -0.7710 H     1 <1>   0.1500 
 47 H       -6.1870    -4.2590     0.3920 H     1 <1>   0.1500 
 48 H      -10.7700    -3.6110    -1.2200 H     1 <1>   0.1500 
 49 H       -7.5730    -6.1680    -0.0600 H     1 <1>   0.1500 
 50 H      -11.1730    -6.0140    -0.7660 H     1 <1>   0.0800 
 51 H       -9.8540    -7.0640    -0.3230 H     1 <1>   0.0800 
 52 H      -10.0280    -6.5350    -1.9820 H     1 <1>   0.0800 
@<TRIPOS>BOND
  1   1   2  2   
  2   2   3  am  
  3   2   4  1   
  4   3   5  1   
  5   3  24  1   
  6   4   6  1   
  7   4  25  1   
  8   4  26  1   
  9   5   7  1   
 10   5  27  1   
 11   5  28  1   
 12   6  29  1   
 13   6  30  1   
 14   6  31  1   
 15   7   8  1   
 16   7   9  1   
 17   7  10  1   
 18   8  11  1   
 19   8  32  1   
 20   8  33  1   
 21   9  12  1   
 22   9  34  1   
 23   9  35  1   
 24  10  13  1   
 25  10  36  1   
 26  10  37  1   
 27  11  14  1   
 28  11  15  1   
 29  11  16  1   
 30  12  15  1   
 31  12  17  1   
 32  12  38  1   
 33  13  16  1   
 34  13  17  1   
 35  13  39  1   
 36  14  18  ar  
 37  14  19  ar  
 38  15  40  1   
 39  15  41  1   
 40  16  42  1   
 41  16  43  1   
 42  17  44  1   
 43  17  45  1   
 44  18  20  ar  
 45  18  46  1   
 46  19  21  ar  
 47  19  47  1   
 48  20  22  ar  
 49  20  48  1   
 50  21  22  ar  
 51  21  49  1   
 52  22  23  1   
 53  23  50  1   
 54  23  51  1   
 55  23  52  1   
@<TRIPOS>SUBSTRUCTURE
  1 ****   8 GROUP 4 **** **** 0

# MOE 2024.06 (io_trps.svl 2023.06)
