@<TRIPOS>MOLECULE
NONAME
40 42 1 0 0 
SMALL
USER_CHARGES


@<TRIPOS>ATOM
  1 S        1.2710    -0.8690     1.6080 S.3   1 <1>  -0.4600 
  2 C        0.9280    -1.3530    -0.1110 C.3   1 <1>   0.2140 
  3 C        0.8200     0.9080     1.6370 C.3   1 <1>   0.1310 
  4 C       -0.5260    -1.0430    -0.4240 C.ar  1 <1>  -0.1440 
  5 C        1.6740     1.7000     0.6570 C.2   1 <1>   0.5690 
  6 C       -0.8570     0.0330    -1.2360 C.ar  1 <1>  -0.1500 
  7 C       -1.5360    -1.8320     0.1030 C.ar  1 <1>  -0.1500 
  8 O        1.1620     2.5710    -0.0040 O.2   1 <1>  -0.5700 
  9 N        2.9890     1.3870     0.5420 N.am  1 <1>  -0.7300 
 10 C       -2.1820     0.3140    -1.5180 C.ar  1 <1>  -0.1500 
 11 C       -2.8620    -1.5530    -0.1800 C.ar  1 <1>  -0.1500 
 12 C        3.9360     1.9790    -0.4170 C.3   1 <1>   0.2200 
 13 C       -3.1860    -0.4800    -0.9910 C.ar  1 <1>  -0.1500 
 14 C        4.3600     0.9820    -1.5160 C.3   1 <1>  -0.0800 
 15 C        5.2680     2.3290     0.2630 C.3   1 <1>  -0.1600 
 16 C        5.6930     1.5810    -1.9430 C.3   1 <1>  -0.1600 
 17 C        4.8380    -0.3530    -0.9070 C.3   1 <1>  -0.1600 
 18 C        6.3010     1.5290    -0.5510 C.3   1 <1>  -0.0800 
 19 C        6.1490     0.0390    -0.2030 C.3   1 <1>  -0.1600 
 20 H        1.1280    -2.4070    -0.1920 H     1 <1>   0.0800 
 21 H        1.6000    -0.8040    -0.7470 H     1 <1>   0.0800 
 22 H        0.9760     1.2610     2.6390 H     1 <1>   0.0800 
 23 H       -0.2210     0.9850     1.3830 H     1 <1>   0.0800 
 24 H       -0.0870     0.6640    -1.6480 H     1 <1>   0.1500 
 25 H       -1.2920    -2.6650     0.7400 H     1 <1>   0.1500 
 26 H        3.3510     0.5920     1.0730 H     1 <1>   0.3700 
 27 H       -2.4300     1.1520    -2.1450 H     1 <1>   0.1500 
 28 H       -3.6410    -2.1700     0.2330 H     1 <1>   0.1500 
 29 H        3.5090     2.8620    -0.8660 H     1 <1>   0.0800 
 30 H       -4.2160    -0.2610    -1.2110 H     1 <1>   0.1500 
 31 H        3.6400     0.8830    -2.3100 H     1 <1>   0.0800 
 32 H        5.2870     2.0700     1.3070 H     1 <1>   0.0800 
 33 H        5.4570     3.3820     0.1570 H     1 <1>   0.0800 
 34 H        5.6000     2.5850    -2.3210 H     1 <1>   0.0800 
 35 H        6.2220     0.9660    -2.6520 H     1 <1>   0.0800 
 36 H        5.0430    -1.0590    -1.6930 H     1 <1>   0.0800 
 37 H        4.1280    -0.7940    -0.2310 H     1 <1>   0.0800 
 38 H        7.3090     1.9000    -0.4710 H     1 <1>   0.0800 
 39 H        6.9710    -0.5260    -0.6080 H     1 <1>   0.0800 
 40 H        6.1010    -0.1220     0.8600 H     1 <1>   0.0800 
@<TRIPOS>BOND
  1   1   2  1   
  2   1   3  1   
  3   2   4  1   
  4   2  20  1   
  5   2  21  1   
  6   3   5  1   
  7   3  22  1   
  8   3  23  1   
  9   4   6  ar  
 10   4   7  ar  
 11   5   8  2   
 12   5   9  am  
 13   6  10  ar  
 14   6  24  1   
 15   7  11  ar  
 16   7  25  1   
 17   9  12  1   
 18   9  26  1   
 19  10  13  ar  
 20  10  27  1   
 21  11  13  ar  
 22  11  28  1   
 23  12  14  1   
 24  12  15  1   
 25  12  29  1   
 26  13  30  1   
 27  14  16  1   
 28  14  17  1   
 29  14  31  1   
 30  15  18  1   
 31  15  32  1   
 32  15  33  1   
 33  16  18  1   
 34  16  34  1   
 35  16  35  1   
 36  17  19  1   
 37  17  36  1   
 38  17  37  1   
 39  18  19  1   
 40  18  38  1   
 41  19  39  1   
 42  19  40  1   
@<TRIPOS>SUBSTRUCTURE
  1 ****   5 GROUP 4 **** **** 0

# MOE 2024.06 (io_trps.svl 2023.06)
