@<TRIPOS>MOLECULE
NONAME
47 49 1 0 0 
SMALL
USER_CHARGES


@<TRIPOS>ATOM
  1 O        0.5990     0.2350    -0.8500 O.2   1 <1>  -0.5700 
  2 C        1.7800    -0.0280    -0.7630 C.2   1 <1>   0.5440 
  3 N        2.6260     1.0460    -0.7340 N.am  1 <1>  -0.5470 
  4 C        2.2520    -1.4020    -0.7260 C.ar  1 <1>   0.0860 
  5 C        4.0040     1.1420    -0.5380 C.ar  1 <1>   0.1170 
  6 C        1.8300    -2.3230     0.2440 C.ar  1 <1>  -0.1440 
  7 C        3.1710    -1.8400    -1.6810 C.ar  1 <1>  -0.1500 
  8 C        4.7010     0.2920     0.3140 C.ar  1 <1>  -0.1500 
  9 C        4.7190     2.1320    -1.2000 C.ar  1 <1>  -0.1500 
 10 C        2.3230    -3.6180     0.2410 C.ar  1 <1>  -0.1500 
 11 C        0.8270    -1.9230     1.3190 C.3   1 <1>  -0.0970 
 12 C        3.6610    -3.1310    -1.6790 C.ar  1 <1>  -0.1500 
 13 C        6.0680     0.4140     0.4760 C.ar  1 <1>  -0.1500 
 14 C        6.0850     2.2520    -1.0340 C.ar  1 <1>  -0.1500 
 15 C        3.2360    -4.0240    -0.7150 C.ar  1 <1>  -0.1500 
 16 C        6.8030     1.3920    -0.2000 C.ar  1 <1>   0.0860 
 17 C        8.2420     1.5210    -0.0530 C.2   1 <1>   0.5440 
 18 O        8.8120     2.5550    -0.3480 O.2   1 <1>  -0.5700 
 19 N        8.9950     0.4750     0.3990 N.am  1 <1>  -0.7300 
 20 C       10.4730     0.4290     0.4900 C.3   1 <1>   0.1400 
 21 C       10.9910    -0.8490    -0.1860 C.3   1 <1>   0.2000 
 22 O       10.2720    -1.9600     0.2570 O.3   1 <1>  -0.5600 
 23 C       12.4400    -1.1860     0.1310 C.3   1 <1>  -0.1600 
 24 C       11.0190    -3.1240     0.0880 C.3   1 <1>   0.1200 
 25 C       12.4780    -2.6930    -0.0580 C.3   1 <1>  -0.1600 
 26 H        2.1250     1.9190    -0.9020 H     1 <1>   0.3700 
 27 H        3.5060    -1.1500    -2.4360 H     1 <1>   0.1500 
 28 H        4.1740    -0.4680     0.8610 H     1 <1>   0.1500 
 29 H        4.2020     2.8100    -1.8550 H     1 <1>   0.1500 
 30 H        1.9980    -4.3250     0.9840 H     1 <1>   0.1500 
 31 H        1.1500    -1.0260     1.8180 H     1 <1>   0.0800 
 32 H        0.7140    -2.6970     2.0560 H     1 <1>   0.0800 
 33 H       -0.1340    -1.7400     0.8710 H     1 <1>   0.0800 
 34 H        4.3710    -3.4420    -2.4260 H     1 <1>   0.1500 
 35 H        6.5710    -0.2590     1.1470 H     1 <1>   0.1500 
 36 H        6.6190     3.0260    -1.5590 H     1 <1>   0.1500 
 37 H        3.6130    -5.0330    -0.7080 H     1 <1>   0.1500 
 38 H        8.5820    -0.4580     0.4880 H     1 <1>   0.3700 
 39 H       10.7580     0.4320     1.5270 H     1 <1>   0.0800 
 40 H       10.9070     1.2930     0.0180 H     1 <1>   0.0800 
 41 H       10.8540    -0.7800    -1.2520 H     1 <1>   0.0800 
 42 H       12.6590    -0.9370     1.1540 H     1 <1>   0.0800 
 43 H       13.1250    -0.6680    -0.5180 H     1 <1>   0.0800 
 44 H       10.6670    -3.6290    -0.7950 H     1 <1>   0.0800 
 45 H       10.8700    -3.7470     0.9530 H     1 <1>   0.0800 
 46 H       13.1060    -3.1740     0.6700 H     1 <1>   0.0800 
 47 H       12.8270    -2.9460    -1.0440 H     1 <1>   0.0800 
@<TRIPOS>BOND
  1   1   2  2   
  2   2   3  am  
  3   2   4  1   
  4   3   5  1   
  5   3  26  1   
  6   4   6  ar  
  7   4   7  ar  
  8   5   8  ar  
  9   5   9  ar  
 10   6  10  ar  
 11   6  11  1   
 12   7  12  ar  
 13   7  27  1   
 14   8  13  ar  
 15   8  28  1   
 16   9  14  ar  
 17   9  29  1   
 18  10  15  ar  
 19  10  30  1   
 20  11  31  1   
 21  11  32  1   
 22  11  33  1   
 23  12  15  ar  
 24  12  34  1   
 25  13  16  ar  
 26  13  35  1   
 27  14  16  ar  
 28  14  36  1   
 29  15  37  1   
 30  16  17  1   
 31  17  18  2   
 32  17  19  am  
 33  19  20  1   
 34  19  38  1   
 35  20  21  1   
 36  20  39  1   
 37  20  40  1   
 38  21  22  1   
 39  21  23  1   
 40  21  41  1   
 41  22  24  1   
 42  23  25  1   
 43  23  42  1   
 44  23  43  1   
 45  24  25  1   
 46  24  44  1   
 47  24  45  1   
 48  25  46  1   
 49  25  47  1   
@<TRIPOS>SUBSTRUCTURE
  1 ****  13 GROUP 4 **** **** 0

# MOE 2024.06 (io_trps.svl 2023.06)
