@<TRIPOS>MOLECULE
NONAME
31 33 1 0 0 
SMALL
USER_CHARGES


@<TRIPOS>ATOM
  1 S        0.4000     0.7170    -0.2980 S.3   1 <1>  -0.4600 
  2 C       -1.0690     0.3430     0.6880 C.3   1 <1>   0.5300 
  3 C        1.2190     1.8300     0.8770 C.3   1 <1>   0.2110 
  4 N       -0.7810     0.9890     1.9720 N.am  1 <1>  -0.7300 
  5 C       -2.3340     0.9250     0.0100 C.3   1 <1>  -0.0800 
  6 C       -1.2220    -1.2040     0.7910 C.3   1 <1>   0.3430 
  7 C        0.3240     1.7500     2.1060 C.2   1 <1>   0.5690 
  8 C        1.2900     3.2150     0.2260 C.3   1 <1>  -0.2400 
  9 C       -2.5410     0.2500    -1.3680 C.3   1 <1>  -0.1600 
 10 C       -3.5670     0.5190     0.8540 C.3   1 <1>  -0.1600 
 11 N       -2.5520    -1.6750     0.2200 N.4   1 <1>  -0.9590 
 12 O        0.5710     2.3220     3.1350 O.2   1 <1>  -0.5700 
 13 C       -2.6140    -1.2860    -1.2320 C.3   1 <1>   0.3430 
 14 C       -3.6830    -1.0190     0.9640 C.3   1 <1>   0.3430 
 15 H        2.1960     1.4340     1.0880 H     1 <1>   0.0800 
 16 H       -1.4610     0.9910     2.7330 H     1 <1>   0.3700 
 17 H       -2.2580     1.9950    -0.0910 H     1 <1>   0.0800 
 18 H       -1.1440    -1.4920     1.8260 H     1 <1>   0.0800 
 19 H       -0.4140    -1.6660     0.2490 H     1 <1>   0.0800 
 20 H        0.3040     3.5710    -0.0160 H     1 <1>   0.0800 
 21 H        1.8810     3.1730    -0.6720 H     1 <1>   0.0800 
 22 H        1.7480     3.9110     0.9070 H     1 <1>   0.0800 
 23 H       -3.4510     0.6060    -1.8190 H     1 <1>   0.0800 
 24 H       -1.7480     0.5090    -2.0490 H     1 <1>   0.0800 
 25 H       -4.4650     0.9060     0.4030 H     1 <1>   0.0800 
 26 H       -3.5140     0.9460     1.8400 H     1 <1>   0.0800 
 27 H       -2.6240    -2.7000     0.3040 H     1 <1>   0.4500 
 28 H       -1.7900    -1.7330    -1.7660 H     1 <1>   0.0800 
 29 H       -3.5320    -1.6440    -1.6730 H     1 <1>   0.0800 
 30 H       -4.6270    -1.3390     0.5500 H     1 <1>   0.0800 
 31 H       -3.6590    -1.3110     2.0020 H     1 <1>   0.0800 
@<TRIPOS>BOND
  1   1   2  1   
  2   1   3  1   
  3   2   4  1   
  4   2   5  1   
  5   2   6  1   
  6   3   7  1   
  7   3   8  1   
  8   3  15  1   
  9   4   7  am  
 10   4  16  1   
 11   5   9  1   
 12   5  10  1   
 13   5  17  1   
 14   6  11  1   
 15   6  18  1   
 16   6  19  1   
 17   7  12  2   
 18   8  20  1   
 19   8  21  1   
 20   8  22  1   
 21   9  13  1   
 22   9  23  1   
 23   9  24  1   
 24  10  14  1   
 25  10  25  1   
 26  10  26  1   
 27  11  13  1   
 28  11  14  1   
 29  11  27  1   
 30  13  28  1   
 31  13  29  1   
 32  14  30  1   
 33  14  31  1   
@<TRIPOS>SUBSTRUCTURE
  1 ****   2 GROUP 4 **** **** 0

# MOE 2024.06 (io_trps.svl 2023.06)
