@<TRIPOS>MOLECULE
NONAME
48 49 1 0 0 
SMALL
USER_CHARGES


@<TRIPOS>ATOM
  1 S       -0.3380     1.2890    -1.6870 S.o2  1 <1>   1.4470 
  2 O       -0.6000     2.1880    -2.7910 O.2   1 <1>  -0.6500 
  3 O       -0.5260    -0.1330    -1.8710 O.2   1 <1>  -0.6500 
  4 N       -1.3770     1.7570    -0.4310 N.am  1 <1>  -0.8490 
  5 C        1.3080     1.5990    -0.9940 C.ar  1 <1>  -0.0090 
  6 C       -1.3580     3.2150    -0.2060 C.3   1 <1>   0.1960 
  7 C       -2.7550     1.3020    -0.6890 C.3   1 <1>   0.1960 
  8 C        1.6980     1.0030     0.1990 C.ar  1 <1>  -0.1500 
  9 C        2.2100     2.4470    -1.6260 C.ar  1 <1>  -0.1500 
 10 C       -2.2490     3.6190     0.9810 C.3   1 <1>   0.1400 
 11 C       -3.7010     1.6490     0.4740 C.3   1 <1>   0.1400 
 12 C        2.9450     1.2360     0.7550 C.ar  1 <1>  -0.1440 
 13 C        3.4640     2.6990    -1.0950 C.ar  1 <1>  -0.1430 
 14 N       -3.6360     3.1040     0.7980 N.am  1 <1>  -0.6600 
 15 C        3.8340     2.0760     0.0930 C.ar  1 <1>   0.0830 
 16 C        3.3090     0.5720     2.0760 C.3   1 <1>  -0.0970 
 17 C        4.4070     3.6510    -1.8180 C.3   1 <1>  -0.0970 
 18 C       -4.7280     3.9280     0.8270 C.2   1 <1>   0.7800 
 19 O        5.0600     2.3030     0.6140 O.3   1 <1>  -0.3630 
 20 O       -4.6390     5.1230     1.0360 O.2   1 <1>  -0.5700 
 21 O       -5.9240     3.3810     0.6110 O.3   1 <1>  -0.4300 
 22 C        6.0780     1.4130     0.2160 C.3   1 <1>   0.0400 
 23 C       -7.0920     4.1690     0.6230 C.3   1 <1>   0.1200 
 24 C       -8.2810     3.2560     0.3370 C.3   1 <1>  -0.2400 
 25 H       -1.7000     3.7320    -1.0880 H     1 <1>   0.0800 
 26 H       -0.3510     3.5390    -0.0030 H     1 <1>   0.0800 
 27 H       -2.7630     0.2340    -0.8240 H     1 <1>   0.0800 
 28 H       -3.1260     1.7520    -1.5950 H     1 <1>   0.0800 
 29 H        1.0030     0.3480     0.6960 H     1 <1>   0.1500 
 30 H        1.9190     2.9180    -2.5500 H     1 <1>   0.1500 
 31 H       -2.2520     4.6920     1.0720 H     1 <1>   0.0800 
 32 H       -1.8380     3.2120     1.8880 H     1 <1>   0.0800 
 33 H       -3.4120     1.0830     1.3420 H     1 <1>   0.0800 
 34 H       -4.7030     1.3590     0.2090 H     1 <1>   0.0800 
 35 H        2.4260     0.2700     2.6090 H     1 <1>   0.0800 
 36 H        3.8580     1.2570     2.6980 H     1 <1>   0.0800 
 37 H        3.9160    -0.2950     1.8950 H     1 <1>   0.0800 
 38 H        3.8700     4.2680    -2.5150 H     1 <1>   0.0800 
 39 H        5.1520     3.0930    -2.3540 H     1 <1>   0.0800 
 40 H        4.8970     4.2950    -1.1090 H     1 <1>   0.0800 
 41 H        6.9920     1.7100     0.6970 H     1 <1>   0.0800 
 42 H        6.1880     1.4630    -0.8520 H     1 <1>   0.0800 
 43 H        5.8080     0.4160     0.5160 H     1 <1>   0.0800 
 44 H       -6.9980     4.9300    -0.1340 H     1 <1>   0.0800 
 45 H       -7.1820     4.6310     1.5920 H     1 <1>   0.0800 
 46 H       -8.1700     2.7940    -0.6270 H     1 <1>   0.0800 
 47 H       -9.1880     3.8330     0.3390 H     1 <1>   0.0800 
 48 H       -8.3550     2.4980     1.0960 H     1 <1>   0.0800 
@<TRIPOS>BOND
  1   1   2  2   
  2   1   3  2   
  3   1   4  am  
  4   1   5  1   
  5   4   6  1   
  6   4   7  1   
  7   5   8  ar  
  8   5   9  ar  
  9   6  10  1   
 10   6  25  1   
 11   6  26  1   
 12   7  11  1   
 13   7  27  1   
 14   7  28  1   
 15   8  12  ar  
 16   8  29  1   
 17   9  13  ar  
 18   9  30  1   
 19  10  14  1   
 20  10  31  1   
 21  10  32  1   
 22  11  14  1   
 23  11  33  1   
 24  11  34  1   
 25  12  15  ar  
 26  12  16  1   
 27  13  15  ar  
 28  13  17  1   
 29  14  18  am  
 30  15  19  1   
 31  16  35  1   
 32  16  36  1   
 33  16  37  1   
 34  17  38  1   
 35  17  39  1   
 36  17  40  1   
 37  18  20  2   
 38  18  21  1   
 39  19  22  1   
 40  21  23  1   
 41  22  41  1   
 42  22  42  1   
 43  22  43  1   
 44  23  24  1   
 45  23  44  1   
 46  23  45  1   
 47  24  46  1   
 48  24  47  1   
 49  24  48  1   
@<TRIPOS>SUBSTRUCTURE
  1 ****   4 GROUP 4 **** **** 0

# MOE 2024.06 (io_trps.svl 2023.06)
