@<TRIPOS>MOLECULE
NONAME
50 51 1 0 0 
SMALL
USER_CHARGES


@<TRIPOS>ATOM
  1 S       -0.4520    -0.6770     0.8450 S.o2  1 <1>   1.4470 
  2 O       -0.2790    -1.4820     2.0350 O.2   1 <1>  -0.6500 
  3 O       -1.7850    -0.4590     0.3260 O.2   1 <1>  -0.6500 
  4 N        0.4470    -1.4290    -0.3830 N.am  1 <1>  -0.8490 
  5 C        0.3640     0.9310     1.0430 C.ar  1 <1>  -0.0090 
  6 C        1.6840    -2.0500     0.1580 C.3   1 <1>   0.2570 
  7 C       -0.3430    -2.4160    -1.1330 C.3   1 <1>   0.1160 
  8 C        1.2240     1.1850     2.1060 C.ar  1 <1>  -0.1500 
  9 C        0.1540     1.9530     0.1220 C.ar  1 <1>  -0.1500 
 10 C        2.7160    -2.4950    -0.8920 C.2   1 <1>   0.5690 
 11 C        1.8420     2.4140     2.2490 C.ar  1 <1>  -0.1500 
 12 C        0.7670     3.1870     0.2570 C.ar  1 <1>  -0.1500 
 13 O        2.6030    -3.5720    -1.4260 O.2   1 <1>  -0.5700 
 14 N        3.7740    -1.7010    -1.2080 N.am  1 <1>  -0.5470 
 15 C        1.6190     3.4240     1.3300 C.ar  1 <1>   0.0830 
 16 C        4.1630    -0.5000    -0.6050 C.ar  1 <1>   0.1170 
 17 O        2.2630     4.5980     1.5380 O.3   1 <1>  -0.3630 
 18 C        3.6770     0.7180    -1.0790 C.ar  1 <1>  -0.1430 
 19 C        5.0380    -0.5190     0.4810 C.ar  1 <1>  -0.1430 
 20 C        2.0800     5.7000     0.6770 C.3   1 <1>   0.0400 
 21 C        4.0630     1.8960    -0.4620 C.ar  1 <1>  -0.1500 
 22 C        2.7240     0.7830    -2.2660 C.3   1 <1>  -0.0970 
 23 C        5.4110     0.6710     1.0830 C.ar  1 <1>  -0.1500 
 24 C        5.5980    -1.8290     1.0240 C.3   1 <1>  -0.0970 
 25 C        4.9290     1.8800     0.6170 C.ar  1 <1>  -0.1430 
 26 C        5.3460     3.1740     1.2930 C.3   1 <1>  -0.0970 
 27 H        1.4220    -2.9130     0.7460 H     1 <1>   0.0800 
 28 H        2.1670    -1.3530     0.8200 H     1 <1>   0.0800 
 29 H       -1.2090    -1.9460    -1.5680 H     1 <1>   0.0800 
 30 H       -0.6710    -3.2090    -0.4810 H     1 <1>   0.0800 
 31 H        0.2370    -2.8370    -1.9360 H     1 <1>   0.0800 
 32 H        1.4110     0.4130     2.8340 H     1 <1>   0.1500 
 33 H       -0.5060     1.7750    -0.7110 H     1 <1>   0.1500 
 34 H        2.5040     2.5960     3.0760 H     1 <1>   0.1500 
 35 H        0.5700     3.9440    -0.4780 H     1 <1>   0.1500 
 36 H        4.3920    -2.0840    -1.9230 H     1 <1>   0.3700 
 37 H        2.6760     6.5140     1.0470 H     1 <1>   0.0800 
 38 H        1.0400     5.9770     0.6820 H     1 <1>   0.0800 
 39 H        2.4030     5.4280    -0.3120 H     1 <1>   0.0800 
 40 H        3.6850     2.8370    -0.8180 H     1 <1>   0.1500 
 41 H        2.4950     1.8010    -2.5230 H     1 <1>   0.0800 
 42 H        3.1690     0.3090    -3.1210 H     1 <1>   0.0800 
 43 H        1.8040     0.2800    -2.0300 H     1 <1>   0.0800 
 44 H        6.0840     0.6640     1.9220 H     1 <1>   0.1500 
 45 H        4.8010    -2.4420     1.4050 H     1 <1>   0.0800 
 46 H        6.2990    -1.6500     1.8190 H     1 <1>   0.0800 
 47 H        6.1060    -2.3650     0.2420 H     1 <1>   0.0800 
 48 H        5.0140     4.0260     0.7280 H     1 <1>   0.0800 
 49 H        6.4170     3.2170     1.3790 H     1 <1>   0.0800 
 50 H        4.9140     3.2280     2.2750 H     1 <1>   0.0800 
@<TRIPOS>BOND
  1   1   2  2   
  2   1   3  2   
  3   1   4  am  
  4   1   5  1   
  5   4   6  1   
  6   4   7  1   
  7   5   8  ar  
  8   5   9  ar  
  9   6  10  1   
 10   6  27  1   
 11   6  28  1   
 12   7  29  1   
 13   7  30  1   
 14   7  31  1   
 15   8  11  ar  
 16   8  32  1   
 17   9  12  ar  
 18   9  33  1   
 19  10  13  2   
 20  10  14  am  
 21  11  15  ar  
 22  11  34  1   
 23  12  15  ar  
 24  12  35  1   
 25  14  16  1   
 26  14  36  1   
 27  15  17  1   
 28  16  18  ar  
 29  16  19  ar  
 30  17  20  1   
 31  18  21  ar  
 32  18  22  1   
 33  19  23  ar  
 34  19  24  1   
 35  20  37  1   
 36  20  38  1   
 37  20  39  1   
 38  21  25  ar  
 39  21  40  1   
 40  22  41  1   
 41  22  42  1   
 42  22  43  1   
 43  23  25  ar  
 44  23  44  1   
 45  24  45  1   
 46  24  46  1   
 47  24  47  1   
 48  25  26  1   
 49  26  48  1   
 50  26  49  1   
 51  26  50  1   
@<TRIPOS>SUBSTRUCTURE
  1 ****  18 GROUP 4 **** **** 0

# MOE 2024.06 (io_trps.svl 2023.06)
