@<TRIPOS>MOLECULE
NONAME
37 39 1 0 0 
SMALL
USER_CHARGES


@<TRIPOS>ATOM
  1 N        0.3050    -0.3060    -0.5760 N.ar  1 <1>  -0.3100 
  2 N        1.5010     0.2030    -0.7790 N.ar  1 <1>  -0.3100 
  3 C        0.1310    -1.3200     0.2800 C.ar  1 <1>   0.4100 
  4 C        2.5540    -0.2900    -0.1310 C.ar  1 <1>   0.4100 
  5 N       -1.1510    -1.8450     0.4650 N.pl3 1 <1>  -0.8380 
  6 C        1.1930    -1.8520     0.9920 C.ar  1 <1>  -0.1500 
  7 N        3.7710     0.3150    -0.4110 N.pl3 1 <1>  -0.6000 
  8 C        2.4410    -1.3230     0.7820 C.ar  1 <1>  -0.1500 
  9 C       -2.3370    -1.1280    -0.0740 C.3   1 <1>   0.2090 
 10 C       -1.3470    -3.3090     0.3300 C.3   1 <1>   0.2090 
 11 C        5.0700    -0.1590    -0.2320 C.ar  1 <1>   0.1000 
 12 C       -3.4230    -2.1890    -0.1680 C.3   1 <1>  -0.1600 
 13 C       -2.6570    -3.4790    -0.4310 C.3   1 <1>  -0.1600 
 14 C        5.4050    -1.4850    -0.4850 C.ar  1 <1>  -0.1500 
 15 C        6.0670     0.7110     0.1900 C.ar  1 <1>  -0.1500 
 16 C        6.7000    -1.9420    -0.3080 C.ar  1 <1>  -0.1430 
 17 C        7.3640     0.2640     0.3680 C.ar  1 <1>  -0.1500 
 18 C        7.6790    -1.0610     0.1220 C.ar  1 <1>  -0.1500 
 19 C        7.0540    -3.3920    -0.5830 C.3   1 <1>  -0.0970 
 20 H        1.0290    -2.6480     1.6910 H     1 <1>   0.1500 
 21 H        3.6660     1.2000    -0.9100 H     1 <1>   0.4000 
 22 H        3.3020    -1.6850     1.3110 H     1 <1>   0.1500 
 23 H       -2.1240    -0.7420    -1.0570 H     1 <1>   0.0800 
 24 H       -2.6220    -0.3200     0.5780 H     1 <1>   0.0800 
 25 H       -1.4290    -3.7410     1.3130 H     1 <1>   0.0800 
 26 H       -0.5290    -3.7670    -0.2000 H     1 <1>   0.0800 
 27 H       -4.1340    -1.9650    -0.9420 H     1 <1>   0.0800 
 28 H       -3.9340    -2.2490     0.7770 H     1 <1>   0.0800 
 29 H       -3.1960    -4.3520    -0.1090 H     1 <1>   0.0800 
 30 H       -2.4390    -3.5660    -1.4810 H     1 <1>   0.0800 
 31 H        4.6400    -2.1570    -0.8300 H     1 <1>   0.1500 
 32 H        5.8240     1.7390     0.3850 H     1 <1>   0.1500 
 33 H        8.1280     0.9450     0.6990 H     1 <1>   0.1500 
 34 H        8.6900    -1.4030     0.2640 H     1 <1>   0.1500 
 35 H        6.2890    -3.8680    -1.1690 H     1 <1>   0.0800 
 36 H        7.1590    -3.9230     0.3460 H     1 <1>   0.0800 
 37 H        7.9820    -3.4500    -1.1250 H     1 <1>   0.0800 
@<TRIPOS>BOND
  1   1   2  ar  
  2   1   3  ar  
  3   2   4  ar  
  4   3   5  1   
  5   3   6  ar  
  6   4   7  1   
  7   4   8  ar  
  8   5   9  1   
  9   5  10  1   
 10   6   8  ar  
 11   6  20  1   
 12   7  11  1   
 13   7  21  1   
 14   8  22  1   
 15   9  12  1   
 16   9  23  1   
 17   9  24  1   
 18  10  13  1   
 19  10  25  1   
 20  10  26  1   
 21  11  14  ar  
 22  11  15  ar  
 23  12  13  1   
 24  12  27  1   
 25  12  28  1   
 26  13  29  1   
 27  13  30  1   
 28  14  16  ar  
 29  14  31  1   
 30  15  17  ar  
 31  15  32  1   
 32  16  18  ar  
 33  16  19  1   
 34  17  18  ar  
 35  17  33  1   
 36  18  34  1   
 37  19  35  1   
 38  19  36  1   
 39  19  37  1   
@<TRIPOS>SUBSTRUCTURE
  1 ****   8 GROUP 4 **** **** 0

# MOE 2024.06 (io_trps.svl 2023.06)
