@<TRIPOS>MOLECULE
NONAME
44 45 1 0 0 
SMALL
USER_CHARGES


@<TRIPOS>ATOM
  1 O       -0.1410    -3.7820     1.6370 O.2   1 <1>  -0.5700 
  2 C        0.1850    -3.3570     0.5510 C.2   1 <1>   0.5690 
  3 N       -0.7320    -2.7940    -0.3190 N.am  1 <1>  -0.6600 
  4 C        1.6420    -3.5920     0.1560 C.3   1 <1>   0.1810 
  5 C       -0.4720    -1.5880    -1.1660 C.3   1 <1>   0.2200 
  6 C       -2.1710    -3.2040    -0.3050 C.3   1 <1>   0.2200 
  7 O        2.4750    -2.4820     0.4510 O.3   1 <1>  -0.3630 
  8 C        0.4820    -1.8770    -2.3240 C.3   1 <1>  -0.2400 
  9 C       -0.0130    -0.4050    -0.3140 C.3   1 <1>  -0.2400 
 10 C       -2.9130    -2.5390     0.8550 C.3   1 <1>  -0.2400 
 11 C       -2.3250    -4.7260    -0.2860 C.3   1 <1>  -0.2400 
 12 C        3.7710    -2.4220     0.0510 C.ar  1 <1>   0.0820 
 13 C        4.4810    -1.2320     0.3590 C.ar  1 <1>   0.0000 
 14 C        4.3880    -3.4470    -0.6310 C.ar  1 <1>  -0.1500 
 15 C        5.8200    -1.1090    -0.0760 C.ar  1 <1>   0.0000 
 16 C        3.9200    -0.1570     1.0830 C.ar  1 <1>  -0.1500 
 17 C        5.7160    -3.3220    -1.0470 C.ar  1 <1>  -0.1500 
 18 C        6.4120    -2.1770    -0.7770 C.ar  1 <1>  -0.1500 
 19 C        6.5280     0.0770     0.2080 C.ar  1 <1>  -0.1500 
 20 C        4.6290     0.9820     1.3480 C.ar  1 <1>  -0.1500 
 21 C        5.9490     1.1020     0.9030 C.ar  1 <1>  -0.1500 
 22 H        1.6980    -3.8070    -0.8930 H     1 <1>   0.0800 
 23 H        2.0190    -4.4340     0.7070 H     1 <1>   0.0800 
 24 H       -1.4040    -1.2840    -1.6140 H     1 <1>   0.0800 
 25 H       -2.6310    -2.8730    -1.2210 H     1 <1>   0.0800 
 26 H        1.5040    -1.9070    -1.9960 H     1 <1>   0.0800 
 27 H        0.4070    -1.0870    -3.0490 H     1 <1>   0.0800 
 28 H        0.2200    -2.8020    -2.8040 H     1 <1>   0.0800 
 29 H        0.9630    -0.5690     0.0930 H     1 <1>   0.0800 
 30 H       -0.7050    -0.2380     0.4910 H     1 <1>   0.0800 
 31 H        0.0260     0.4830    -0.9180 H     1 <1>   0.0800 
 32 H       -2.5210    -2.8690     1.7990 H     1 <1>   0.0800 
 33 H       -3.9560    -2.7950     0.8160 H     1 <1>   0.0800 
 34 H       -2.8250    -1.4700     0.7910 H     1 <1>   0.0800 
 35 H       -2.0170    -5.1390     0.6570 H     1 <1>   0.0800 
 36 H       -1.7470    -5.1670    -1.0770 H     1 <1>   0.0800 
 37 H       -3.3570    -4.9860    -0.4350 H     1 <1>   0.0800 
 38 H        3.8860    -4.3660    -0.8650 H     1 <1>   0.1500 
 39 H        2.9080    -0.2480     1.4350 H     1 <1>   0.1500 
 40 H        6.1790    -4.1350    -1.5790 H     1 <1>   0.1500 
 41 H        7.4330    -2.0750    -1.0990 H     1 <1>   0.1500 
 42 H        7.5430     0.1620    -0.1340 H     1 <1>   0.1500 
 43 H        4.1860     1.7920     1.9000 H     1 <1>   0.1500 
 44 H        6.4940     2.0050     1.1170 H     1 <1>   0.1500 
@<TRIPOS>BOND
  1   1   2  2   
  2   2   3  am  
  3   2   4  1   
  4   3   5  1   
  5   3   6  1   
  6   4   7  1   
  7   4  22  1   
  8   4  23  1   
  9   5   8  1   
 10   5   9  1   
 11   5  24  1   
 12   6  10  1   
 13   6  11  1   
 14   6  25  1   
 15   7  12  1   
 16   8  26  1   
 17   8  27  1   
 18   8  28  1   
 19   9  29  1   
 20   9  30  1   
 21   9  31  1   
 22  10  32  1   
 23  10  33  1   
 24  10  34  1   
 25  11  35  1   
 26  11  36  1   
 27  11  37  1   
 28  12  13  ar  
 29  12  14  ar  
 30  13  15  ar  
 31  13  16  ar  
 32  14  17  ar  
 33  14  38  1   
 34  15  18  ar  
 35  15  19  ar  
 36  16  20  ar  
 37  16  39  1   
 38  17  18  ar  
 39  17  40  1   
 40  18  41  1   
 41  19  21  ar  
 42  19  42  1   
 43  20  21  ar  
 44  20  43  1   
 45  21  44  1   
@<TRIPOS>SUBSTRUCTURE
  1 ****   7 GROUP 4 **** **** 0

# MOE 2024.06 (io_trps.svl 2023.06)
