@<TRIPOS>MOLECULE
NONAME
35 36 1 0 0 
SMALL
USER_CHARGES


@<TRIPOS>ATOM
  1 F       -0.2950    -0.3280    -0.3830 F     1 <1>  -0.1900 
  2 C       -1.0350    -1.3120     0.0540 C.ar  1 <1>   0.1900 
  3 C       -2.4050    -1.2280    -0.0890 C.ar  1 <1>  -0.1500 
  4 C       -0.4120    -2.3960     0.6420 C.ar  1 <1>  -0.1500 
  5 C       -3.1980    -2.2720     0.3740 C.ar  1 <1>   0.1000 
  6 C       -1.2010    -3.4360     1.1050 C.ar  1 <1>  -0.1500 
  7 N       -4.5960    -2.2640     0.2680 N.pl3 1 <1>  -0.6000 
  8 C       -2.5790    -3.3680     0.9700 C.ar  1 <1>  -0.1500 
  9 C       -5.4320    -1.3930    -0.3670 C.2   1 <1>  -0.0500 
 10 C       -6.8070    -1.4680    -0.4080 C.2   1 <1>   0.0290 
 11 C       -7.5450    -0.4650    -1.1170 C.2   1 <1>   0.4950 
 12 C       -7.5410    -2.5220     0.2410 C.2   1 <1>   0.4950 
 13 O       -7.0190     0.4470    -1.7090 O.2   1 <1>  -0.5700 
 14 C       -9.0630    -0.4940    -1.1830 C.3   1 <1>  -0.0990 
 15 O       -7.0230    -3.4300     0.8520 O.2   1 <1>  -0.5700 
 16 C       -9.0590    -2.5710     0.1830 C.3   1 <1>  -0.0990 
 17 C       -9.7050    -1.1880     0.0260 C.3   1 <1>   0.0000 
 18 C       -9.5040    -0.3480     1.3020 C.3   1 <1>  -0.2400 
 19 C      -11.2140    -1.3480    -0.2140 C.3   1 <1>  -0.2400 
 20 H       -2.8330    -0.3610    -0.5500 H     1 <1>   0.1500 
 21 H        0.6590    -2.4210     0.7340 H     1 <1>   0.1500 
 22 H       -0.7450    -4.2940     1.5690 H     1 <1>   0.1500 
 23 H       -5.0700    -3.0520     0.7440 H     1 <1>   0.4000 
 24 H       -3.1840    -4.1800     1.3320 H     1 <1>   0.1500 
 25 H       -4.9540    -0.5760    -0.8820 H     1 <1>   0.1500 
 26 H       -9.4270     0.5160    -1.2560 H     1 <1>   0.0800 
 27 H       -9.3400    -1.0000    -2.0910 H     1 <1>   0.0800 
 28 H       -9.3330    -3.2030    -0.6430 H     1 <1>   0.0800 
 29 H       -9.4260    -3.0410     1.0790 H     1 <1>   0.0800 
 30 H       -8.4630    -0.1970     1.5280 H     1 <1>   0.0800 
 31 H       -9.9590    -0.8350     2.1480 H     1 <1>   0.0800 
 32 H       -9.9620     0.6190     1.1910 H     1 <1>   0.0800 
 33 H      -11.6820    -0.3870    -0.3370 H     1 <1>   0.0800 
 34 H      -11.6800    -1.8430     0.6210 H     1 <1>   0.0800 
 35 H      -11.4040    -1.9310    -1.0980 H     1 <1>   0.0800 
@<TRIPOS>BOND
  1   1   2  1   
  2   2   3  ar  
  3   2   4  ar  
  4   3   5  ar  
  5   3  20  1   
  6   4   6  ar  
  7   4  21  1   
  8   5   7  1   
  9   5   8  ar  
 10   6   8  ar  
 11   6  22  1   
 12   7   9  1   
 13   7  23  1   
 14   8  24  1   
 15   9  10  2   
 16   9  25  1   
 17  10  11  1   
 18  10  12  1   
 19  11  13  2   
 20  11  14  1   
 21  12  15  2   
 22  12  16  1   
 23  14  17  1   
 24  14  26  1   
 25  14  27  1   
 26  16  17  1   
 27  16  28  1   
 28  16  29  1   
 29  17  18  1   
 30  17  19  1   
 31  18  30  1   
 32  18  31  1   
 33  18  32  1   
 34  19  33  1   
 35  19  34  1   
 36  19  35  1   
@<TRIPOS>SUBSTRUCTURE
  1 ****   9 GROUP 4 **** **** 0

# MOE 2024.06 (io_trps.svl 2023.06)
