@<TRIPOS>MOLECULE
NONAME
35 36 1 0 0 
SMALL
USER_CHARGES


@<TRIPOS>ATOM
  1 CL      -1.3000    -0.1120     2.0170 Cl    1 <1>  -0.1770 
  2 C       -1.4820     1.4410     1.2320 C.ar  1 <1>   0.1770 
  3 C       -0.3770     2.1960     0.8800 C.ar  1 <1>   0.1900 
  4 C       -2.7530     1.9120     0.9620 C.ar  1 <1>  -0.1500 
  5 F        0.8290     1.7530     1.1330 F     1 <1>  -0.1900 
  6 C       -0.5170     3.4240     0.2620 C.ar  1 <1>  -0.1500 
  7 C       -2.9240     3.1440     0.3370 C.ar  1 <1>   0.1170 
  8 C       -1.7940     3.8910    -0.0040 C.ar  1 <1>  -0.1500 
  9 N       -4.2320     3.5910     0.0890 N.am  1 <1>  -0.5470 
 10 C       -4.7220     4.4820    -0.8290 C.2   1 <1>   0.5690 
 11 O       -4.0290     5.0440    -1.6410 O.2   1 <1>  -0.5700 
 12 C       -6.2120     4.7860    -0.8300 C.3   1 <1>   0.1310 
 13 S       -7.1910     3.4140    -0.0380 S.3   1 <1>  -0.2860 
 14 C       -8.8640     4.0670    -0.0710 C.2   1 <1>   0.2430 
 15 N       -9.1550     5.2380    -0.5090 N.2   1 <1>  -0.3380 
 16 N       -9.9200     3.3770     0.3580 N.pl3 1 <1>   0.0480 
 17 N      -10.4800     5.3530    -0.3740 N.2   1 <1>  -0.3380 
 18 C      -10.9190     4.2470     0.1370 C.2   1 <1>   0.0060 
 19 C       -9.9520     2.0090     0.9120 C.3   1 <1>   0.0160 
 20 C      -12.3800     3.9440     0.4560 C.3   1 <1>   0.0200 
 21 C      -13.3400     5.0560     0.0170 C.3   1 <1>  -0.2400 
 22 H       -3.6020     1.3160     1.2370 H     1 <1>   0.1500 
 23 H        0.3530     3.9980    -0.0040 H     1 <1>   0.1500 
 24 H       -1.9070     4.8490    -0.4800 H     1 <1>   0.1500 
 25 H       -4.9600     3.1280     0.6350 H     1 <1>   0.3700 
 26 H       -6.5730     4.8930    -1.8360 H     1 <1>   0.0800 
 27 H       -6.4110     5.6840    -0.2760 H     1 <1>   0.0800 
 28 H       -9.1210     1.8730     1.5790 H     1 <1>   0.0800 
 29 H       -9.8830     1.3000     0.1060 H     1 <1>   0.0800 
 30 H      -10.8660     1.8510     1.4530 H     1 <1>   0.0800 
 31 H      -12.4800     3.7980     1.5170 H     1 <1>   0.0800 
 32 H      -12.6620     3.0310    -0.0380 H     1 <1>   0.0800 
 33 H      -13.0950     5.9770     0.5170 H     1 <1>   0.0800 
 34 H      -14.3540     4.7910     0.2580 H     1 <1>   0.0800 
 35 H      -13.2650     5.2130    -1.0450 H     1 <1>   0.0800 
@<TRIPOS>BOND
  1   1   2  1   
  2   2   3  ar  
  3   2   4  ar  
  4   3   5  1   
  5   3   6  ar  
  6   4   7  ar  
  7   4  22  1   
  8   6   8  ar  
  9   6  23  1   
 10   7   8  ar  
 11   7   9  1   
 12   8  24  1   
 13   9  10  am  
 14   9  25  1   
 15  10  11  2   
 16  10  12  1   
 17  12  13  1   
 18  12  26  1   
 19  12  27  1   
 20  13  14  1   
 21  14  15  2   
 22  14  16  1   
 23  15  17  1   
 24  16  18  1   
 25  16  19  1   
 26  17  18  2   
 27  18  20  1   
 28  19  28  1   
 29  19  29  1   
 30  19  30  1   
 31  20  21  1   
 32  20  31  1   
 33  20  32  1   
 34  21  33  1   
 35  21  34  1   
 36  21  35  1   
@<TRIPOS>SUBSTRUCTURE
  1 ****  13 GROUP 4 **** **** 0

# MOE 2024.06 (io_trps.svl 2023.06)
