@<TRIPOS>MOLECULE
NONAME
37 38 1 0 0 
SMALL
USER_CHARGES


@<TRIPOS>ATOM
  1 O       -0.0800     0.1480    -0.7150 O.2   1 <1>  -0.5700 
  2 C        0.6530    -0.7900    -0.5160 C.2   1 <1>   0.5690 
  3 N        0.3370    -2.1160    -0.5570 N.am  1 <1>  -0.0840 
  4 C        2.1110    -0.6180    -0.1490 C.3   1 <1>  -0.0990 
  5 O       -0.9130    -2.6050    -0.9620 O.3   1 <1>  -0.3160 
  6 C        1.3960    -2.9150    -0.2420 C.2   1 <1>   0.5690 
  7 C        2.6180    -2.0660     0.0370 C.3   1 <1>  -0.0990 
  8 C       -1.7510    -2.7730     0.1620 C.3   1 <1>   0.1200 
  9 O        1.4110    -4.1190    -0.1600 O.2   1 <1>  -0.5700 
 10 C       -3.1100    -3.2680    -0.3170 C.3   1 <1>   0.1200 
 11 O       -3.9210    -3.4910     0.8170 O.3   1 <1>  -0.3630 
 12 C       -5.2290    -3.7520     0.5770 C.ar  1 <1>   0.0820 
 13 C       -6.1140    -2.7610     0.1440 C.ar  1 <1>   0.0820 
 14 C       -5.6790    -5.0430     0.7960 C.ar  1 <1>  -0.1500 
 15 O       -5.6360    -1.4950    -0.0290 O.3   1 <1>  -0.3630 
 16 C       -7.4460    -3.1010    -0.0840 C.ar  1 <1>  -0.1500 
 17 C       -7.0050    -5.3660     0.5680 C.ar  1 <1>  -0.1500 
 18 C       -6.4860    -0.4210    -0.3630 C.3   1 <1>   0.0400 
 19 C       -7.8910    -4.3980     0.1230 C.ar  1 <1>  -0.1440 
 20 C       -9.3460    -4.7540    -0.1270 C.3   1 <1>  -0.0970 
 21 H        2.1950    -0.0500     0.7600 H     1 <1>   0.0800 
 22 H        2.6310    -0.1170    -0.9450 H     1 <1>   0.0800 
 23 H        2.9620    -2.2390     1.0410 H     1 <1>   0.0800 
 24 H        3.3960    -2.3050    -0.6650 H     1 <1>   0.0800 
 25 H       -1.8590    -1.8230     0.6560 H     1 <1>   0.0800 
 26 H       -1.3010    -3.4980     0.8180 H     1 <1>   0.0800 
 27 H       -3.0150    -4.1990    -0.8460 H     1 <1>   0.0800 
 28 H       -3.5750    -2.5280    -0.9430 H     1 <1>   0.0800 
 29 H       -4.9880    -5.7890     1.1430 H     1 <1>   0.1500 
 30 H       -8.1500    -2.3670    -0.4220 H     1 <1>   0.1500 
 31 H       -7.3410    -6.3730     0.7390 H     1 <1>   0.1500 
 32 H       -5.8910     0.4730    -0.4040 H     1 <1>   0.0800 
 33 H       -7.2400    -0.3240     0.3980 H     1 <1>   0.0800 
 34 H       -6.9270    -0.6110    -1.3250 H     1 <1>   0.0800 
 35 H       -9.7370    -4.1800    -0.9480 H     1 <1>   0.0800 
 36 H       -9.9280    -4.5450     0.7520 H     1 <1>   0.0800 
 37 H       -9.4440    -5.7980    -0.3680 H     1 <1>   0.0800 
@<TRIPOS>BOND
  1   1   2  2   
  2   2   3  am  
  3   2   4  1   
  4   3   5  1   
  5   3   6  am  
  6   4   7  1   
  7   4  21  1   
  8   4  22  1   
  9   5   8  1   
 10   6   7  1   
 11   6   9  2   
 12   7  23  1   
 13   7  24  1   
 14   8  10  1   
 15   8  25  1   
 16   8  26  1   
 17  10  11  1   
 18  10  27  1   
 19  10  28  1   
 20  11  12  1   
 21  12  13  ar  
 22  12  14  ar  
 23  13  15  1   
 24  13  16  ar  
 25  14  17  ar  
 26  14  29  1   
 27  15  18  1   
 28  16  19  ar  
 29  16  30  1   
 30  17  19  ar  
 31  17  31  1   
 32  18  32  1   
 33  18  33  1   
 34  18  34  1   
 35  19  20  1   
 36  20  35  1   
 37  20  36  1   
 38  20  37  1   
@<TRIPOS>SUBSTRUCTURE
  1 ****  10 GROUP 4 **** **** 0

# MOE 2024.06 (io_trps.svl 2023.06)
