@<TRIPOS>MOLECULE
NONAME
33 33 1 0 0 
SMALL
USER_CHARGES


@<TRIPOS>ATOM
  1 O       -0.4040    -0.3190    -0.3620 O.2   1 <1>  -0.5700 
  2 C       -0.3920    -1.5150    -0.1500 C.2   1 <1>   0.5440 
  3 N        0.7760    -2.0970     0.2600 N.am  1 <1>  -0.7300 
  4 C       -1.5950    -2.3140    -0.3130 C.ar  1 <1>   0.0860 
  5 C        2.0610    -1.3950     0.4360 C.3   1 <1>   0.1400 
  6 C       -2.8550    -1.7710    -0.0700 C.ar  1 <1>  -0.1500 
  7 C       -1.5400    -3.6500    -0.7170 C.ar  1 <1>  -0.1500 
  8 C        3.1860    -2.3200    -0.0140 C.3   1 <1>  -0.2400 
  9 C       -4.0120    -2.5170    -0.2070 C.ar  1 <1>   0.0830 
 10 C       -2.6880    -4.4090    -0.8580 C.ar  1 <1>  -0.1500 
 11 O       -5.1810    -1.8840     0.0600 O.3   1 <1>  -0.3630 
 12 C       -3.9270    -3.8490    -0.6020 C.ar  1 <1>  -0.1500 
 13 C       -6.4240    -2.5230    -0.1290 C.3   1 <1>   0.2580 
 14 C       -7.5440    -1.5420     0.1970 C.2   1 <1>  -0.2760 
 15 C       -8.4380    -1.7460     1.1700 C.2   1 <1>  -0.3000 
 16 C       -7.5630    -0.3020    -0.6850 C.3   1 <1>  -0.1020 
 17 H        0.7590    -3.0660     0.5770 H     1 <1>   0.3700 
 18 H        2.1850    -1.1300     1.4720 H     1 <1>   0.0800 
 19 H        2.0690    -0.4910    -0.1520 H     1 <1>   0.0800 
 20 H       -2.9330    -0.7420     0.2330 H     1 <1>   0.1500 
 21 H       -0.5870    -4.0980    -0.9340 H     1 <1>   0.1500 
 22 H        3.2040    -3.2120     0.5840 H     1 <1>   0.0800 
 23 H        4.1290    -1.8170     0.0950 H     1 <1>   0.0800 
 24 H        3.0580    -2.5800    -1.0500 H     1 <1>   0.0800 
 25 H       -2.6190    -5.4370    -1.1690 H     1 <1>   0.1500 
 26 H       -4.8020    -4.4600    -0.7160 H     1 <1>   0.1500 
 27 H       -6.4670    -3.3760     0.5260 H     1 <1>   0.0800 
 28 H       -6.4920    -2.8420    -1.1540 H     1 <1>   0.0800 
 29 H       -9.2340    -1.0630     1.4120 H     1 <1>   0.1500 
 30 H       -8.4500    -2.6110     1.8110 H     1 <1>   0.1500 
 31 H       -7.6610    -0.5810    -1.7190 H     1 <1>   0.0800 
 32 H       -6.6510     0.2540    -0.5620 H     1 <1>   0.0800 
 33 H       -8.3870     0.3380    -0.4240 H     1 <1>   0.0800 
@<TRIPOS>BOND
  1   1   2  2   
  2   2   3  am  
  3   2   4  1   
  4   3   5  1   
  5   3  17  1   
  6   4   6  ar  
  7   4   7  ar  
  8   5   8  1   
  9   5  18  1   
 10   5  19  1   
 11   6   9  ar  
 12   6  20  1   
 13   7  10  ar  
 14   7  21  1   
 15   8  22  1   
 16   8  23  1   
 17   8  24  1   
 18   9  11  1   
 19   9  12  ar  
 20  10  12  ar  
 21  10  25  1   
 22  11  13  1   
 23  12  26  1   
 24  13  14  1   
 25  13  27  1   
 26  13  28  1   
 27  14  15  2   
 28  14  16  1   
 29  15  29  1   
 30  15  30  1   
 31  16  31  1   
 32  16  32  1   
 33  16  33  1   
@<TRIPOS>SUBSTRUCTURE
  1 ****   6 GROUP 4 **** **** 0

# MOE 2024.06 (io_trps.svl 2023.06)
