@<TRIPOS>MOLECULE
NONAME
41 43 1 0 0 
SMALL
USER_CHARGES


@<TRIPOS>ATOM
  1 O        0.7730     0.6930     1.5000 O.2   1 <1>  -0.5700 
  2 C        1.3770     0.7500     0.4450 C.2   1 <1>   0.7060 
  3 O        0.9580     1.6200    -0.4810 O.3   1 <1>  -0.4300 
  4 C        2.4980    -0.0850     0.1570 C.2   1 <1>  -0.1240 
  5 C       -0.1850     2.4280    -0.2780 C.3   1 <1>   0.0400 
  6 C        3.5710     0.1680    -0.6540 C.2   1 <1>  -0.0380 
  7 C        2.3850    -1.4380     0.8850 C.3   1 <1>   0.4570 
  8 N        4.5750    -0.7620    -0.8130 N.pl3 1 <1>  -0.5840 
  9 C        3.8130     1.4510    -1.4330 C.3   1 <1>  -0.1020 
 10 N        3.6250    -2.2390     0.7600 N.pl3 1 <1>   0.3140 
 11 C        1.2050    -2.2260     0.3110 C.ar  1 <1>  -0.1440 
 12 C        4.6140    -1.9180    -0.0480 C.2   1 <1>   0.2700 
 13 N        3.9620    -3.3540     1.3870 N.2   1 <1>  -0.4180 
 14 C        1.2210    -2.6770    -1.0040 C.ar  1 <1>  -0.1500 
 15 C        0.0910    -2.4890     1.0970 C.ar  1 <1>  -0.1500 
 16 N        5.5490    -2.7890     0.0290 N.2   1 <1>  -0.3380 
 17 N        5.1210    -3.6760     0.9300 N.2   1 <1>   0.0000 
 18 C        0.1450    -3.3770    -1.5160 C.ar  1 <1>  -0.1500 
 19 C       -0.9820    -3.1910     0.5790 C.ar  1 <1>  -0.1500 
 20 C       -0.9700    -3.6430    -0.7360 C.ar  1 <1>   0.1000 
 21 N       -2.0340    -4.3570    -1.2800 N.pl3 1 <1>  -0.8380 
 22 C       -1.8910    -5.8340    -1.3100 C.3   1 <1>   0.1290 
 23 C       -3.4160    -3.8670    -1.0430 C.3   1 <1>   0.1290 
 24 H       -0.3320     3.0360    -1.1530 H     1 <1>   0.0800 
 25 H       -0.0250     3.0510     0.5850 H     1 <1>   0.0800 
 26 H       -1.0390     1.7900    -0.1240 H     1 <1>   0.0800 
 27 H        2.2320    -1.2700     1.9350 H     1 <1>   0.0800 
 28 H        5.3860    -0.5920    -1.4180 H     1 <1>   0.4000 
 29 H        4.8520     1.7270    -1.3820 H     1 <1>   0.0800 
 30 H        3.2480     2.2750    -1.0400 H     1 <1>   0.0800 
 31 H        3.5440     1.3080    -2.4650 H     1 <1>   0.0800 
 32 H        2.0690    -2.4870    -1.6410 H     1 <1>   0.1500 
 33 H        0.0470    -2.1460     2.1160 H     1 <1>   0.1500 
 34 H        0.1540    -3.7250    -2.5320 H     1 <1>   0.1500 
 35 H       -1.8350    -3.3970     1.1960 H     1 <1>   0.1500 
 36 H       -0.8500    -6.1020    -1.3820 H     1 <1>   0.0800 
 37 H       -2.4110    -6.2320    -2.1640 H     1 <1>   0.0800 
 38 H       -2.2980    -6.2620    -0.4110 H     1 <1>   0.0800 
 39 H       -3.4110    -2.7950    -0.9450 H     1 <1>   0.0800 
 40 H       -3.8160    -4.3020    -0.1450 H     1 <1>   0.0800 
 41 H       -4.0410    -4.1330    -1.8780 H     1 <1>   0.0800 
@<TRIPOS>BOND
  1   1   2  2   
  2   2   3  1   
  3   2   4  1   
  4   3   5  1   
  5   4   6  2   
  6   4   7  1   
  7   5  24  1   
  8   5  25  1   
  9   5  26  1   
 10   6   8  1   
 11   6   9  1   
 12   7  10  1   
 13   7  11  1   
 14   7  27  1   
 15   8  12  1   
 16   8  28  1   
 17   9  29  1   
 18   9  30  1   
 19   9  31  1   
 20  10  12  1   
 21  10  13  1   
 22  11  14  ar  
 23  11  15  ar  
 24  12  16  2   
 25  13  17  2   
 26  14  18  ar  
 27  14  32  1   
 28  15  19  ar  
 29  15  33  1   
 30  16  17  1   
 31  18  20  ar  
 32  18  34  1   
 33  19  20  ar  
 34  19  35  1   
 35  20  21  1   
 36  21  22  1   
 37  21  23  1   
 38  22  36  1   
 39  22  37  1   
 40  22  38  1   
 41  23  39  1   
 42  23  40  1   
 43  23  41  1   
@<TRIPOS>SUBSTRUCTURE
  1 ****  11 GROUP 4 **** **** 0

# MOE 2024.06 (io_trps.svl 2023.06)
