@<TRIPOS>MOLECULE
NONAME
50 52 1 0 0 
SMALL
USER_CHARGES


@<TRIPOS>ATOM
  1 S        0.7650    -0.7620    -1.3260 S.o2  1 <1>   1.4470 
  2 O       -0.0480     0.1700    -2.0770 O.2   1 <1>  -0.6500 
  3 O        1.2720    -1.9360    -2.0060 O.2   1 <1>  -0.6500 
  4 N       -0.1770    -1.3340    -0.0370 N.am  1 <1>  -0.8490 
  5 C        2.1270     0.1250    -0.4960 C.ar  1 <1>  -0.0090 
  6 C        0.5130    -2.3800     0.7260 C.3   1 <1>   0.1960 
  7 C       -1.4820    -1.8050    -0.5070 C.3   1 <1>   0.1960 
  8 C        1.9470     1.3130     0.2180 C.ar  1 <1>  -0.1440 
  9 C        3.4090    -0.4090    -0.5490 C.ar  1 <1>  -0.1500 
 10 C       -0.3030    -2.7550     1.9670 C.3   1 <1>  -0.1600 
 11 C       -2.3750    -2.1720     0.6840 C.3   1 <1>  -0.1600 
 12 C        3.0270     1.9210     0.8390 C.ar  1 <1>  -0.1500 
 13 C        0.5790     1.9750     0.3450 C.3   1 <1>  -0.0970 
 14 C        4.5090     0.1820     0.0660 C.ar  1 <1>   0.0860 
 15 C       -1.7120    -3.2200     1.5840 C.3   1 <1>  -0.1600 
 16 C        4.2870     1.3640     0.7650 C.ar  1 <1>  -0.1500 
 17 C        5.8250    -0.4210    -0.0240 C.2   1 <1>   0.5440 
 18 O        5.9500    -1.6300    -0.0420 O.2   1 <1>  -0.5700 
 19 N        6.9390     0.3620    -0.1050 N.am  1 <1>  -0.7300 
 20 C        8.3220    -0.1240    -0.2380 C.3   1 <1>   0.2200 
 21 C        9.2030     0.6330     0.7490 C.3   1 <1>  -0.1600 
 22 C        8.8630     0.3090    -1.5940 C.3   1 <1>  -0.1600 
 23 C        9.5270     1.9740     0.0790 C.3   1 <1>  -0.1600 
 24 C        9.2970     1.7690    -1.4240 C.3   1 <1>  -0.1600 
 25 H        1.4800    -2.0260     1.0420 H     1 <1>   0.0800 
 26 H        0.6600    -3.2520     0.1080 H     1 <1>   0.0800 
 27 H       -1.3520    -2.6600    -1.1510 H     1 <1>   0.0800 
 28 H       -1.9690    -1.0290    -1.0740 H     1 <1>   0.0800 
 29 H        3.5730    -1.3280    -1.0890 H     1 <1>   0.1500 
 30 H       -0.3630    -1.8970     2.6130 H     1 <1>   0.0800 
 31 H        0.2040    -3.5380     2.5030 H     1 <1>   0.0800 
 32 H       -3.3160    -2.5480     0.3210 H     1 <1>   0.0800 
 33 H       -2.5750    -1.2790     1.2510 H     1 <1>   0.0800 
 34 H        2.8900     2.8370     1.3890 H     1 <1>   0.1500 
 35 H        0.2480     2.3290    -0.6150 H     1 <1>   0.0800 
 36 H        0.6140     2.8150     1.0150 H     1 <1>   0.0800 
 37 H       -0.1450     1.2790     0.7280 H     1 <1>   0.0800 
 38 H       -2.3040    -3.3740     2.4700 H     1 <1>   0.0800 
 39 H       -1.6490    -4.1570     1.0560 H     1 <1>   0.0800 
 40 H        5.1080     1.8480     1.2660 H     1 <1>   0.1500 
 41 H        6.8430     1.3700    -0.2150 H     1 <1>   0.3700 
 42 H        8.3710    -1.1920    -0.0970 H     1 <1>   0.0800 
 43 H       10.1160     0.0790     0.8780 H     1 <1>   0.0800 
 44 H        8.7340     0.7470     1.7100 H     1 <1>   0.0800 
 45 H        8.1410     0.1750    -2.3810 H     1 <1>   0.0800 
 46 H        9.7290    -0.2890    -1.8190 H     1 <1>   0.0800 
 47 H       10.5430     2.2670     0.2850 H     1 <1>   0.0800 
 48 H        8.8650     2.7390     0.4480 H     1 <1>   0.0800 
 49 H        8.5150     2.4260    -1.7650 H     1 <1>   0.0800 
 50 H       10.1900     1.9720    -1.9900 H     1 <1>   0.0800 
@<TRIPOS>BOND
  1   1   2  2   
  2   1   3  2   
  3   1   4  am  
  4   1   5  1   
  5   4   6  1   
  6   4   7  1   
  7   5   8  ar  
  8   5   9  ar  
  9   6  10  1   
 10   6  25  1   
 11   6  26  1   
 12   7  11  1   
 13   7  27  1   
 14   7  28  1   
 15   8  12  ar  
 16   8  13  1   
 17   9  14  ar  
 18   9  29  1   
 19  10  15  1   
 20  10  30  1   
 21  10  31  1   
 22  11  15  1   
 23  11  32  1   
 24  11  33  1   
 25  12  16  ar  
 26  12  34  1   
 27  13  35  1   
 28  13  36  1   
 29  13  37  1   
 30  14  16  ar  
 31  14  17  1   
 32  15  38  1   
 33  15  39  1   
 34  16  40  1   
 35  17  18  2   
 36  17  19  am  
 37  19  20  1   
 38  19  41  1   
 39  20  21  1   
 40  20  22  1   
 41  20  42  1   
 42  21  23  1   
 43  21  43  1   
 44  21  44  1   
 45  22  24  1   
 46  22  45  1   
 47  22  46  1   
 48  23  24  1   
 49  23  47  1   
 50  23  48  1   
 51  24  49  1   
 52  24  50  1   
@<TRIPOS>SUBSTRUCTURE
  1 ****   9 GROUP 4 **** **** 0

# MOE 2024.06 (io_trps.svl 2023.06)
