@<TRIPOS>MOLECULE
NONAME
44 46 1 0 0 
SMALL
USER_CHARGES


@<TRIPOS>ATOM
  1 BR      -0.6010    -0.7040    -1.7840 Br    1 <1>  -0.1110 
  2 C       -2.1660    -0.9190    -0.6870 C.ar  1 <1>   0.1110 
  3 C       -2.4250     0.0160     0.2950 C.ar  1 <1>  -0.1500 
  4 C       -2.9900    -2.0050    -0.9070 C.ar  1 <1>  -0.1500 
  5 C       -3.5550    -0.1400     1.0790 C.ar  1 <1>  -0.1500 
  6 C       -4.1180    -2.1530    -0.1180 C.ar  1 <1>  -0.1500 
  7 C       -4.4110    -1.2170     0.8690 C.ar  1 <1>  -0.1430 
  8 C       -5.6610    -1.3700     1.7120 C.3   1 <1>   0.4870 
  9 N       -6.8230    -0.9240     0.8820 N.4   1 <1>  -0.9590 
 10 C       -6.7350     0.5620     0.6390 C.3   1 <1>   0.3430 
 11 C       -8.1170    -1.3490     1.5200 C.3   1 <1>   0.3430 
 12 C       -7.9840     1.1310    -0.0740 C.3   1 <1>   0.0000 
 13 C       -9.3590    -0.7690     0.7980 C.3   1 <1>   0.0000 
 14 C       -8.0820     0.5620    -1.5170 C.3   1 <1>   0.3430 
 15 C       -9.2260     0.7670     0.7650 C.3   1 <1>  -0.1600 
 16 C       -7.8620     2.6630    -0.1440 C.3   1 <1>  -0.2400 
 17 C       -9.4780    -1.3580    -0.6370 C.3   1 <1>   0.3430 
 18 C      -10.6180    -1.1400     1.6000 C.3   1 <1>  -0.2400 
 19 N       -9.2760    -0.3270    -1.7070 N.4   1 <1>  -0.9060 
 20 H       -1.7490     0.8420     0.4410 H     1 <1>   0.1500 
 21 H       -2.7410    -2.7170    -1.6750 H     1 <1>   0.1500 
 22 H       -3.7470     0.5850     1.8530 H     1 <1>   0.1500 
 23 H       -4.7480    -3.0120    -0.2830 H     1 <1>   0.1500 
 24 H       -5.5830    -0.7780     2.6100 H     1 <1>   0.0800 
 25 H       -5.7730    -2.4060     1.9940 H     1 <1>   0.0800 
 26 H       -6.6820    -1.4110    -0.0100 H     1 <1>   0.4500 
 27 H       -5.8540     0.7870     0.0570 H     1 <1>   0.0800 
 28 H       -6.6310     1.0660     1.5870 H     1 <1>   0.0800 
 29 H       -8.1340    -1.0020     2.5420 H     1 <1>   0.0800 
 30 H       -8.1800    -2.4260     1.5440 H     1 <1>   0.0800 
 31 H       -8.1430     1.3830    -2.2150 H     1 <1>   0.0800 
 32 H       -7.1820     0.0150    -1.7490 H     1 <1>   0.0800 
 33 H      -10.1120     1.2170     0.3470 H     1 <1>   0.0800 
 34 H       -9.1240     1.1530     1.7680 H     1 <1>   0.0800 
 35 H       -6.9890     2.9610    -0.7010 H     1 <1>   0.0800 
 36 H       -7.7860     3.0900     0.8430 H     1 <1>   0.0800 
 37 H       -8.7250     3.0980    -0.6210 H     1 <1>   0.0800 
 38 H      -10.4580    -1.7950    -0.7560 H     1 <1>   0.0800 
 39 H       -8.7600    -2.1520    -0.7600 H     1 <1>   0.0800 
 40 H      -10.5670    -0.7480     2.6030 H     1 <1>   0.0800 
 41 H      -10.7370    -2.2090     1.6690 H     1 <1>   0.0800 
 42 H      -11.5040    -0.7360     1.1380 H     1 <1>   0.0800 
 43 H       -9.2500    -0.7710    -2.6390 H     1 <1>   0.4500 
 44 H      -10.1130     0.2750    -1.7250 H     1 <1>   0.4500 
@<TRIPOS>BOND
  1   1   2  1   
  2   2   3  ar  
  3   2   4  ar  
  4   3   5  ar  
  5   3  20  1   
  6   4   6  ar  
  7   4  21  1   
  8   5   7  ar  
  9   5  22  1   
 10   6   7  ar  
 11   6  23  1   
 12   7   8  1   
 13   8   9  1   
 14   8  24  1   
 15   8  25  1   
 16   9  10  1   
 17   9  11  1   
 18   9  26  1   
 19  10  12  1   
 20  10  27  1   
 21  10  28  1   
 22  11  13  1   
 23  11  29  1   
 24  11  30  1   
 25  12  14  1   
 26  12  15  1   
 27  12  16  1   
 28  13  15  1   
 29  13  17  1   
 30  13  18  1   
 31  14  19  1   
 32  14  31  1   
 33  14  32  1   
 34  15  33  1   
 35  15  34  1   
 36  16  35  1   
 37  16  36  1   
 38  16  37  1   
 39  17  19  1   
 40  17  38  1   
 41  17  39  1   
 42  18  40  1   
 43  18  41  1   
 44  18  42  1   
 45  19  43  1   
 46  19  44  1   
@<TRIPOS>SUBSTRUCTURE
  1 ****   9 GROUP 4 **** **** 0

# MOE 2024.06 (io_trps.svl 2023.06)
