@<TRIPOS>MOLECULE
NONAME
25 24 1 0 0 
SMALL
USER_CHARGES


@<TRIPOS>ATOM
  1 CL       0.5280    -0.5930     0.9290 Cl    1 <1>  -0.2900 
  2 C        0.5840    -1.5640    -0.5460 C.3   1 <1>   0.9310 
  3 CL       1.3480    -0.5520    -1.7670 Cl    1 <1>  -0.2900 
  4 CL       1.6780    -2.9020    -0.2170 Cl    1 <1>  -0.2900 
  5 C       -0.8320    -2.0360    -0.9580 C.2   1 <1>   0.5690 
  6 O       -0.9960    -2.5650    -2.0330 O.2   1 <1>  -0.5700 
  7 N       -1.8920    -1.8060    -0.1100 N.am  1 <1>  -0.4900 
  8 C       -3.0640    -2.4850    -0.0690 C.2   1 <1>   0.6900 
  9 O       -3.0710    -3.6870    -0.2080 O.2   1 <1>  -0.5700 
 10 N       -4.1820    -1.7710     0.2140 N.am  1 <1>  -0.7300 
 11 C       -5.5600    -2.2560     0.3480 C.3   1 <1>   0.3000 
 12 C       -6.0220    -2.8790    -0.9700 C.3   1 <1>  -0.2400 
 13 C       -5.6550    -3.2540     1.5030 C.3   1 <1>  -0.2400 
 14 C       -6.4200    -1.0330     0.6620 C.3   1 <1>  -0.2400 
 15 H       -1.7520    -1.1950     0.6900 H     1 <1>   0.3700 
 16 H       -4.1380    -0.7620     0.1030 H     1 <1>   0.3700 
 17 H       -5.4520    -3.7630    -1.1930 H     1 <1>   0.0800 
 18 H       -5.9110    -2.1810    -1.7790 H     1 <1>   0.0800 
 19 H       -7.0560    -3.1640    -0.9030 H     1 <1>   0.0800 
 20 H       -5.2820    -2.8180     2.4120 H     1 <1>   0.0800 
 21 H       -5.0930    -4.1440     1.2860 H     1 <1>   0.0800 
 22 H       -6.6780    -3.5430     1.6590 H     1 <1>   0.0800 
 23 H       -6.1000    -0.5700     1.5790 H     1 <1>   0.0800 
 24 H       -7.4480    -1.3260     0.7790 H     1 <1>   0.0800 
 25 H       -6.3680    -0.3150    -0.1370 H     1 <1>   0.0800 
@<TRIPOS>BOND
  1   1   2  1   
  2   2   3  1   
  3   2   4  1   
  4   2   5  1   
  5   5   6  2   
  6   5   7  am  
  7   7   8  am  
  8   7  15  1   
  9   8   9  2   
 10   8  10  am  
 11  10  11  1   
 12  10  16  1   
 13  11  12  1   
 14  11  13  1   
 15  11  14  1   
 16  12  17  1   
 17  12  18  1   
 18  12  19  1   
 19  13  20  1   
 20  13  21  1   
 21  13  22  1   
 22  14  23  1   
 23  14  24  1   
 24  14  25  1   
@<TRIPOS>SUBSTRUCTURE
  1 ****   7 GROUP 4 **** **** 0

# MOE 2024.06 (io_trps.svl 2023.06)
