@<TRIPOS>MOLECULE
NONAME
48 49 1 0 0 
SMALL
USER_CHARGES


@<TRIPOS>ATOM
  1 O        1.1650    -0.2230     0.6690 O.3   1 <1>  -0.5600 
  2 C        0.2560    -0.8060     1.5500 C.3   1 <1>   0.1200 
  3 C        2.3160    -0.9760     0.4590 C.3   1 <1>   0.1200 
  4 C       -0.9190     0.1530     1.7370 C.3   1 <1>   0.1200 
  5 C        3.2370    -0.1790    -0.4680 C.3   1 <1>   0.1100 
  6 O       -1.8810    -0.4480     2.5370 O.3   1 <1>  -0.6800 
  7 N        4.4990    -0.8980    -0.7510 N.3   1 <1>  -0.8100 
  8 C        4.3120    -2.0020    -1.7270 C.3   1 <1>   0.1100 
  9 C        5.5310     0.0490    -1.2460 C.3   1 <1>   0.1100 
 10 C        5.6320    -2.7530    -2.0300 C.3   1 <1>   0.3430 
 11 C        6.8620    -0.6500    -1.6150 C.3   1 <1>   0.3430 
 12 N        6.7940    -2.1220    -1.3260 N.4   1 <1>  -0.9590 
 13 C        8.0820    -2.8390    -1.5120 C.3   1 <1>   0.4860 
 14 C        9.1450    -2.1730    -0.6590 C.ar  1 <1>  -0.1430 
 15 C       10.1320    -1.4010    -1.2560 C.ar  1 <1>  -0.1500 
 16 C        9.1360    -2.3200     0.7220 C.ar  1 <1>  -0.1500 
 17 C       11.0880    -0.7750    -0.4780 C.ar  1 <1>  -0.1500 
 18 C       10.0940    -1.6930     1.4990 C.ar  1 <1>  -0.1500 
 19 C       11.0770    -0.9120     0.8990 C.ar  1 <1>   0.0830 
 20 O       12.0480    -0.2610     1.5840 O.3   1 <1>  -0.3620 
 21 C       12.1650    -0.3720     2.9850 C.3   1 <1>   0.0400 
 22 H        0.7460    -0.9750     2.4940 H     1 <1>   0.0800 
 23 H       -0.0800    -1.7360     1.1260 H     1 <1>   0.0800 
 24 H        2.0290    -1.9110     0.0130 H     1 <1>   0.0800 
 25 H        2.7990    -1.1410     1.4060 H     1 <1>   0.0800 
 26 H       -1.3700     0.4000     0.7920 H     1 <1>   0.0800 
 27 H       -0.5900     1.0500     2.2320 H     1 <1>   0.0800 
 28 H        3.4600     0.7510     0.0280 H     1 <1>   0.0800 
 29 H        2.7210     0.0430    -1.3870 H     1 <1>   0.0800 
 30 H       -2.3350    -1.1660     2.0550 H     1 <1>   0.4000 
 31 H        3.9110    -1.6090    -2.6470 H     1 <1>   0.0800 
 32 H        3.5980    -2.7100    -1.3440 H     1 <1>   0.0800 
 33 H        5.7310     0.7830    -0.4830 H     1 <1>   0.0800 
 34 H        5.1610     0.5770    -2.1090 H     1 <1>   0.0800 
 35 H        5.8000    -2.7540    -3.0950 H     1 <1>   0.0800 
 36 H        5.5270    -3.7780    -1.7150 H     1 <1>   0.0800 
 37 H        7.6580    -0.1980    -1.0450 H     1 <1>   0.0800 
 38 H        7.0730    -0.4870    -2.6580 H     1 <1>   0.0800 
 39 H        6.5410    -2.1470    -0.3270 H     1 <1>   0.4500 
 40 H        8.3760    -2.8100    -2.5480 H     1 <1>   0.0800 
 41 H        7.9790    -3.8690    -1.2140 H     1 <1>   0.0800 
 42 H       10.1740    -1.2780    -2.3250 H     1 <1>   0.1500 
 43 H        8.3880    -2.9220     1.2090 H     1 <1>   0.1500 
 44 H       11.8570    -0.1740    -0.9320 H     1 <1>   0.1500 
 45 H       10.0640    -1.8220     2.5650 H     1 <1>   0.1500 
 46 H       13.0150     0.2090     3.2960 H     1 <1>   0.0800 
 47 H       12.3160    -1.4050     3.2420 H     1 <1>   0.0800 
 48 H       11.2720     0.0140     3.4430 H     1 <1>   0.0800 
@<TRIPOS>BOND
  1   1   2  1   
  2   1   3  1   
  3   2   4  1   
  4   2  22  1   
  5   2  23  1   
  6   3   5  1   
  7   3  24  1   
  8   3  25  1   
  9   4   6  1   
 10   4  26  1   
 11   4  27  1   
 12   5   7  1   
 13   5  28  1   
 14   5  29  1   
 15   6  30  1   
 16   7   8  1   
 17   7   9  1   
 18   8  10  1   
 19   8  31  1   
 20   8  32  1   
 21   9  11  1   
 22   9  33  1   
 23   9  34  1   
 24  10  12  1   
 25  10  35  1   
 26  10  36  1   
 27  11  12  1   
 28  11  37  1   
 29  11  38  1   
 30  12  13  1   
 31  12  39  1   
 32  13  14  1   
 33  13  40  1   
 34  13  41  1   
 35  14  15  ar  
 36  14  16  ar  
 37  15  17  ar  
 38  15  42  1   
 39  16  18  ar  
 40  16  43  1   
 41  17  19  ar  
 42  17  44  1   
 43  18  19  ar  
 44  18  45  1   
 45  19  20  1   
 46  20  21  1   
 47  21  46  1   
 48  21  47  1   
 49  21  48  1   
@<TRIPOS>SUBSTRUCTURE
  1 ****  12 GROUP 4 **** **** 0

# MOE 2024.06 (io_trps.svl 2023.06)
