@<TRIPOS>MOLECULE
NONAME
33 33 1 0 0 
SMALL
USER_CHARGES


@<TRIPOS>ATOM
  1 P       -0.3500     0.5120     0.1580 P.3   1 <1>   1.2420 
  2 O        0.1880    -0.0860    -1.0650 O.2   1 <1>  -0.7000 
  3 O        0.6600     1.5870     0.7990 O.3   1 <1>  -0.5510 
  4 O       -1.6560     1.4040    -0.1240 O.3   1 <1>  -0.5510 
  5 C       -0.8230    -0.6120     1.5100 C.3   1 <1>   0.3440 
  6 C        1.9860     1.2500     1.0010 C.3   1 <1>   0.1200 
  7 C       -1.5950     2.4080    -1.0710 C.3   1 <1>   0.1200 
  8 O        0.1920    -1.4540     1.9970 O.3   1 <1>  -0.6800 
  9 C       -2.0150    -1.5140     1.1920 C.ar  1 <1>  -0.1430 
 10 C        2.6890     2.4690     1.5850 C.3   1 <1>  -0.2400 
 11 C       -2.9670     3.0680    -1.1360 C.3   1 <1>  -0.2400 
 12 C       -1.9160    -2.6110     0.3460 C.ar  1 <1>   0.1900 
 13 C       -3.2620    -1.2370     1.7390 C.ar  1 <1>  -0.1500 
 14 F       -0.7620    -2.9160    -0.1860 F     1 <1>  -0.1900 
 15 C       -2.9960    -3.4170     0.0370 C.ar  1 <1>  -0.1500 
 16 C       -4.3570    -2.0350     1.4430 C.ar  1 <1>  -0.1500 
 17 C       -4.2280    -3.1230     0.5940 C.ar  1 <1>  -0.1500 
 18 H       -1.0980    -0.0070     2.3540 H     1 <1>   0.0800 
 19 H        2.4190     0.9740     0.0520 H     1 <1>   0.0800 
 20 H        2.0380     0.4170     1.6810 H     1 <1>   0.0800 
 21 H       -1.3340     1.9690    -2.0210 H     1 <1>   0.0800 
 22 H       -0.8400     3.1180    -0.7770 H     1 <1>   0.0800 
 23 H        0.3370    -2.1700     1.3410 H     1 <1>   0.4000 
 24 H        2.6240     3.2960     0.9010 H     1 <1>   0.0800 
 25 H        3.7270     2.2430     1.7520 H     1 <1>   0.0800 
 26 H        2.2420     2.7400     2.5240 H     1 <1>   0.0800 
 27 H       -3.7120     2.3450    -1.4180 H     1 <1>   0.0800 
 28 H       -2.9570     3.8540    -1.8690 H     1 <1>   0.0800 
 29 H       -3.2200     3.4920    -0.1810 H     1 <1>   0.0800 
 30 H       -3.3950    -0.3950     2.3980 H     1 <1>   0.1500 
 31 H       -2.8710    -4.2550    -0.6240 H     1 <1>   0.1500 
 32 H       -5.3170    -1.8070     1.8750 H     1 <1>   0.1500 
 33 H       -5.0830    -3.7370     0.3680 H     1 <1>   0.1500 
@<TRIPOS>BOND
  1   1   2  2   
  2   1   3  1   
  3   1   4  1   
  4   1   5  1   
  5   3   6  1   
  6   4   7  1   
  7   5   8  1   
  8   5   9  1   
  9   5  18  1   
 10   6  10  1   
 11   6  19  1   
 12   6  20  1   
 13   7  11  1   
 14   7  21  1   
 15   7  22  1   
 16   8  23  1   
 17   9  12  ar  
 18   9  13  ar  
 19  10  24  1   
 20  10  25  1   
 21  10  26  1   
 22  11  27  1   
 23  11  28  1   
 24  11  29  1   
 25  12  14  1   
 26  12  15  ar  
 27  13  16  ar  
 28  13  30  1   
 29  15  17  ar  
 30  15  31  1   
 31  16  17  ar  
 32  16  32  1   
 33  17  33  1   
@<TRIPOS>SUBSTRUCTURE
  1 ****   5 GROUP 4 **** **** 0

# MOE 2024.06 (io_trps.svl 2023.06)
