@<TRIPOS>MOLECULE
NONAME
36 38 1 0 0 
SMALL
USER_CHARGES


@<TRIPOS>ATOM
  1 O        1.4640     0.8650    -0.7670 O.3   1 <1>  -0.5600 
  2 C        1.4270    -0.2500    -1.6100 C.3   1 <1>   0.1200 
  3 C        1.2990     0.5840     0.5920 C.3   1 <1>   0.1200 
  4 C        2.5390    -1.2460    -1.2280 C.3   1 <1>   0.3430 
  5 C        2.4100    -0.3670     1.0780 C.3   1 <1>   0.3430 
  6 N        2.4800    -1.6090     0.2330 N.4   1 <1>  -0.9590 
  7 C        3.6340    -2.4700     0.6130 C.3   1 <1>   0.4860 
  8 C        3.4770    -3.8330    -0.0440 C.ar  1 <1>  -0.1440 
  9 C        4.2100    -4.1300    -1.1730 C.ar  1 <1>   0.0820 
 10 C        2.5960    -4.8050     0.4870 C.ar  1 <1>   0.0000 
 11 O        5.0470    -3.2080    -1.6860 O.3   1 <1>  -0.5320 
 12 C        4.0920    -5.3610    -1.7920 C.ar  1 <1>  -0.0610 
 13 C        2.4760    -6.0530    -0.1780 C.ar  1 <1>   0.0890 
 14 C        1.8210    -4.6080     1.6550 C.ar  1 <1>  -0.1500 
 15 N        3.2510    -6.2960    -1.3200 N.ar  1 <1>   0.5710 
 16 C        1.5860    -7.0150     0.3210 C.ar  1 <1>  -0.1500 
 17 C        0.9630    -5.5680     2.1190 C.ar  1 <1>  -0.1500 
 18 O        3.1630    -7.3870    -1.9420 O.2   1 <1>  -0.7500 
 19 C        0.8380    -6.7820     1.4460 C.ar  1 <1>  -0.1500 
 20 H        1.5720     0.0980    -2.6180 H     1 <1>   0.0800 
 21 H        0.4540    -0.7050    -1.5420 H     1 <1>   0.0800 
 22 H        0.3230     0.1550     0.7420 H     1 <1>   0.0800 
 23 H        1.3480     1.5170     1.1270 H     1 <1>   0.0800 
 24 H        3.4910    -0.7940    -1.4530 H     1 <1>   0.0800 
 25 H        2.4460    -2.1320    -1.8330 H     1 <1>   0.0800 
 26 H        2.2310    -0.6270     2.1080 H     1 <1>   0.0800 
 27 H        3.3480     0.1620     1.0270 H     1 <1>   0.0800 
 28 H        1.6220    -2.1560     0.3770 H     1 <1>   0.4500 
 29 H        3.6740    -2.5940     1.6830 H     1 <1>   0.0800 
 30 H        4.5570    -2.0110     0.2960 H     1 <1>   0.0800 
 31 H        5.6140    -3.5440    -2.4140 H     1 <1>   0.4500 
 32 H        4.6510    -5.6240    -2.6690 H     1 <1>   0.1500 
 33 H        1.8970    -3.6940     2.2130 H     1 <1>   0.1500 
 34 H        1.4960    -7.9570    -0.1960 H     1 <1>   0.1500 
 35 H        0.3760    -5.4090     3.0080 H     1 <1>   0.1500 
 36 H        0.1590    -7.5310     1.8190 H     1 <1>   0.1500 
@<TRIPOS>BOND
  1   1   2  1   
  2   1   3  1   
  3   2   4  1   
  4   2  20  1   
  5   2  21  1   
  6   3   5  1   
  7   3  22  1   
  8   3  23  1   
  9   4   6  1   
 10   4  24  1   
 11   4  25  1   
 12   5   6  1   
 13   5  26  1   
 14   5  27  1   
 15   6   7  1   
 16   6  28  1   
 17   7   8  1   
 18   7  29  1   
 19   7  30  1   
 20   8   9  ar  
 21   8  10  ar  
 22   9  11  1   
 23   9  12  ar  
 24  10  13  ar  
 25  10  14  ar  
 26  11  31  1   
 27  12  15  ar  
 28  12  32  1   
 29  13  15  ar  
 30  13  16  ar  
 31  14  17  ar  
 32  14  33  1   
 33  15  18  2   
 34  16  19  ar  
 35  16  34  1   
 36  17  19  ar  
 37  17  35  1   
 38  19  36  1   
@<TRIPOS>SUBSTRUCTURE
  1 ****   8 GROUP 4 **** **** 0

# MOE 2024.06 (io_trps.svl 2023.06)
