@<TRIPOS>MOLECULE
NONAME
55 57 1 0 0 
SMALL
USER_CHARGES


@<TRIPOS>ATOM
  1 S       -3.3200     1.0420    -0.1580 S.o2  1 <1>   1.3330 
  2 O       -3.9330     2.1670     0.5030 O.2   1 <1>  -0.6500 
  3 O       -3.9800     0.3750    -1.2550 O.2   1 <1>  -0.6500 
  4 N       -2.9810    -0.1480     1.0560 N.am  1 <1>  -0.6930 
  5 C       -1.6870     1.5190    -0.6800 C.3   1 <1>  -0.1350 
  6 C       -3.0930    -1.5100     0.7810 C.ar  1 <1>   0.1990 
  7 C       -2.9540     0.3180     2.4670 C.3   1 <1>   0.1160 
  8 C       -4.1680    -2.2960     1.2340 C.ar  1 <1>   0.0860 
  9 C       -2.0980    -2.1100     0.0130 C.ar  1 <1>  -0.1500 
 10 C       -5.2380    -1.7540     2.0350 C.2   1 <1>   0.5440 
 11 C       -4.1990    -3.6480     0.8930 C.ar  1 <1>  -0.1500 
 12 C       -2.1490    -3.4490    -0.3160 C.ar  1 <1>  -0.1500 
 13 O       -5.1260    -1.7570     3.2480 O.2   1 <1>  -0.5700 
 14 N       -6.4000    -1.2700     1.4720 N.am  1 <1>  -0.6600 
 15 C       -3.2060    -4.2240     0.1260 C.ar  1 <1>  -0.1500 
 16 C       -7.5610    -0.8140     2.3030 C.3   1 <1>   0.1400 
 17 C       -6.6210    -1.1340    -0.0060 C.3   1 <1>   0.1400 
 18 C       -8.0470     0.5910     1.9060 C.3   1 <1>   0.2090 
 19 C       -7.1080     0.2740    -0.3960 C.3   1 <1>   0.2090 
 20 N       -8.2630     0.7190     0.4360 N.pl3 1 <1>  -0.8380 
 21 C       -9.5540     0.6080    -0.0820 C.ar  1 <1>   0.1000 
 22 C      -10.2310     1.7260    -0.5790 C.ar  1 <1>  -0.1430 
 23 C      -10.1780    -0.6330    -0.1110 C.ar  1 <1>  -0.1500 
 24 C      -11.5190     1.5860    -1.0920 C.ar  1 <1>  -0.1430 
 25 C       -9.5090     3.0740    -0.5350 C.3   1 <1>  -0.0970 
 26 C      -11.4530    -0.7720    -0.6190 C.ar  1 <1>  -0.1500 
 27 C      -12.1200     0.3360    -1.1070 C.ar  1 <1>  -0.1500 
 28 C      -12.3080     2.7640    -1.6480 C.3   1 <1>  -0.0970 
 29 H       -1.1240     1.8870     0.1550 H     1 <1>   0.0800 
 30 H       -1.7520     2.2930    -1.4180 H     1 <1>   0.0800 
 31 H       -1.1720     0.6820    -1.1070 H     1 <1>   0.0800 
 32 H       -2.2270     1.1030     2.5820 H     1 <1>   0.0800 
 33 H       -2.7010    -0.4950     3.1250 H     1 <1>   0.0800 
 34 H       -3.9240     0.6980     2.7420 H     1 <1>   0.0800 
 35 H       -1.2700    -1.5180    -0.3270 H     1 <1>   0.1500 
 36 H       -5.0200    -4.2500     1.2430 H     1 <1>   0.1500 
 37 H       -1.3700    -3.8940    -0.9120 H     1 <1>   0.1500 
 38 H       -3.2510    -5.2700    -0.1260 H     1 <1>   0.1500 
 39 H       -7.3000    -0.8040     3.3460 H     1 <1>   0.0800 
 40 H       -8.3700    -1.5110     2.1800 H     1 <1>   0.0800 
 41 H       -7.3620    -1.8490    -0.3130 H     1 <1>   0.0800 
 42 H       -5.7200    -1.3490    -0.5510 H     1 <1>   0.0800 
 43 H       -7.3130     1.3150     2.2120 H     1 <1>   0.0800 
 44 H       -8.9650     0.8120     2.4210 H     1 <1>   0.0800 
 45 H       -7.3890     0.2820    -1.4340 H     1 <1>   0.0800 
 46 H       -6.3050     0.9780    -0.2700 H     1 <1>   0.0800 
 47 H       -9.6570    -1.4900     0.2650 H     1 <1>   0.1500 
 48 H       -8.6040     3.0110    -1.1110 H     1 <1>   0.0800 
 49 H       -9.2450     3.3030     0.4820 H     1 <1>   0.0800 
 50 H      -10.0960     3.8840    -0.9190 H     1 <1>   0.0800 
 51 H      -11.9260    -1.7370    -0.6350 H     1 <1>   0.1500 
 52 H      -13.1130     0.2150    -1.5000 H     1 <1>   0.1500 
 53 H      -11.7780     3.2020    -2.4740 H     1 <1>   0.0800 
 54 H      -12.4470     3.5050    -0.8820 H     1 <1>   0.0800 
 55 H      -13.2760     2.4540    -1.9960 H     1 <1>   0.0800 
@<TRIPOS>BOND
  1   1   2  2   
  2   1   3  2   
  3   1   4  am  
  4   1   5  1   
  5   4   6  1   
  6   4   7  1   
  7   5  29  1   
  8   5  30  1   
  9   5  31  1   
 10   6   8  ar  
 11   6   9  ar  
 12   7  32  1   
 13   7  33  1   
 14   7  34  1   
 15   8  10  1   
 16   8  11  ar  
 17   9  12  ar  
 18   9  35  1   
 19  10  13  2   
 20  10  14  am  
 21  11  15  ar  
 22  11  36  1   
 23  12  15  ar  
 24  12  37  1   
 25  14  16  1   
 26  14  17  1   
 27  15  38  1   
 28  16  18  1   
 29  16  39  1   
 30  16  40  1   
 31  17  19  1   
 32  17  41  1   
 33  17  42  1   
 34  18  20  1   
 35  18  43  1   
 36  18  44  1   
 37  19  20  1   
 38  19  45  1   
 39  19  46  1   
 40  20  21  1   
 41  21  22  ar  
 42  21  23  ar  
 43  22  24  ar  
 44  22  25  1   
 45  23  26  ar  
 46  23  47  1   
 47  24  27  ar  
 48  24  28  1   
 49  25  48  1   
 50  25  49  1   
 51  25  50  1   
 52  26  27  ar  
 53  26  51  1   
 54  27  52  1   
 55  28  53  1   
 56  28  54  1   
 57  28  55  1   
@<TRIPOS>SUBSTRUCTURE
  1 ****  17 GROUP 4 **** **** 0

# MOE 2024.06 (io_trps.svl 2023.06)
