@<TRIPOS>MOLECULE
NONAME
39 41 1 0 0 
SMALL
USER_CHARGES


@<TRIPOS>ATOM
  1 S        0.6270    -0.1980    -0.7490 S.3   1 <1>  -0.2860 
  2 C       -1.1630    -0.3070    -0.8360 C.2   1 <1>   0.2420 
  3 C        1.1720    -1.6110    -1.8330 C.3   1 <1>   0.1310 
  4 N       -1.7910    -1.2150    -1.4960 N.2   1 <1>  -0.3380 
  5 N       -1.9650     0.5530    -0.2120 N.pl3 1 <1>   0.0480 
  6 C        2.6860    -1.7480    -1.8620 C.2   1 <1>   0.5690 
  7 N       -3.0900    -0.9600    -1.3090 N.2   1 <1>  -0.3380 
  8 C       -3.1750     0.0830    -0.5480 C.2   1 <1>   0.1010 
  9 C       -1.5960     1.7080     0.6300 C.3   1 <1>   0.0160 
 10 O        3.1920    -2.3500    -2.7780 O.2   1 <1>  -0.5700 
 11 N        3.4310    -1.2070    -0.8630 N.am  1 <1>  -0.7300 
 12 C       -4.4800     0.7110    -0.0870 C.3   1 <1>  -0.0150 
 13 C        4.8970    -1.2470    -0.7580 C.3   1 <1>   0.2200 
 14 C       -4.8830     0.6390     1.3550 C.3   1 <1>  -0.2000 
 15 C       -5.6270    -0.1580     0.3290 C.3   1 <1>  -0.2000 
 16 C        5.2740    -1.7860     0.6150 C.3   1 <1>  -0.1600 
 17 C        5.4240     0.1820    -0.7310 C.3   1 <1>  -0.1600 
 18 C        5.1520    -0.5990     1.5780 C.3   1 <1>  -0.1600 
 19 C        5.2450     0.6650     0.7130 C.3   1 <1>  -0.1600 
 20 H        0.7950    -1.4170    -2.8200 H     1 <1>   0.0800 
 21 H        0.7240    -2.5050    -1.4430 H     1 <1>   0.0800 
 22 H       -0.7890     2.2460     0.1670 H     1 <1>   0.0800 
 23 H       -1.2850     1.3560     1.5960 H     1 <1>   0.0800 
 24 H       -2.4390     2.3650     0.7420 H     1 <1>   0.0800 
 25 H        2.9660    -0.6680    -0.1310 H     1 <1>   0.3700 
 26 H       -4.7240     1.6000    -0.6410 H     1 <1>   0.1000 
 27 H        5.3230    -1.8290    -1.5610 H     1 <1>   0.0800 
 28 H       -5.3740     1.4850     1.8030 H     1 <1>   0.1000 
 29 H       -4.2590     0.1040     2.0510 H     1 <1>   0.1000 
 30 H       -5.4930    -1.2260     0.2950 H     1 <1>   0.1000 
 31 H       -6.6220     0.1420     0.0500 H     1 <1>   0.1000 
 32 H        6.3020    -2.1050     0.5840 H     1 <1>   0.0800 
 33 H        4.6650    -2.6240     0.9050 H     1 <1>   0.0800 
 34 H        4.9270     0.8120    -1.4480 H     1 <1>   0.0800 
 35 H        6.4740     0.1600    -0.9640 H     1 <1>   0.0800 
 36 H        5.9310    -0.6260     2.3210 H     1 <1>   0.0800 
 37 H        4.1970    -0.6280     2.0760 H     1 <1>   0.0800 
 38 H        4.3330     1.2310     0.7980 H     1 <1>   0.0800 
 39 H        6.0700     1.2880     1.0130 H     1 <1>   0.0800 
@<TRIPOS>BOND
  1   1   2  1   
  2   1   3  1   
  3   2   4  2   
  4   2   5  1   
  5   3   6  1   
  6   3  20  1   
  7   3  21  1   
  8   4   7  1   
  9   5   8  1   
 10   5   9  1   
 11   6  10  2   
 12   6  11  am  
 13   7   8  2   
 14   8  12  1   
 15   9  22  1   
 16   9  23  1   
 17   9  24  1   
 18  11  13  1   
 19  11  25  1   
 20  12  14  1   
 21  12  15  1   
 22  12  26  1   
 23  13  16  1   
 24  13  17  1   
 25  13  27  1   
 26  14  15  1   
 27  14  28  1   
 28  14  29  1   
 29  15  30  1   
 30  15  31  1   
 31  16  18  1   
 32  16  32  1   
 33  16  33  1   
 34  17  19  1   
 35  17  34  1   
 36  17  35  1   
 37  18  19  1   
 38  18  36  1   
 39  18  37  1   
 40  19  38  1   
 41  19  39  1   
@<TRIPOS>SUBSTRUCTURE
  1 ****   1 GROUP 4 **** **** 0

# MOE 2024.06 (io_trps.svl 2023.06)
