@<TRIPOS>MOLECULE
NONAME
28 29 1 0 0 
SMALL
USER_CHARGES


@<TRIPOS>ATOM
  1 S       -0.0500     0.0250     1.2680 S.o2  1 <1>   1.2040 
  2 O        0.7880     0.8870     2.0720 O.2   1 <1>  -0.6500 
  3 O       -0.3740    -1.2840     1.7940 O.2   1 <1>  -0.6500 
  4 C       -1.5530     0.9370     0.7160 C.ar  1 <1>   0.3010 
  5 C        0.8230    -0.2730    -0.2610 C.3   1 <1>  -0.1350 
  6 N       -2.7220     0.2880     0.7010 N.ar  1 <1>  -0.6200 
  7 C       -1.4540     2.2690     0.3050 C.ar  1 <1>   0.0730 
  8 C       -3.8070     0.9430     0.3300 C.ar  1 <1>   0.1660 
  9 C       -0.2050     2.9640     0.2210 C.1   1 <1>   0.4840 
 10 C       -2.6000     2.9460    -0.0770 C.ar  1 <1>  -0.1500 
 11 C       -3.8010     2.2740    -0.0600 C.ar  1 <1>  -0.1440 
 12 C       -5.0980     0.1360     0.3790 C.3   1 <1>  -0.0170 
 13 N        0.7870     3.5030     0.0660 N.1   1 <1>  -0.5570 
 14 C       -5.0690     3.0070    -0.4860 C.3   1 <1>  -0.0160 
 15 C       -6.2650     0.7990    -0.3660 C.3   1 <1>  -0.1600 
 16 C       -6.3420     2.2890    -0.0250 C.3   1 <1>  -0.1600 
 17 H        0.2110    -0.8390    -0.9350 H     1 <1>   0.0800 
 18 H        1.7160    -0.8340    -0.0630 H     1 <1>   0.0800 
 19 H        1.1050     0.6490    -0.7310 H     1 <1>   0.0800 
 20 H       -2.5520     3.9770    -0.3880 H     1 <1>   0.1500 
 21 H       -5.3650     0.0060     1.4130 H     1 <1>   0.0800 
 22 H       -4.9230    -0.8410    -0.0360 H     1 <1>   0.0800 
 23 H       -5.0760     3.0800    -1.5600 H     1 <1>   0.0800 
 24 H       -5.0660     4.0070    -0.0880 H     1 <1>   0.0800 
 25 H       -7.1860     0.3100    -0.0970 H     1 <1>   0.0800 
 26 H       -6.1240     0.6810    -1.4270 H     1 <1>   0.0800 
 27 H       -7.1980     2.7320    -0.5040 H     1 <1>   0.0800 
 28 H       -6.4570     2.4090     1.0390 H     1 <1>   0.0800 
@<TRIPOS>BOND
  1   1   2  2   
  2   1   3  2   
  3   1   4  1   
  4   1   5  1   
  5   4   6  ar  
  6   4   7  ar  
  7   5  17  1   
  8   5  18  1   
  9   5  19  1   
 10   6   8  ar  
 11   7   9  1   
 12   7  10  ar  
 13   8  11  ar  
 14   8  12  1   
 15   9  13  3   
 16  10  11  ar  
 17  10  20  1   
 18  11  14  1   
 19  12  15  1   
 20  12  21  1   
 21  12  22  1   
 22  14  16  1   
 23  14  23  1   
 24  14  24  1   
 25  15  16  1   
 26  15  25  1   
 27  15  26  1   
 28  16  27  1   
 29  16  28  1   
@<TRIPOS>SUBSTRUCTURE
  1 ****   4 GROUP 4 **** **** 0

# MOE 2024.06 (io_trps.svl 2023.06)
