@<TRIPOS>MOLECULE
NONAME
39 39 1 0 0 
SMALL
USER_CHARGES


@<TRIPOS>ATOM
  1 O       -1.1360     3.8430     1.8210 O.2   1 <1>  -0.5700 
  2 C       -0.4340     3.0560     1.2120 C.2   1 <1>   0.5440 
  3 N       -1.0400     1.9270     0.7500 N.am  1 <1>  -0.7300 
  4 C        0.9850     3.3210     1.0130 C.ar  1 <1>   0.0860 
  5 C       -2.5080     1.6520     0.7820 C.3   1 <1>   0.2010 
  6 C        1.7920     2.6600     0.0660 C.ar  1 <1>   0.0830 
  7 C        1.6070     4.2940     1.8040 C.ar  1 <1>  -0.1500 
  8 C       -2.9790     0.6810    -0.3020 C.2   1 <1>   0.6590 
  9 O        1.2270     1.7170    -0.7310 O.3   1 <1>  -0.3630 
 10 C        3.1440     2.9730    -0.0500 C.ar  1 <1>  -0.1500 
 11 C        2.9460     4.6040     1.6850 C.ar  1 <1>  -0.1500 
 12 O       -2.2110     0.0600    -0.9960 O.2   1 <1>  -0.5700 
 13 O       -4.2960     0.5540    -0.4290 O.3   1 <1>  -0.4300 
 14 C        1.9270     1.0210    -1.7360 C.3   1 <1>   0.1200 
 15 C        3.7280     3.9370     0.7490 C.ar  1 <1>   0.0830 
 16 C       -4.8700    -0.3080    -1.3900 C.3   1 <1>   0.0400 
 17 C        0.9460     0.0670    -2.4100 C.3   1 <1>  -0.2400 
 18 O        5.0460     4.1730     0.5620 O.3   1 <1>  -0.3630 
 19 C        5.7430     5.1370     1.3170 C.3   1 <1>   0.1200 
 20 C        7.1950     5.1430     0.8510 C.3   1 <1>  -0.2400 
 21 H       -0.5020     1.3340     0.1010 H     1 <1>   0.3700 
 22 H       -3.0420     2.5780     0.6650 H     1 <1>   0.0800 
 23 H       -2.7610     1.2410     1.7420 H     1 <1>   0.0800 
 24 H        1.0170     4.8210     2.5350 H     1 <1>   0.1500 
 25 H        3.7790     2.4820    -0.7610 H     1 <1>   0.1500 
 26 H        3.3620     5.3600     2.3230 H     1 <1>   0.1500 
 27 H        2.7340     0.4760    -1.2780 H     1 <1>   0.0800 
 28 H        2.3100     1.7370    -2.4440 H     1 <1>   0.0800 
 29 H       -5.9410    -0.2460    -1.3100 H     1 <1>   0.0800 
 30 H       -4.5410    -1.3140    -1.1960 H     1 <1>   0.0800 
 31 H       -4.5530     0.0030    -2.3710 H     1 <1>   0.0800 
 32 H        0.5590    -0.6350    -1.6930 H     1 <1>   0.0800 
 33 H        1.4430    -0.4780    -3.1910 H     1 <1>   0.0800 
 34 H        0.1290     0.6180    -2.8420 H     1 <1>   0.0800 
 35 H        5.6780     4.8670     2.3580 H     1 <1>   0.0800 
 36 H        5.2850     6.0970     1.1500 H     1 <1>   0.0800 
 37 H        7.6380     4.1750     1.0070 H     1 <1>   0.0800 
 38 H        7.7550     5.8710     1.4100 H     1 <1>   0.0800 
 39 H        7.2470     5.3980    -0.1920 H     1 <1>   0.0800 
@<TRIPOS>BOND
  1   1   2  2   
  2   2   3  am  
  3   2   4  1   
  4   3   5  1   
  5   3  21  1   
  6   4   6  ar  
  7   4   7  ar  
  8   5   8  1   
  9   5  22  1   
 10   5  23  1   
 11   6   9  1   
 12   6  10  ar  
 13   7  11  ar  
 14   7  24  1   
 15   8  12  2   
 16   8  13  1   
 17   9  14  1   
 18  10  15  ar  
 19  10  25  1   
 20  11  15  ar  
 21  11  26  1   
 22  13  16  1   
 23  14  17  1   
 24  14  27  1   
 25  14  28  1   
 26  15  18  1   
 27  16  29  1   
 28  16  30  1   
 29  16  31  1   
 30  17  32  1   
 31  17  33  1   
 32  17  34  1   
 33  18  19  1   
 34  19  20  1   
 35  19  35  1   
 36  19  36  1   
 37  20  37  1   
 38  20  38  1   
 39  20  39  1   
@<TRIPOS>SUBSTRUCTURE
  1 ****   6 GROUP 4 **** **** 0

# MOE 2024.06 (io_trps.svl 2023.06)
