@<TRIPOS>MOLECULE
NONAME
39 40 1 0 0 
SMALL
USER_CHARGES


@<TRIPOS>ATOM
  1 S       -0.4160     0.1600     0.0860 S.o2  1 <1>   1.4470 
  2 O       -1.0630    -0.9200    -0.6240 O.2   1 <1>  -0.6500 
  3 O       -0.8350     0.5120     1.4230 O.2   1 <1>  -0.6500 
  4 N       -0.7100     1.4970    -0.8870 N.am  1 <1>  -0.9140 
  5 C        1.3880    -0.0090     0.0170 C.ar  1 <1>  -0.0090 
  6 C       -2.0040     2.1250    -0.6320 C.3   1 <1>   0.1160 
  7 C        2.2170     0.9880     0.5180 C.ar  1 <1>  -0.1500 
  8 C        1.9940    -1.1280    -0.5410 C.ar  1 <1>  -0.1500 
  9 C        3.5940     0.8710     0.4660 C.ar  1 <1>  -0.1500 
 10 C        3.3710    -1.2470    -0.5970 C.ar  1 <1>  -0.1500 
 11 C        4.1980    -0.2500    -0.0900 C.ar  1 <1>   0.1170 
 12 N        5.5970    -0.3090    -0.1250 N.am  1 <1>  -0.5470 
 13 C        6.4750    -1.3490    -0.2750 C.2   1 <1>   0.6900 
 14 O        6.0790    -2.4890    -0.4300 O.2   1 <1>  -0.5700 
 15 N        7.8220    -1.0850    -0.2500 N.am  1 <1>  -0.6600 
 16 C        8.7820    -2.1590    -0.6500 C.3   1 <1>   0.1400 
 17 C        8.4090     0.1930     0.2580 C.3   1 <1>   0.1400 
 18 C       10.0880    -1.5500    -1.1720 C.3   1 <1>  -0.1600 
 19 C        9.7880    -0.0490     0.8790 C.3   1 <1>  -0.1600 
 20 C       10.7810    -0.6630    -0.1230 C.3   1 <1>  -0.1600 
 21 H       -0.7420     1.0980    -1.8250 H     1 <1>   0.4200 
 22 H       -2.0250     2.5370     0.3640 H     1 <1>   0.0800 
 23 H       -2.7980     1.4020    -0.7270 H     1 <1>   0.0800 
 24 H       -2.1670     2.9230    -1.3370 H     1 <1>   0.0800 
 25 H        1.7710     1.8660     0.9570 H     1 <1>   0.1500 
 26 H        1.3820    -1.9200    -0.9390 H     1 <1>   0.1500 
 27 H        4.2040     1.6600     0.8670 H     1 <1>   0.1500 
 28 H        3.7990    -2.1260    -1.0430 H     1 <1>   0.1500 
 29 H        6.0710     0.5770    -0.0100 H     1 <1>   0.3700 
 30 H        8.3410    -2.7710    -1.4190 H     1 <1>   0.0800 
 31 H        8.9810    -2.7850     0.2020 H     1 <1>   0.0800 
 32 H        7.7640     0.6210     1.0070 H     1 <1>   0.0800 
 33 H        8.5000     0.8860    -0.5610 H     1 <1>   0.0800 
 34 H        9.8580    -0.9650    -2.0450 H     1 <1>   0.0800 
 35 H       10.7550    -2.3360    -1.4780 H     1 <1>   0.0800 
 36 H        9.6660    -0.7140     1.7180 H     1 <1>   0.0800 
 37 H       10.1850     0.8760     1.2580 H     1 <1>   0.0800 
 38 H       11.3150     0.1200    -0.6330 H     1 <1>   0.0800 
 39 H       11.5040    -1.2460     0.4230 H     1 <1>   0.0800 
@<TRIPOS>BOND
  1   1   2  2   
  2   1   3  2   
  3   1   4  am  
  4   1   5  1   
  5   4   6  1   
  6   4  21  1   
  7   5   7  ar  
  8   5   8  ar  
  9   6  22  1   
 10   6  23  1   
 11   6  24  1   
 12   7   9  ar  
 13   7  25  1   
 14   8  10  ar  
 15   8  26  1   
 16   9  11  ar  
 17   9  27  1   
 18  10  11  ar  
 19  10  28  1   
 20  11  12  1   
 21  12  13  am  
 22  12  29  1   
 23  13  14  2   
 24  13  15  am  
 25  15  16  1   
 26  15  17  1   
 27  16  18  1   
 28  16  30  1   
 29  16  31  1   
 30  17  19  1   
 31  17  32  1   
 32  17  33  1   
 33  18  20  1   
 34  18  34  1   
 35  18  35  1   
 36  19  20  1   
 37  19  36  1   
 38  19  37  1   
 39  20  38  1   
 40  20  39  1   
@<TRIPOS>SUBSTRUCTURE
  1 ****  11 GROUP 4 **** **** 0

# MOE 2024.06 (io_trps.svl 2023.06)
