@<TRIPOS>MOLECULE
NONAME
39 40 1 0 0 
SMALL
USER_CHARGES


@<TRIPOS>ATOM
  1 O       -1.9290    -4.7720    -2.8750 O.2   1 <1>  -0.5700 
  2 C       -1.5610    -4.1650    -1.8980 C.2   1 <1>   0.5690 
  3 N       -2.4330    -3.9300    -0.8540 N.am  1 <1>  -0.6600 
  4 C       -0.1180    -3.6570    -1.9000 C.3   1 <1>   0.1810 
  5 C       -2.1270    -3.0650     0.3300 C.3   1 <1>   0.1400 
  6 C       -3.7460    -4.6490    -0.7910 C.3   1 <1>   0.1400 
  7 O        0.5310    -3.9280    -0.6660 O.3   1 <1>  -0.3620 
  8 C       -3.3180    -2.1540     0.6950 C.3   1 <1>   0.3430 
  9 C       -4.8970    -3.6940    -0.4340 C.3   1 <1>   0.3430 
 10 C        1.7910    -3.4870    -0.4250 C.ar  1 <1>   0.0820 
 11 N       -4.6110    -2.9160     0.8240 N.4   1 <1>  -0.9590 
 12 C        2.3160    -3.7580     0.8280 C.ar  1 <1>  -0.1500 
 13 C        2.5600    -2.7910    -1.3550 C.ar  1 <1>  -0.1500 
 14 C       -5.7450    -2.0040     1.1620 C.3   1 <1>   0.2630 
 15 C        3.5900    -3.3360     1.1700 C.ar  1 <1>  -0.1440 
 16 C        3.8330    -2.3690    -1.0160 C.ar  1 <1>  -0.1500 
 17 C        4.3460    -2.6400     0.2410 C.ar  1 <1>  -0.1500 
 18 C        4.1620    -3.6360     2.5440 C.3   1 <1>  -0.0970 
 19 H       -0.1140    -2.5960    -2.0660 H     1 <1>   0.0800 
 20 H        0.4320    -4.1510    -2.6800 H     1 <1>   0.0800 
 21 H       -1.2770    -2.4370     0.1300 H     1 <1>   0.0800 
 22 H       -1.8760    -3.6920     1.1680 H     1 <1>   0.0800 
 23 H       -3.6810    -5.4330    -0.0560 H     1 <1>   0.0800 
 24 H       -3.9690    -5.1160    -1.7360 H     1 <1>   0.0800 
 25 H       -3.4180    -1.4060    -0.0740 H     1 <1>   0.0800 
 26 H       -3.0980    -1.6460     1.6200 H     1 <1>   0.0800 
 27 H       -5.8020    -4.2670    -0.3140 H     1 <1>   0.0800 
 28 H       -5.0430    -3.0150    -1.2580 H     1 <1>   0.0800 
 29 H       -4.4930    -3.5980     1.5870 H     1 <1>   0.4500 
 30 H        1.7200    -4.3070     1.5340 H     1 <1>   0.1500 
 31 H        2.1960    -2.5700    -2.3390 H     1 <1>   0.1500 
 32 H       -5.8920    -1.2800     0.3760 H     1 <1>   0.0800 
 33 H       -5.5440    -1.4790     2.0810 H     1 <1>   0.0800 
 34 H       -6.6560    -2.5680     1.2840 H     1 <1>   0.0800 
 35 H        4.4310    -1.8310    -1.7320 H     1 <1>   0.1500 
 36 H        5.3390    -2.3080     0.4920 H     1 <1>   0.1500 
 37 H        3.3750    -3.8450     3.2460 H     1 <1>   0.0800 
 38 H        4.7250    -2.7950     2.9050 H     1 <1>   0.0800 
 39 H        4.8110    -4.4910     2.4870 H     1 <1>   0.0800 
@<TRIPOS>BOND
  1   1   2  2   
  2   2   3  am  
  3   2   4  1   
  4   3   5  1   
  5   3   6  1   
  6   4   7  1   
  7   4  19  1   
  8   4  20  1   
  9   5   8  1   
 10   5  21  1   
 11   5  22  1   
 12   6   9  1   
 13   6  23  1   
 14   6  24  1   
 15   7  10  1   
 16   8  11  1   
 17   8  25  1   
 18   8  26  1   
 19   9  11  1   
 20   9  27  1   
 21   9  28  1   
 22  10  12  ar  
 23  10  13  ar  
 24  11  14  1   
 25  11  29  1   
 26  12  15  ar  
 27  12  30  1   
 28  13  16  ar  
 29  13  31  1   
 30  14  32  1   
 31  14  33  1   
 32  14  34  1   
 33  15  17  ar  
 34  15  18  1   
 35  16  17  ar  
 36  16  35  1   
 37  17  36  1   
 38  18  37  1   
 39  18  38  1   
 40  18  39  1   
@<TRIPOS>SUBSTRUCTURE
  1 ****   7 GROUP 4 **** **** 0

# MOE 2024.06 (io_trps.svl 2023.06)
