@<TRIPOS>MOLECULE
NONAME
42 44 1 0 0 
SMALL
USER_CHARGES


@<TRIPOS>ATOM
  1 F        2.5810    -3.2060    -2.3030 F     1 <1>  -0.1900 
  2 C        1.6270    -3.2070    -1.4020 C.ar  1 <1>   0.1900 
  3 C        1.9010    -2.6890    -0.1370 C.ar  1 <1>   0.1170 
  4 C        0.3990    -3.7260    -1.7610 C.ar  1 <1>  -0.1500 
  5 N        3.1850    -2.1770     0.1400 N.am  1 <1>  -0.5470 
  6 C        0.8560    -2.7100     0.7850 C.ar  1 <1>  -0.1500 
  7 C       -0.6180    -3.7350    -0.8230 C.ar  1 <1>  -0.1500 
  8 C        3.7970    -1.7790     1.3000 C.2   1 <1>   0.5690 
  9 C       -0.3850    -3.2260     0.4460 C.ar  1 <1>  -0.1500 
 10 O        3.2430    -1.7700     2.3730 O.2   1 <1>  -0.5700 
 11 C        5.2450    -1.2750     1.2140 C.3   1 <1>   0.1710 
 12 N        6.3080    -2.3200     1.1340 N.3   1 <1>  -0.8100 
 13 C        7.6410    -1.7050     1.3060 C.3   1 <1>   0.1100 
 14 C        6.2550    -3.1270    -0.1090 C.3   1 <1>   0.1100 
 15 C        8.7710    -2.7490     1.2870 C.3   1 <1>   0.1400 
 16 C        7.3600    -4.1950    -0.1430 C.3   1 <1>   0.1400 
 17 N        8.6990    -3.5650     0.0410 N.am  1 <1>  -0.6600 
 18 C        9.5720    -3.3960    -1.0150 C.2   1 <1>   0.7150 
 19 O        9.1480    -3.5680    -2.1460 O.2   1 <1>  -0.5700 
 20 C       10.9540    -3.0240    -0.7940 C.2   1 <1>   0.0550 
 21 O       11.5900    -2.2040    -1.6280 O.3   1 <1>  -0.2800 
 22 C       11.8230    -3.3810     0.1950 C.2   1 <1>  -0.1500 
 23 C       12.8200    -2.0300    -1.2020 C.2   1 <1>  -0.0100 
 24 C       13.0310    -2.7340    -0.0700 C.2   1 <1>  -0.1500 
 25 H        0.2440    -4.1140    -2.7520 H     1 <1>   0.1500 
 26 H        3.7910    -2.1640    -0.6800 H     1 <1>   0.3700 
 27 H        1.0000    -2.3220     1.7770 H     1 <1>   0.1500 
 28 H       -1.5860    -4.1340    -1.0750 H     1 <1>   0.1500 
 29 H       -1.1750    -3.2320     1.1770 H     1 <1>   0.1500 
 30 H        5.4150    -0.6870     2.0990 H     1 <1>   0.0800 
 31 H        5.3290    -0.6140     0.3710 H     1 <1>   0.0800 
 32 H        7.6730    -1.1840     2.2480 H     1 <1>   0.0800 
 33 H        7.8170    -0.9880     0.5210 H     1 <1>   0.0800 
 34 H        6.3600    -2.4900    -0.9710 H     1 <1>   0.0800 
 35 H        5.3100    -3.6370    -0.1710 H     1 <1>   0.0800 
 36 H        8.6720    -3.3950     2.1420 H     1 <1>   0.0800 
 37 H        9.7150    -2.2400     1.3610 H     1 <1>   0.0800 
 38 H        7.3170    -4.7280    -1.0770 H     1 <1>   0.0800 
 39 H        7.1900    -4.9040     0.6480 H     1 <1>   0.0800 
 40 H       11.6360    -4.0380     1.0250 H     1 <1>   0.1500 
 41 H       13.4810    -1.3920    -1.7630 H     1 <1>   0.1500 
 42 H       13.9280    -2.8030     0.5190 H     1 <1>   0.1500 
@<TRIPOS>BOND
  1   1   2  1   
  2   2   3  ar  
  3   2   4  ar  
  4   3   5  1   
  5   3   6  ar  
  6   4   7  ar  
  7   4  25  1   
  8   5   8  am  
  9   5  26  1   
 10   6   9  ar  
 11   6  27  1   
 12   7   9  ar  
 13   7  28  1   
 14   8  10  2   
 15   8  11  1   
 16   9  29  1   
 17  11  12  1   
 18  11  30  1   
 19  11  31  1   
 20  12  13  1   
 21  12  14  1   
 22  13  15  1   
 23  13  32  1   
 24  13  33  1   
 25  14  16  1   
 26  14  34  1   
 27  14  35  1   
 28  15  17  1   
 29  15  36  1   
 30  15  37  1   
 31  16  17  1   
 32  16  38  1   
 33  16  39  1   
 34  17  18  am  
 35  18  19  2   
 36  18  20  1   
 37  20  21  1   
 38  20  22  2   
 39  21  23  1   
 40  22  24  1   
 41  22  40  1   
 42  23  24  2   
 43  23  41  1   
 44  24  42  1   
@<TRIPOS>SUBSTRUCTURE
  1 ****  14 GROUP 4 **** **** 0

# MOE 2024.06 (io_trps.svl 2023.06)
