@<TRIPOS>MOLECULE
NONAME
46 47 1 0 0 
SMALL
USER_CHARGES


@<TRIPOS>ATOM
  1 BR      -0.7380    -2.0920     1.4630 Br    1 <1>  -0.1110 
  2 C       -2.5450    -1.5630     1.0710 C.ar  1 <1>   0.1110 
  3 C       -3.0260    -1.7280    -0.2130 C.ar  1 <1>  -0.1500 
  4 C       -3.3200    -1.0300     2.0810 C.ar  1 <1>  -0.1500 
  5 C       -4.3280    -1.3430    -0.4850 C.ar  1 <1>  -0.1500 
  6 C       -4.6190    -0.6510     1.7890 C.ar  1 <1>  -0.1500 
  7 C       -5.1430    -0.7990     0.5050 C.ar  1 <1>  -0.0090 
  8 S       -6.8450    -0.2950     0.1240 S.o2  1 <1>   1.4470 
  9 O       -7.4200     0.4540     1.2210 O.2   1 <1>  -0.6500 
 10 O       -7.5820    -1.4350    -0.3790 O.2   1 <1>  -0.6500 
 11 N       -6.6680     0.7740    -1.1790 N.am  1 <1>  -0.8490 
 12 C       -7.9460     0.9790    -1.9210 C.3   1 <1>   0.2570 
 13 C       -6.0290     2.0350    -0.7800 C.3   1 <1>   0.1960 
 14 C       -9.0420     1.7910    -1.1930 C.2   1 <1>   0.5690 
 15 C       -5.5180     2.7960    -2.0010 C.3   1 <1>  -0.2400 
 16 O       -9.0250     2.9890    -1.3530 O.2   1 <1>  -0.5700 
 17 N      -10.0050     1.2190    -0.3890 N.am  1 <1>  -0.6600 
 18 C      -10.6940     2.0600     0.6420 C.3   1 <1>   0.1400 
 19 C      -10.3070    -0.2450    -0.2920 C.3   1 <1>   0.1400 
 20 C      -12.2010     1.7590     0.7100 C.3   1 <1>   0.3430 
 21 C      -11.8210    -0.5130    -0.1940 C.3   1 <1>   0.3430 
 22 N      -12.4700     0.2910     0.9000 N.4   1 <1>  -0.9590 
 23 C      -13.9360     0.0150     0.9800 C.3   1 <1>   0.2630 
 24 H       -2.3970    -2.1480    -0.9780 H     1 <1>   0.1500 
 25 H       -2.9150    -0.9160     3.0720 H     1 <1>   0.1500 
 26 H       -4.7200    -1.4650    -1.4810 H     1 <1>   0.1500 
 27 H       -5.2340    -0.2340     2.5690 H     1 <1>   0.1500 
 28 H       -8.3370     0.0270    -2.2230 H     1 <1>   0.0800 
 29 H       -7.7280     1.4980    -2.8360 H     1 <1>   0.0800 
 30 H       -5.1800     1.8210    -0.1510 H     1 <1>   0.0800 
 31 H       -6.7070     2.6490    -0.2090 H     1 <1>   0.0800 
 32 H       -6.3320     3.2000    -2.5750 H     1 <1>   0.0800 
 33 H       -4.9170     2.1530    -2.6190 H     1 <1>   0.0800 
 34 H       -4.9100     3.6200    -1.6760 H     1 <1>   0.0800 
 35 H      -10.5640     3.1080     0.4300 H     1 <1>   0.0800 
 36 H      -10.2420     1.8720     1.6010 H     1 <1>   0.0800 
 37 H       -9.8250    -0.6480     0.5820 H     1 <1>   0.0800 
 38 H       -9.9290    -0.7700    -1.1500 H     1 <1>   0.0800 
 39 H      -12.6560     2.0990    -0.2060 H     1 <1>   0.0800 
 40 H      -12.6330     2.3210     1.5220 H     1 <1>   0.0800 
 41 H      -11.9780    -1.5650    -0.0190 H     1 <1>   0.0800 
 42 H      -12.2720    -0.2650    -1.1410 H     1 <1>   0.0800 
 43 H      -12.0270     0.0110     1.7880 H     1 <1>   0.4500 
 44 H      -14.4230     0.3000     0.0610 H     1 <1>   0.0800 
 45 H      -14.3780     0.5710     1.7910 H     1 <1>   0.0800 
 46 H      -14.1110    -1.0360     1.1510 H     1 <1>   0.0800 
@<TRIPOS>BOND
  1   1   2  1   
  2   2   3  ar  
  3   2   4  ar  
  4   3   5  ar  
  5   3  24  1   
  6   4   6  ar  
  7   4  25  1   
  8   5   7  ar  
  9   5  26  1   
 10   6   7  ar  
 11   6  27  1   
 12   7   8  1   
 13   8   9  2   
 14   8  10  2   
 15   8  11  am  
 16  11  12  1   
 17  11  13  1   
 18  12  14  1   
 19  12  28  1   
 20  12  29  1   
 21  13  15  1   
 22  13  30  1   
 23  13  31  1   
 24  14  16  2   
 25  14  17  am  
 26  15  32  1   
 27  15  33  1   
 28  15  34  1   
 29  17  18  1   
 30  17  19  1   
 31  18  20  1   
 32  18  35  1   
 33  18  36  1   
 34  19  21  1   
 35  19  37  1   
 36  19  38  1   
 37  20  22  1   
 38  20  39  1   
 39  20  40  1   
 40  21  22  1   
 41  21  41  1   
 42  21  42  1   
 43  22  23  1   
 44  22  43  1   
 45  23  44  1   
 46  23  45  1   
 47  23  46  1   
@<TRIPOS>SUBSTRUCTURE
  1 ****   8 GROUP 4 **** **** 0

# MOE 2024.06 (io_trps.svl 2023.06)
