@<TRIPOS>MOLECULE
21515
34 36 1 0 0 
SMALL
USER_CHARGES


@<TRIPOS>ATOM
  1 S        0.0120    -0.0820     1.3070 S.3   1 <1>  -0.0800 
  2 C        1.0100     1.3540     1.1670 C.2   1 <1>   0.1660 
  3 C       -1.3770     0.7900     0.6740 C.2   1 <1>  -0.1400 
  4 N        2.3200     1.3560     1.5210 N.2   1 <1>  -0.5760 
  5 C        0.3020     2.4060     0.6720 C.2   1 <1>  -0.0860 
  6 C       -1.0720     2.0680     0.4030 C.2   1 <1>  -0.1810 
  7 C       -2.7080     0.0940     0.4980 C.3   1 <1>   0.0200 
  8 C        2.9250     2.4800     1.3620 C.2   1 <1>   0.4500 
  9 C        1.0180     3.6260     0.5040 C.2   1 <1>   0.7160 
 10 C       -2.1110     3.0340    -0.1430 C.3   1 <1>   0.0210 
 11 C       -3.6220     0.9690    -0.3860 C.3   1 <1>  -0.0800 
 12 N        2.3490     3.6300     0.8730 N.am  1 <1>  -0.4200 
 13 O        0.5120     4.6430     0.0460 O.2   1 <1>  -0.5700 
 14 C       -3.5350     2.4600     0.0120 C.3   1 <1>  -0.1600 
 15 C       -5.0730     0.4740    -0.3240 C.3   1 <1>  -0.2400 
 16 C        3.1610     4.8690     0.7430 C.3   1 <1>   0.1400 
 17 C        3.6130     5.0640    -0.7070 C.3   1 <1>   0.1200 
 18 O        4.3910     6.2090    -0.7870 O.3   1 <1>  -0.6800 
 19 H       -3.1480    -0.0540     1.4690 H     1 <1>   0.0800 
 20 H       -2.5620    -0.8660     0.0370 H     1 <1>   0.0800 
 21 H        3.9670     2.5430     1.6270 H     1 <1>   0.0600 
 22 H       -1.9010     3.2150    -1.1830 H     1 <1>   0.0800 
 23 H       -2.0510     3.9730     0.3780 H     1 <1>   0.0800 
 24 H       -3.2790     0.8800    -1.4040 H     1 <1>   0.0800 
 25 H       -4.2130     3.0420    -0.5870 H     1 <1>   0.0800 
 26 H       -3.8360     2.5620     1.0410 H     1 <1>   0.0800 
 27 H       -5.4620     0.5610     0.6750 H     1 <1>   0.0800 
 28 H       -5.1280    -0.5570    -0.6270 H     1 <1>   0.0800 
 29 H       -5.6920     1.0540    -0.9850 H     1 <1>   0.0800 
 30 H        4.0260     4.8010     1.3800 H     1 <1>   0.0800 
 31 H        2.5690     5.7120     1.0570 H     1 <1>   0.0800 
 32 H        2.7710     5.1800    -1.3690 H     1 <1>   0.0800 
 33 H        4.2190     4.2350    -1.0280 H     1 <1>   0.0800 
 34 H        3.8330     7.0120    -0.7670 H     1 <1>   0.4000 
@<TRIPOS>BOND
  1   1   2  1   
  2   1   3  1   
  3   2   4  1   
  4   2   5  2   
  5   3   6  2   
  6   3   7  1   
  7   4   8  2   
  8   5   6  1   
  9   5   9  1   
 10   6  10  1   
 11   7  11  1   
 12   7  19  1   
 13   7  20  1   
 14   8  12  1   
 15   8  21  1   
 16   9  12  am  
 17   9  13  2   
 18  10  14  1   
 19  10  22  1   
 20  10  23  1   
 21  11  14  1   
 22  11  15  1   
 23  11  24  1   
 24  12  16  1   
 25  14  25  1   
 26  14  26  1   
 27  15  27  1   
 28  15  28  1   
 29  15  29  1   
 30  16  17  1   
 31  16  30  1   
 32  16  31  1   
 33  17  18  1   
 34  17  32  1   
 35  17  33  1   
 36  18  34  1   
@<TRIPOS>SUBSTRUCTURE
  1 ****   5 GROUP 4 **** **** 0

# MOE 2024.06 (io_trps.svl 2023.06)
