@<TRIPOS>MOLECULE
NONAME
51 53 1 0 0 
SMALL
USER_CHARGES


@<TRIPOS>ATOM
  1 O        0.5580    -0.5080    -1.4200 O.2   1 <1>  -0.5700 
  2 C        0.3700    -1.1790    -0.4240 C.2   1 <1>   0.5440 
  3 N        1.3700    -1.2840     0.5020 N.am  1 <1>  -0.7300 
  4 C       -0.8950    -1.8540    -0.2110 C.ar  1 <1>   0.0860 
  5 C        2.7210    -0.7050     0.3820 C.3   1 <1>   0.2200 
  6 C       -2.0940    -1.2600    -0.5950 C.ar  1 <1>  -0.1500 
  7 C       -0.9580    -3.1140     0.3840 C.ar  1 <1>  -0.1500 
  8 C        3.7700    -1.8370     0.4610 C.3   1 <1>  -0.0800 
  9 C        2.8640     0.3190     1.5080 C.3   1 <1>  -0.2400 
 10 C       -3.3150    -1.8720    -0.3820 C.ar  1 <1>   0.0830 
 11 C       -2.1700    -3.7600     0.5990 C.ar  1 <1>   0.0830 
 12 C        5.2220    -1.3670     0.2050 C.3   1 <1>  -0.0800 
 13 C        3.5790    -2.9090    -0.6400 C.3   1 <1>  -0.1600 
 14 O       -4.4120    -1.1750    -0.7840 O.3   1 <1>  -0.3630 
 15 C       -3.3600    -3.1400     0.2080 C.ar  1 <1>   0.0830 
 16 O       -2.2480    -4.9940     1.1780 O.3   1 <1>  -0.3630 
 17 C        5.3480    -1.4990    -1.3050 C.3   1 <1>  -0.1600 
 18 C        6.1750    -2.4780     0.6770 C.3   1 <1>  -0.1600 
 19 C        4.9470    -2.9620    -1.3370 C.3   1 <1>  -0.0800 
 20 C       -5.5280    -1.0920     0.0750 C.3   1 <1>   0.0400 
 21 O       -4.5420    -3.7800     0.3960 O.3   1 <1>  -0.3630 
 22 C       -1.1020    -5.6970     1.6030 C.3   1 <1>   0.0400 
 23 C        5.9660    -3.5860    -0.3700 C.3   1 <1>  -0.1600 
 24 C       -4.8820    -4.7330    -0.5830 C.3   1 <1>   0.0400 
 25 H        1.1800    -1.7450     1.3900 H     1 <1>   0.3700 
 26 H        2.8120    -0.1990    -0.5650 H     1 <1>   0.0800 
 27 H       -2.0720    -0.2940    -1.0690 H     1 <1>   0.1500 
 28 H       -0.0330    -3.5790     0.6640 H     1 <1>   0.1500 
 29 H        3.7050    -2.2910     1.4350 H     1 <1>   0.0800 
 30 H        2.8350    -0.1620     2.4690 H     1 <1>   0.0800 
 31 H        2.0680     1.0390     1.4460 H     1 <1>   0.0800 
 32 H        3.7920     0.8510     1.4180 H     1 <1>   0.0800 
 33 H        5.4750    -0.3990     0.5980 H     1 <1>   0.0800 
 34 H        2.8320    -2.6060    -1.3540 H     1 <1>   0.0800 
 35 H        3.3000    -3.8630    -0.2280 H     1 <1>   0.0800 
 36 H        6.3540    -1.3370    -1.6560 H     1 <1>   0.0800 
 37 H        4.6630    -0.8680    -1.8450 H     1 <1>   0.0800 
 38 H        5.9480    -2.8150     1.6730 H     1 <1>   0.0800 
 39 H        7.1930    -2.1300     0.6480 H     1 <1>   0.0800 
 40 H        4.9270    -3.4140    -2.3140 H     1 <1>   0.0800 
 41 H       -6.0830    -0.2080    -0.1810 H     1 <1>   0.0800 
 42 H       -5.1880    -1.0330     1.0940 H     1 <1>   0.0800 
 43 H       -6.1450    -1.9610    -0.0680 H     1 <1>   0.0800 
 44 H       -1.4230    -6.6330     2.0220 H     1 <1>   0.0800 
 45 H       -0.5940    -5.1170     2.3530 H     1 <1>   0.0800 
 46 H       -0.4660    -5.8760     0.7540 H     1 <1>   0.0800 
 47 H        5.5950    -4.4950     0.0710 H     1 <1>   0.0800 
 48 H        6.8900    -3.7920    -0.8830 H     1 <1>   0.0800 
 49 H       -4.1390    -5.5110    -0.5870 H     1 <1>   0.0800 
 50 H       -4.9230    -4.2460    -1.5410 H     1 <1>   0.0800 
 51 H       -5.8430    -5.1440    -0.3330 H     1 <1>   0.0800 
@<TRIPOS>BOND
  1   1   2  2   
  2   2   3  am  
  3   2   4  1   
  4   3   5  1   
  5   3  25  1   
  6   4   6  ar  
  7   4   7  ar  
  8   5   8  1   
  9   5   9  1   
 10   5  26  1   
 11   6  10  ar  
 12   6  27  1   
 13   7  11  ar  
 14   7  28  1   
 15   8  12  1   
 16   8  13  1   
 17   8  29  1   
 18   9  30  1   
 19   9  31  1   
 20   9  32  1   
 21  10  14  1   
 22  10  15  ar  
 23  11  15  ar  
 24  11  16  1   
 25  12  17  1   
 26  12  18  1   
 27  12  33  1   
 28  13  19  1   
 29  13  34  1   
 30  13  35  1   
 31  14  20  1   
 32  15  21  1   
 33  16  22  1   
 34  17  19  1   
 35  17  36  1   
 36  17  37  1   
 37  18  23  1   
 38  18  38  1   
 39  18  39  1   
 40  19  23  1   
 41  19  40  1   
 42  20  41  1   
 43  20  42  1   
 44  20  43  1   
 45  21  24  1   
 46  22  44  1   
 47  22  45  1   
 48  22  46  1   
 49  23  47  1   
 50  23  48  1   
 51  24  49  1   
 52  24  50  1   
 53  24  51  1   
@<TRIPOS>SUBSTRUCTURE
  1 ****   2 GROUP 4 **** **** 0

# MOE 2024.06 (io_trps.svl 2023.06)
