@<TRIPOS>MOLECULE
NONAME
46 48 1 0 0 
SMALL
USER_CHARGES


@<TRIPOS>ATOM
  1 O        0.4640     3.3100     1.1400 O.2   1 <1>  -0.5700 
  2 C       -0.0610     2.6120     0.3040 C.2   1 <1>   0.5690 
  3 N        0.5470     1.4900    -0.2000 N.am  1 <1>  -0.5470 
  4 C       -1.4700     2.9630    -0.2420 C.3   1 <1>   0.2050 
  5 C        1.8120     0.9250     0.0210 C.ar  1 <1>   0.1170 
  6 C       -2.2000     1.6310    -0.5620 C.ar  1 <1>  -0.1440 
  7 C       -2.3300     3.7550     0.7790 C.3   1 <1>  -0.1600 
  8 C       -1.3030     3.8580    -1.4940 C.3   1 <1>  -0.1600 
  9 C        2.8980     1.6500     0.4960 C.ar  1 <1>  -0.1500 
 10 C        1.9950    -0.4200    -0.2650 C.ar  1 <1>  -0.1500 
 11 C       -2.4720     0.7530     0.4830 C.ar  1 <1>  -0.1500 
 12 C       -2.5710     1.2440    -1.8480 C.ar  1 <1>  -0.1500 
 13 C       -1.8820     5.2140     0.9610 C.3   1 <1>   0.1200 
 14 C       -0.8340     5.2680    -1.1270 C.3   1 <1>   0.1200 
 15 C        4.1360     1.0570     0.6890 C.ar  1 <1>  -0.1430 
 16 C        3.2250    -1.0220    -0.0790 C.ar  1 <1>  -0.1500 
 17 C       -3.0980    -0.4600     0.2590 C.ar  1 <1>  -0.1500 
 18 C       -3.1980     0.0310    -2.0750 C.ar  1 <1>  -0.1500 
 19 O       -1.7840     5.8310    -0.2830 O.3   1 <1>  -0.5600 
 20 C        4.3030    -0.2930     0.3980 C.ar  1 <1>  -0.1430 
 21 C        5.2850     1.9040     1.2170 C.3   1 <1>  -0.0970 
 22 C       -3.4620    -0.8240    -1.0220 C.ar  1 <1>  -0.1500 
 23 C        5.6420    -0.9900     0.5930 C.3   1 <1>  -0.0970 
 24 H       -0.0820     0.9090    -0.7590 H     1 <1>   0.3700 
 25 H       -2.3070     3.2740     1.7380 H     1 <1>   0.0800 
 26 H       -3.3520     3.7650     0.4450 H     1 <1>   0.0800 
 27 H       -2.2460     3.9650    -2.0000 H     1 <1>   0.0800 
 28 H       -0.5990     3.4170    -2.1760 H     1 <1>   0.0800 
 29 H        2.7740     2.6930     0.7160 H     1 <1>   0.1500 
 30 H        1.1720    -1.0040    -0.6330 H     1 <1>   0.1500 
 31 H       -2.1930     1.0010     1.4930 H     1 <1>   0.1500 
 32 H       -2.3870     1.8660    -2.7050 H     1 <1>   0.1500 
 33 H       -0.9290     5.2870     1.4570 H     1 <1>   0.0800 
 34 H       -2.6080     5.7580     1.5390 H     1 <1>   0.0800 
 35 H       -0.7710     5.8860    -2.0060 H     1 <1>   0.0800 
 36 H        0.1220     5.2650    -0.6300 H     1 <1>   0.0800 
 37 H        3.3380    -2.0670    -0.3070 H     1 <1>   0.1500 
 38 H       -3.3000    -1.1220     1.0840 H     1 <1>   0.1500 
 39 H       -3.4810    -0.2490    -3.0750 H     1 <1>   0.1500 
 40 H        4.9670     2.9150     1.3960 H     1 <1>   0.0800 
 41 H        6.0870     1.9240     0.5020 H     1 <1>   0.0800 
 42 H        5.6470     1.4970     2.1430 H     1 <1>   0.0800 
 43 H       -3.9510    -1.7670    -1.1990 H     1 <1>   0.1500 
 44 H        5.9360    -0.9390     1.6250 H     1 <1>   0.0800 
 45 H        6.3950    -0.5170    -0.0110 H     1 <1>   0.0800 
 46 H        5.5840    -2.0250     0.3090 H     1 <1>   0.0800 
@<TRIPOS>BOND
  1   1   2  2   
  2   2   3  am  
  3   2   4  1   
  4   3   5  1   
  5   3  24  1   
  6   4   6  1   
  7   4   7  1   
  8   4   8  1   
  9   5   9  ar  
 10   5  10  ar  
 11   6  11  ar  
 12   6  12  ar  
 13   7  13  1   
 14   7  25  1   
 15   7  26  1   
 16   8  14  1   
 17   8  27  1   
 18   8  28  1   
 19   9  15  ar  
 20   9  29  1   
 21  10  16  ar  
 22  10  30  1   
 23  11  17  ar  
 24  11  31  1   
 25  12  18  ar  
 26  12  32  1   
 27  13  19  1   
 28  13  33  1   
 29  13  34  1   
 30  14  19  1   
 31  14  35  1   
 32  14  36  1   
 33  15  20  ar  
 34  15  21  1   
 35  16  20  ar  
 36  16  37  1   
 37  17  22  ar  
 38  17  38  1   
 39  18  22  ar  
 40  18  39  1   
 41  20  23  1   
 42  21  40  1   
 43  21  41  1   
 44  21  42  1   
 45  22  43  1   
 46  23  44  1   
 47  23  45  1   
 48  23  46  1   
@<TRIPOS>SUBSTRUCTURE
  1 ****   3 GROUP 4 **** **** 0

# MOE 2024.06 (io_trps.svl 2023.06)
