@<TRIPOS>MOLECULE
NONAME
54 57 1 0 0 
SMALL
USER_CHARGES


@<TRIPOS>ATOM
  1 S        1.0190     0.3100    -0.1520 S.3   1 <1>  -0.0800 
  2 C        1.6740     1.9400    -0.1550 C.2   1 <1>   0.1660 
  3 C       -0.6130     0.9430    -0.2940 C.2   1 <1>  -0.1400 
  4 N        3.0000     2.1800    -0.0700 N.2   1 <1>  -0.5760 
  5 C        0.6910     2.8740    -0.2530 C.2   1 <1>  -0.0860 
  6 C       -0.6170     2.2810    -0.3250 C.2   1 <1>  -0.1810 
  7 C       -1.8250     0.0380    -0.3620 C.3   1 <1>   0.3000 
  8 C        3.3180     3.4300    -0.0890 C.2   1 <1>   0.6510 
  9 C        1.0990     4.2390    -0.2710 C.2   1 <1>   0.7160 
 10 C       -1.9440     3.0080    -0.4410 C.3   1 <1>   0.0210 
 11 O       -2.9580     0.8040    -0.7040 O.3   1 <1>  -0.5600 
 12 S        5.0630     3.8050     0.0170 S.3   1 <1>  -0.3710 
 13 N        2.4550     4.5070    -0.1840 N.am  1 <1>  -0.2370 
 14 O        0.2870     5.1500    -0.3590 O.2   1 <1>  -0.5700 
 15 C       -3.1300     2.0630    -0.1000 C.3   1 <1>   0.2800 
 16 C        5.8820     2.1550     0.1530 C.3   1 <1>   0.0700 
 17 C        2.9180     5.8390    -0.1840 C.ar  1 <1>   0.1170 
 18 C       -4.4310     2.6190    -0.6810 C.3   1 <1>  -0.2400 
 19 C       -3.3010     1.8710     1.4150 C.3   1 <1>  -0.2400 
 20 C        7.3850     2.3830     0.2840 C.3   1 <1>  -0.0990 
 21 C        3.1330     6.5120     1.0140 C.ar  1 <1>  -0.1500 
 22 C        3.1650     6.5000    -1.3810 C.ar  1 <1>  -0.1500 
 23 C        8.0960     1.0580     0.4030 C.2   1 <1>   0.6590 
 24 C        3.5930     7.8170     1.0230 C.ar  1 <1>  -0.1440 
 25 C        3.6220     7.8050    -1.3790 C.ar  1 <1>  -0.1500 
 26 O        8.5310     0.6690     1.4540 O.2   1 <1>  -0.5700 
 27 O        8.1980     0.3520    -0.7160 O.3   1 <1>  -0.4300 
 28 C        3.8360     8.4620    -0.1790 C.ar  1 <1>  -0.1500 
 29 C        3.8250     8.5430     2.3360 C.3   1 <1>  -0.0970 
 30 C        8.8270    -0.9120    -0.7380 C.3   1 <1>   0.0400 
 31 H       -2.0020    -0.4420     0.5840 H     1 <1>   0.0800 
 32 H       -1.6960    -0.7110    -1.1230 H     1 <1>   0.0800 
 33 H       -2.0450     3.3780    -1.4450 H     1 <1>   0.0800 
 34 H       -1.9630     3.8550     0.2210 H     1 <1>   0.0800 
 35 H        5.6380     1.5980    -0.7360 H     1 <1>   0.0800 
 36 H        5.4780     1.6630     1.0210 H     1 <1>   0.0800 
 37 H       -4.3540     2.7050    -1.7490 H     1 <1>   0.0800 
 38 H       -4.6390     3.5920    -0.2730 H     1 <1>   0.0800 
 39 H       -5.2530     1.9660    -0.4440 H     1 <1>   0.0800 
 40 H       -2.3830     1.5510     1.8740 H     1 <1>   0.0800 
 41 H       -4.0710     1.1480     1.6140 H     1 <1>   0.0800 
 42 H       -3.5840     2.8010     1.8720 H     1 <1>   0.0800 
 43 H        7.5880     2.9690     1.1610 H     1 <1>   0.0800 
 44 H        7.7560     2.9040    -0.5780 H     1 <1>   0.0800 
 45 H        2.9370     6.0060     1.9420 H     1 <1>   0.1500 
 46 H        2.9980     5.9940    -2.3140 H     1 <1>   0.1500 
 47 H        3.8110     8.3130    -2.3090 H     1 <1>   0.1500 
 48 H        4.1910     9.4780    -0.1860 H     1 <1>   0.1500 
 49 H        4.0210     7.8420     3.1280 H     1 <1>   0.0800 
 50 H        2.9540     9.1200     2.5910 H     1 <1>   0.0800 
 51 H        4.6680     9.2050     2.2540 H     1 <1>   0.0800 
 52 H        8.7910    -1.2940    -1.7420 H     1 <1>   0.0800 
 53 H        8.3010    -1.5730    -0.0700 H     1 <1>   0.0800 
 54 H        9.8480    -0.7980    -0.4190 H     1 <1>   0.0800 
@<TRIPOS>BOND
  1   1   2  1   
  2   1   3  1   
  3   2   4  1   
  4   2   5  2   
  5   3   6  2   
  6   3   7  1   
  7   4   8  2   
  8   5   6  1   
  9   5   9  1   
 10   6  10  1   
 11   7  11  1   
 12   7  31  1   
 13   7  32  1   
 14   8  12  1   
 15   8  13  1   
 16   9  13  am  
 17   9  14  2   
 18  10  15  1   
 19  10  33  1   
 20  10  34  1   
 21  11  15  1   
 22  12  16  1   
 23  13  17  1   
 24  15  18  1   
 25  15  19  1   
 26  16  20  1   
 27  16  35  1   
 28  16  36  1   
 29  17  21  ar  
 30  17  22  ar  
 31  18  37  1   
 32  18  38  1   
 33  18  39  1   
 34  19  40  1   
 35  19  41  1   
 36  19  42  1   
 37  20  23  1   
 38  20  43  1   
 39  20  44  1   
 40  21  24  ar  
 41  21  45  1   
 42  22  25  ar  
 43  22  46  1   
 44  23  26  2   
 45  23  27  1   
 46  24  28  ar  
 47  24  29  1   
 48  25  28  ar  
 49  25  47  1   
 50  27  30  1   
 51  28  48  1   
 52  29  49  1   
 53  29  50  1   
 54  29  51  1   
 55  30  52  1   
 56  30  53  1   
 57  30  54  1   
@<TRIPOS>SUBSTRUCTURE
  1 ****   8 GROUP 4 **** **** 0

# MOE 2024.06 (io_trps.svl 2023.06)
