@<TRIPOS>MOLECULE
NONAME
42 45 1 0 0 
SMALL
USER_CHARGES


@<TRIPOS>ATOM
  1 O       -2.5850    -1.1510    -2.0460 O.2   1 <1>  -0.5700 
  2 C       -2.2660    -0.4870    -1.0890 C.2   1 <1>   0.6300 
  3 N       -1.1770    -0.7390    -0.3110 N.am  1 <1>  -0.5470 
  4 C       -3.0770     0.7500    -0.7370 C.3   1 <1>  -0.1000 
  5 C       -0.2350    -1.7840    -0.2800 C.ar  1 <1>   0.1170 
  6 C       -3.5690     1.0970     0.6420 C.3   1 <1>  -0.1950 
  7 C       -4.5530     0.8040    -0.4730 C.3   1 <1>  -0.1950 
  8 C        0.5560    -1.9260     0.8640 C.ar  1 <1>   0.0830 
  9 C       -0.0570    -2.6730    -1.3340 C.ar  1 <1>  -0.1500 
 10 C       -4.1200     0.2680     1.8260 C.3   1 <1>   0.0150 
 11 C       -5.5570    -0.1710     0.1740 C.3   1 <1>   0.0150 
 12 O        0.3540    -1.0300     1.8790 O.3   1 <1>  -0.3620 
 13 C        1.4980    -2.9470     0.9360 C.ar  1 <1>  -0.1500 
 14 C        0.8800    -3.6880    -1.2590 C.ar  1 <1>  -0.1500 
 15 C       -5.6140     0.4010     1.5810 C.3   1 <1>  -0.1600 
 16 C       -3.9390    -1.2420     1.6000 C.3   1 <1>  -0.1600 
 17 C       -4.9110    -1.5390     0.4430 C.3   1 <1>  -0.1600 
 18 C        1.0830    -1.1200     3.0840 C.3   1 <1>   0.0400 
 19 C        1.6630    -3.8280    -0.1180 C.ar  1 <1>   0.0830 
 20 O        2.6060    -4.7950     0.0390 O.3   1 <1>  -0.3620 
 21 C        2.8420    -5.7480    -0.9740 C.3   1 <1>   0.0400 
 22 H       -1.0910    -0.1230     0.4980 H     1 <1>   0.3700 
 23 H       -2.6950     1.5690    -1.3190 H     1 <1>   0.1000 
 24 H       -3.4530     2.1290     0.9270 H     1 <1>   0.1000 
 25 H       -5.0660     1.6430    -0.9100 H     1 <1>   0.1000 
 26 H       -0.6500    -2.5770    -2.2250 H     1 <1>   0.1500 
 27 H       -3.7920     0.6120     2.7920 H     1 <1>   0.0800 
 28 H       -6.5050    -0.2210    -0.3330 H     1 <1>   0.0800 
 29 H        2.1210    -3.0850     1.7980 H     1 <1>   0.1500 
 30 H        0.9830    -4.3520    -2.0960 H     1 <1>   0.1500 
 31 H       -5.9510     1.4240     1.6020 H     1 <1>   0.0800 
 32 H       -6.2070    -0.1970     2.2530 H     1 <1>   0.0800 
 33 H       -4.2470    -1.7800     2.4800 H     1 <1>   0.0800 
 34 H       -2.9260    -1.5160     1.3820 H     1 <1>   0.0800 
 35 H       -4.4230    -1.9340    -0.4290 H     1 <1>   0.0800 
 36 H       -5.6590    -2.2440     0.7620 H     1 <1>   0.0800 
 37 H        0.7530    -0.3310     3.7350 H     1 <1>   0.0800 
 38 H        2.1310    -1.0020     2.8690 H     1 <1>   0.0800 
 39 H        0.8880    -2.0750     3.5400 H     1 <1>   0.0800 
 40 H        3.6170    -6.4110    -0.6340 H     1 <1>   0.0800 
 41 H        3.1620    -5.2390    -1.8650 H     1 <1>   0.0800 
 42 H        1.9370    -6.3030    -1.1490 H     1 <1>   0.0800 
@<TRIPOS>BOND
  1   1   2  2   
  2   2   3  am  
  3   2   4  1   
  4   3   5  1   
  5   3  22  1   
  6   4   6  1   
  7   4   7  1   
  8   4  23  1   
  9   5   8  ar  
 10   5   9  ar  
 11   6   7  1   
 12   6  10  1   
 13   6  24  1   
 14   7  11  1   
 15   7  25  1   
 16   8  12  1   
 17   8  13  ar  
 18   9  14  ar  
 19   9  26  1   
 20  10  15  1   
 21  10  16  1   
 22  10  27  1   
 23  11  15  1   
 24  11  17  1   
 25  11  28  1   
 26  12  18  1   
 27  13  19  ar  
 28  13  29  1   
 29  14  19  ar  
 30  14  30  1   
 31  15  31  1   
 32  15  32  1   
 33  16  17  1   
 34  16  33  1   
 35  16  34  1   
 36  17  35  1   
 37  17  36  1   
 38  18  37  1   
 39  18  38  1   
 40  18  39  1   
 41  19  20  1   
 42  20  21  1   
 43  21  40  1   
 44  21  41  1   
 45  21  42  1   
@<TRIPOS>SUBSTRUCTURE
  1 ****   3 GROUP 4 **** **** 0

# MOE 2024.06 (io_trps.svl 2023.06)
