@<TRIPOS>MOLECULE
NONAME
36 36 1 0 0 
SMALL
USER_CHARGES


@<TRIPOS>ATOM
  1 N        1.0160    -0.4670     0.5640 N.ar  1 <1>  -0.6200 
  2 C        1.5530    -1.0830    -0.4770 C.ar  1 <1>   0.1660 
  3 C       -0.1390    -0.9590     0.9880 C.ar  1 <1>   0.1600 
  4 C        0.9860    -2.1790    -1.1110 C.ar  1 <1>  -0.1500 
  5 C        2.8680    -0.5120    -0.9640 C.3   1 <1>  -0.0160 
  6 C       -0.7840    -2.0470     0.4250 C.ar  1 <1>  -0.1500 
  7 C       -0.2130    -2.6830    -0.6560 C.ar  1 <1>  -0.1500 
  8 C        3.7870    -0.2860     0.2400 C.3   1 <1>   0.3430 
  9 N        5.1080     0.3020    -0.1470 N.4   1 <1>  -0.9590 
 10 C        6.0650     0.1970     0.9800 C.3   1 <1>   0.4810 
 11 C        4.9910     1.7140    -0.6270 C.3   1 <1>   0.2630 
 12 C        7.4570     0.3520     0.3940 C.2   1 <1>  -0.2760 
 13 C        7.9890    -0.5900    -0.3990 C.2   1 <1>  -0.2880 
 14 C        8.1380     1.6490     0.8320 C.3   1 <1>  -0.1020 
 15 C        9.3580    -0.6150    -1.0680 C.3   1 <1>  -0.1020 
 16 H       -0.6000    -0.4710     1.8310 H     1 <1>   0.1500 
 17 H        1.4660    -2.6390    -1.9560 H     1 <1>   0.1500 
 18 H        3.3290    -1.1880    -1.6610 H     1 <1>   0.0800 
 19 H        2.6560     0.4180    -1.4580 H     1 <1>   0.0800 
 20 H       -1.7210    -2.3880     0.8280 H     1 <1>   0.1500 
 21 H       -0.6850    -3.5310    -1.1220 H     1 <1>   0.1500 
 22 H        3.9390    -1.2350     0.7280 H     1 <1>   0.0800 
 23 H        3.2910     0.3650     0.9420 H     1 <1>   0.0800 
 24 H        5.5380    -0.2590    -0.8950 H     1 <1>   0.4500 
 25 H        5.8690     0.9480     1.7280 H     1 <1>   0.0800 
 26 H        5.9880    -0.7760     1.4380 H     1 <1>   0.0800 
 27 H        4.5930     2.3440     0.1520 H     1 <1>   0.0800 
 28 H        4.3380     1.7690    -1.4830 H     1 <1>   0.0800 
 29 H        5.9590     2.0890    -0.9170 H     1 <1>   0.0800 
 30 H        7.4520    -1.4930    -0.6430 H     1 <1>   0.1500 
 31 H        8.2360     1.6690     1.9040 H     1 <1>   0.0800 
 32 H        7.5670     2.5070     0.5270 H     1 <1>   0.0800 
 33 H        9.1230     1.7530     0.4200 H     1 <1>   0.0800 
 34 H        9.2410    -0.7000    -2.1340 H     1 <1>   0.0800 
 35 H        9.9150    -1.4670    -0.7200 H     1 <1>   0.0800 
 36 H        9.9390     0.2640    -0.8670 H     1 <1>   0.0800 
@<TRIPOS>BOND
  1   1   2  ar  
  2   1   3  ar  
  3   2   4  ar  
  4   2   5  1   
  5   3   6  ar  
  6   3  16  1   
  7   4   7  ar  
  8   4  17  1   
  9   5   8  1   
 10   5  18  1   
 11   5  19  1   
 12   6   7  ar  
 13   6  20  1   
 14   7  21  1   
 15   8   9  1   
 16   8  22  1   
 17   8  23  1   
 18   9  10  1   
 19   9  11  1   
 20   9  24  1   
 21  10  12  1   
 22  10  25  1   
 23  10  26  1   
 24  11  27  1   
 25  11  28  1   
 26  11  29  1   
 27  12  13  2   
 28  12  14  1   
 29  13  15  1   
 30  13  30  1   
 31  14  31  1   
 32  14  32  1   
 33  14  33  1   
 34  15  34  1   
 35  15  35  1   
 36  15  36  1   
@<TRIPOS>SUBSTRUCTURE
  1 ****   8 GROUP 4 **** **** 0

# MOE 2024.06 (io_trps.svl 2023.06)
