@<TRIPOS>MOLECULE
NONAME
37 38 1 0 0 
SMALL
USER_CHARGES


@<TRIPOS>ATOM
  1 BR      -0.3750    -0.2330    -1.6110 Br    1 <1>  -0.1110 
  2 C        1.2630    -0.8710    -0.8160 C.ar  1 <1>   0.1110 
  3 C        1.7810    -0.2390     0.3030 C.ar  1 <1>   0.0830 
  4 C        1.8810    -1.9580    -1.3950 C.ar  1 <1>  -0.1500 
  5 O        1.1110     0.8260     0.8190 O.3   1 <1>  -0.3630 
  6 C        2.9650    -0.7360     0.8350 C.ar  1 <1>  -0.1500 
  7 C        3.0620    -2.4430    -0.8500 C.ar  1 <1>  -0.1430 
  8 C        1.5410     1.4710     1.9980 C.3   1 <1>   0.0400 
  9 C        3.6250    -1.8300     0.2770 C.ar  1 <1>  -0.0090 
 10 C        3.7100    -3.6510    -1.5190 C.3   1 <1>  -0.0960 
 11 S        5.1840    -2.3890     1.0440 S.o2  1 <1>   1.4470 
 12 O        5.0950    -3.7970     1.3650 O.2   1 <1>  -0.6500 
 13 O        5.5750    -1.4650     2.0890 O.2   1 <1>  -0.6500 
 14 N        6.3360    -2.2190    -0.1890 N.am  1 <1>  -0.8490 
 15 C        6.5970    -0.8120    -0.5110 C.3   1 <1>   0.1960 
 16 C        7.5790    -2.9190     0.1470 C.3   1 <1>   0.1960 
 17 C        7.5140    -0.7120    -1.7340 C.3   1 <1>  -0.1600 
 18 C        8.5440    -2.8900    -1.0440 C.3   1 <1>  -0.1600 
 19 C        8.8340    -1.4560    -1.5010 C.3   1 <1>  -0.1600 
 20 H        1.4350    -2.4140    -2.2610 H     1 <1>   0.1500 
 21 H        3.3980    -0.2730     1.7030 H     1 <1>   0.1500 
 22 H        0.8410     2.2550     2.2230 H     1 <1>   0.0800 
 23 H        2.5170     1.8910     1.8320 H     1 <1>   0.0800 
 24 H        1.5590     0.7560     2.8020 H     1 <1>   0.0800 
 25 H        3.1010    -4.0220    -2.3240 H     1 <1>   0.0800 
 26 H        3.8380    -4.4510    -0.8110 H     1 <1>   0.0800 
 27 H        4.6700    -3.3870    -1.9250 H     1 <1>   0.0800 
 28 H        7.0570    -0.3190     0.3310 H     1 <1>   0.0800 
 29 H        5.6700    -0.3090    -0.7310 H     1 <1>   0.0800 
 30 H        7.3660    -3.9470     0.3890 H     1 <1>   0.0800 
 31 H        8.0370    -2.4600     1.0080 H     1 <1>   0.0800 
 32 H        7.7150     0.3240    -1.9460 H     1 <1>   0.0800 
 33 H        7.0050    -1.1290    -2.5850 H     1 <1>   0.0800 
 34 H        8.1070    -3.4480    -1.8540 H     1 <1>   0.0800 
 35 H        9.4630    -3.3760    -0.7700 H     1 <1>   0.0800 
 36 H        9.4020    -0.9470    -0.7400 H     1 <1>   0.0800 
 37 H        9.4170    -1.4670    -2.4050 H     1 <1>   0.0800 
@<TRIPOS>BOND
  1   1   2  1   
  2   2   3  ar  
  3   2   4  ar  
  4   3   5  1   
  5   3   6  ar  
  6   4   7  ar  
  7   4  20  1   
  8   5   8  1   
  9   6   9  ar  
 10   6  21  1   
 11   7   9  ar  
 12   7  10  1   
 13   8  22  1   
 14   8  23  1   
 15   8  24  1   
 16   9  11  1   
 17  10  25  1   
 18  10  26  1   
 19  10  27  1   
 20  11  12  2   
 21  11  13  2   
 22  11  14  am  
 23  14  15  1   
 24  14  16  1   
 25  15  17  1   
 26  15  28  1   
 27  15  29  1   
 28  16  18  1   
 29  16  30  1   
 30  16  31  1   
 31  17  19  1   
 32  17  32  1   
 33  17  33  1   
 34  18  19  1   
 35  18  34  1   
 36  18  35  1   
 37  19  36  1   
 38  19  37  1   
@<TRIPOS>SUBSTRUCTURE
  1 ****   9 GROUP 4 **** **** 0

# MOE 2024.06 (io_trps.svl 2023.06)
