@<TRIPOS>MOLECULE
NONAME
39 40 1 0 0 
SMALL
USER_CHARGES


@<TRIPOS>ATOM
  1 O        0.3750    -0.9280    -1.3220 O.2   1 <1>  -0.5700 
  2 C        0.4670    -1.8250    -0.5170 C.2   1 <1>   0.5690 
  3 N        1.4430    -1.9250     0.4220 N.am  1 <1>  -0.4200 
  4 C       -0.4560    -3.0590    -0.4770 C.3   1 <1>   0.2510 
  5 C        1.3760    -3.1130     1.0730 C.2   1 <1>   0.5690 
  6 C        2.4730    -0.8950     0.6730 C.3   1 <1>   0.1400 
  7 N       -1.8720    -2.8550    -0.0360 N.3   1 <1>  -0.8100 
  8 C        0.2510    -3.9680     0.5470 C.3   1 <1>  -0.0990 
  9 O        2.1200    -3.4800     1.9440 O.2   1 <1>  -0.5700 
 10 C        3.6920    -1.1550    -0.2120 C.3   1 <1>  -0.2400 
 11 C       -2.6870    -4.0460    -0.3420 C.3   1 <1>   0.1100 
 12 C       -2.4850    -1.6380    -0.6010 C.3   1 <1>   0.1100 
 13 C       -4.0790    -3.9060     0.2730 C.3   1 <1>  -0.1600 
 14 C       -3.8810    -1.4250    -0.0110 C.3   1 <1>  -0.1600 
 15 C       -4.7910    -2.6420    -0.2430 C.3   1 <1>  -0.0190 
 16 C       -6.1730    -2.4360     0.3770 C.2   1 <1>   0.6590 
 17 O       -6.5900    -3.1080     1.2870 O.2   1 <1>  -0.5700 
 18 O       -6.9020    -1.4660    -0.1640 O.3   1 <1>  -0.4300 
 19 C       -8.1990    -1.1630     0.3060 C.3   1 <1>   0.0400 
 20 H       -0.4420    -3.5090    -1.4540 H     1 <1>   0.0800 
 21 H        2.7600    -0.9240     1.7110 H     1 <1>   0.0800 
 22 H        2.0640     0.0780     0.4590 H     1 <1>   0.0800 
 23 H        0.6600    -4.8390     0.0730 H     1 <1>   0.0800 
 24 H       -0.3880    -4.2510     1.3630 H     1 <1>   0.0800 
 25 H        4.1150    -2.1190     0.0090 H     1 <1>   0.0800 
 26 H        4.4390    -0.4050    -0.0270 H     1 <1>   0.0800 
 27 H        3.4150    -1.1110    -1.2510 H     1 <1>   0.0800 
 28 H       -2.2230    -4.9290     0.0630 H     1 <1>   0.0800 
 29 H       -2.7710    -4.1680    -1.4100 H     1 <1>   0.0800 
 30 H       -2.5370    -1.7130    -1.6740 H     1 <1>   0.0800 
 31 H       -1.8940    -0.7740    -0.3490 H     1 <1>   0.0800 
 32 H       -3.9810    -3.8600     1.3450 H     1 <1>   0.0800 
 33 H       -4.6650    -4.7750     0.0340 H     1 <1>   0.0800 
 34 H       -4.3200    -0.5510    -0.4600 H     1 <1>   0.0800 
 35 H       -3.7850    -1.2390     1.0440 H     1 <1>   0.0800 
 36 H       -4.9390    -2.7540    -1.3020 H     1 <1>   0.0800 
 37 H       -8.5910    -0.3480    -0.2750 H     1 <1>   0.0800 
 38 H       -8.1360    -0.8830     1.3440 H     1 <1>   0.0800 
 39 H       -8.8210    -2.0340     0.1950 H     1 <1>   0.0800 
@<TRIPOS>BOND
  1   1   2  2   
  2   2   3  am  
  3   2   4  1   
  4   3   5  am  
  5   3   6  1   
  6   4   7  1   
  7   4   8  1   
  8   4  20  1   
  9   5   8  1   
 10   5   9  2   
 11   6  10  1   
 12   6  21  1   
 13   6  22  1   
 14   7  11  1   
 15   7  12  1   
 16   8  23  1   
 17   8  24  1   
 18  10  25  1   
 19  10  26  1   
 20  10  27  1   
 21  11  13  1   
 22  11  28  1   
 23  11  29  1   
 24  12  14  1   
 25  12  30  1   
 26  12  31  1   
 27  13  15  1   
 28  13  32  1   
 29  13  33  1   
 30  14  15  1   
 31  14  34  1   
 32  14  35  1   
 33  15  16  1   
 34  15  36  1   
 35  16  17  2   
 36  16  18  1   
 37  18  19  1   
 38  19  37  1   
 39  19  38  1   
 40  19  39  1   
@<TRIPOS>SUBSTRUCTURE
  1 ****   7 GROUP 4 **** **** 0

# MOE 2024.06 (io_trps.svl 2023.06)
