@<TRIPOS>MOLECULE
NONAME
40 42 1 0 0 
SMALL
USER_CHARGES


@<TRIPOS>ATOM
  1 F        1.3610     2.1620     2.3510 F     1 <1>  -0.3400 
  2 C        1.6680     1.2500     1.4370 C.3   1 <1>   1.1640 
  3 F        1.9230     0.1280     2.1000 F     1 <1>  -0.3400 
  4 F        0.5560     1.0290     0.7460 F     1 <1>  -0.3400 
  5 C        2.8290     1.7040     0.5370 C.ar  1 <1>  -0.1440 
  6 C        4.0530     1.0430     0.5300 C.ar  1 <1>  -0.1500 
  7 C        2.6660     2.8060    -0.2970 C.ar  1 <1>  -0.1500 
  8 C        5.0960     1.4590    -0.2850 C.ar  1 <1>   0.1000 
  9 C        3.6980     3.2320    -1.1140 C.ar  1 <1>  -0.1500 
 10 N        6.3010     0.7680    -0.2610 N.pl3 1 <1>  -0.8380 
 11 C        4.9060     2.5620    -1.1080 C.ar  1 <1>  -0.1500 
 12 C        7.4670     1.4900     0.3270 C.3   1 <1>   0.2090 
 13 C        6.6240    -0.0380    -1.4730 C.3   1 <1>   0.2090 
 14 C        8.6300     0.5130     0.6020 C.3   1 <1>   0.3430 
 15 C        7.7900    -1.0090    -1.1870 C.3   1 <1>   0.3430 
 16 N        9.0010    -0.3140    -0.6110 N.4   1 <1>  -0.9590 
 17 C       10.0920    -1.2780    -0.3110 C.3   1 <1>   0.5240 
 18 C       11.3380    -0.4940     0.0350 C.2   1 <1>  -0.1810 
 19 C       12.2630     0.0250    -0.8030 C.2   1 <1>  -0.0100 
 20 C       11.7730    -0.1590     1.3280 C.2   1 <1>  -0.1500 
 21 O       13.2010     0.6520    -0.1250 O.3   1 <1>  -0.2800 
 22 C       12.9140     0.5400     1.1550 C.2   1 <1>  -0.0100 
 23 H        4.2210     0.1880     1.1610 H     1 <1>   0.1500 
 24 H        1.7290     3.3390    -0.3130 H     1 <1>   0.1500 
 25 H        3.5570     4.0860    -1.7540 H     1 <1>   0.1500 
 26 H        5.7030     2.8980    -1.7450 H     1 <1>   0.1500 
 27 H        7.1660     1.9560     1.2500 H     1 <1>   0.0800 
 28 H        7.7910     2.2660    -0.3440 H     1 <1>   0.0800 
 29 H        6.8800     0.6170    -2.2880 H     1 <1>   0.0800 
 30 H        5.7520    -0.6010    -1.7640 H     1 <1>   0.0800 
 31 H        8.3310    -0.1400     1.4050 H     1 <1>   0.0800 
 32 H        9.4840     1.0780     0.9370 H     1 <1>   0.0800 
 33 H        8.0540    -1.5140    -2.1010 H     1 <1>   0.0800 
 34 H        7.4350    -1.7500    -0.4900 H     1 <1>   0.0800 
 35 H        9.3690     0.3390    -1.3130 H     1 <1>   0.4500 
 36 H       10.2900    -1.8890    -1.1760 H     1 <1>   0.0800 
 37 H        9.8190    -1.9210     0.5090 H     1 <1>   0.0800 
 38 H       12.3450     0.0050    -1.8770 H     1 <1>   0.1500 
 39 H       11.2980    -0.4180     2.2590 H     1 <1>   0.1500 
 40 H       13.5820     0.9860     1.8750 H     1 <1>   0.1500 
@<TRIPOS>BOND
  1   1   2  1   
  2   2   3  1   
  3   2   4  1   
  4   2   5  1   
  5   5   6  ar  
  6   5   7  ar  
  7   6   8  ar  
  8   6  23  1   
  9   7   9  ar  
 10   7  24  1   
 11   8  10  1   
 12   8  11  ar  
 13   9  11  ar  
 14   9  25  1   
 15  10  12  1   
 16  10  13  1   
 17  11  26  1   
 18  12  14  1   
 19  12  27  1   
 20  12  28  1   
 21  13  15  1   
 22  13  29  1   
 23  13  30  1   
 24  14  16  1   
 25  14  31  1   
 26  14  32  1   
 27  15  16  1   
 28  15  33  1   
 29  15  34  1   
 30  16  17  1   
 31  16  35  1   
 32  17  18  1   
 33  17  36  1   
 34  17  37  1   
 35  18  19  2   
 36  18  20  1   
 37  19  21  1   
 38  19  38  1   
 39  20  22  2   
 40  20  39  1   
 41  21  22  1   
 42  22  40  1   
@<TRIPOS>SUBSTRUCTURE
  1 ****  10 GROUP 4 **** **** 0

# MOE 2024.06 (io_trps.svl 2023.06)
