@<TRIPOS>MOLECULE
NONAME
36 38 1 0 0 
SMALL
USER_CHARGES


@<TRIPOS>ATOM
  1 BR      -0.0260    -0.3900     1.4850 Br    1 <1>  -0.1110 
  2 C       -1.8100    -0.2730     0.7680 C.ar  1 <1>   0.1110 
  3 C       -1.9870     0.2580    -0.4950 C.ar  1 <1>  -0.1500 
  4 C       -2.8690    -0.7180     1.5370 C.ar  1 <1>  -0.1500 
  5 C       -3.2720     0.3380    -1.0040 C.ar  1 <1>  -0.1500 
  6 C       -4.1480    -0.6290     1.0160 C.ar  1 <1>  -0.1500 
  7 C       -4.3580    -0.1140    -0.2600 C.ar  1 <1>   0.1170 
  8 N       -5.6450    -0.0220    -0.7940 N.am  1 <1>  -0.5470 
  9 C       -6.4590    -0.9060    -1.4380 C.2   1 <1>   0.5690 
 10 O       -7.5150    -0.4950    -1.8450 O.2   1 <1>  -0.5700 
 11 C       -6.1530    -2.3840    -1.6960 C.3   1 <1>  -0.0190 
 12 C       -6.4400    -3.2700    -0.4700 C.3   1 <1>   0.2800 
 13 C       -4.6990    -2.7200    -2.0420 C.3   1 <1>  -0.0990 
 14 O       -5.1770    -3.4930     0.1070 O.3   1 <1>  -0.4300 
 15 C       -7.4030    -2.7590     0.6030 C.3   1 <1>  -0.1600 
 16 C       -7.0190    -4.6460    -0.8120 C.3   1 <1>  -0.1600 
 17 C       -4.1920    -3.2840    -0.7440 C.2   1 <1>   0.6590 
 18 C       -7.7970    -3.9940     1.4200 C.3   1 <1>  -0.1600 
 19 C       -7.5520    -5.2050     0.5110 C.3   1 <1>  -0.1600 
 20 O       -3.0410    -3.5260    -0.5090 O.2   1 <1>  -0.5700 
 21 H       -1.1380     0.5960    -1.0620 H     1 <1>   0.1500 
 22 H       -2.6930    -1.1270     2.5150 H     1 <1>   0.1500 
 23 H       -3.4340     0.7510    -1.9840 H     1 <1>   0.1500 
 24 H       -4.9810    -0.9670     1.6020 H     1 <1>   0.1500 
 25 H       -6.0620     0.9100    -0.7550 H     1 <1>   0.3700 
 26 H       -6.7860    -2.6850    -2.5120 H     1 <1>   0.0800 
 27 H       -4.1250    -1.8740    -2.3650 H     1 <1>   0.0800 
 28 H       -4.6520    -3.4910    -2.7880 H     1 <1>   0.0800 
 29 H       -8.2860    -2.3700     0.1270 H     1 <1>   0.0800 
 30 H       -6.9730    -1.9890     1.2160 H     1 <1>   0.0800 
 31 H       -6.2960    -5.3000    -1.2670 H     1 <1>   0.0800 
 32 H       -7.8490    -4.5240    -1.4870 H     1 <1>   0.0800 
 33 H       -8.8240    -3.9370     1.7370 H     1 <1>   0.0800 
 34 H       -7.1670    -4.0690     2.2910 H     1 <1>   0.0800 
 35 H       -6.8090    -5.8440     0.9600 H     1 <1>   0.0800 
 36 H       -8.4530    -5.7740     0.3570 H     1 <1>   0.0800 
@<TRIPOS>BOND
  1   1   2  1   
  2   2   3  ar  
  3   2   4  ar  
  4   3   5  ar  
  5   3  21  1   
  6   4   6  ar  
  7   4  22  1   
  8   5   7  ar  
  9   5  23  1   
 10   6   7  ar  
 11   6  24  1   
 12   7   8  1   
 13   8   9  am  
 14   8  25  1   
 15   9  10  2   
 16   9  11  1   
 17  11  12  1   
 18  11  13  1   
 19  11  26  1   
 20  12  14  1   
 21  12  15  1   
 22  12  16  1   
 23  13  17  1   
 24  13  27  1   
 25  13  28  1   
 26  14  17  1   
 27  15  18  1   
 28  15  29  1   
 29  15  30  1   
 30  16  19  1   
 31  16  31  1   
 32  16  32  1   
 33  17  20  2   
 34  18  19  1   
 35  18  33  1   
 36  18  34  1   
 37  19  35  1   
 38  19  36  1   
@<TRIPOS>SUBSTRUCTURE
  1 ****  17 GROUP 4 **** **** 0

# MOE 2024.06 (io_trps.svl 2023.06)
