@<TRIPOS>MOLECULE
NONAME
40 41 1 0 0 
SMALL
USER_CHARGES


@<TRIPOS>ATOM
  1 O        0.5930    -1.6600     1.4620 O.2   1 <1>  -0.5700 
  2 C       -0.0180    -1.7850     0.4220 C.2   1 <1>   0.6340 
  3 O        0.5680    -1.4820    -0.7380 O.3   1 <1>  -0.4300 
  4 C       -1.3530    -2.3110     0.3800 C.ar  1 <1>   0.0860 
  5 C        1.8920    -0.9970    -0.8290 C.3   1 <1>   0.1200 
  6 C       -2.4540    -1.5160    -0.0390 C.ar  1 <1>   0.1000 
  7 C       -1.5700    -3.6360     0.7330 C.ar  1 <1>   0.2170 
  8 C        2.8540    -2.1830    -0.8510 C.3   1 <1>  -0.2400 
  9 N       -2.3690    -0.1880    -0.3430 N.pl3 1 <1>  -0.8380 
 10 C       -3.7050    -2.1500    -0.1140 C.ar  1 <1>  -0.1500 
 11 N       -2.8070    -4.1750     0.6620 N.ar  1 <1>  -0.1790 
 12 C       -0.4570    -4.5700     1.2070 C.3   1 <1>  -0.0970 
 13 C       -1.5150     0.8100     0.3950 C.3   1 <1>   0.2090 
 14 C       -3.1150     0.4770    -1.4660 C.3   1 <1>   0.2090 
 15 C       -3.8750    -3.4600     0.2350 C.ar  1 <1>   0.2180 
 16 C       -2.3220     2.0680     0.7690 C.3   1 <1>   0.1200 
 17 C       -3.8520     1.7360    -0.9770 C.3   1 <1>   0.1200 
 18 C       -5.2280    -4.1490     0.1730 C.3   1 <1>  -0.0970 
 19 O       -2.9620     2.6140    -0.3510 O.3   1 <1>  -0.5600 
 20 H        2.0910    -0.3400     0.0010 H     1 <1>   0.0800 
 21 H        1.9690    -0.4360    -1.7450 H     1 <1>   0.0800 
 22 H        2.7990    -2.7290     0.0730 H     1 <1>   0.0800 
 23 H        3.8610    -1.8250    -0.9690 H     1 <1>   0.0800 
 24 H        2.6260    -2.8340    -1.6760 H     1 <1>   0.0800 
 25 H       -4.5530    -1.5710    -0.4310 H     1 <1>   0.1500 
 26 H       -2.9450    -5.1530     0.9320 H     1 <1>   0.4570 
 27 H       -0.3520    -4.4990     2.2760 H     1 <1>   0.0800 
 28 H        0.4890    -4.3160     0.7620 H     1 <1>   0.0800 
 29 H       -0.6660    -5.5920     0.9460 H     1 <1>   0.0800 
 30 H       -0.6810     1.0960    -0.2220 H     1 <1>   0.0800 
 31 H       -1.1330     0.3800     1.3030 H     1 <1>   0.0800 
 32 H       -3.8130    -0.1990    -1.9240 H     1 <1>   0.0800 
 33 H       -2.4100     0.7700    -2.2260 H     1 <1>   0.0800 
 34 H       -1.6680     2.8200     1.1720 H     1 <1>   0.0800 
 35 H       -3.0680     1.8300     1.5070 H     1 <1>   0.0800 
 36 H       -4.6290     1.4760    -0.2790 H     1 <1>   0.0800 
 37 H       -4.2920     2.2560    -1.8090 H     1 <1>   0.0800 
 38 H       -5.9830    -3.4680    -0.1790 H     1 <1>   0.0800 
 39 H       -5.5200    -4.4950     1.1490 H     1 <1>   0.0800 
 40 H       -5.1930    -4.9860    -0.5020 H     1 <1>   0.0800 
@<TRIPOS>BOND
  1   1   2  2   
  2   2   3  1   
  3   2   4  1   
  4   3   5  1   
  5   4   6  ar  
  6   4   7  ar  
  7   5   8  1   
  8   5  20  1   
  9   5  21  1   
 10   6   9  1   
 11   6  10  ar  
 12   7  11  ar  
 13   7  12  1   
 14   8  22  1   
 15   8  23  1   
 16   8  24  1   
 17   9  13  1   
 18   9  14  1   
 19  10  15  ar  
 20  10  25  1   
 21  11  15  ar  
 22  11  26  1   
 23  12  27  1   
 24  12  28  1   
 25  12  29  1   
 26  13  16  1   
 27  13  30  1   
 28  13  31  1   
 29  14  17  1   
 30  14  32  1   
 31  14  33  1   
 32  15  18  1   
 33  16  19  1   
 34  16  34  1   
 35  16  35  1   
 36  17  19  1   
 37  17  36  1   
 38  17  37  1   
 39  18  38  1   
 40  18  39  1   
 41  18  40  1   
@<TRIPOS>SUBSTRUCTURE
  1 ****   6 GROUP 4 **** **** 0

# MOE 2024.06 (io_trps.svl 2023.06)
