@<TRIPOS>MOLECULE
NONAME
42 42 1 0 0 
SMALL
USER_CHARGES


@<TRIPOS>ATOM
  1 N        0.0830    -0.0170    -0.0030 N.4   1 <1>  -0.9590 
  2 C        1.4700     0.5840     0.0340 C.3   1 <1>   0.3430 
  3 C       -0.8540     0.8230     0.8020 C.3   1 <1>   0.3430 
  4 C        0.0210    -1.4370     0.4630 C.3   1 <1>   0.3430 
  5 C        2.4980    -0.0660    -0.9380 C.3   1 <1>   0.3430 
  6 C       -2.2840     0.5750     0.3360 C.3   1 <1>  -0.2400 
  7 C       -0.0230    -2.3570    -0.7500 C.3   1 <1>  -0.2400 
  8 N        3.8510     0.6020    -0.9960 N.4   1 <1>  -0.9590 
  9 C        4.6630     0.4770     0.2570 C.3   1 <1>   0.4860 
 10 C        3.8210     2.0200    -1.4970 C.3   1 <1>   0.2630 
 11 C        6.0960     0.8340    -0.0730 C.ar  1 <1>  -0.1440 
 12 C        6.8970    -0.0580    -0.7740 C.ar  1 <1>  -0.1500 
 13 C        6.6190     2.0600     0.3160 C.ar  1 <1>  -0.1500 
 14 C        8.1990     0.2810    -1.0950 C.ar  1 <1>  -0.1500 
 15 C        7.9220     2.3950    -0.0060 C.ar  1 <1>  -0.1500 
 16 C        8.7110     1.5070    -0.7130 C.ar  1 <1>  -0.1500 
 17 H       -0.2970     0.0030    -0.9630 H     1 <1>   0.4500 
 18 H        1.8500     0.5140     1.0400 H     1 <1>   0.0800 
 19 H        1.3900     1.6290    -0.2170 H     1 <1>   0.0800 
 20 H       -0.6280     1.8690     0.6620 H     1 <1>   0.0800 
 21 H       -0.7610     0.5950     1.8530 H     1 <1>   0.0800 
 22 H       -0.8730    -1.5990     1.0460 H     1 <1>   0.0800 
 23 H        0.8670    -1.6740     1.0890 H     1 <1>   0.0800 
 24 H        2.0740    -0.0560    -1.9300 H     1 <1>   0.0800 
 25 H        2.6360    -1.0960    -0.6530 H     1 <1>   0.0800 
 26 H       -2.3990     0.8150    -0.7060 H     1 <1>   0.0800 
 27 H       -2.9490     1.2120     0.8930 H     1 <1>   0.0800 
 28 H       -2.5920    -0.4410     0.5090 H     1 <1>   0.0800 
 29 H       -0.8910    -2.1510    -1.3520 H     1 <1>   0.0800 
 30 H       -0.1010    -3.3760    -0.4120 H     1 <1>   0.0800 
 31 H        0.8620    -2.2820    -1.3530 H     1 <1>   0.0800 
 32 H        4.4230     0.0930    -1.6930 H     1 <1>   0.4500 
 33 H        4.6360    -0.5360     0.6260 H     1 <1>   0.0800 
 34 H        4.2900     1.1350     1.0240 H     1 <1>   0.0800 
 35 H        3.3360     2.6700    -0.7880 H     1 <1>   0.0800 
 36 H        3.3000     2.0780    -2.4400 H     1 <1>   0.0800 
 37 H        4.8270     2.3820    -1.6520 H     1 <1>   0.0800 
 38 H        6.5320    -1.0250    -1.0760 H     1 <1>   0.1500 
 39 H        6.0310     2.7690     0.8750 H     1 <1>   0.1500 
 40 H        8.8230    -0.4100    -1.6380 H     1 <1>   0.1500 
 41 H        8.3290     3.3460     0.2960 H     1 <1>   0.1500 
 42 H        9.7270     1.7690    -0.9620 H     1 <1>   0.1500 
@<TRIPOS>BOND
  1   1   2  1   
  2   1   3  1   
  3   1   4  1   
  4   1  17  1   
  5   2   5  1   
  6   2  18  1   
  7   2  19  1   
  8   3   6  1   
  9   3  20  1   
 10   3  21  1   
 11   4   7  1   
 12   4  22  1   
 13   4  23  1   
 14   5   8  1   
 15   5  24  1   
 16   5  25  1   
 17   6  26  1   
 18   6  27  1   
 19   6  28  1   
 20   7  29  1   
 21   7  30  1   
 22   7  31  1   
 23   8   9  1   
 24   8  10  1   
 25   8  32  1   
 26   9  11  1   
 27   9  33  1   
 28   9  34  1   
 29  10  35  1   
 30  10  36  1   
 31  10  37  1   
 32  11  12  ar  
 33  11  13  ar  
 34  12  14  ar  
 35  12  38  1   
 36  13  15  ar  
 37  13  39  1   
 38  14  16  ar  
 39  14  40  1   
 40  15  16  ar  
 41  15  41  1   
 42  16  42  1   
@<TRIPOS>SUBSTRUCTURE
  1 ****   8 GROUP 4 **** **** 0

# MOE 2024.06 (io_trps.svl 2023.06)
