@<TRIPOS>MOLECULE
NONAME
55 56 1 0 0 
SMALL
USER_CHARGES


@<TRIPOS>ATOM
  1 O       -0.1620     4.9790    -0.5030 O.3   1 <1>  -0.5600 
  2 C       -0.2680     4.3540     0.7480 C.3   1 <1>   0.2000 
  3 C       -0.6600     6.2870    -0.6340 C.3   1 <1>   0.2000 
  4 C       -1.7540     4.2500     1.1850 C.3   1 <1>   0.3430 
  5 C        0.6250     5.0800     1.7620 C.3   1 <1>  -0.2400 
  6 C       -1.9500     6.5130     0.1990 C.3   1 <1>   0.3430 
  7 C       -0.9150     6.4880    -2.1270 C.3   1 <1>  -0.2400 
  8 N       -2.6500     5.2190     0.4630 N.4   1 <1>  -0.9590 
  9 C       -4.0250     5.3420     1.0350 C.3   1 <1>   0.3430 
 10 C       -4.8810     4.1170     0.6480 C.3   1 <1>   0.2000 
 11 O       -4.5410     3.7190    -0.6460 O.3   1 <1>  -0.6800 
 12 C       -6.3870     4.4030     0.6990 C.3   1 <1>   0.1200 
 13 O       -7.0640     3.2830     0.1700 O.3   1 <1>  -0.3630 
 14 C       -8.4160     3.2480     0.0330 C.ar  1 <1>   0.0830 
 15 C       -8.9920     2.1080    -0.5310 C.ar  1 <1>  -0.1430 
 16 C       -9.2280     4.3100     0.4340 C.ar  1 <1>  -0.1500 
 17 C      -10.3720     2.0660    -0.6860 C.ar  1 <1>  -0.1500 
 18 C       -8.1500     0.9090    -0.9850 C.3   1 <1>   0.0630 
 19 C      -10.6010     4.2520     0.2740 C.ar  1 <1>  -0.1430 
 20 C      -11.1690     3.1240    -0.2880 C.ar  1 <1>  -0.1500 
 21 C       -8.2450     0.7230    -2.5030 C.3   1 <1>  -0.2400 
 22 C       -8.5690    -0.3730    -0.2550 C.3   1 <1>  -0.2400 
 23 C      -11.4810     5.4080     0.7120 C.3   1 <1>  -0.0970 
 24 H        0.1190     3.3560     0.6240 H     1 <1>   0.0800 
 25 H        0.1070     6.9720    -0.3130 H     1 <1>   0.0800 
 26 H       -1.8090     4.4140     2.2480 H     1 <1>   0.0800 
 27 H       -2.0970     3.2450     0.9960 H     1 <1>   0.0800 
 28 H        0.2610     6.0640     1.9930 H     1 <1>   0.0800 
 29 H        1.6270     5.1530     1.3760 H     1 <1>   0.0800 
 30 H        0.6660     4.5180     2.6780 H     1 <1>   0.0800 
 31 H       -2.5970     7.1920    -0.3310 H     1 <1>   0.0800 
 32 H       -1.6830     6.9770     1.1340 H     1 <1>   0.0800 
 33 H       -1.6570     5.7960    -2.4840 H     1 <1>   0.0800 
 34 H       -0.0020     6.3350    -2.6750 H     1 <1>   0.0800 
 35 H       -1.2550     7.4900    -2.3190 H     1 <1>   0.0800 
 36 H       -2.8060     4.7790    -0.4670 H     1 <1>   0.4500 
 37 H       -4.4990     6.2200     0.6260 H     1 <1>   0.0800 
 38 H       -3.9880     5.4530     2.1060 H     1 <1>   0.0800 
 39 H       -4.6610     3.2980     1.3100 H     1 <1>   0.0800 
 40 H       -5.2530     3.1230    -0.9830 H     1 <1>   0.4000 
 41 H       -6.6320     5.2620     0.0990 H     1 <1>   0.0800 
 42 H       -6.7170     4.5510     1.7120 H     1 <1>   0.0800 
 43 H       -8.8120     5.1930     0.8750 H     1 <1>   0.1500 
 44 H      -10.8410     1.2030    -1.1220 H     1 <1>   0.1500 
 45 H       -7.1150     1.0750    -0.7500 H     1 <1>   0.0800 
 46 H      -12.2350     3.0610    -0.4190 H     1 <1>   0.1500 
 47 H       -9.2520     0.4890    -2.7980 H     1 <1>   0.0800 
 48 H       -7.5990    -0.0750    -2.8230 H     1 <1>   0.0800 
 49 H       -7.9450     1.6280    -3.0000 H     1 <1>   0.0800 
 50 H       -9.5730    -0.6560    -0.5120 H     1 <1>   0.0800 
 51 H       -8.5180    -0.2180     0.8080 H     1 <1>   0.0800 
 52 H       -7.9090    -1.1810    -0.5140 H     1 <1>   0.0800 
 53 H      -10.9440     6.3380     0.6550 H     1 <1>   0.0800 
 54 H      -11.8050     5.2550     1.7260 H     1 <1>   0.0800 
 55 H      -12.3480     5.4800     0.0790 H     1 <1>   0.0800 
@<TRIPOS>BOND
  1   1   2  1   
  2   1   3  1   
  3   2   4  1   
  4   2   5  1   
  5   2  24  1   
  6   3   6  1   
  7   3   7  1   
  8   3  25  1   
  9   4   8  1   
 10   4  26  1   
 11   4  27  1   
 12   5  28  1   
 13   5  29  1   
 14   5  30  1   
 15   6   8  1   
 16   6  31  1   
 17   6  32  1   
 18   7  33  1   
 19   7  34  1   
 20   7  35  1   
 21   8   9  1   
 22   8  36  1   
 23   9  10  1   
 24   9  37  1   
 25   9  38  1   
 26  10  11  1   
 27  10  12  1   
 28  10  39  1   
 29  11  40  1   
 30  12  13  1   
 31  12  41  1   
 32  12  42  1   
 33  13  14  1   
 34  14  15  ar  
 35  14  16  ar  
 36  15  17  ar  
 37  15  18  1   
 38  16  19  ar  
 39  16  43  1   
 40  17  20  ar  
 41  17  44  1   
 42  18  21  1   
 43  18  22  1   
 44  18  45  1   
 45  19  20  ar  
 46  19  23  1   
 47  20  46  1   
 48  21  47  1   
 49  21  48  1   
 50  21  49  1   
 51  22  50  1   
 52  22  51  1   
 53  22  52  1   
 54  23  53  1   
 55  23  54  1   
 56  23  55  1   
@<TRIPOS>SUBSTRUCTURE
  1 ****  10 GROUP 4 **** **** 0

# MOE 2024.06 (io_trps.svl 2023.06)
