@<TRIPOS>MOLECULE
NONAME
34 33 1 0 0 
SMALL
USER_CHARGES


@<TRIPOS>ATOM
  1 O       -0.0340     0.5840     0.7010 O.2   1 <1>  -0.5700 
  2 C       -0.0600     1.5510    -0.0320 C.2   1 <1>   0.6900 
  3 N        1.1110     2.1530    -0.4030 N.am  1 <1>  -0.5390 
  4 N       -1.2140     2.0700    -0.5190 N.am  1 <1>  -0.7300 
  5 C        2.3840     1.8280     0.0410 C.2   1 <1>  -0.0410 
  6 C       -2.5900     1.6160    -0.2900 C.3   1 <1>   0.3000 
  7 C        3.5600     2.3630    -0.3880 C.2   1 <1>   0.0790 
  8 C       -3.4930     2.5570    -1.0840 C.3   1 <1>  -0.2400 
  9 C       -2.7610     0.1870    -0.8070 C.3   1 <1>  -0.2400 
 10 C       -2.9290     1.7170     1.1980 C.3   1 <1>  -0.2400 
 11 C        3.5720     3.3960    -1.3700 C.1   1 <1>   0.4920 
 12 C        4.8510     1.9690     0.0850 C.2   1 <1>   0.7060 
 13 N        3.4710     4.1960    -2.1760 N.1   1 <1>  -0.5570 
 14 O        5.7890     2.7310     0.1610 O.2   1 <1>  -0.5700 
 15 O        5.0780     0.7130     0.4800 O.3   1 <1>  -0.4300 
 16 C        4.6530    -0.4060    -0.2680 C.3   1 <1>   0.1200 
 17 C        5.4010    -1.6260     0.2570 C.3   1 <1>  -0.2400 
 18 H        0.9950     2.8970    -1.0920 H     1 <1>   0.3700 
 19 H       -1.1710     2.9160    -1.0770 H     1 <1>   0.3700 
 20 H        2.4020     1.0680     0.8100 H     1 <1>   0.1500 
 21 H       -3.3840     3.5700    -0.7400 H     1 <1>   0.0800 
 22 H       -4.5220     2.2730    -0.9560 H     1 <1>   0.0800 
 23 H       -3.2630     2.5090    -2.1330 H     1 <1>   0.0800 
 24 H       -3.7880    -0.1180    -0.7180 H     1 <1>   0.0800 
 25 H       -2.1640    -0.5000    -0.2360 H     1 <1>   0.0800 
 26 H       -2.4740     0.1230    -1.8410 H     1 <1>   0.0800 
 27 H       -3.9610     1.4640     1.3600 H     1 <1>   0.0800 
 28 H       -2.7630     2.7160     1.5570 H     1 <1>   0.0800 
 29 H       -2.3290     1.0350     1.7720 H     1 <1>   0.0800 
 30 H        3.5920    -0.5400    -0.1440 H     1 <1>   0.0800 
 31 H        4.8860    -0.2380    -1.3060 H     1 <1>   0.0800 
 32 H        5.1710    -1.7840     1.2960 H     1 <1>   0.0800 
 33 H        6.4620    -1.4880     0.1420 H     1 <1>   0.0800 
 34 H        5.1070    -2.5000    -0.2950 H     1 <1>   0.0800 
@<TRIPOS>BOND
  1   1   2  2   
  2   2   3  am  
  3   2   4  am  
  4   3   5  1   
  5   3  18  1   
  6   4   6  1   
  7   4  19  1   
  8   5   7  2   
  9   5  20  1   
 10   6   8  1   
 11   6   9  1   
 12   6  10  1   
 13   7  11  1   
 14   7  12  1   
 15   8  21  1   
 16   8  22  1   
 17   8  23  1   
 18   9  24  1   
 19   9  25  1   
 20   9  26  1   
 21  10  27  1   
 22  10  28  1   
 23  10  29  1   
 24  11  13  3   
 25  12  14  2   
 26  12  15  1   
 27  15  16  1   
 28  16  17  1   
 29  16  30  1   
 30  16  31  1   
 31  17  32  1   
 32  17  33  1   
 33  17  34  1   
@<TRIPOS>SUBSTRUCTURE
  1 ****   3 GROUP 4 **** **** 0

# MOE 2024.06 (io_trps.svl 2023.06)
