@<TRIPOS>MOLECULE
NONAME
49 51 1 0 0 
SMALL
USER_CHARGES


@<TRIPOS>ATOM
  1 O        0.9110     0.5470     1.1740 O.2   1 <1>  -0.5700 
  2 C        1.2410     1.5360     0.5500 C.2   1 <1>   0.3980 
  3 C        0.2250     2.4950     0.1620 C.ar  1 <1>   0.0860 
  4 C        2.6340     1.7350     0.2140 C.ar  1 <1>   0.0860 
  5 C       -1.0750     2.1030    -0.1220 C.ar  1 <1>  -0.1500 
  6 C        0.4530     3.8620     0.0590 C.ar  1 <1>  -0.1500 
  7 C        3.6430     1.3360     1.0920 C.ar  1 <1>  -0.1500 
  8 C        3.0410     2.3160    -0.9900 C.ar  1 <1>  -0.1500 
  9 C       -2.0260     3.0340    -0.4900 C.ar  1 <1>   0.1600 
 10 C       -0.5670     4.7150    -0.3190 C.ar  1 <1>   0.1600 
 11 C        4.9790     1.5250     0.7980 C.ar  1 <1>  -0.1500 
 12 C        4.3770     2.5070    -1.2860 C.ar  1 <1>  -0.1500 
 13 N       -1.8010     4.3330    -0.6010 N.ar  1 <1>  -0.6200 
 14 C        5.3740     2.1210    -0.3940 C.ar  1 <1>   0.1170 
 15 N        6.7380     2.2860    -0.6480 N.am  1 <1>  -0.5470 
 16 C        7.3990     3.1260    -1.5030 C.2   1 <1>   0.5690 
 17 O        6.8530     3.9420    -2.2020 O.2   1 <1>  -0.5700 
 18 C        8.9110     3.0230    -1.5520 C.3   1 <1>  -0.0990 
 19 C        9.5710     3.6110    -0.2900 C.3   1 <1>  -0.1600 
 20 C       11.1090     3.6400    -0.3570 C.3   1 <1>  -0.0800 
 21 C       11.7190     2.2250    -0.4120 C.3   1 <1>  -0.1600 
 22 C       11.6620     4.4110     0.8550 C.3   1 <1>  -0.1600 
 23 C       13.2540     2.2680    -0.4100 C.3   1 <1>  -0.1600 
 24 C       13.1960     4.4560     0.8500 C.3   1 <1>  -0.1600 
 25 C       13.7890     3.0440     0.7990 C.3   1 <1>  -0.1600 
 26 H       -1.3420     1.0640    -0.0510 H     1 <1>   0.1500 
 27 H        1.4230     4.2690     0.2770 H     1 <1>   0.1500 
 28 H        3.3620     0.8680     2.0210 H     1 <1>   0.1500 
 29 H        2.3020     2.6180    -1.7120 H     1 <1>   0.1500 
 30 H       -3.0260     2.6960    -0.7050 H     1 <1>   0.1500 
 31 H       -0.3600     5.7700    -0.3930 H     1 <1>   0.1500 
 32 H        5.7230     1.2070     1.5050 H     1 <1>   0.1500 
 33 H        4.6450     2.9560    -2.2250 H     1 <1>   0.1500 
 34 H        7.3510     1.7160    -0.0700 H     1 <1>   0.3700 
 35 H        9.2590     3.5570    -2.4180 H     1 <1>   0.0800 
 36 H        9.1750     1.9900    -1.6750 H     1 <1>   0.0800 
 37 H        9.2610     3.0540     0.5780 H     1 <1>   0.0800 
 38 H        9.2130     4.6200    -0.1700 H     1 <1>   0.0800 
 39 H       11.4010     4.1710    -1.2480 H     1 <1>   0.0800 
 40 H       11.4000     1.7150    -1.3030 H     1 <1>   0.0800 
 41 H       11.3840     1.6550     0.4370 H     1 <1>   0.0800 
 42 H       11.3290     3.9400     1.7640 H     1 <1>   0.0800 
 43 H       11.2830     5.4180     0.8480 H     1 <1>   0.0800 
 44 H       13.5980     2.7410    -1.3140 H     1 <1>   0.0800 
 45 H       13.6430     1.2650    -0.3940 H     1 <1>   0.0800 
 46 H       13.5450     4.9620     1.7340 H     1 <1>   0.0800 
 47 H       13.5340     5.0160    -0.0050 H     1 <1>   0.0800 
 48 H       14.8620     3.1050     0.7430 H     1 <1>   0.0800 
 49 H       13.5350     2.5170     1.7030 H     1 <1>   0.0800 
@<TRIPOS>BOND
  1   1   2  2   
  2   2   3  1   
  3   2   4  1   
  4   3   5  ar  
  5   3   6  ar  
  6   4   7  ar  
  7   4   8  ar  
  8   5   9  ar  
  9   5  26  1   
 10   6  10  ar  
 11   6  27  1   
 12   7  11  ar  
 13   7  28  1   
 14   8  12  ar  
 15   8  29  1   
 16   9  13  ar  
 17   9  30  1   
 18  10  13  ar  
 19  10  31  1   
 20  11  14  ar  
 21  11  32  1   
 22  12  14  ar  
 23  12  33  1   
 24  14  15  1   
 25  15  16  am  
 26  15  34  1   
 27  16  17  2   
 28  16  18  1   
 29  18  19  1   
 30  18  35  1   
 31  18  36  1   
 32  19  20  1   
 33  19  37  1   
 34  19  38  1   
 35  20  21  1   
 36  20  22  1   
 37  20  39  1   
 38  21  23  1   
 39  21  40  1   
 40  21  41  1   
 41  22  24  1   
 42  22  42  1   
 43  22  43  1   
 44  23  25  1   
 45  23  44  1   
 46  23  45  1   
 47  24  25  1   
 48  24  46  1   
 49  24  47  1   
 50  25  48  1   
 51  25  49  1   
@<TRIPOS>SUBSTRUCTURE
  1 ****  14 GROUP 4 **** **** 0

# MOE 2024.06 (io_trps.svl 2023.06)
