@<TRIPOS>MOLECULE
NONAME
42 44 1 0 0 
SMALL
USER_CHARGES


@<TRIPOS>ATOM
  1 S        0.1170    -0.1670     0.3450 S.3   1 <1>  -0.0800 
  2 C        0.9280     1.3430     0.7300 C.2   1 <1>   0.1660 
  3 C       -1.4270     0.6630     0.2360 C.2   1 <1>  -0.1400 
  4 N        2.2570     1.4040     0.9630 N.2   1 <1>  -0.5760 
  5 C        0.0540     2.3850     0.7600 C.2   1 <1>  -0.0860 
  6 C       -1.2930     1.9750     0.4670 C.2   1 <1>  -0.1810 
  7 C       -2.7130    -0.0660    -0.0880 C.3   1 <1>   0.3000 
  8 C        2.7010     2.5860     1.2270 C.2   1 <1>   0.6510 
  9 C        0.5950     3.6660     1.0680 C.2   1 <1>   0.7160 
 10 C       -2.5250     2.8590     0.4110 C.3   1 <1>   0.0210 
 11 O       -3.8060     0.8010     0.1170 O.3   1 <1>  -0.5600 
 12 S        4.4540     2.7170     1.5620 S.3   1 <1>  -0.3710 
 13 N        1.9550     3.7440     1.2830 N.am  1 <1>  -0.4200 
 14 O       -0.1100     4.6630     1.1530 O.2   1 <1>  -0.5700 
 15 C       -3.6970     2.1370    -0.3110 C.3   1 <1>   0.2800 
 16 C        5.1070     0.9970     1.3650 C.3   1 <1>  -0.0100 
 17 C        2.5790     5.0780     1.4960 C.3   1 <1>   0.2780 
 18 C       -5.0290     2.7920     0.0580 C.3   1 <1>  -0.2400 
 19 C       -3.5360     2.1590    -1.8400 C.3   1 <1>  -0.2400 
 20 C        3.1530     5.6590     0.2010 C.2   1 <1>  -0.2760 
 21 C        3.0700     5.1120    -1.0190 C.2   1 <1>  -0.3000 
 22 C        3.8640     6.9850     0.4250 C.3   1 <1>  -0.1020 
 23 H       -2.8410    -0.9130     0.5630 H     1 <1>   0.0800 
 24 H       -2.7190    -0.3980    -1.1100 H     1 <1>   0.0800 
 25 H       -2.3000     3.7760    -0.1030 H     1 <1>   0.0800 
 26 H       -2.8110     3.1110     1.4160 H     1 <1>   0.0800 
 27 H        6.1650     1.0220     1.5500 H     1 <1>   0.0800 
 28 H        4.8990     0.6770     0.3590 H     1 <1>   0.0800 
 29 H        4.6040     0.3680     2.0780 H     1 <1>   0.0800 
 30 H        3.3550     5.0010     2.2360 H     1 <1>   0.0800 
 31 H        1.8510     5.7650     1.8930 H     1 <1>   0.0800 
 32 H       -5.1890     2.7350     1.1190 H     1 <1>   0.0800 
 33 H       -5.8390     2.2950    -0.4430 H     1 <1>   0.0800 
 34 H       -5.0300     3.8270    -0.2330 H     1 <1>   0.0800 
 35 H       -4.3140     1.5810    -2.3050 H     1 <1>   0.0800 
 36 H       -2.5780     1.7740    -2.1370 H     1 <1>   0.0800 
 37 H       -3.6040     3.1690    -2.2000 H     1 <1>   0.0800 
 38 H        2.5820     4.1820    -1.2510 H     1 <1>   0.1500 
 39 H        3.4900     5.5560    -1.9050 H     1 <1>   0.1500 
 40 H        4.6860     6.8560     1.1070 H     1 <1>   0.0800 
 41 H        3.1820     7.7100     0.8310 H     1 <1>   0.0800 
 42 H        4.2530     7.3700    -0.5020 H     1 <1>   0.0800 
@<TRIPOS>BOND
  1   1   2  1   
  2   1   3  1   
  3   2   4  1   
  4   2   5  2   
  5   3   6  2   
  6   3   7  1   
  7   4   8  2   
  8   5   6  1   
  9   5   9  1   
 10   6  10  1   
 11   7  11  1   
 12   7  23  1   
 13   7  24  1   
 14   8  12  1   
 15   8  13  1   
 16   9  13  am  
 17   9  14  2   
 18  10  15  1   
 19  10  25  1   
 20  10  26  1   
 21  11  15  1   
 22  12  16  1   
 23  13  17  1   
 24  15  18  1   
 25  15  19  1   
 26  16  27  1   
 27  16  28  1   
 28  16  29  1   
 29  17  20  1   
 30  17  30  1   
 31  17  31  1   
 32  18  32  1   
 33  18  33  1   
 34  18  34  1   
 35  19  35  1   
 36  19  36  1   
 37  19  37  1   
 38  20  21  2   
 39  20  22  1   
 40  21  38  1   
 41  21  39  1   
 42  22  40  1   
 43  22  41  1   
 44  22  42  1   
@<TRIPOS>SUBSTRUCTURE
  1 ****   5 GROUP 4 **** **** 0

# MOE 2024.06 (io_trps.svl 2023.06)
