@<TRIPOS>MOLECULE
NONAME
36 37 1 0 0 
SMALL
USER_CHARGES


@<TRIPOS>ATOM
  1 O        0.5080     0.6490    -0.0570 O.2   1 <1>  -0.5700 
  2 C        0.1080     1.6970     0.4070 C.2   1 <1>   0.6900 
  3 N       -1.1710     2.1340     0.2420 N.am  1 <1>  -0.5470 
  4 N        0.9470     2.4880     1.1180 N.am  1 <1>  -0.7300 
  5 C       -2.2780     1.6380    -0.4700 C.ar  1 <1>   0.1170 
  6 C        2.3740     2.1630     1.3980 C.3   1 <1>   0.1400 
  7 C       -3.5310     2.2110    -0.2230 C.ar  1 <1>   0.0830 
  8 C       -2.1830     0.6190    -1.4130 C.ar  1 <1>  -0.1500 
  9 C        3.2490     2.2830     0.1410 C.3   1 <1>   0.2000 
 10 O       -3.5870     3.2180     0.7030 O.3   1 <1>  -0.3630 
 11 C       -4.6540     1.7540    -0.9070 C.ar  1 <1>  -0.1500 
 12 C       -3.3030     0.1690    -2.0890 C.ar  1 <1>  -0.1500 
 13 O        4.5890     2.2160     0.5050 O.3   1 <1>  -0.5600 
 14 C        3.1420     3.6100    -0.6030 C.3   1 <1>  -0.1600 
 15 C       -4.8160     3.8100     1.0640 C.3   1 <1>   0.0400 
 16 C       -4.5380     0.7360    -1.8360 C.ar  1 <1>  -0.1500 
 17 C        5.3800     2.7360    -0.5130 C.3   1 <1>   0.1200 
 18 C        4.5120     3.7570    -1.2450 C.3   1 <1>  -0.1600 
 19 H       -1.4300     2.9150     0.8380 H     1 <1>   0.3700 
 20 H        0.6510     3.4320     1.3570 H     1 <1>   0.3700 
 21 H        2.4370     1.1540     1.7670 H     1 <1>   0.0800 
 22 H        2.7430     2.8310     2.1550 H     1 <1>   0.0800 
 23 H       -1.2320     0.1680    -1.6280 H     1 <1>   0.1500 
 24 H        3.0530     1.4590    -0.5260 H     1 <1>   0.0800 
 25 H       -5.6270     2.1740    -0.7360 H     1 <1>   0.1500 
 26 H       -3.2080    -0.6220    -2.8120 H     1 <1>   0.1500 
 27 H        2.9730     4.4080     0.0980 H     1 <1>   0.0800 
 28 H        2.3440     3.5910    -1.3240 H     1 <1>   0.0800 
 29 H       -4.6230     4.5510     1.8190 H     1 <1>   0.0800 
 30 H       -5.4690     3.0510     1.4580 H     1 <1>   0.0800 
 31 H       -5.2470     4.2790     0.1970 H     1 <1>   0.0800 
 32 H       -5.4080     0.3840    -2.3640 H     1 <1>   0.1500 
 33 H        5.6630     1.9250    -1.1630 H     1 <1>   0.0800 
 34 H        6.2560     3.1820    -0.0750 H     1 <1>   0.0800 
 35 H        4.9000     4.7530    -1.1230 H     1 <1>   0.0800 
 36 H        4.4790     3.5190    -2.2940 H     1 <1>   0.0800 
@<TRIPOS>BOND
  1   1   2  2   
  2   2   3  am  
  3   2   4  am  
  4   3   5  1   
  5   3  19  1   
  6   4   6  1   
  7   4  20  1   
  8   5   7  ar  
  9   5   8  ar  
 10   6   9  1   
 11   6  21  1   
 12   6  22  1   
 13   7  10  1   
 14   7  11  ar  
 15   8  12  ar  
 16   8  23  1   
 17   9  13  1   
 18   9  14  1   
 19   9  24  1   
 20  10  15  1   
 21  11  16  ar  
 22  11  25  1   
 23  12  16  ar  
 24  12  26  1   
 25  13  17  1   
 26  14  18  1   
 27  14  27  1   
 28  14  28  1   
 29  15  29  1   
 30  15  30  1   
 31  15  31  1   
 32  16  32  1   
 33  17  18  1   
 34  17  33  1   
 35  17  34  1   
 36  18  35  1   
 37  18  36  1   
@<TRIPOS>SUBSTRUCTURE
  1 ****   2 GROUP 4 **** **** 0

# MOE 2024.06 (io_trps.svl 2023.06)
