@<TRIPOS>MOLECULE
NONAME
44 45 1 0 0 
SMALL
USER_CHARGES


@<TRIPOS>ATOM
  1 S        0.0670    -0.0180    -0.4990 S.o2  1 <1>   1.4470 
  2 O        0.6030    -0.3820     0.7940 O.2   1 <1>  -0.6500 
  3 O        0.1050    -0.9840    -1.5710 O.2   1 <1>  -0.6500 
  4 N        0.9960     1.2480    -1.0890 N.am  1 <1>  -0.9140 
  5 C       -1.6020     0.6790    -0.3580 C.ar  1 <1>  -0.0090 
  6 C        1.6510     2.0940    -0.1070 C.3   1 <1>   0.2760 
  7 C       -2.3460     0.5390     0.8050 C.ar  1 <1>  -0.1500 
  8 C       -2.1800     1.3710    -1.4130 C.ar  1 <1>  -0.1500 
  9 C        0.6070     3.0010     0.5670 C.3   1 <1>  -0.1600 
 10 C        2.7510     2.8570    -0.8600 C.3   1 <1>  -0.1600 
 11 C       -3.6200     1.0660     0.9340 C.ar  1 <1>   0.0830 
 12 C       -3.4480     1.9150    -1.3090 C.ar  1 <1>  -0.1500 
 13 C        1.1630     4.0760     1.5170 C.3   1 <1>  -0.1600 
 14 C        3.7470     3.5550     0.0810 C.3   1 <1>  -0.1600 
 15 O       -4.2100     0.8280     2.1390 O.3   1 <1>  -0.3620 
 16 C       -4.1850     1.7810    -0.1350 C.ar  1 <1>   0.0830 
 17 C        1.8620     5.2210     0.7720 C.3   1 <1>  -0.1600 
 18 C        3.3520     4.9830     0.4860 C.3   1 <1>  -0.1600 
 19 C       -5.6110     0.7400     2.2780 C.3   1 <1>   0.0400 
 20 O       -5.4220     2.3430    -0.0090 O.3   1 <1>  -0.3630 
 21 C       -5.9740     3.1850    -0.9970 C.3   1 <1>   0.0400 
 22 H        1.7270     0.7620    -1.6020 H     1 <1>   0.4200 
 23 H        2.1280     1.4810     0.6420 H     1 <1>   0.0800 
 24 H       -1.9280     0.0030     1.6400 H     1 <1>   0.1500 
 25 H       -1.6250     1.4860    -2.3290 H     1 <1>   0.1500 
 26 H       -0.0450     2.3830     1.1570 H     1 <1>   0.0800 
 27 H        0.0090     3.4780    -0.1900 H     1 <1>   0.0800 
 28 H        2.3180     3.5660    -1.5440 H     1 <1>   0.0800 
 29 H        3.3150     2.1470    -1.4380 H     1 <1>   0.0800 
 30 H       -3.8380     2.4410    -2.1590 H     1 <1>   0.1500 
 31 H        1.8190     3.6380     2.2500 H     1 <1>   0.0800 
 32 H        0.3280     4.4940     2.0510 H     1 <1>   0.0800 
 33 H        4.7050     3.6090    -0.4090 H     1 <1>   0.0800 
 34 H        3.8870     2.9570     0.9650 H     1 <1>   0.0800 
 35 H        1.7810     6.1170     1.3650 H     1 <1>   0.0800 
 36 H        1.3440     5.4170    -0.1510 H     1 <1>   0.0800 
 37 H        3.6510     5.6610    -0.2950 H     1 <1>   0.0800 
 38 H        3.9190     5.2480     1.3620 H     1 <1>   0.0800 
 39 H       -5.8250     0.2360     3.2030 H     1 <1>   0.0800 
 40 H       -6.0130     0.1820     1.4510 H     1 <1>   0.0800 
 41 H       -6.0200     1.7340     2.3050 H     1 <1>   0.0800 
 42 H       -5.3090     4.0150    -1.1610 H     1 <1>   0.0800 
 43 H       -6.9220     3.5440    -0.6380 H     1 <1>   0.0800 
 44 H       -6.1180     2.6190    -1.9000 H     1 <1>   0.0800 
@<TRIPOS>BOND
  1   1   2  2   
  2   1   3  2   
  3   1   4  am  
  4   1   5  1   
  5   4   6  1   
  6   4  22  1   
  7   5   7  ar  
  8   5   8  ar  
  9   6   9  1   
 10   6  10  1   
 11   6  23  1   
 12   7  11  ar  
 13   7  24  1   
 14   8  12  ar  
 15   8  25  1   
 16   9  13  1   
 17   9  26  1   
 18   9  27  1   
 19  10  14  1   
 20  10  28  1   
 21  10  29  1   
 22  11  15  1   
 23  11  16  ar  
 24  12  16  ar  
 25  12  30  1   
 26  13  17  1   
 27  13  31  1   
 28  13  32  1   
 29  14  18  1   
 30  14  33  1   
 31  14  34  1   
 32  15  19  1   
 33  16  20  1   
 34  17  18  1   
 35  17  35  1   
 36  17  36  1   
 37  18  37  1   
 38  18  38  1   
 39  19  39  1   
 40  19  40  1   
 41  19  41  1   
 42  20  21  1   
 43  21  42  1   
 44  21  43  1   
 45  21  44  1   
@<TRIPOS>SUBSTRUCTURE
  1 ****   5 GROUP 4 **** **** 0

# MOE 2024.06 (io_trps.svl 2023.06)
