@<TRIPOS>MOLECULE
NONAME
43 44 1 0 0 
SMALL
USER_CHARGES


@<TRIPOS>ATOM
  1 CL      -4.9920     2.0790    -1.7470 Cl    1 <1>  -0.1770 
  2 C       -3.2930     2.4970    -1.6850 C.ar  1 <1>   0.1770 
  3 C       -2.8100     3.3510    -0.6950 C.ar  1 <1>   0.0820 
  4 C       -2.4470     1.9610    -2.6370 C.ar  1 <1>  -0.1500 
  5 O       -3.6340     3.8790     0.2390 O.3   1 <1>  -0.3630 
  6 C       -1.4620     3.6810    -0.6710 C.ar  1 <1>  -0.1500 
  7 C       -1.1070     2.2960    -2.5920 C.ar  1 <1>   0.1770 
  8 C       -3.6500     3.2330     1.5090 C.3   1 <1>   0.2610 
  9 C       -0.6060     3.1490    -1.6220 C.ar  1 <1>  -0.1500 
 10 CL      -0.0220     1.6310    -3.7850 Cl    1 <1>  -0.1770 
 11 C       -5.0030     2.5350     1.7430 C.2   1 <1>   0.5690 
 12 C       -3.2800     4.2600     2.5880 C.3   1 <1>  -0.2400 
 13 O       -4.9590     1.3610     2.0300 O.2   1 <1>  -0.5700 
 14 N       -6.2250     3.1650     1.5990 N.am  1 <1>  -0.6600 
 15 C       -6.4400     4.5430     1.0670 C.3   1 <1>   0.1400 
 16 C       -7.4820     2.3610     1.5880 C.3   1 <1>   0.1400 
 17 C       -6.9560     4.4690    -0.3840 C.3   1 <1>   0.3430 
 18 C       -7.9750     2.2260     0.1370 C.3   1 <1>   0.3430 
 19 N       -8.1580     3.5680    -0.5370 N.4   1 <1>  -0.9590 
 20 C       -8.4990     3.4050    -1.9660 C.3   1 <1>   0.4810 
 21 C       -9.9270     2.9130    -2.0290 C.2   1 <1>  -0.2880 
 22 C      -10.9860     3.6620    -2.3540 C.2   1 <1>  -0.3000 
 23 H       -2.8170     1.2980    -3.3970 H     1 <1>   0.1500 
 24 H       -1.0840     4.3490     0.0840 H     1 <1>   0.1500 
 25 H       -2.8920     2.4680     1.5030 H     1 <1>   0.0800 
 26 H        0.4430     3.3920    -1.6180 H     1 <1>   0.1500 
 27 H       -4.0030     5.0500     2.6500 H     1 <1>   0.0800 
 28 H       -2.3100     4.6770     2.3840 H     1 <1>   0.0800 
 29 H       -3.2380     3.7690     3.5440 H     1 <1>   0.0800 
 30 H       -5.5370     5.1220     1.0900 H     1 <1>   0.0800 
 31 H       -7.1600     5.0530     1.6830 H     1 <1>   0.0800 
 32 H       -8.2280     2.8450     2.1940 H     1 <1>   0.0800 
 33 H       -7.3180     1.3810     2.0020 H     1 <1>   0.0800 
 34 H       -6.1500     4.1090    -1.0010 H     1 <1>   0.0800 
 35 H       -7.2000     5.4630    -0.7210 H     1 <1>   0.0800 
 36 H       -8.9060     1.6830     0.1340 H     1 <1>   0.0800 
 37 H       -7.2510     1.6410    -0.4060 H     1 <1>   0.0800 
 38 H       -8.9700     4.0250    -0.1040 H     1 <1>   0.4500 
 39 H       -7.8280     2.7140    -2.4510 H     1 <1>   0.0800 
 40 H       -8.4360     4.3580    -2.4670 H     1 <1>   0.0800 
 41 H      -10.0240     1.8670    -1.7900 H     1 <1>   0.1500 
 42 H      -11.9950     3.2840    -2.3980 H     1 <1>   0.1500 
 43 H      -10.9530     4.7090    -2.6110 H     1 <1>   0.1500 
@<TRIPOS>BOND
  1   1   2  1   
  2   2   3  ar  
  3   2   4  ar  
  4   3   5  1   
  5   3   6  ar  
  6   4   7  ar  
  7   4  23  1   
  8   5   8  1   
  9   6   9  ar  
 10   6  24  1   
 11   7   9  ar  
 12   7  10  1   
 13   8  11  1   
 14   8  12  1   
 15   8  25  1   
 16   9  26  1   
 17  11  13  2   
 18  11  14  am  
 19  12  27  1   
 20  12  28  1   
 21  12  29  1   
 22  14  15  1   
 23  14  16  1   
 24  15  17  1   
 25  15  30  1   
 26  15  31  1   
 27  16  18  1   
 28  16  32  1   
 29  16  33  1   
 30  17  19  1   
 31  17  34  1   
 32  17  35  1   
 33  18  19  1   
 34  18  36  1   
 35  18  37  1   
 36  19  20  1   
 37  19  38  1   
 38  20  21  1   
 39  20  39  1   
 40  20  40  1   
 41  21  22  2   
 42  21  41  1   
 43  22  42  1   
 44  22  43  1   
@<TRIPOS>SUBSTRUCTURE
  1 ****   1 GROUP 4 **** **** 0

# MOE 2024.06 (io_trps.svl 2023.06)
