@<TRIPOS>MOLECULE
NONAME
47 48 1 0 0 
SMALL
USER_CHARGES


@<TRIPOS>ATOM
  1 BR      -0.7390    -1.7330     3.1800 Br    1 <1>  -0.1110 
  2 C       -1.1390    -1.9920     1.3090 C.ar  1 <1>   0.1110 
  3 C       -0.1510    -1.7690     0.3580 C.ar  1 <1>   0.0830 
  4 C       -2.4160    -2.3980     0.9730 C.ar  1 <1>  -0.1500 
  5 O        1.0780    -1.3700     0.7810 O.3   1 <1>  -0.3630 
  6 C       -0.4810    -1.9690    -0.9800 C.ar  1 <1>  -0.1500 
  7 C       -2.7320    -2.5910    -0.3630 C.ar  1 <1>  -0.1430 
  8 C        2.1260    -1.1280    -0.1320 C.3   1 <1>   0.1200 
  9 C       -1.7600    -2.3760    -1.3300 C.ar  1 <1>  -0.1500 
 10 C       -4.1250    -3.0380    -0.7670 C.3   1 <1>  -0.0960 
 11 C        3.3570    -0.6980     0.6590 C.3   1 <1>   0.1200 
 12 O        4.4000    -0.4650    -0.2370 O.3   1 <1>  -0.5600 
 13 C        5.5820    -0.0570     0.3710 C.3   1 <1>   0.1200 
 14 C        6.6100     0.2130    -0.7300 C.3   1 <1>   0.1100 
 15 N        7.9040     0.6750    -0.1790 N.3   1 <1>  -0.8100 
 16 C        8.6800    -0.4320     0.4380 C.3   1 <1>   0.1100 
 17 C        8.7110     1.3360    -1.2340 C.3   1 <1>   0.1100 
 18 C       10.0700     0.0250     0.9480 C.3   1 <1>   0.3430 
 19 C       10.0740     1.8500    -0.7060 C.3   1 <1>   0.3430 
 20 N       10.2650     1.4970     0.7400 N.4   1 <1>  -0.9590 
 21 C       11.5370     2.0190     1.3170 C.3   1 <1>   0.2630 
 22 H       -3.1450    -2.5580     1.7470 H     1 <1>   0.1500 
 23 H        0.2390    -1.8140    -1.7620 H     1 <1>   0.1500 
 24 H        1.8200    -0.3430    -0.8010 H     1 <1>   0.0800 
 25 H        2.3270    -2.0380    -0.6690 H     1 <1>   0.0800 
 26 H       -1.9980    -2.5270    -2.3680 H     1 <1>   0.1500 
 27 H       -4.8410    -2.7870    -0.0040 H     1 <1>   0.0800 
 28 H       -4.1370    -4.1030    -0.9150 H     1 <1>   0.0800 
 29 H       -4.4220    -2.5560    -1.6810 H     1 <1>   0.0800 
 30 H        3.6510    -1.4800     1.3380 H     1 <1>   0.0800 
 31 H        3.1510     0.2120     1.1960 H     1 <1>   0.0800 
 32 H        5.9130    -0.8430     1.0260 H     1 <1>   0.0800 
 33 H        5.3920     0.8440     0.9280 H     1 <1>   0.0800 
 34 H        6.2010     0.9790    -1.3680 H     1 <1>   0.0800 
 35 H        6.7530    -0.6780    -1.3190 H     1 <1>   0.0800 
 36 H        8.8150    -1.2280    -0.2760 H     1 <1>   0.0800 
 37 H        8.1300    -0.8380     1.2690 H     1 <1>   0.0800 
 38 H        8.1610     2.1720    -1.6330 H     1 <1>   0.0800 
 39 H        8.8840     0.6490    -2.0450 H     1 <1>   0.0800 
 40 H       10.8360    -0.5250     0.4270 H     1 <1>   0.0800 
 41 H       10.1520    -0.2130     1.9960 H     1 <1>   0.0800 
 42 H       10.1130     2.9200    -0.8290 H     1 <1>   0.0800 
 43 H       10.8660     1.4240    -1.2990 H     1 <1>   0.0800 
 44 H        9.4450     1.9230     1.2050 H     1 <1>   0.4500 
 45 H       12.3840     1.5700     0.8240 H     1 <1>   0.0800 
 46 H       11.5890     1.7940     2.3700 H     1 <1>   0.0800 
 47 H       11.5910     3.0890     1.1930 H     1 <1>   0.0800 
@<TRIPOS>BOND
  1   1   2  1   
  2   2   3  ar  
  3   2   4  ar  
  4   3   5  1   
  5   3   6  ar  
  6   4   7  ar  
  7   4  22  1   
  8   5   8  1   
  9   6   9  ar  
 10   6  23  1   
 11   7   9  ar  
 12   7  10  1   
 13   8  11  1   
 14   8  24  1   
 15   8  25  1   
 16   9  26  1   
 17  10  27  1   
 18  10  28  1   
 19  10  29  1   
 20  11  12  1   
 21  11  30  1   
 22  11  31  1   
 23  12  13  1   
 24  13  14  1   
 25  13  32  1   
 26  13  33  1   
 27  14  15  1   
 28  14  34  1   
 29  14  35  1   
 30  15  16  1   
 31  15  17  1   
 32  16  18  1   
 33  16  36  1   
 34  16  37  1   
 35  17  19  1   
 36  17  38  1   
 37  17  39  1   
 38  18  20  1   
 39  18  40  1   
 40  18  41  1   
 41  19  20  1   
 42  19  42  1   
 43  19  43  1   
 44  20  21  1   
 45  20  44  1   
 46  21  45  1   
 47  21  46  1   
 48  21  47  1   
@<TRIPOS>SUBSTRUCTURE
  1 ****  11 GROUP 4 **** **** 0

# MOE 2024.06 (io_trps.svl 2023.06)
