@<TRIPOS>MOLECULE
NONAME
33 34 1 0 0 
SMALL
USER_CHARGES


@<TRIPOS>ATOM
  1 S       -0.2670     0.2380    -0.0650 S.3   1 <1>  -0.0800 
  2 C       -1.3790    -1.0820     0.0740 C.2   1 <1>   0.4420 
  3 C        1.0210    -0.8990     0.1930 C.2   1 <1>   0.1980 
  4 N       -0.7810    -2.1960     0.2860 N.2   1 <1>  -0.3380 
  5 N       -2.7140    -0.7770    -0.0570 N.am  1 <1>  -0.4940 
  6 N        0.5800    -2.0840     0.3520 N.2   1 <1>  -0.3380 
  7 C        2.4760    -0.3900     0.2030 C.3   1 <1>   0.1800 
  8 C       -3.8200    -1.5810     0.0010 C.2   1 <1>   0.7150 
  9 C        3.4320    -1.5900     0.4510 C.3   1 <1>  -0.1600 
 10 C        2.7970     0.2680    -1.1530 C.3   1 <1>  -0.2400 
 11 C        2.6440     0.6570     1.3210 C.3   1 <1>  -0.2400 
 12 O       -3.7190    -2.7750     0.1960 O.2   1 <1>  -0.5700 
 13 C       -5.1130    -0.9670    -0.1750 C.2   1 <1>   0.0550 
 14 C        4.9420    -1.2900     0.4970 C.3   1 <1>  -0.2400 
 15 O       -5.2210     0.3440    -0.3880 O.3   1 <1>  -0.2800 
 16 C       -6.3640    -1.5060    -0.1680 C.2   1 <1>  -0.1500 
 17 C       -6.4930     0.6480    -0.5150 C.2   1 <1>  -0.0100 
 18 C       -7.2580    -0.4570    -0.3880 C.2   1 <1>  -0.1500 
 19 H       -2.9380     0.2000    -0.2250 H     1 <1>   0.3700 
 20 H        3.2640    -2.3230    -0.3200 H     1 <1>   0.0800 
 21 H        3.1590    -2.0550     1.3830 H     1 <1>   0.0800 
 22 H        2.1230     1.0800    -1.3550 H     1 <1>   0.0800 
 23 H        3.7950     0.6650    -1.1650 H     1 <1>   0.0800 
 24 H        2.7040    -0.4540    -1.9450 H     1 <1>   0.0800 
 25 H        2.4430     0.2100     2.2780 H     1 <1>   0.0800 
 26 H        1.9660     1.4800     1.1830 H     1 <1>   0.0800 
 27 H        3.6400     1.0570     1.3310 H     1 <1>   0.0800 
 28 H        5.2890    -0.8810    -0.4340 H     1 <1>   0.0800 
 29 H        5.4800    -2.2040     0.6740 H     1 <1>   0.0800 
 30 H        5.1820    -0.6090     1.2930 H     1 <1>   0.0800 
 31 H       -6.6250    -2.5400    -0.0210 H     1 <1>   0.1500 
 32 H       -6.7750     1.6720    -0.6940 H     1 <1>   0.1500 
 33 H       -8.3290    -0.5440    -0.4410 H     1 <1>   0.1500 
@<TRIPOS>BOND
  1   1   2  1   
  2   1   3  1   
  3   2   4  2   
  4   2   5  1   
  5   3   6  2   
  6   3   7  1   
  7   4   6  1   
  8   5   8  am  
  9   5  19  1   
 10   7   9  1   
 11   7  10  1   
 12   7  11  1   
 13   8  12  2   
 14   8  13  1   
 15   9  14  1   
 16   9  20  1   
 17   9  21  1   
 18  10  22  1   
 19  10  23  1   
 20  10  24  1   
 21  11  25  1   
 22  11  26  1   
 23  11  27  1   
 24  13  15  1   
 25  13  16  2   
 26  14  28  1   
 27  14  29  1   
 28  14  30  1   
 29  15  17  1   
 30  16  18  1   
 31  16  31  1   
 32  17  18  2   
 33  17  32  1   
 34  18  33  1   
@<TRIPOS>SUBSTRUCTURE
  1 ****   2 GROUP 4 **** **** 0

# MOE 2024.06 (io_trps.svl 2023.06)
