@<TRIPOS>MOLECULE
NONAME
37 37 1 0 0 
SMALL
USER_CHARGES


@<TRIPOS>ATOM
  1 O        1.3660    -0.2690    -0.9230 O.2   1 <1>  -0.5700 
  2 C        1.9910    -1.1420    -0.3500 C.2   1 <1>   0.7800 
  3 O        3.3150    -1.0790    -0.2270 O.3   1 <1>  -0.4300 
  4 N        1.4130    -2.2290     0.2000 N.am  1 <1>  -0.7300 
  5 C        4.1720    -0.0560    -0.6790 C.3   1 <1>   0.2800 
  6 C       -0.0050    -2.5690     0.3710 C.3   1 <1>   0.3000 
  7 C        5.5740    -0.4970    -0.2580 C.3   1 <1>  -0.2400 
  8 C        4.1130     0.0500    -2.2080 C.3   1 <1>  -0.2400 
  9 C        3.8290     1.2680     0.0150 C.3   1 <1>  -0.2400 
 10 C       -0.1130    -3.9840     0.9400 C.3   1 <1>  -0.1860 
 11 C       -0.6710    -2.7340    -0.9990 C.3   1 <1>  -0.1600 
 12 C       -0.6780    -1.5210     1.2580 C.3   1 <1>  -0.2400 
 13 C        0.7520    -4.2320     2.1640 C.2   1 <1>   0.9060 
 14 C        0.1460    -4.9210    -0.2540 C.3   1 <1>  -0.1600 
 15 C       -0.2650    -4.1260    -1.5000 C.3   1 <1>  -0.1600 
 16 O        1.9860    -4.2000     2.0520 O.co2 1 <1>  -0.9000 
 17 O        0.1950    -4.4560     3.2420 O.co2 1 <1>  -0.9000 
 18 H        2.0140    -2.8500     0.7740 H     1 <1>   0.3700 
 19 H        5.8180    -1.4400    -0.7140 H     1 <1>   0.0800 
 20 H        5.6220    -0.6060     0.8110 H     1 <1>   0.0800 
 21 H        6.3050     0.2300    -0.5600 H     1 <1>   0.0800 
 22 H        4.8670     0.7290    -2.5590 H     1 <1>   0.0800 
 23 H        3.1600     0.4240    -2.5320 H     1 <1>   0.0800 
 24 H        4.2840    -0.9140    -2.6520 H     1 <1>   0.0800 
 25 H        4.5690     2.0100    -0.2210 H     1 <1>   0.0800 
 26 H        3.8060     1.1320     1.0810 H     1 <1>   0.0800 
 27 H        2.8770     1.6410    -0.3140 H     1 <1>   0.0800 
 28 H       -1.1300    -4.1370     1.2490 H     1 <1>   0.0800 
 29 H       -1.7380    -2.7160    -0.8670 H     1 <1>   0.0800 
 30 H       -0.4040    -1.9550    -1.6890 H     1 <1>   0.0800 
 31 H       -1.7030    -1.7890     1.4370 H     1 <1>   0.0800 
 32 H       -0.6540    -0.5570     0.7860 H     1 <1>   0.0800 
 33 H       -0.1730    -1.4680     2.2070 H     1 <1>   0.0800 
 34 H        1.1960    -5.1550    -0.3060 H     1 <1>   0.0800 
 35 H       -0.4100    -5.8360    -0.1510 H     1 <1>   0.0800 
 36 H       -1.0760    -4.6010    -2.0230 H     1 <1>   0.0800 
 37 H        0.5810    -4.0400    -2.1610 H     1 <1>   0.0800 
@<TRIPOS>BOND
  1   1   2  2   
  2   2   3  1   
  3   2   4  am  
  4   3   5  1   
  5   4   6  1   
  6   4  18  1   
  7   5   7  1   
  8   5   8  1   
  9   5   9  1   
 10   6  10  1   
 11   6  11  1   
 12   6  12  1   
 13   7  19  1   
 14   7  20  1   
 15   7  21  1   
 16   8  22  1   
 17   8  23  1   
 18   8  24  1   
 19   9  25  1   
 20   9  26  1   
 21   9  27  1   
 22  10  13  1   
 23  10  14  1   
 24  10  28  1   
 25  11  15  1   
 26  11  29  1   
 27  11  30  1   
 28  12  31  1   
 29  12  32  1   
 30  12  33  1   
 31  13  16  ar  
 32  13  17  ar  
 33  14  15  1   
 34  14  34  1   
 35  14  35  1   
 36  15  36  1   
 37  15  37  1   
@<TRIPOS>SUBSTRUCTURE
  1 ****   4 GROUP 4 **** **** 0

# MOE 2024.06 (io_trps.svl 2023.06)
