@<TRIPOS>MOLECULE
NONAME
47 50 1 0 0 
SMALL
USER_CHARGES


@<TRIPOS>ATOM
  1 S        0.5010     1.0020    -1.2220 S.3   1 <1>  -0.3710 
  2 C       -1.2360     1.2030    -0.9500 C.2   1 <1>   0.6510 
  3 C        0.9940     1.9540     0.2880 C.3   1 <1>   0.2910 
  4 N       -2.1050     0.7050    -1.7120 N.2   1 <1>  -0.6960 
  5 N       -1.4360     1.9740     0.1590 N.am  1 <1>  -0.4200 
  6 C       -0.3480     2.4230     0.8420 C.2   1 <1>   0.5690 
  7 C        1.9200     3.1080    -0.1350 C.3   1 <1>   0.1200 
  8 C        1.7350     1.0120     1.2470 C.3   1 <1>   0.1200 
  9 C       -3.5030     0.8880    -1.3530 C.3   1 <1>   0.3560 
 10 C       -2.8110     2.2860     0.5170 C.3   1 <1>   0.4100 
 11 O       -0.4240     3.1470     1.8050 O.2   1 <1>  -0.5700 
 12 O        3.2660     2.8000     0.1050 O.3   1 <1>  -0.5600 
 13 O        3.0110     0.6520     0.7750 O.3   1 <1>  -0.5600 
 14 N       -3.6280     1.1540     0.0870 N.3   1 <1>  -0.8100 
 15 C        3.6290     1.4790    -0.1840 C.3   1 <1>   0.6240 
 16 C       -5.0310     1.3360     0.4660 C.3   1 <1>   0.0300 
 17 C        5.1520     1.3240    -0.1310 C.ar  1 <1>  -0.1440 
 18 C        5.9740     2.3380    -0.6040 C.ar  1 <1>  -0.1500 
 19 C        5.7490     0.1740     0.3670 C.ar  1 <1>  -0.1500 
 20 C        7.3540     2.2250    -0.5840 C.ar  1 <1>   0.0820 
 21 C        7.1260     0.0380     0.3870 C.ar  1 <1>  -0.1500 
 22 O        8.0350     3.3000    -1.0690 O.3   1 <1>  -0.3630 
 23 C        7.9490     1.0530    -0.0930 C.ar  1 <1>   0.0820 
 24 C        9.1970     3.7520    -0.4100 C.3   1 <1>   0.0400 
 25 O        9.3090     0.9240    -0.1120 O.3   1 <1>  -0.3630 
 26 C        9.9480    -0.2880     0.2240 C.3   1 <1>   0.0400 
 27 H        1.7020     3.9910     0.4410 H     1 <1>   0.0800 
 28 H        1.8010     3.3400    -1.1790 H     1 <1>   0.0800 
 29 H        1.1730     0.1110     1.4170 H     1 <1>   0.0800 
 30 H        1.8800     1.5110     2.1910 H     1 <1>   0.0800 
 31 H       -4.0360    -0.0200    -1.5850 H     1 <1>   0.0800 
 32 H       -3.9230     1.6930    -1.9340 H     1 <1>   0.0800 
 33 H       -3.1220     3.1900     0.0200 H     1 <1>   0.0800 
 34 H       -2.8890     2.4170     1.5840 H     1 <1>   0.0800 
 35 H        3.2680     1.2150    -1.1630 H     1 <1>   0.0800 
 36 H       -5.5990     0.4620     0.1930 H     1 <1>   0.0800 
 37 H       -5.4520     2.1960    -0.0280 H     1 <1>   0.0800 
 38 H       -5.1110     1.4670     1.5320 H     1 <1>   0.0800 
 39 H        5.5440     3.2430    -0.9940 H     1 <1>   0.1500 
 40 H        5.1380    -0.6290     0.7430 H     1 <1>   0.1500 
 41 H        7.5320    -0.8720     0.7830 H     1 <1>   0.1500 
 42 H        9.3360     4.7900    -0.6500 H     1 <1>   0.0800 
 43 H       10.0380     3.1820    -0.7600 H     1 <1>   0.0800 
 44 H        9.0700     3.6310     0.6520 H     1 <1>   0.0800 
 45 H       11.0040    -0.1610     0.0720 H     1 <1>   0.0800 
 46 H        9.5780    -1.0680    -0.4180 H     1 <1>   0.0800 
 47 H        9.7520    -0.5110     1.2580 H     1 <1>   0.0800 
@<TRIPOS>BOND
  1   1   2  1   
  2   1   3  1   
  3   2   4  2   
  4   2   5  1   
  5   3   6  1   
  6   3   7  1   
  7   3   8  1   
  8   4   9  1   
  9   5   6  am  
 10   5  10  1   
 11   6  11  2   
 12   7  12  1   
 13   7  27  1   
 14   7  28  1   
 15   8  13  1   
 16   8  29  1   
 17   8  30  1   
 18   9  14  1   
 19   9  31  1   
 20   9  32  1   
 21  10  14  1   
 22  10  33  1   
 23  10  34  1   
 24  12  15  1   
 25  13  15  1   
 26  14  16  1   
 27  15  17  1   
 28  15  35  1   
 29  16  36  1   
 30  16  37  1   
 31  16  38  1   
 32  17  18  ar  
 33  17  19  ar  
 34  18  20  ar  
 35  18  39  1   
 36  19  21  ar  
 37  19  40  1   
 38  20  22  1   
 39  20  23  ar  
 40  21  23  ar  
 41  21  41  1   
 42  22  24  1   
 43  23  25  1   
 44  24  42  1   
 45  24  43  1   
 46  24  44  1   
 47  25  26  1   
 48  26  45  1   
 49  26  46  1   
 50  26  47  1   
@<TRIPOS>SUBSTRUCTURE
  1 ****  15 GROUP 4 **** **** 0

# MOE 2024.06 (io_trps.svl 2023.06)
