@<TRIPOS>MOLECULE
NONAME
28 28 1 0 0 
SMALL
USER_CHARGES


@<TRIPOS>ATOM
  1 F        0.0660    -0.9480     2.1850 F     1 <1>  -0.1900 
  2 C       -0.5690    -1.5400     1.2030 C.ar  1 <1>   0.1900 
  3 C        0.1700    -2.2770     0.2730 C.ar  1 <1>   0.1170 
  4 C       -1.9410    -1.4010     1.1460 C.ar  1 <1>  -0.1500 
  5 N        1.5710    -2.3630     0.4140 N.am  1 <1>  -0.5470 
  6 C       -0.5390    -2.9010    -0.7550 C.ar  1 <1>  -0.1500 
  7 C       -2.5930    -2.0340     0.1080 C.ar  1 <1>   0.1900 
  8 C        2.5550    -2.8060    -0.4250 C.2   1 <1>   0.5690 
  9 C       -1.9190    -2.7810    -0.8420 C.ar  1 <1>  -0.1500 
 10 F       -3.8920    -1.9250     0.0200 F     1 <1>  -0.1900 
 11 O        2.3500    -3.2490    -1.5270 O.2   1 <1>  -0.5700 
 12 C        3.9880    -2.7340     0.0700 C.3   1 <1>  -0.0990 
 13 C        4.7060    -1.4290    -0.3170 C.3   1 <1>  -0.1600 
 14 C        4.0950    -0.1860     0.3470 C.3   1 <1>  -0.1600 
 15 C        4.9010     1.0690     0.0010 C.3   1 <1>  -0.2400 
 16 H       -2.4810    -0.8260     1.8760 H     1 <1>   0.1500 
 17 H        1.9140    -1.9460     1.2800 H     1 <1>   0.3700 
 18 H       -0.0240    -3.4860    -1.4940 H     1 <1>   0.1500 
 19 H       -2.4650    -3.2600    -1.6360 H     1 <1>   0.1500 
 20 H        4.5240    -3.5610    -0.3620 H     1 <1>   0.0800 
 21 H        4.0100    -2.8630     1.1360 H     1 <1>   0.0800 
 22 H        4.6740    -1.3160    -1.3880 H     1 <1>   0.0800 
 23 H        5.7410    -1.5100    -0.0290 H     1 <1>   0.0800 
 24 H        4.0820    -0.3100     1.4160 H     1 <1>   0.0800 
 25 H        3.0830    -0.0470     0.0080 H     1 <1>   0.0800 
 26 H        5.9150     0.9750     0.3490 H     1 <1>   0.0800 
 27 H        4.4580     1.9310     0.4660 H     1 <1>   0.0800 
 28 H        4.9140     1.2250    -1.0640 H     1 <1>   0.0800 
@<TRIPOS>BOND
  1   1   2  1   
  2   2   3  ar  
  3   2   4  ar  
  4   3   5  1   
  5   3   6  ar  
  6   4   7  ar  
  7   4  16  1   
  8   5   8  am  
  9   5  17  1   
 10   6   9  ar  
 11   6  18  1   
 12   7   9  ar  
 13   7  10  1   
 14   8  11  2   
 15   8  12  1   
 16   9  19  1   
 17  12  13  1   
 18  12  20  1   
 19  12  21  1   
 20  13  14  1   
 21  13  22  1   
 22  13  23  1   
 23  14  15  1   
 24  14  24  1   
 25  14  25  1   
 26  15  26  1   
 27  15  27  1   
 28  15  28  1   
@<TRIPOS>SUBSTRUCTURE
  1 ****   3 GROUP 4 **** **** 0

# MOE 2024.06 (io_trps.svl 2023.06)
