@<TRIPOS>MOLECULE
NONAME
54 56 1 0 0 
SMALL
USER_CHARGES


@<TRIPOS>ATOM
  1 S       -0.1280    -0.1350     0.2880 S.3   1 <1>  -0.3320 
  2 C       -1.7890    -0.8000     0.1610 C.ar  1 <1>   0.4120 
  3 C        0.9840    -1.6080     0.0650 C.3   1 <1>   0.1310 
  4 N       -1.8390    -2.1040    -0.0340 N.ar  1 <1>  -0.6200 
  5 C       -2.8770     0.0610     0.2720 C.ar  1 <1>   0.0730 
  6 C        2.4390    -1.2010     0.1880 C.2   1 <1>   0.6590 
  7 C       -3.0510    -2.6200    -0.1310 C.ar  1 <1>   0.4100 
  8 C       -2.6930     1.4660     0.4770 C.1   1 <1>   0.4840 
  9 C       -4.1480    -0.5030     0.1680 C.ar  1 <1>  -0.1430 
 10 O        3.1810    -1.2150    -0.7610 O.2   1 <1>  -0.5700 
 11 O        2.8500    -0.8540     1.4030 O.3   1 <1>  -0.4300 
 12 N       -3.1310    -3.9790    -0.3260 N.pl3 1 <1>  -0.8380 
 13 C       -4.2170    -1.8650    -0.0420 C.ar  1 <1>  -0.1430 
 14 N       -2.6550     2.5940     0.6400 N.1   1 <1>  -0.5570 
 15 C       -5.4260     0.3320     0.2600 C.3   1 <1>  -0.0170 
 16 C        4.1790    -0.4440     1.6470 C.3   1 <1>   0.0400 
 17 C       -2.7700    -4.8530     0.8410 C.3   1 <1>   0.2090 
 18 C       -2.5780    -4.5190    -1.6150 C.3   1 <1>   0.2090 
 19 C       -5.5290    -2.6110    -0.1670 C.3   1 <1>   0.4860 
 20 C       -6.7090    -0.5050     0.4690 C.3   1 <1>   0.5030 
 21 C       -1.2900    -5.2760     0.8220 C.3   1 <1>   0.1200 
 22 C       -1.1110    -4.9720    -1.4850 C.3   1 <1>   0.1200 
 23 N       -6.6730    -1.6860    -0.4480 N.4   1 <1>  -0.9590 
 24 C       -7.9210     0.3690     0.1230 C.3   1 <1>  -0.2400 
 25 C       -6.8260    -0.9580     1.9330 C.3   1 <1>  -0.2400 
 26 O       -0.9530    -5.8480    -0.4080 O.3   1 <1>  -0.5600 
 27 C       -7.9410    -2.4840    -0.5210 C.3   1 <1>   0.2630 
 28 H        0.7900    -2.0100    -0.9110 H     1 <1>   0.0800 
 29 H        0.7300    -2.3240     0.8220 H     1 <1>   0.0800 
 30 H       -5.5160     0.9040    -0.6470 H     1 <1>   0.0800 
 31 H       -5.3450     1.0420     1.0660 H     1 <1>   0.0800 
 32 H        4.2770    -0.2100     2.6920 H     1 <1>   0.0800 
 33 H        4.3870     0.4280     1.0510 H     1 <1>   0.0800 
 34 H        4.8460    -1.2450     1.3800 H     1 <1>   0.0800 
 35 H       -3.3820    -5.7380     0.8240 H     1 <1>   0.0800 
 36 H       -2.9700    -4.3320     1.7620 H     1 <1>   0.0800 
 37 H       -2.6420    -3.7660    -2.3820 H     1 <1>   0.0800 
 38 H       -3.1710    -5.3600    -1.9290 H     1 <1>   0.0800 
 39 H       -5.7070    -3.1490     0.7490 H     1 <1>   0.0800 
 40 H       -5.4430    -3.3360    -0.9600 H     1 <1>   0.0800 
 41 H       -1.1030    -6.0090     1.5870 H     1 <1>   0.0800 
 42 H       -0.6510    -4.4280     0.9960 H     1 <1>   0.0800 
 43 H       -0.4650    -4.1250    -1.3390 H     1 <1>   0.0800 
 44 H       -0.8030    -5.4890    -2.3760 H     1 <1>   0.0800 
 45 H       -6.4910    -1.2990    -1.3810 H     1 <1>   0.4500 
 46 H       -7.9320     0.6240    -0.9220 H     1 <1>   0.0800 
 47 H       -7.8790     1.2880     0.6830 H     1 <1>   0.0800 
 48 H       -8.8470    -0.1110     0.3820 H     1 <1>   0.0800 
 49 H       -6.9100    -0.0960     2.5720 H     1 <1>   0.0800 
 50 H       -7.7020    -1.5590     2.0930 H     1 <1>   0.0800 
 51 H       -5.9580    -1.5040     2.2570 H     1 <1>   0.0800 
 52 H       -8.1840    -2.8960     0.4450 H     1 <1>   0.0800 
 53 H       -7.8320    -3.2960    -1.2220 H     1 <1>   0.0800 
 54 H       -8.7600    -1.8660    -0.8490 H     1 <1>   0.0800 
@<TRIPOS>BOND
  1   1   2  1   
  2   1   3  1   
  3   2   4  ar  
  4   2   5  ar  
  5   3   6  1   
  6   3  28  1   
  7   3  29  1   
  8   4   7  ar  
  9   5   8  1   
 10   5   9  ar  
 11   6  10  2   
 12   6  11  1   
 13   7  12  1   
 14   7  13  ar  
 15   8  14  3   
 16   9  13  ar  
 17   9  15  1   
 18  11  16  1   
 19  12  17  1   
 20  12  18  1   
 21  13  19  1   
 22  15  20  1   
 23  15  30  1   
 24  15  31  1   
 25  16  32  1   
 26  16  33  1   
 27  16  34  1   
 28  17  21  1   
 29  17  35  1   
 30  17  36  1   
 31  18  22  1   
 32  18  37  1   
 33  18  38  1   
 34  19  23  1   
 35  19  39  1   
 36  19  40  1   
 37  20  23  1   
 38  20  24  1   
 39  20  25  1   
 40  21  26  1   
 41  21  41  1   
 42  21  42  1   
 43  22  26  1   
 44  22  43  1   
 45  22  44  1   
 46  23  27  1   
 47  23  45  1   
 48  24  46  1   
 49  24  47  1   
 50  24  48  1   
 51  25  49  1   
 52  25  50  1   
 53  25  51  1   
 54  27  52  1   
 55  27  53  1   
 56  27  54  1   
@<TRIPOS>SUBSTRUCTURE
  1 ****   4 GROUP 4 **** **** 0

# MOE 2024.06 (io_trps.svl 2023.06)
