@<TRIPOS>MOLECULE
NONAME
45 47 1 0 0 
SMALL
USER_CHARGES


@<TRIPOS>ATOM
  1 O      -10.3870    -3.7420     0.1650 O.3   1 <1>  -0.3630 
  2 C       -9.4180    -2.8560    -0.0880 C.ar  1 <1>   0.0830 
  3 C      -11.6210    -3.1040    -0.1620 C.3   1 <1>   0.4000 
  4 C       -9.9570    -1.6920    -0.5550 C.ar  1 <1>   0.0830 
  5 C       -8.0570    -3.0160     0.0710 C.ar  1 <1>  -0.1500 
  6 O      -11.2900    -1.7930    -0.6170 O.3   1 <1>  -0.3630 
  7 C       -9.1630    -0.6140    -0.8910 C.ar  1 <1>  -0.1500 
  8 C       -7.2330    -1.9380    -0.2620 C.ar  1 <1>   0.0830 
  9 C       -7.7890    -0.7520    -0.7380 C.ar  1 <1>  -0.1500 
 10 O       -5.8790    -1.9700    -0.1490 O.3   1 <1>  -0.3630 
 11 C       -5.2190    -3.1070     0.3690 C.3   1 <1>   0.1200 
 12 C       -3.7110    -2.8280     0.3820 C.3   1 <1>   0.2000 
 13 O       -3.3180    -2.3990    -0.8880 O.3   1 <1>  -0.6800 
 14 C       -2.8780    -4.0680     0.7710 C.3   1 <1>   0.3430 
 15 N       -1.4790    -3.9400     0.2600 N.4   1 <1>  -0.9590 
 16 C       -0.8290    -5.2590    -0.0160 C.3   1 <1>   0.3430 
 17 C       -0.6240    -3.0340     1.0710 C.3   1 <1>   0.3430 
 18 C        0.6860    -5.1230    -0.2830 C.3   1 <1>  -0.0800 
 19 C        0.6180    -2.6450     0.2580 C.3   1 <1>  -0.1600 
 20 C        1.0640    -3.7120    -0.7600 C.3   1 <1>  -0.1600 
 21 C        1.1500    -6.1740    -1.3000 C.3   1 <1>  -0.2400 
 22 H      -12.2370    -3.0360     0.7160 H     1 <1>   0.0800 
 23 H      -12.1100    -3.6460    -0.9520 H     1 <1>   0.0800 
 24 H       -7.6910    -3.9520     0.4410 H     1 <1>   0.1500 
 25 H       -9.6060     0.2950    -1.2570 H     1 <1>   0.1500 
 26 H       -7.1410     0.0680    -0.9900 H     1 <1>   0.1500 
 27 H       -5.4460    -3.9490    -0.2630 H     1 <1>   0.0800 
 28 H       -5.5830    -3.2850     1.3660 H     1 <1>   0.0800 
 29 H       -3.5120    -2.0280     1.0740 H     1 <1>   0.0800 
 30 H       -3.9970    -1.7690    -1.2270 H     1 <1>   0.4000 
 31 H       -3.3400    -4.9310     0.3210 H     1 <1>   0.0800 
 32 H       -2.8860    -4.2080     1.8390 H     1 <1>   0.0800 
 33 H       -1.6050    -3.4520    -0.6490 H     1 <1>   0.4500 
 34 H       -1.2970    -5.7010    -0.8810 H     1 <1>   0.0800 
 35 H       -0.9750    -5.9260     0.8170 H     1 <1>   0.0800 
 36 H       -0.3210    -3.5410     1.9730 H     1 <1>   0.0800 
 37 H       -1.1650    -2.1420     1.3440 H     1 <1>   0.0800 
 38 H        1.2030    -5.3160     0.6430 H     1 <1>   0.0800 
 39 H        1.4190    -2.4540     0.9510 H     1 <1>   0.0800 
 40 H        0.4280    -1.7210    -0.2600 H     1 <1>   0.0800 
 41 H        0.5870    -3.5200    -1.7070 H     1 <1>   0.0800 
 42 H        2.1280    -3.6390    -0.9150 H     1 <1>   0.0800 
 43 H        0.6710    -6.0250    -2.2530 H     1 <1>   0.0800 
 44 H        0.9230    -7.1670    -0.9520 H     1 <1>   0.0800 
 45 H        2.2150    -6.1080    -1.4440 H     1 <1>   0.0800 
@<TRIPOS>BOND
  1   1   2  1   
  2   1   3  1   
  3   2   4  ar  
  4   2   5  ar  
  5   3   6  1   
  6   3  22  1   
  7   3  23  1   
  8   4   6  1   
  9   4   7  ar  
 10   5   8  ar  
 11   5  24  1   
 12   7   9  ar  
 13   7  25  1   
 14   8   9  ar  
 15   8  10  1   
 16   9  26  1   
 17  10  11  1   
 18  11  12  1   
 19  11  27  1   
 20  11  28  1   
 21  12  13  1   
 22  12  14  1   
 23  12  29  1   
 24  13  30  1   
 25  14  15  1   
 26  14  31  1   
 27  14  32  1   
 28  15  16  1   
 29  15  17  1   
 30  15  33  1   
 31  16  18  1   
 32  16  34  1   
 33  16  35  1   
 34  17  19  1   
 35  17  36  1   
 36  17  37  1   
 37  18  20  1   
 38  18  21  1   
 39  18  38  1   
 40  19  20  1   
 41  19  39  1   
 42  19  40  1   
 43  20  41  1   
 44  20  42  1   
 45  21  43  1   
 46  21  44  1   
 47  21  45  1   
@<TRIPOS>SUBSTRUCTURE
  1 ****  11 GROUP 4 **** **** 0

# MOE 2024.06 (io_trps.svl 2023.06)
