@<TRIPOS>MOLECULE
NONAME
40 41 1 0 0 
SMALL
USER_CHARGES


@<TRIPOS>ATOM
  1 CL      -0.3700    -1.6330     1.2980 Cl    1 <1>  -0.1770 
  2 C       -1.8070    -0.7040     0.9520 C.ar  1 <1>   0.1770 
  3 C       -3.0440    -1.3050     1.0620 C.ar  1 <1>  -0.1500 
  4 C       -1.6840     0.6160     0.5730 C.ar  1 <1>  -0.1500 
  5 C       -4.2060    -0.5890     0.7930 C.ar  1 <1>  -0.0090 
  6 C       -2.8270     1.3440     0.3000 C.ar  1 <1>  -0.1500 
  7 S       -5.8240    -1.3920     0.9330 S.o2  1 <1>   1.4470 
  8 C       -4.0850     0.7470     0.4090 C.ar  1 <1>   0.0830 
  9 O       -6.7770    -0.6080     1.6880 O.2   1 <1>  -0.6500 
 10 O       -5.6480    -2.7660     1.3530 O.2   1 <1>  -0.6500 
 11 N       -6.4200    -1.4840    -0.6660 N.am  1 <1>  -0.8490 
 12 O       -5.2260     1.4350     0.1500 O.3   1 <1>  -0.3630 
 13 C       -6.6960    -2.8530    -1.1370 C.3   1 <1>   0.1960 
 14 C       -7.5820    -0.6090    -0.9220 C.3   1 <1>   0.1960 
 15 C       -5.2360     2.8420     0.0220 C.3   1 <1>   0.0400 
 16 C       -7.9450    -3.4550    -0.4480 C.3   1 <1>   0.3430 
 17 C       -8.8830    -1.1460    -0.2700 C.3   1 <1>   0.3430 
 18 N       -9.1700    -2.5890    -0.6250 N.4   1 <1>  -0.9590 
 19 C      -10.2950    -3.1340     0.1790 C.3   1 <1>   0.3430 
 20 C      -11.6070    -2.5080    -0.2790 C.3   1 <1>  -0.2400 
 21 H       -3.0940    -2.3380     1.3630 H     1 <1>   0.1500 
 22 H       -0.7080     1.0620     0.4930 H     1 <1>   0.1500 
 23 H       -2.7160     2.3700     0.0010 H     1 <1>   0.1500 
 24 H       -5.8400    -3.4840    -0.9580 H     1 <1>   0.0800 
 25 H       -6.8520    -2.8370    -2.2020 H     1 <1>   0.0800 
 26 H       -7.7310    -0.5240    -1.9850 H     1 <1>   0.0800 
 27 H       -7.3850     0.3830    -0.5550 H     1 <1>   0.0800 
 28 H       -6.2580     3.1650    -0.0580 H     1 <1>   0.0800 
 29 H       -4.6960     3.1190    -0.8660 H     1 <1>   0.0800 
 30 H       -4.7860     3.2770     0.8980 H     1 <1>   0.0800 
 31 H       -7.7310    -3.5710     0.6020 H     1 <1>   0.0800 
 32 H       -8.1300    -4.4370    -0.8530 H     1 <1>   0.0800 
 33 H       -9.7060    -0.5230    -0.5760 H     1 <1>   0.0800 
 34 H       -8.7930    -1.0520     0.8000 H     1 <1>   0.0800 
 35 H       -9.4420    -2.6240    -1.6160 H     1 <1>   0.4500 
 36 H      -10.1340    -2.9350     1.2280 H     1 <1>   0.0800 
 37 H      -10.3550    -4.2030     0.0450 H     1 <1>   0.0800 
 38 H      -11.6350    -1.4530    -0.0740 H     1 <1>   0.0800 
 39 H      -12.4190    -2.9630     0.2610 H     1 <1>   0.0800 
 40 H      -11.7710    -2.6810    -1.3280 H     1 <1>   0.0800 
@<TRIPOS>BOND
  1   1   2  1   
  2   2   3  ar  
  3   2   4  ar  
  4   3   5  ar  
  5   3  21  1   
  6   4   6  ar  
  7   4  22  1   
  8   5   7  1   
  9   5   8  ar  
 10   6   8  ar  
 11   6  23  1   
 12   7   9  2   
 13   7  10  2   
 14   7  11  am  
 15   8  12  1   
 16  11  13  1   
 17  11  14  1   
 18  12  15  1   
 19  13  16  1   
 20  13  24  1   
 21  13  25  1   
 22  14  17  1   
 23  14  26  1   
 24  14  27  1   
 25  15  28  1   
 26  15  29  1   
 27  15  30  1   
 28  16  18  1   
 29  16  31  1   
 30  16  32  1   
 31  17  18  1   
 32  17  33  1   
 33  17  34  1   
 34  18  19  1   
 35  18  35  1   
 36  19  20  1   
 37  19  36  1   
 38  19  37  1   
 39  20  38  1   
 40  20  39  1   
 41  20  40  1   
@<TRIPOS>SUBSTRUCTURE
  1 ****   7 GROUP 4 **** **** 0

# MOE 2024.06 (io_trps.svl 2023.06)
