@<TRIPOS>MOLECULE
NONAME
38 39 1 0 0 
SMALL
USER_CHARGES


@<TRIPOS>ATOM
  1 O        7.3810     1.1990    -0.7480 O.3   1 <1>  -0.5600 
  2 C        7.5250     2.5820    -0.6390 C.3   1 <1>   0.1200 
  3 C        6.6380     0.6010     0.2800 C.3   1 <1>   0.1200 
  4 C        6.1500     3.2890    -0.6930 C.3   1 <1>   0.1100 
  5 C        5.4890     1.4950     0.8080 C.3   1 <1>   0.1100 
  6 N        5.0230     2.4420    -0.2260 N.3   1 <1>  -0.8100 
  7 C        3.8420     3.2210     0.1450 C.3   1 <1>   0.1100 
  8 C        2.5880     2.3710    -0.0950 C.3   1 <1>   0.3430 
  9 N        1.3430     3.1580     0.1170 N.4   1 <1>  -0.9060 
 10 C        0.1190     2.3940    -0.1420 C.3   1 <1>   0.5230 
 11 C       -1.0410     3.3230     0.1310 C.2   1 <1>  -0.3320 
 12 N       -2.3350     2.9040    -0.0050 N.pl3 1 <1>   0.0480 
 13 C       -1.0400     4.6310     0.5270 C.2   1 <1>  -0.1500 
 14 C       -3.1330     3.9550     0.3090 C.2   1 <1>  -0.3020 
 15 C       -2.8390     1.5760    -0.4130 C.3   1 <1>   0.0160 
 16 C       -2.3730     5.0280     0.6390 C.2   1 <1>  -0.1500 
 17 H        8.1510     2.9180    -1.4470 H     1 <1>   0.0800 
 18 H        8.0250     2.7960     0.2900 H     1 <1>   0.0800 
 19 H        7.3120     0.3500     1.0800 H     1 <1>   0.0800 
 20 H        6.2350    -0.3130    -0.1180 H     1 <1>   0.0800 
 21 H        5.9590     3.5840    -1.7110 H     1 <1>   0.0800 
 22 H        6.2140     4.1870    -0.1020 H     1 <1>   0.0800 
 23 H        5.8440     2.0440     1.6650 H     1 <1>   0.0800 
 24 H        4.6840     0.8620     1.1350 H     1 <1>   0.0800 
 25 H        3.7900     4.0940    -0.4850 H     1 <1>   0.0800 
 26 H        3.9150     3.5330     1.1740 H     1 <1>   0.0800 
 27 H        2.6070     1.5250     0.5720 H     1 <1>   0.0800 
 28 H        2.6200     2.0060    -1.1090 H     1 <1>   0.0800 
 29 H        1.3100     3.9760    -0.5020 H     1 <1>   0.4500 
 30 H        1.2720     3.5110     1.0770 H     1 <1>   0.4500 
 31 H        0.0650     1.5370     0.5100 H     1 <1>   0.0800 
 32 H        0.0920     2.0620    -1.1680 H     1 <1>   0.0800 
 33 H       -0.2240     5.3010     0.7350 H     1 <1>   0.1500 
 34 H       -4.2080     3.8940     0.2830 H     1 <1>   0.1500 
 35 H       -2.5030     0.8320     0.2850 H     1 <1>   0.0800 
 36 H       -2.4860     1.3440    -1.4010 H     1 <1>   0.0800 
 37 H       -3.9140     1.5890    -0.4200 H     1 <1>   0.0800 
 38 H       -2.7120     6.0080     0.9340 H     1 <1>   0.1500 
@<TRIPOS>BOND
  1   1   2  1   
  2   1   3  1   
  3   2   4  1   
  4   2  17  1   
  5   2  18  1   
  6   3   5  1   
  7   3  19  1   
  8   3  20  1   
  9   4   6  1   
 10   4  21  1   
 11   4  22  1   
 12   5   6  1   
 13   5  23  1   
 14   5  24  1   
 15   6   7  1   
 16   7   8  1   
 17   7  25  1   
 18   7  26  1   
 19   8   9  1   
 20   8  27  1   
 21   8  28  1   
 22   9  10  1   
 23   9  29  1   
 24   9  30  1   
 25  10  11  1   
 26  10  31  1   
 27  10  32  1   
 28  11  12  1   
 29  11  13  2   
 30  12  14  1   
 31  12  15  1   
 32  13  16  1   
 33  13  33  1   
 34  14  16  2   
 35  14  34  1   
 36  15  35  1   
 37  15  36  1   
 38  15  37  1   
 39  16  38  1   
@<TRIPOS>SUBSTRUCTURE
  1 ****   8 GROUP 4 **** **** 0

# MOE 2024.06 (io_trps.svl 2023.06)
