@<TRIPOS>MOLECULE
NONAME
39 45 1 0 0 
SMALL
USER_CHARGES


@<TRIPOS>ATOM
  1 O       -0.0570    -1.2920    -2.2070 O.2   1 <1>  -0.5700 
  2 C       -0.1910    -1.8140    -1.1320 C.2   1 <1>   0.6590 
  3 O        0.8700    -2.2410    -0.4730 O.3   1 <1>  -0.4300 
  4 C       -1.5250    -1.9860    -0.4400 C.3   1 <1>   0.1220 
  5 C        0.8860    -3.4610     0.2160 C.3   1 <1>   0.5600 
  6 C       -1.4900    -3.4150     0.0570 C.2   1 <1>   0.6590 
  7 C       -2.7590    -1.5080    -1.1760 C.3   1 <1>  -0.0800 
  8 C       -1.7550    -0.9650     0.6540 C.3   1 <1>  -0.0800 
  9 O       -0.3930    -3.7830     0.6900 O.3   1 <1>  -0.4300 
 10 C        1.3470    -4.5580    -0.7370 C.3   1 <1>  -0.2400 
 11 C        1.8090    -3.3110     1.4170 C.3   1 <1>  -0.2400 
 12 O       -2.3950    -4.1950    -0.0750 O.2   1 <1>  -0.5700 
 13 C       -2.5480     0.0380    -1.2060 C.3   1 <1>  -0.0800 
 14 C       -3.9340    -1.6520    -0.1850 C.3   1 <1>   0.0000 
 15 C       -1.8490     0.6040    -0.1590 C.3   1 <1>  -0.0800 
 16 C       -3.3520    -1.2710     1.1830 C.3   1 <1>   0.0000 
 17 C       -3.3600     0.6510    -0.0920 C.3   1 <1>  -0.0800 
 18 C       -4.5510    -0.2590    -0.2300 C.3   1 <1>   0.0000 
 19 C       -3.3660     1.7060     0.3130 C.3   1 <1>  -0.0800 
 20 C       -4.3640     0.2400     1.0250 C.3   1 <1>   0.0000 
 21 C       -3.9100     1.8460    -0.8510 C.3   1 <1>  -0.1600 
 22 H       -2.9310    -1.9520    -2.1410 H     1 <1>   0.0800 
 23 H       -1.0310    -0.9920     1.4510 H     1 <1>   0.0800 
 24 H        0.6770    -4.6400    -1.5740 H     1 <1>   0.0800 
 25 H        1.3800    -5.5000    -0.2230 H     1 <1>   0.0800 
 26 H        2.3340    -4.3360    -1.1010 H     1 <1>   0.0800 
 27 H        1.4520    -2.5310     2.0640 H     1 <1>   0.0800 
 28 H        2.8030    -3.0690     1.0880 H     1 <1>   0.0800 
 29 H        1.8490    -4.2340     1.9670 H     1 <1>   0.0800 
 30 H       -2.4650     0.5310    -2.1640 H     1 <1>   0.0800 
 31 H       -4.6000    -2.4950    -0.2240 H     1 <1>   0.0000 
 32 H       -0.9270     1.0700    -0.4800 H     1 <1>   0.0800 
 33 H       -3.5480    -1.9800     1.9680 H     1 <1>   0.0000 
 34 H       -2.6210     0.6660     1.5570 H     1 <1>   0.0800 
 35 H       -5.4230     0.0020    -0.8090 H     1 <1>   0.0000 
 36 H       -3.2220     2.6140     0.9260 H     1 <1>   0.0800 
 37 H       -5.2940     0.3520     1.5590 H     1 <1>   0.0000 
 38 H       -4.8990     2.2340    -0.6640 H     1 <1>   0.0800 
 39 H       -3.2630     2.5150    -1.3950 H     1 <1>   0.0800 
@<TRIPOS>BOND
  1   1   2  2   
  2   2   3  1   
  3   2   4  1   
  4   3   5  1   
  5   4   6  1   
  6   4   7  1   
  7   4   8  1   
  8   5   9  1   
  9   5  10  1   
 10   5  11  1   
 11   6   9  1   
 12   6  12  2   
 13   7  13  1   
 14   7  14  1   
 15   7  22  1   
 16   8  15  1   
 17   8  16  1   
 18   8  23  1   
 19  10  24  1   
 20  10  25  1   
 21  10  26  1   
 22  11  27  1   
 23  11  28  1   
 24  11  29  1   
 25  13  15  1   
 26  13  17  1   
 27  13  30  1   
 28  14  16  1   
 29  14  18  1   
 30  14  31  1   
 31  15  19  1   
 32  15  32  1   
 33  16  20  1   
 34  16  33  1   
 35  17  18  1   
 36  17  21  1   
 37  17  34  1   
 38  18  20  1   
 39  18  35  1   
 40  19  20  1   
 41  19  21  1   
 42  19  36  1   
 43  20  37  1   
 44  21  38  1   
 45  21  39  1   
@<TRIPOS>SUBSTRUCTURE
  1 ****   4 GROUP 4 **** **** 0

# MOE 2024.06 (io_trps.svl 2023.06)
