@<TRIPOS>MOLECULE
NONAME
36 37 1 0 0 
SMALL
USER_CHARGES


@<TRIPOS>ATOM
  1 S        0.4460     0.1760     0.3850 S.3   1 <1>  -0.3320 
  2 C       -1.1640     0.9680     0.2220 C.ar  1 <1>   0.1020 
  3 C        1.4360     0.6790    -1.1070 C.3   1 <1>   0.1310 
  4 C       -1.5260     1.6840    -0.9080 C.ar  1 <1>  -0.1500 
  5 C       -2.0390     0.8340     1.2840 C.ar  1 <1>  -0.1500 
  6 C        2.8650     0.1570    -1.0240 C.2   1 <1>   0.5690 
  7 C       -2.7790     2.2730    -0.9640 C.ar  1 <1>  -0.1500 
  8 C       -3.2890     1.4250     1.2200 C.ar  1 <1>  -0.1500 
  9 O        3.1750    -0.7000    -1.8200 O.2   1 <1>  -0.5700 
 10 N        3.7680     0.6590    -0.1140 N.am  1 <1>  -0.6600 
 11 C       -3.6640     2.1460     0.0960 C.ar  1 <1>  -0.1430 
 12 C        3.4660     1.7010     0.9100 C.3   1 <1>   0.1400 
 13 C        5.1610     0.1340    -0.0430 C.3   1 <1>   0.1400 
 14 C       -5.0350     2.7950     0.0300 C.3   1 <1>  -0.0970 
 15 C        4.4460     2.8700     0.7640 C.3   1 <1>  -0.1600 
 16 C        6.1580     1.2880    -0.1970 C.3   1 <1>  -0.1600 
 17 C        5.9050     2.3970     0.8330 C.3   1 <1>  -0.1600 
 18 H        1.4290     1.7510    -1.1610 H     1 <1>   0.0800 
 19 H        0.9430     0.2620    -1.9650 H     1 <1>   0.0800 
 20 H       -0.8630     1.7910    -1.7430 H     1 <1>   0.1500 
 21 H       -1.7420     0.2720     2.1510 H     1 <1>   0.1500 
 22 H       -3.0640     2.8310    -1.8390 H     1 <1>   0.1500 
 23 H       -3.9670     1.3210     2.0480 H     1 <1>   0.1500 
 24 H        3.5640     1.2620     1.8880 H     1 <1>   0.0800 
 25 H        2.4610     2.0690     0.8140 H     1 <1>   0.0800 
 26 H        5.3360    -0.5960    -0.8150 H     1 <1>   0.0800 
 27 H        5.3030    -0.3490     0.9080 H     1 <1>   0.0800 
 28 H       -4.9900     3.7850     0.4480 H     1 <1>   0.0800 
 29 H       -5.7510     2.2160     0.5850 H     1 <1>   0.0800 
 30 H       -5.3720     2.8630    -0.9880 H     1 <1>   0.0800 
 31 H        4.2620     3.5860     1.5450 H     1 <1>   0.0800 
 32 H        4.2670     3.3580    -0.1780 H     1 <1>   0.0800 
 33 H        6.0720     1.6870    -1.1930 H     1 <1>   0.0800 
 34 H        7.1580     0.9090    -0.0830 H     1 <1>   0.0800 
 35 H        6.1120     2.0210     1.8200 H     1 <1>   0.0800 
 36 H        6.5660     3.2260     0.6460 H     1 <1>   0.0800 
@<TRIPOS>BOND
  1   1   2  1   
  2   1   3  1   
  3   2   4  ar  
  4   2   5  ar  
  5   3   6  1   
  6   3  18  1   
  7   3  19  1   
  8   4   7  ar  
  9   4  20  1   
 10   5   8  ar  
 11   5  21  1   
 12   6   9  2   
 13   6  10  am  
 14   7  11  ar  
 15   7  22  1   
 16   8  11  ar  
 17   8  23  1   
 18  10  12  1   
 19  10  13  1   
 20  11  14  1   
 21  12  15  1   
 22  12  24  1   
 23  12  25  1   
 24  13  16  1   
 25  13  26  1   
 26  13  27  1   
 27  14  28  1   
 28  14  29  1   
 29  14  30  1   
 30  15  17  1   
 31  15  31  1   
 32  15  32  1   
 33  16  17  1   
 34  16  33  1   
 35  16  34  1   
 36  17  35  1   
 37  17  36  1   
@<TRIPOS>SUBSTRUCTURE
  1 ****   1 GROUP 4 **** **** 0

# MOE 2024.06 (io_trps.svl 2023.06)
