@<TRIPOS>MOLECULE
NONAME
49 51 1 0 0 
SMALL
USER_CHARGES


@<TRIPOS>ATOM
  1 O       -0.6950    -0.1270     0.2030 O.2   1 <1>  -0.5700 
  2 C       -0.5620     1.0700     0.1130 C.2   1 <1>   0.5690 
  3 N        0.5850     1.7310     0.4340 N.am  1 <1>  -0.5470 
  4 C       -1.7360     1.8910    -0.4060 C.3   1 <1>   0.1810 
  5 C        1.8720     1.3540     0.8440 C.ar  1 <1>   0.1170 
  6 O       -1.4270     3.2820    -0.4410 O.3   1 <1>  -0.3630 
  7 C        2.8360     2.3710     0.8710 C.ar  1 <1>   0.1000 
  8 C        2.2210     0.0650     1.2210 C.ar  1 <1>  -0.1500 
  9 C       -2.3280     4.1940    -0.8830 C.ar  1 <1>   0.0830 
 10 N        2.4820     3.6710     0.4730 N.pl3 1 <1>  -0.8380 
 11 C        4.1280     2.0720     1.2800 C.ar  1 <1>  -0.1500 
 12 C        3.5140    -0.2200     1.6260 C.ar  1 <1>  -0.1500 
 13 C       -3.5330     3.8550    -1.4950 C.ar  1 <1>  -0.1500 
 14 C       -2.0070     5.5310    -0.7070 C.ar  1 <1>  -0.1500 
 15 C        2.6940     4.0500    -0.9490 C.3   1 <1>   0.2090 
 16 C        2.6790     4.8130     1.4060 C.3   1 <1>   0.2090 
 17 C        4.4670     0.7830     1.6570 C.ar  1 <1>  -0.1500 
 18 C       -4.3940     4.8510    -1.9240 C.ar  1 <1>  -0.1500 
 19 C       -2.8680     6.5240    -1.1370 C.ar  1 <1>  -0.1500 
 20 C        1.7090     5.1630    -1.3500 C.3   1 <1>   0.1400 
 21 C        1.6900     5.9400     1.0620 C.3   1 <1>   0.1400 
 22 C       -4.0630     6.1840    -1.7470 C.ar  1 <1>  -0.1500 
 23 N        1.7410     6.3240    -0.3930 N.am  1 <1>  -0.6600 
 24 C        1.7340     7.6430    -0.7640 C.2   1 <1>   0.5690 
 25 O        1.7380     8.5370     0.0470 O.2   1 <1>  -0.5700 
 26 C        1.7090     8.0340    -2.2230 C.3   1 <1>  -0.1790 
 27 H        0.5500     2.7480     0.3030 H     1 <1>   0.3700 
 28 H       -2.5860     1.7480     0.2350 H     1 <1>   0.0800 
 29 H       -1.9680     1.5680    -1.4040 H     1 <1>   0.0800 
 30 H        1.4850    -0.7180     1.2010 H     1 <1>   0.1500 
 31 H        4.8680     2.8490     1.2990 H     1 <1>   0.1500 
 32 H        3.7750    -1.2230     1.9160 H     1 <1>   0.1500 
 33 H       -3.8190     2.8330    -1.6480 H     1 <1>   0.1500 
 34 H       -1.0830     5.7970    -0.2280 H     1 <1>   0.1500 
 35 H        2.5450     3.1900    -1.5780 H     1 <1>   0.0800 
 36 H        3.7040     4.3960    -1.0830 H     1 <1>   0.0800 
 37 H        3.6860     5.1820     1.3250 H     1 <1>   0.0800 
 38 H        2.5160     4.4850     2.4190 H     1 <1>   0.0800 
 39 H        5.4720     0.5600     1.9720 H     1 <1>   0.1500 
 40 H       -5.3250     4.5900    -2.3980 H     1 <1>   0.1500 
 41 H       -2.6090     7.5590    -0.9950 H     1 <1>   0.1500 
 42 H        0.7160     4.7500    -1.3630 H     1 <1>   0.0800 
 43 H        1.9440     5.4800    -2.3480 H     1 <1>   0.0800 
 44 H        1.9070     6.7910     1.6840 H     1 <1>   0.0800 
 45 H        0.6960     5.6080     1.3000 H     1 <1>   0.0800 
 46 H       -4.7340     6.9550    -2.0820 H     1 <1>   0.1500 
 47 H        2.6110     7.7070    -2.7040 H     1 <1>   0.0800 
 48 H        1.6420     9.1030    -2.3090 H     1 <1>   0.0800 
 49 H        0.8550     7.5970    -2.7040 H     1 <1>   0.0800 
@<TRIPOS>BOND
  1   1   2  2   
  2   2   3  am  
  3   2   4  1   
  4   3   5  1   
  5   3  27  1   
  6   4   6  1   
  7   4  28  1   
  8   4  29  1   
  9   5   7  ar  
 10   5   8  ar  
 11   6   9  1   
 12   7  10  1   
 13   7  11  ar  
 14   8  12  ar  
 15   8  30  1   
 16   9  13  ar  
 17   9  14  ar  
 18  10  15  1   
 19  10  16  1   
 20  11  17  ar  
 21  11  31  1   
 22  12  17  ar  
 23  12  32  1   
 24  13  18  ar  
 25  13  33  1   
 26  14  19  ar  
 27  14  34  1   
 28  15  20  1   
 29  15  35  1   
 30  15  36  1   
 31  16  21  1   
 32  16  37  1   
 33  16  38  1   
 34  17  39  1   
 35  18  22  ar  
 36  18  40  1   
 37  19  22  ar  
 38  19  41  1   
 39  20  23  1   
 40  20  42  1   
 41  20  43  1   
 42  21  23  1   
 43  21  44  1   
 44  21  45  1   
 45  22  46  1   
 46  23  24  am  
 47  24  25  2   
 48  24  26  1   
 49  26  47  1   
 50  26  48  1   
 51  26  49  1   
@<TRIPOS>SUBSTRUCTURE
  1 ****  10 GROUP 4 **** **** 0

# MOE 2024.06 (io_trps.svl 2023.06)
