@<TRIPOS>MOLECULE
NONAME
46 48 1 0 0 
SMALL
USER_CHARGES


@<TRIPOS>ATOM
  1 O       -2.1120     2.7190    -1.9740 O.2   1 <1>  -0.5700 
  2 C       -1.6760     2.9540    -0.8820 C.2   1 <1>   0.4480 
  3 C       -0.1860     2.8180    -0.5040 C.3   1 <1>   0.0610 
  4 C       -2.6530     3.4010     0.2070 C.3   1 <1>   0.4040 
  5 C        0.6450     2.3380    -1.7100 C.3   1 <1>  -0.2400 
  6 C       -0.0080     1.7940     0.6320 C.3   1 <1>  -0.2400 
  7 C        0.3840     4.1740    -0.0470 C.3   1 <1>  -0.2400 
  8 N       -4.0310     3.5730    -0.3670 N.4   1 <1>  -0.9060 
  9 C       -5.1510     3.0270     0.4300 C.3   1 <1>   0.4230 
 10 C       -5.0790     1.4820     0.5080 C.3   1 <1>  -0.0800 
 11 C       -6.4850     3.4420    -0.2280 C.3   1 <1>  -0.0800 
 12 C       -5.2220     0.8500    -0.8970 C.3   1 <1>  -0.1600 
 13 C       -6.2420     0.9840     1.3900 C.3   1 <1>  -0.1600 
 14 C       -6.6290     2.8110    -1.6340 C.3   1 <1>  -0.1600 
 15 C       -7.6450     2.9390     0.6560 C.3   1 <1>  -0.1600 
 16 C       -6.5610     1.2750    -1.5300 C.3   1 <1>  -0.0800 
 17 C       -7.5900     1.4040     0.7740 C.3   1 <1>  -0.0800 
 18 C       -7.7130     0.7870    -0.6320 C.3   1 <1>  -0.1600 
 19 H       -2.3150     4.3280     0.6380 H     1 <1>   0.0800 
 20 H       -2.6640     2.6510     0.9780 H     1 <1>   0.0800 
 21 H        0.2940     1.3810    -2.0550 H     1 <1>   0.0800 
 22 H        1.6850     2.2410    -1.4510 H     1 <1>   0.0800 
 23 H        0.5650     3.0340    -2.5270 H     1 <1>   0.0800 
 24 H        1.0380     1.6590     0.8520 H     1 <1>   0.0800 
 25 H       -0.4080     0.8370     0.3410 H     1 <1>   0.0800 
 26 H       -0.4930     2.1120     1.5370 H     1 <1>   0.0800 
 27 H        1.4370     4.0860     0.1600 H     1 <1>   0.0800 
 28 H       -0.0960     4.5280     0.8470 H     1 <1>   0.0800 
 29 H        0.2610     4.9130    -0.8210 H     1 <1>   0.0800 
 30 H       -4.0140     3.0630    -1.2690 H     1 <1>   0.4500 
 31 H       -4.2080     4.5500    -0.6180 H     1 <1>   0.4500 
 32 H       -5.1170     3.4350     1.4270 H     1 <1>   0.0800 
 33 H       -4.1580     1.1640     0.9620 H     1 <1>   0.0800 
 34 H       -6.5480     4.5150    -0.2950 H     1 <1>   0.0800 
 35 H       -5.1960    -0.2240    -0.8130 H     1 <1>   0.0800 
 36 H       -4.4060     1.1310    -1.5390 H     1 <1>   0.0800 
 37 H       -6.2060    -0.0890     1.4740 H     1 <1>   0.0800 
 38 H       -6.1570     1.3870     2.3850 H     1 <1>   0.0800 
 39 H       -7.5770     3.0960    -2.0610 H     1 <1>   0.0800 
 40 H       -5.8670     3.1680    -2.3040 H     1 <1>   0.0800 
 41 H       -8.5880     3.2330     0.2270 H     1 <1>   0.0800 
 42 H       -7.5880     3.3820     1.6360 H     1 <1>   0.0800 
 43 H       -6.6590     0.8370    -2.5100 H     1 <1>   0.0800 
 44 H       -8.4010     1.0550     1.3930 H     1 <1>   0.0800 
 45 H       -7.6920    -0.2870    -0.5620 H     1 <1>   0.0800 
 46 H       -8.6590     1.0600    -1.0690 H     1 <1>   0.0800 
@<TRIPOS>BOND
  1   1   2  2   
  2   2   3  1   
  3   2   4  1   
  4   3   5  1   
  5   3   6  1   
  6   3   7  1   
  7   4   8  1   
  8   4  19  1   
  9   4  20  1   
 10   5  21  1   
 11   5  22  1   
 12   5  23  1   
 13   6  24  1   
 14   6  25  1   
 15   6  26  1   
 16   7  27  1   
 17   7  28  1   
 18   7  29  1   
 19   8   9  1   
 20   8  30  1   
 21   8  31  1   
 22   9  10  1   
 23   9  11  1   
 24   9  32  1   
 25  10  12  1   
 26  10  13  1   
 27  10  33  1   
 28  11  14  1   
 29  11  15  1   
 30  11  34  1   
 31  12  16  1   
 32  12  35  1   
 33  12  36  1   
 34  13  17  1   
 35  13  37  1   
 36  13  38  1   
 37  14  16  1   
 38  14  39  1   
 39  14  40  1   
 40  15  17  1   
 41  15  41  1   
 42  15  42  1   
 43  16  18  1   
 44  16  43  1   
 45  17  18  1   
 46  17  44  1   
 47  18  45  1   
 48  18  46  1   
@<TRIPOS>SUBSTRUCTURE
  1 ****   8 GROUP 4 **** **** 0

# MOE 2024.06 (io_trps.svl 2023.06)
