@<TRIPOS>MOLECULE
NONAME
37 38 1 0 0 
SMALL
USER_CHARGES


@<TRIPOS>ATOM
  1 O        0.3380    -1.1320     2.4320 O.2   1 <1>  -0.5700 
  2 C        0.8550    -1.5990     1.4410 C.2   1 <1>   0.5690 
  3 N        0.1070    -2.2060     0.4560 N.am  1 <1>  -0.6600 
  4 C        2.3780    -1.5200     1.3580 C.3   1 <1>   0.1810 
  5 C       -1.3780    -2.2830     0.5510 C.3   1 <1>   0.1400 
  6 C        0.6630    -2.7850    -0.8000 C.3   1 <1>   0.1400 
  7 O        2.8000    -0.7430     0.2450 O.3   1 <1>  -0.3620 
  8 C       -1.8290    -3.7430     0.4340 C.3   1 <1>  -0.1600 
  9 C        0.2310    -4.2500    -0.9290 C.3   1 <1>  -0.1600 
 10 C        4.1150    -0.6200    -0.0630 C.ar  1 <1>   0.0820 
 11 C       -1.2950    -4.4010    -0.8460 C.3   1 <1>  -0.1600 
 12 C        5.1430    -1.1810     0.6890 C.ar  1 <1>  -0.1500 
 13 C        4.4210     0.1080    -1.2010 C.ar  1 <1>  -0.1500 
 14 C        6.4620    -1.0180     0.3010 C.ar  1 <1>   0.0820 
 15 C        5.7380     0.2760    -1.5930 C.ar  1 <1>  -0.1500 
 16 O        7.4030    -1.5990     1.0870 O.3   1 <1>  -0.3630 
 17 C        6.7590    -0.2850    -0.8460 C.ar  1 <1>  -0.1500 
 18 C        8.7780    -1.4760     0.7990 C.3   1 <1>   0.0400 
 19 H        2.7790    -2.5100     1.2580 H     1 <1>   0.0800 
 20 H        2.7610    -1.0590     2.2500 H     1 <1>   0.0800 
 21 H       -1.8090    -1.7010    -0.2450 H     1 <1>   0.0800 
 22 H       -1.7240    -1.8750     1.4860 H     1 <1>   0.0800 
 23 H        1.7360    -2.7320    -0.8200 H     1 <1>   0.0800 
 24 H        0.2890    -2.2200    -1.6370 H     1 <1>   0.0800 
 25 H       -2.9040    -3.7830     0.4400 H     1 <1>   0.0800 
 26 H       -1.4770    -4.2820     1.2960 H     1 <1>   0.0800 
 27 H        0.6950    -4.8200    -0.1430 H     1 <1>   0.0800 
 28 H        0.5810    -4.6420    -1.8680 H     1 <1>   0.0800 
 29 H       -1.7470    -3.9310    -1.7030 H     1 <1>   0.0800 
 30 H       -1.5600    -5.4440    -0.8580 H     1 <1>   0.0800 
 31 H        4.9530    -1.7460     1.5790 H     1 <1>   0.1500 
 32 H        3.6230     0.5430    -1.7750 H     1 <1>   0.1500 
 33 H        5.9660     0.8440    -2.4780 H     1 <1>   0.1500 
 34 H        7.7720    -0.1420    -1.1710 H     1 <1>   0.1500 
 35 H        9.3270    -2.0060     1.5560 H     1 <1>   0.0800 
 36 H        9.0460    -0.4350     0.8140 H     1 <1>   0.0800 
 37 H        8.9730    -1.9120    -0.1650 H     1 <1>   0.0800 
@<TRIPOS>BOND
  1   1   2  2   
  2   2   3  am  
  3   2   4  1   
  4   3   5  1   
  5   3   6  1   
  6   4   7  1   
  7   4  19  1   
  8   4  20  1   
  9   5   8  1   
 10   5  21  1   
 11   5  22  1   
 12   6   9  1   
 13   6  23  1   
 14   6  24  1   
 15   7  10  1   
 16   8  11  1   
 17   8  25  1   
 18   8  26  1   
 19   9  11  1   
 20   9  27  1   
 21   9  28  1   
 22  10  12  ar  
 23  10  13  ar  
 24  11  29  1   
 25  11  30  1   
 26  12  14  ar  
 27  12  31  1   
 28  13  15  ar  
 29  13  32  1   
 30  14  16  1   
 31  14  17  ar  
 32  15  17  ar  
 33  15  33  1   
 34  16  18  1   
 35  17  34  1   
 36  18  35  1   
 37  18  36  1   
 38  18  37  1   
@<TRIPOS>SUBSTRUCTURE
  1 ****   7 GROUP 4 **** **** 0

# MOE 2024.06 (io_trps.svl 2023.06)
