@<TRIPOS>MOLECULE
NONAME
36 37 1 0 0 
SMALL
USER_CHARGES


@<TRIPOS>ATOM
  1 N       -0.1610    -3.7220     0.4190 N.4   1 <1>  -0.9590 
  2 C        1.1580    -4.4110     0.4690 C.3   1 <1>   0.3430 
  3 C       -0.1210    -2.2810     0.8090 C.3   1 <1>   0.3430 
  4 C       -1.1680    -4.4570     1.2250 C.3   1 <1>   0.5430 
  5 C        1.9310    -4.1460    -0.8230 C.3   1 <1>  -0.1600 
  6 C        0.7240    -1.4400    -0.1510 C.3   1 <1>  -0.1600 
  7 C       -2.5140    -3.9990     0.7990 C.1   1 <1>  -0.2000 
  8 C        2.7720    -2.8580    -0.8290 C.3   1 <1>  -0.1600 
  9 C        2.2330    -1.6830    -0.0010 C.3   1 <1>  -0.1600 
 10 C       -3.5830    -3.6120     0.4460 C.1   1 <1>  -0.0730 
 11 C       -4.8620    -3.1330     0.0160 C.ar  1 <1>   0.0730 
 12 C       -5.5780    -2.2310     0.7920 C.ar  1 <1>  -0.1500 
 13 C       -5.4120    -3.5580    -1.1860 C.ar  1 <1>  -0.1500 
 14 C       -6.8120    -1.7610     0.3770 C.ar  1 <1>  -0.1500 
 15 C       -6.6450    -3.0920    -1.6070 C.ar  1 <1>  -0.1500 
 16 C       -7.3460    -2.1910    -0.8240 C.ar  1 <1>  -0.1500 
 17 H       -0.5010    -3.7590    -0.5500 H     1 <1>   0.4500 
 18 H        0.9990    -5.4750     0.5470 H     1 <1>   0.0800 
 19 H        1.7300    -4.0920     1.3250 H     1 <1>   0.0800 
 20 H        0.2680    -2.1800     1.8090 H     1 <1>   0.0800 
 21 H       -1.1240    -1.8840     0.8050 H     1 <1>   0.0800 
 22 H       -1.0230    -4.2690     2.2760 H     1 <1>   0.0800 
 23 H       -1.0870    -5.5170     1.0470 H     1 <1>   0.0800 
 24 H        1.2530    -4.1440    -1.6590 H     1 <1>   0.0800 
 25 H        2.6060    -4.9690    -0.9820 H     1 <1>   0.0800 
 26 H        0.5390    -0.4090     0.0960 H     1 <1>   0.0800 
 27 H        0.4050    -1.5770    -1.1700 H     1 <1>   0.0800 
 28 H        2.8890    -2.5390    -1.8520 H     1 <1>   0.0800 
 29 H        3.7610    -3.0860    -0.4660 H     1 <1>   0.0800 
 30 H        2.4780    -1.8230     1.0380 H     1 <1>   0.0800 
 31 H        2.7560    -0.7960    -0.3210 H     1 <1>   0.0800 
 32 H       -5.1710    -1.8930     1.7280 H     1 <1>   0.1500 
 33 H       -4.8750    -4.2590    -1.8000 H     1 <1>   0.1500 
 34 H       -7.3570    -1.0610     0.9870 H     1 <1>   0.1500 
 35 H       -7.0610    -3.4280    -2.5410 H     1 <1>   0.1500 
 36 H       -8.3060    -1.8270    -1.1490 H     1 <1>   0.1500 
@<TRIPOS>BOND
  1   1   2  1   
  2   1   3  1   
  3   1   4  1   
  4   1  17  1   
  5   2   5  1   
  6   2  18  1   
  7   2  19  1   
  8   3   6  1   
  9   3  20  1   
 10   3  21  1   
 11   4   7  1   
 12   4  22  1   
 13   4  23  1   
 14   5   8  1   
 15   5  24  1   
 16   5  25  1   
 17   6   9  1   
 18   6  26  1   
 19   6  27  1   
 20   7  10  3   
 21   8   9  1   
 22   8  28  1   
 23   8  29  1   
 24   9  30  1   
 25   9  31  1   
 26  10  11  1   
 27  11  12  ar  
 28  11  13  ar  
 29  12  14  ar  
 30  12  32  1   
 31  13  15  ar  
 32  13  33  1   
 33  14  16  ar  
 34  14  34  1   
 35  15  16  ar  
 36  15  35  1   
 37  16  36  1   
@<TRIPOS>SUBSTRUCTURE
  1 ****   7 GROUP 4 **** **** 0

# MOE 2024.06 (io_trps.svl 2023.06)
