@<TRIPOS>MOLECULE
NONAME
36 36 1 0 0 
SMALL
USER_CHARGES


@<TRIPOS>ATOM
  1 O        0.1960    -0.2710    -0.5230 O.2   1 <1>  -0.5700 
  2 C        0.6160    -1.3450    -0.1340 C.2   1 <1>   0.6900 
  3 N        1.9700    -1.5910    -0.1020 N.am  1 <1>  -0.6600 
  4 N       -0.2320    -2.3200     0.3080 N.am  1 <1>  -0.5470 
  5 C        2.9500    -0.4870    -0.2990 C.3   1 <1>   0.0600 
  6 C        2.5700    -2.9520    -0.0550 C.3   1 <1>   0.0600 
  7 C       -1.6300    -2.4240     0.2920 C.ar  1 <1>   0.1170 
  8 C       -2.4320    -1.7200    -0.5990 C.ar  1 <1>  -0.1500 
  9 C       -2.2490    -3.2850     1.1890 C.ar  1 <1>  -0.1500 
 10 C       -3.8070    -1.8700    -0.5890 C.ar  1 <1>  -0.1500 
 11 C       -3.6230    -3.4380     1.2000 C.ar  1 <1>  -0.1500 
 12 C       -4.4190    -2.7310     0.3110 C.ar  1 <1>  -0.1430 
 13 C       -5.9370    -2.9100     0.3320 C.3   1 <1>   0.0630 
 14 C       -6.4170    -3.5190    -0.9990 C.3   1 <1>  -0.1600 
 15 C       -6.6230    -1.5740     0.6510 C.3   1 <1>  -0.2400 
 16 C       -7.8990    -3.9160    -0.9930 C.3   1 <1>  -0.2400 
 17 H        0.2530    -3.0420     0.8230 H     1 <1>   0.3700 
 18 H        2.4850     0.4680    -0.1220 H     1 <1>   0.0800 
 19 H        3.3210    -0.5080    -1.3090 H     1 <1>   0.0800 
 20 H        3.7710    -0.5980     0.3870 H     1 <1>   0.0800 
 21 H        2.9160    -3.1610     0.9430 H     1 <1>   0.0800 
 22 H        3.4040    -3.0060    -0.7330 H     1 <1>   0.0800 
 23 H        1.8520    -3.6980    -0.3490 H     1 <1>   0.0800 
 24 H       -1.9830    -1.0500    -1.3090 H     1 <1>   0.1500 
 25 H       -1.6530    -3.8400     1.8890 H     1 <1>   0.1500 
 26 H       -4.3980    -1.3080    -1.2900 H     1 <1>   0.1500 
 27 H       -4.0720    -4.1110     1.9090 H     1 <1>   0.1500 
 28 H       -6.1850    -3.6000     1.1200 H     1 <1>   0.0800 
 29 H       -5.8290    -4.3980    -1.1990 H     1 <1>   0.0800 
 30 H       -6.2400    -2.8250    -1.8020 H     1 <1>   0.0800 
 31 H       -6.4970    -0.8770    -0.1580 H     1 <1>   0.0800 
 32 H       -6.1900    -1.1470     1.5380 H     1 <1>   0.0800 
 33 H       -7.6730    -1.7170     0.8250 H     1 <1>   0.0800 
 34 H       -8.1060    -4.5910    -0.1810 H     1 <1>   0.0800 
 35 H       -8.1470    -4.4110    -1.9160 H     1 <1>   0.0800 
 36 H       -8.5290    -3.0500    -0.8980 H     1 <1>   0.0800 
@<TRIPOS>BOND
  1   1   2  2   
  2   2   3  am  
  3   2   4  am  
  4   3   5  1   
  5   3   6  1   
  6   4   7  1   
  7   4  17  1   
  8   5  18  1   
  9   5  19  1   
 10   5  20  1   
 11   6  21  1   
 12   6  22  1   
 13   6  23  1   
 14   7   8  ar  
 15   7   9  ar  
 16   8  10  ar  
 17   8  24  1   
 18   9  11  ar  
 19   9  25  1   
 20  10  12  ar  
 21  10  26  1   
 22  11  12  ar  
 23  11  27  1   
 24  12  13  1   
 25  13  14  1   
 26  13  15  1   
 27  13  28  1   
 28  14  16  1   
 29  14  29  1   
 30  14  30  1   
 31  15  31  1   
 32  15  32  1   
 33  15  33  1   
 34  16  34  1   
 35  16  35  1   
 36  16  36  1   
@<TRIPOS>SUBSTRUCTURE
  1 ****   7 GROUP 4 **** **** 0

# MOE 2024.06 (io_trps.svl 2023.06)
