@<TRIPOS>MOLECULE
NONAME
44 46 1 0 0 
SMALL
USER_CHARGES


@<TRIPOS>ATOM
  1 F       -3.2240     2.6050     1.9660 F     1 <1>  -0.1900 
  2 C       -2.4790     2.4470     0.9050 C.ar  1 <1>   0.1900 
  3 C       -2.5080     1.2330     0.2210 C.ar  1 <1>   0.0860 
  4 C       -1.6930     3.5150     0.5160 C.ar  1 <1>  -0.1500 
  5 C       -3.3390     0.1220     0.6290 C.2   1 <1>   0.5440 
  6 C       -1.6760     1.1300    -0.8940 C.ar  1 <1>  -0.1500 
  7 C       -0.8870     3.3830    -0.6010 C.ar  1 <1>  -0.1500 
  8 O       -2.8040    -0.9350     0.9060 O.2   1 <1>  -0.5700 
  9 N       -4.7160     0.2020     0.6720 N.am  1 <1>  -0.6600 
 10 C       -0.8790     2.1870    -1.3030 C.ar  1 <1>  -0.1500 
 11 C       -5.5630    -0.9120     1.2040 C.3   1 <1>   0.1400 
 12 C       -5.5200     1.3290     0.1040 C.3   1 <1>   0.1400 
 13 C       -6.5530    -1.4270     0.1450 C.3   1 <1>   0.2090 
 14 C       -6.5200     0.8380    -0.9600 C.3   1 <1>   0.2090 
 15 N       -7.3330    -0.3230    -0.4930 N.pl3 1 <1>  -0.8380 
 16 C       -8.6300    -0.0820    -0.0430 C.ar  1 <1>   0.1000 
 17 C       -9.7350    -0.4380    -0.8160 C.ar  1 <1>  -0.1430 
 18 C       -8.8460     0.5210     1.1910 C.ar  1 <1>  -0.1500 
 19 C      -11.0160    -0.1860    -0.3510 C.ar  1 <1>  -0.1500 
 20 C       -9.5420    -1.1030    -2.1710 C.3   1 <1>  -0.0970 
 21 C      -10.1250     0.7700     1.6500 C.ar  1 <1>  -0.1500 
 22 C      -11.2200     0.4180     0.8790 C.ar  1 <1>  -0.1430 
 23 C      -12.6290     0.6860     1.3750 C.3   1 <1>  -0.0970 
 24 H       -1.7100     4.4310     1.0800 H     1 <1>   0.1500 
 25 H       -1.6560     0.2010    -1.4390 H     1 <1>   0.1500 
 26 H       -0.2650     4.2020    -0.9220 H     1 <1>   0.1500 
 27 H       -0.2470     2.0790    -2.1680 H     1 <1>   0.1500 
 28 H       -6.1140    -0.5570     2.0550 H     1 <1>   0.0800 
 29 H       -4.9510    -1.7320     1.5360 H     1 <1>   0.0800 
 30 H       -4.8820     2.0680    -0.3450 H     1 <1>   0.0800 
 31 H       -6.0630     1.8070     0.9000 H     1 <1>   0.0800 
 32 H       -7.2320    -2.1260     0.6020 H     1 <1>   0.0800 
 33 H       -6.0060    -1.9530    -0.6180 H     1 <1>   0.0800 
 34 H       -5.9790     0.5450    -1.8430 H     1 <1>   0.0800 
 35 H       -7.1780     1.6450    -1.2320 H     1 <1>   0.0800 
 36 H       -8.0030     0.7970     1.7940 H     1 <1>   0.1500 
 37 H      -11.8650    -0.4630    -0.9490 H     1 <1>   0.1500 
 38 H       -8.9740    -0.4550    -2.8130 H     1 <1>   0.0800 
 39 H      -10.4850    -1.3160    -2.6410 H     1 <1>   0.0800 
 40 H       -9.0020    -2.0240    -2.0470 H     1 <1>   0.0800 
 41 H      -10.2650     1.2360     2.6080 H     1 <1>   0.1500 
 42 H      -13.0110    -0.1880     1.8710 H     1 <1>   0.0800 
 43 H      -13.2750     0.9290     0.5510 H     1 <1>   0.0800 
 44 H      -12.6360     1.5090     2.0660 H     1 <1>   0.0800 
@<TRIPOS>BOND
  1   1   2  1   
  2   2   3  ar  
  3   2   4  ar  
  4   3   5  1   
  5   3   6  ar  
  6   4   7  ar  
  7   4  24  1   
  8   5   8  2   
  9   5   9  am  
 10   6  10  ar  
 11   6  25  1   
 12   7  10  ar  
 13   7  26  1   
 14   9  11  1   
 15   9  12  1   
 16  10  27  1   
 17  11  13  1   
 18  11  28  1   
 19  11  29  1   
 20  12  14  1   
 21  12  30  1   
 22  12  31  1   
 23  13  15  1   
 24  13  32  1   
 25  13  33  1   
 26  14  15  1   
 27  14  34  1   
 28  14  35  1   
 29  15  16  1   
 30  16  17  ar  
 31  16  18  ar  
 32  17  19  ar  
 33  17  20  1   
 34  18  21  ar  
 35  18  36  1   
 36  19  22  ar  
 37  19  37  1   
 38  20  38  1   
 39  20  39  1   
 40  20  40  1   
 41  21  22  ar  
 42  21  41  1   
 43  22  23  1   
 44  23  42  1   
 45  23  43  1   
 46  23  44  1   
@<TRIPOS>SUBSTRUCTURE
  1 ****  12 GROUP 4 **** **** 0

# MOE 2024.06 (io_trps.svl 2023.06)
