@<TRIPOS>MOLECULE
NONAME
29 30 1 0 0 
SMALL
USER_CHARGES


@<TRIPOS>ATOM
  1 O        0.0160    -0.3670    -1.2650 O.2   1 <1>  -0.5700 
  2 C        0.0920    -1.1590    -0.3470 C.2   1 <1>   0.6900 
  3 N        1.2930    -1.5140     0.2020 N.am  1 <1>  -0.5470 
  4 N       -1.0280    -1.7360     0.1630 N.am  1 <1>  -0.5790 
  5 C        2.5890    -1.0240    -0.0180 C.ar  1 <1>   0.1170 
  6 C       -2.4000    -1.5010    -0.3110 C.3   1 <1>   0.0490 
  7 C        3.6700    -1.8370     0.2960 C.ar  1 <1>  -0.1500 
  8 C        2.8450     0.2500    -0.5170 C.ar  1 <1>  -0.1500 
  9 C       -3.4900    -1.4240     0.7070 C.3   1 <1>  -0.2000 
 10 C       -3.3820    -2.6190    -0.1930 C.3   1 <1>  -0.2000 
 11 C        4.9720    -1.4050     0.1160 C.ar  1 <1>   0.0830 
 12 C        4.1420     0.6920    -0.7020 C.ar  1 <1>  -0.1500 
 13 O        5.9550    -2.2790     0.4540 O.3   1 <1>  -0.3630 
 14 C        5.2100    -0.1300    -0.3880 C.ar  1 <1>  -0.1500 
 15 C        7.3150    -1.9490     0.2830 C.3   1 <1>   0.0400 
 16 H        1.2510    -2.3370     0.7910 H     1 <1>   0.3700 
 17 H       -0.9580    -2.3040     1.0020 H     1 <1>   0.3700 
 18 H       -2.4510    -0.8570    -1.1750 H     1 <1>   0.1000 
 19 H        3.5090    -2.8250     0.6830 H     1 <1>   0.1500 
 20 H        2.0280     0.9050    -0.7610 H     1 <1>   0.1500 
 21 H       -4.2980    -0.7330     0.5400 H     1 <1>   0.1000 
 22 H       -3.2400    -1.5250     1.7480 H     1 <1>   0.1000 
 23 H       -3.0560    -3.5580     0.2180 H     1 <1>   0.1000 
 24 H       -4.1190    -2.7390    -0.9680 H     1 <1>   0.1000 
 25 H        4.3180     1.6800    -1.0930 H     1 <1>   0.1500 
 26 H        6.2060     0.2370    -0.5410 H     1 <1>   0.1500 
 27 H        7.9050    -2.7880     0.6030 H     1 <1>   0.0800 
 28 H        7.5450    -1.0890     0.8880 H     1 <1>   0.0800 
 29 H        7.4980    -1.7490    -0.7580 H     1 <1>   0.0800 
@<TRIPOS>BOND
  1   1   2  2   
  2   2   3  am  
  3   2   4  am  
  4   3   5  1   
  5   3  16  1   
  6   4   6  1   
  7   4  17  1   
  8   5   7  ar  
  9   5   8  ar  
 10   6   9  1   
 11   6  10  1   
 12   6  18  1   
 13   7  11  ar  
 14   7  19  1   
 15   8  12  ar  
 16   8  20  1   
 17   9  10  1   
 18   9  21  1   
 19   9  22  1   
 20  10  23  1   
 21  10  24  1   
 22  11  13  1   
 23  11  14  ar  
 24  12  14  ar  
 25  12  25  1   
 26  13  15  1   
 27  14  26  1   
 28  15  27  1   
 29  15  28  1   
 30  15  29  1   
@<TRIPOS>SUBSTRUCTURE
  1 ****   3 GROUP 4 **** **** 0

# MOE 2024.06 (io_trps.svl 2023.06)
