@<TRIPOS>MOLECULE
NONAME
43 45 1 0 0 
SMALL
USER_CHARGES


@<TRIPOS>ATOM
  1 O       -0.5280    -0.1760     0.2930 O.2   1 <1>  -0.5700 
  2 C       -0.0600     0.9380     0.4240 C.2   1 <1>   0.7800 
  3 O        1.2410     1.1020     0.6410 O.3   1 <1>  -0.4300 
  4 N       -0.7800     2.0780     0.3640 N.am  1 <1>  -0.7300 
  5 C        2.1000    -0.0120     0.7230 C.3   1 <1>   0.1200 
  6 C       -2.2210     2.2520     0.1370 C.3   1 <1>   0.3000 
  7 C        3.5150     0.4980     0.9750 C.3   1 <1>  -0.2400 
  8 C       -2.5170     3.7630     0.1600 C.3   1 <1>  -0.1600 
  9 C       -2.6290     1.6850    -1.2360 C.3   1 <1>  -0.1600 
 10 C       -3.0350     1.5640     1.2480 C.3   1 <1>  -0.1600 
 11 C       -4.0210     4.0370    -0.0760 C.3   1 <1>   0.0000 
 12 C       -4.1330     1.9190    -1.4740 C.3   1 <1>  -0.0800 
 13 C       -4.5380     1.7970     1.0140 C.3   1 <1>  -0.0800 
 14 C       -4.4210     3.4320    -1.4420 C.3   1 <1>  -0.1600 
 15 C       -4.8230     3.3090     1.0290 C.3   1 <1>  -0.1600 
 16 C       -4.3480     5.5480     0.0000 C.3   1 <1>  -0.1600 
 17 C       -4.9350     1.2240    -0.3590 C.3   1 <1>  -0.1600 
 18 C       -3.6320     6.4470    -1.0210 C.3   1 <1>  -0.2400 
 19 H       -0.2570     2.9390     0.4910 H     1 <1>   0.3700 
 20 H        2.0440    -0.5550    -0.2050 H     1 <1>   0.0800 
 21 H        1.7650    -0.6420     1.5310 H     1 <1>   0.0800 
 22 H        3.8290     1.1330     0.1670 H     1 <1>   0.0800 
 23 H        4.1930    -0.3330     1.0420 H     1 <1>   0.0800 
 24 H        3.5520     1.0460     1.9000 H     1 <1>   0.0800 
 25 H       -1.9370     4.2380    -0.6100 H     1 <1>   0.0800 
 26 H       -2.2250     4.1740     1.1100 H     1 <1>   0.0800 
 27 H       -2.4300     0.6290    -1.2730 H     1 <1>   0.0800 
 28 H       -2.0590     2.1610    -2.0130 H     1 <1>   0.0800 
 29 H       -2.7500     1.9570     2.2070 H     1 <1>   0.0800 
 30 H       -2.8400     0.5060     1.2470 H     1 <1>   0.0800 
 31 H       -4.4150     1.5150    -2.4320 H     1 <1>   0.0800 
 32 H       -5.1060     1.3100     1.7890 H     1 <1>   0.0800 
 33 H       -5.4670     3.6030    -1.6250 H     1 <1>   0.0800 
 34 H       -3.8700     3.9030    -2.2360 H     1 <1>   0.0800 
 35 H       -5.8760     3.4720     0.8830 H     1 <1>   0.0800 
 36 H       -4.5640     3.7080     1.9940 H     1 <1>   0.0800 
 37 H       -4.1050     5.9050     0.9860 H     1 <1>   0.0800 
 38 H       -5.4090     5.6770    -0.1280 H     1 <1>   0.0800 
 39 H       -4.7440     0.1640    -0.3800 H     1 <1>   0.0800 
 40 H       -5.9890     1.3680    -0.5240 H     1 <1>   0.0800 
 41 H       -2.5660     6.4040    -0.8980 H     1 <1>   0.0800 
 42 H       -3.9400     7.4680    -0.8770 H     1 <1>   0.0800 
 43 H       -3.8820     6.1670    -2.0280 H     1 <1>   0.0800 
@<TRIPOS>BOND
  1   1   2  2   
  2   2   3  1   
  3   2   4  am  
  4   3   5  1   
  5   4   6  1   
  6   4  19  1   
  7   5   7  1   
  8   5  20  1   
  9   5  21  1   
 10   6   8  1   
 11   6   9  1   
 12   6  10  1   
 13   7  22  1   
 14   7  23  1   
 15   7  24  1   
 16   8  11  1   
 17   8  25  1   
 18   8  26  1   
 19   9  12  1   
 20   9  27  1   
 21   9  28  1   
 22  10  13  1   
 23  10  29  1   
 24  10  30  1   
 25  11  14  1   
 26  11  15  1   
 27  11  16  1   
 28  12  14  1   
 29  12  17  1   
 30  12  31  1   
 31  13  15  1   
 32  13  17  1   
 33  13  32  1   
 34  14  33  1   
 35  14  34  1   
 36  15  35  1   
 37  15  36  1   
 38  16  18  1   
 39  16  37  1   
 40  16  38  1   
 41  17  39  1   
 42  17  40  1   
 43  18  41  1   
 44  18  42  1   
 45  18  43  1   
@<TRIPOS>SUBSTRUCTURE
  1 ****   6 GROUP 4 **** **** 0

# MOE 2024.06 (io_trps.svl 2023.06)
