@<TRIPOS>MOLECULE
NONAME
55 56 1 0 0 
SMALL
USER_CHARGES


@<TRIPOS>ATOM
  1 O        1.7700    -0.7540     1.6260 O.2   1 <1>  -0.5700 
  2 C        2.0960    -1.5270     0.7560 C.2   1 <1>   0.5690 
  3 N        1.3050    -2.5980     0.4080 N.am  1 <1>  -0.6600 
  4 C        3.4380    -1.2390     0.0850 C.3   1 <1>  -0.0190 
  5 C        1.6300    -3.6380    -0.6110 C.3   1 <1>   0.1400 
  6 C        0.0280    -2.8420     1.1470 C.3   1 <1>   0.1400 
  7 C        4.4450    -0.9190     1.2080 C.3   1 <1>   0.3430 
  8 C        3.3110    -0.0900    -0.9450 C.3   1 <1>  -0.1600 
  9 C        1.4220    -3.1030    -2.0280 C.3   1 <1>  -0.2400 
 10 C       -1.1600    -2.3430     0.3300 C.3   1 <1>  -0.2400 
 11 N        5.5910    -0.0730     0.7380 N.4   1 <1>  -0.9590 
 12 C        3.7150     1.2570    -0.3290 C.3   1 <1>  -0.1600 
 13 C        5.1520     1.2670     0.2150 C.3   1 <1>   0.3430 
 14 C        6.4750    -0.7880    -0.2240 C.3   1 <1>   0.4860 
 15 C        7.7670    -0.0070    -0.3510 C.ar  1 <1>  -0.1440 
 16 C        8.6440     0.0590     0.7190 C.ar  1 <1>  -0.1500 
 17 C        8.0860     0.6550    -1.5250 C.ar  1 <1>  -0.1500 
 18 C        9.8200     0.7860     0.6470 C.ar  1 <1>   0.0820 
 19 C        9.2580     1.3860    -1.6170 C.ar  1 <1>  -0.1500 
 20 O       10.5560     0.7470     1.7950 O.3   1 <1>  -0.3630 
 21 C       10.1370     1.4720    -0.5390 C.ar  1 <1>   0.0820 
 22 C       11.9190     1.1090     1.8450 C.3   1 <1>   0.0400 
 23 O       11.2790     2.2150    -0.6200 O.3   1 <1>  -0.3630 
 24 C       11.6660     2.8950    -1.7950 C.3   1 <1>   0.0400 
 25 H        3.7790    -2.1190    -0.4210 H     1 <1>   0.0800 
 26 H        0.9910    -4.4940    -0.4690 H     1 <1>   0.0800 
 27 H        2.6430    -3.9790    -0.4840 H     1 <1>   0.0800 
 28 H        0.0420    -2.3280     2.0940 H     1 <1>   0.0800 
 29 H       -0.0810    -3.8920     1.3580 H     1 <1>   0.0800 
 30 H        4.8040    -1.8380     1.6430 H     1 <1>   0.0800 
 31 H        3.9310    -0.3770     1.9860 H     1 <1>   0.0800 
 32 H        2.2980    -0.0300    -1.3080 H     1 <1>   0.0800 
 33 H        3.9420    -0.2910    -1.7930 H     1 <1>   0.0800 
 34 H        0.4200    -2.7370    -2.1520 H     1 <1>   0.0800 
 35 H        1.5770    -3.8970    -2.7360 H     1 <1>   0.0800 
 36 H        2.1140    -2.3160    -2.2560 H     1 <1>   0.0800 
 37 H       -1.0260    -1.3070     0.0770 H     1 <1>   0.0800 
 38 H       -2.0590    -2.4370     0.9110 H     1 <1>   0.0800 
 39 H       -1.2790    -2.9240    -0.5650 H     1 <1>   0.0800 
 40 H        6.1920     0.1270     1.5500 H     1 <1>   0.4500 
 41 H        3.0380     1.4950     0.4750 H     1 <1>   0.0800 
 42 H        3.6120     2.0410    -1.0600 H     1 <1>   0.0800 
 43 H        5.8230     1.5860    -0.5660 H     1 <1>   0.0800 
 44 H        5.2110     2.0000     1.0040 H     1 <1>   0.0800 
 45 H        5.9950    -0.8730    -1.1840 H     1 <1>   0.0800 
 46 H        6.6970    -1.7770     0.1400 H     1 <1>   0.0800 
 47 H        8.4390    -0.4590     1.6390 H     1 <1>   0.1500 
 48 H        7.4330     0.6130    -2.3810 H     1 <1>   0.1500 
 49 H        9.4670     1.8850    -2.5440 H     1 <1>   0.1500 
 50 H       12.3140     0.8000     2.7950 H     1 <1>   0.0800 
 51 H       11.9990     2.1770     1.7490 H     1 <1>   0.0800 
 52 H       12.4440     0.6120     1.0490 H     1 <1>   0.0800 
 53 H       12.6030     3.3850    -1.6020 H     1 <1>   0.0800 
 54 H       10.9170     3.6270    -2.0400 H     1 <1>   0.0800 
 55 H       11.7860     2.1800    -2.5900 H     1 <1>   0.0800 
@<TRIPOS>BOND
  1   1   2  2   
  2   2   3  am  
  3   2   4  1   
  4   3   5  1   
  5   3   6  1   
  6   4   7  1   
  7   4   8  1   
  8   4  25  1   
  9   5   9  1   
 10   5  26  1   
 11   5  27  1   
 12   6  10  1   
 13   6  28  1   
 14   6  29  1   
 15   7  11  1   
 16   7  30  1   
 17   7  31  1   
 18   8  12  1   
 19   8  32  1   
 20   8  33  1   
 21   9  34  1   
 22   9  35  1   
 23   9  36  1   
 24  10  37  1   
 25  10  38  1   
 26  10  39  1   
 27  11  13  1   
 28  11  14  1   
 29  11  40  1   
 30  12  13  1   
 31  12  41  1   
 32  12  42  1   
 33  13  43  1   
 34  13  44  1   
 35  14  15  1   
 36  14  45  1   
 37  14  46  1   
 38  15  16  ar  
 39  15  17  ar  
 40  16  18  ar  
 41  16  47  1   
 42  17  19  ar  
 43  17  48  1   
 44  18  20  1   
 45  18  21  ar  
 46  19  21  ar  
 47  19  49  1   
 48  20  22  1   
 49  21  23  1   
 50  22  50  1   
 51  22  51  1   
 52  22  52  1   
 53  23  24  1   
 54  24  53  1   
 55  24  54  1   
 56  24  55  1   
@<TRIPOS>SUBSTRUCTURE
  1 ****  11 GROUP 4 **** **** 0

# MOE 2024.06 (io_trps.svl 2023.06)
