@<TRIPOS>MOLECULE
NONAME
37 39 1 0 0 
SMALL
USER_CHARGES


@<TRIPOS>ATOM
  1 CL      -0.0180     1.3130     1.9560 Cl    1 <1>  -0.1660 
  2 C        1.5550     1.8820     1.4660 C.ar  1 <1>   0.1880 
  3 C        2.5700     1.9630     2.4020 C.ar  1 <1>  -0.1390 
  4 C        1.7660     2.2460     0.1490 C.ar  1 <1>  -0.1390 
  5 C        3.8210     2.4120     2.0090 C.ar  1 <1>  -0.1390 
  6 C        3.0190     2.6940    -0.2380 C.ar  1 <1>  -0.1390 
  7 C        4.0540     2.7740     0.6860 C.ar  1 <1>   0.3200 
  8 N        5.3210     3.2120     0.2850 N.pl3 1 <1>  -0.8230 
  9 C        6.3820     2.4900     0.0300 C.cat 1 <1>   1.2010 
 10 N        7.4870     3.0910    -0.3150 N.pl3 1 <1>  -0.9130 
 11 N        6.3540     1.1980     0.1090 N.pl3 1 <1>  -0.8400 
 12 C        8.5700     2.4230    -0.5830 C.cat 1 <1>   1.2010 
 13 C        7.4520     0.3220    -0.1560 C.3   1 <1>   0.6620 
 14 N        8.5750     1.1360    -0.5140 N.pl3 1 <1>  -0.8400 
 15 N        9.6310     3.0720    -0.9150 N.pl3 1 <1>  -0.9630 
 16 C        7.8010    -0.5540     1.0390 C.3   1 <1>  -0.1490 
 17 C        7.1500    -0.6710    -1.2690 C.3   1 <1>  -0.1490 
 18 C        8.5050    -1.7870     0.4530 C.3   1 <1>  -0.1490 
 19 C        8.0890    -1.8610    -1.0240 C.3   1 <1>  -0.1490 
 20 H        2.3710     1.6810     3.4230 H     1 <1>   0.1610 
 21 H        0.9540     2.1780    -0.5560 H     1 <1>   0.1610 
 22 H        4.6060     2.4880     2.7400 H     1 <1>   0.1610 
 23 H        3.1810     2.9820    -1.2630 H     1 <1>   0.1610 
 24 H        5.3850     4.2230     0.1770 H     1 <1>   0.4580 
 25 H        7.5190     4.0940    -0.3690 H     1 <1>   0.4580 
 26 H        5.4850     0.7370     0.3680 H     1 <1>   0.4580 
 27 H        9.4130     0.6000    -0.7210 H     1 <1>   0.4580 
 28 H       10.5150     2.6140    -1.1380 H     1 <1>   0.4580 
 29 H        9.6930     4.0870    -0.9890 H     1 <1>   0.4580 
 30 H        6.8960    -0.8880     1.5170 H     1 <1>   0.0920 
 31 H        8.4110    -0.0490     1.7670 H     1 <1>   0.0920 
 32 H        7.2760    -0.2530    -2.2520 H     1 <1>   0.0920 
 33 H        6.1380    -1.0250    -1.1700 H     1 <1>   0.0920 
 34 H        8.2180    -2.6810     0.9830 H     1 <1>   0.0920 
 35 H        9.5760    -1.6850     0.5300 H     1 <1>   0.0920 
 36 H        8.9600    -1.7940    -1.6560 H     1 <1>   0.0920 
 37 H        7.5920    -2.7940    -1.2410 H     1 <1>   0.0920 
@<TRIPOS>BOND
  1   1   2  1   
  2   2   3  ar  
  3   2   4  ar  
  4   3   5  ar  
  5   3  20  1   
  6   4   6  ar  
  7   4  21  1   
  8   5   7  ar  
  9   5  22  1   
 10   6   7  ar  
 11   6  23  1   
 12   7   8  1   
 13   8   9  ar  
 14   8  24  1   
 15   9  10  ar  
 16   9  11  ar  
 17  10  12  ar  
 18  10  25  1   
 19  11  13  1   
 20  11  26  1   
 21  12  14  ar  
 22  12  15  ar  
 23  13  14  1   
 24  13  16  1   
 25  13  17  1   
 26  14  27  1   
 27  15  28  1   
 28  15  29  1   
 29  16  18  1   
 30  16  30  1   
 31  16  31  1   
 32  17  19  1   
 33  17  32  1   
 34  17  33  1   
 35  18  19  1   
 36  18  34  1   
 37  18  35  1   
 38  19  36  1   
 39  19  37  1   
@<TRIPOS>SUBSTRUCTURE
  1 ****  11 GROUP 4 **** **** 0

# MOE 2024.06 (io_trps.svl 2023.06)
