@<TRIPOS>MOLECULE
NONAME
25 25 1 0 0 
SMALL
USER_CHARGES


@<TRIPOS>ATOM
  1 I        0.4200    -0.6000    -0.8030 I     1 <1>  -0.0810 
  2 C       -1.5940    -1.1920    -0.4450 C.ar  1 <1>   0.0810 
  3 C       -2.0920    -2.2920    -1.1160 C.ar  1 <1>  -0.1500 
  4 C       -2.3540    -0.4620     0.4510 C.ar  1 <1>  -0.1500 
  5 C       -3.4010    -2.6530    -0.8650 C.ar  1 <1>   0.1770 
  6 C       -3.6650    -0.8480     0.6830 C.ar  1 <1>  -0.1500 
  7 CL      -4.0520    -4.0480    -1.7020 Cl    1 <1>  -0.1770 
  8 C       -4.2160    -1.9500     0.0260 C.ar  1 <1>   0.1170 
  9 N       -5.5430    -2.3850     0.2260 N.am  1 <1>  -0.5470 
 10 C       -6.6170    -1.8120     0.8450 C.2   1 <1>   0.5690 
 11 O       -6.5920    -0.7330     1.3800 O.2   1 <1>  -0.5700 
 12 C       -7.9180    -2.5920     0.8450 C.3   1 <1>  -0.0990 
 13 C       -8.5770    -2.6290    -0.5450 C.3   1 <1>  -0.1600 
 14 C       -9.8900    -3.4160    -0.5170 C.3   1 <1>  -0.2400 
 15 H       -1.4870    -2.8490    -1.8080 H     1 <1>   0.1500 
 16 H       -1.9360     0.3900     0.9590 H     1 <1>   0.1500 
 17 H       -4.2520    -0.2820     1.3830 H     1 <1>   0.1500 
 18 H       -5.7490    -3.2740    -0.2330 H     1 <1>   0.3700 
 19 H       -8.5910    -2.1310     1.5460 H     1 <1>   0.0800 
 20 H       -7.7240    -3.5920     1.1880 H     1 <1>   0.0800 
 21 H       -7.9090    -3.0810    -1.2580 H     1 <1>   0.0800 
 22 H       -8.7740    -1.6200    -0.8690 H     1 <1>   0.0800 
 23 H       -9.7170    -4.4340    -0.2150 H     1 <1>   0.0800 
 24 H      -10.3360    -3.4220    -1.4960 H     1 <1>   0.0800 
 25 H      -10.5850    -2.9640     0.1690 H     1 <1>   0.0800 
@<TRIPOS>BOND
  1   1   2  1   
  2   2   3  ar  
  3   2   4  ar  
  4   3   5  ar  
  5   3  15  1   
  6   4   6  ar  
  7   4  16  1   
  8   5   7  1   
  9   5   8  ar  
 10   6   8  ar  
 11   6  17  1   
 12   8   9  1   
 13   9  10  am  
 14   9  18  1   
 15  10  11  2   
 16  10  12  1   
 17  12  13  1   
 18  12  19  1   
 19  12  20  1   
 20  13  14  1   
 21  13  21  1   
 22  13  22  1   
 23  14  23  1   
 24  14  24  1   
 25  14  25  1   
@<TRIPOS>SUBSTRUCTURE
  1 ****   8 GROUP 4 **** **** 0

# MOE 2024.06 (io_trps.svl 2023.06)
