@<TRIPOS>MOLECULE
NONAME
39 39 1 0 0 
SMALL
USER_CHARGES


@<TRIPOS>ATOM
  1 O       -0.7230     0.7530     0.2550 O.3   1 <1>  -0.3540 
  2 C       -1.7010    -0.1730     0.0960 C.ar  1 <1>   0.0930 
  3 C       -0.4760     1.7390    -0.7230 C.3   1 <1>   0.0510 
  4 C       -1.8450    -1.1070     1.1090 C.ar  1 <1>  -0.1400 
  5 C       -2.5450    -0.2320    -1.0090 C.ar  1 <1>  -0.1400 
  6 C       -2.8170    -2.0880     1.0270 C.ar  1 <1>  -0.1400 
  7 C       -3.5170    -1.2150    -1.0880 C.ar  1 <1>  -0.1400 
  8 C       -3.6610    -2.1480    -0.0720 C.ar  1 <1>  -0.1330 
  9 C       -4.7300    -3.2250    -0.1610 C.3   1 <1>  -0.0050 
 10 C       -6.0430    -2.7170     0.4530 C.3   1 <1>  -0.1500 
 11 C       -7.1420    -3.7810     0.4100 C.3   1 <1>   0.1780 
 12 N       -8.3800    -3.2220     1.0220 N.pl3 1 <1>  -0.8400 
 13 C       -9.6170    -3.2230     0.6030 C.cat 1 <1>   1.2010 
 14 N      -10.4850    -2.4790     1.1930 N.pl3 1 <1>  -0.9630 
 15 N      -10.0390    -3.9240    -0.4130 N.pl3 1 <1>  -0.9130 
 16 C       -9.8930    -5.1930    -0.6590 C.cat 1 <1>   1.2010 
 17 N      -10.1480    -5.6100    -1.8450 N.pl3 1 <1>  -0.9630 
 18 N       -9.5350    -6.0430     0.2380 N.pl3 1 <1>  -0.9630 
 19 H        0.3410     2.3490    -0.3820 H     1 <1>   0.0910 
 20 H       -1.3580     2.3440    -0.8400 H     1 <1>   0.0910 
 21 H       -0.2110     1.2570    -1.6470 H     1 <1>   0.0910 
 22 H       -1.1880    -1.0580     1.9580 H     1 <1>   0.1600 
 23 H       -2.4590     0.4750    -1.8120 H     1 <1>   0.1600 
 24 H       -2.9050    -2.8030     1.8270 H     1 <1>   0.1600 
 25 H       -4.1580    -1.2460    -1.9520 H     1 <1>   0.1600 
 26 H       -4.3880    -4.1040     0.3580 H     1 <1>   0.0910 
 27 H       -4.8760    -3.4930    -1.1940 H     1 <1>   0.0910 
 28 H       -6.3580    -1.8430    -0.0910 H     1 <1>   0.0910 
 29 H       -5.8480    -2.4320     1.4730 H     1 <1>   0.0910 
 30 H       -6.8200    -4.6490     0.9660 H     1 <1>   0.0910 
 31 H       -7.3150    -4.0730    -0.6130 H     1 <1>   0.0910 
 32 H       -8.1750    -2.6520     1.8450 H     1 <1>   0.4580 
 33 H      -11.4730    -2.4510     0.9430 H     1 <1>   0.4580 
 34 H      -10.2590    -1.8570     1.9700 H     1 <1>   0.4580 
 35 H      -10.6390    -3.4260    -1.0490 H     1 <1>   0.4580 
 36 H      -10.0870    -6.5950    -2.1030 H     1 <1>   0.4580 
 37 H      -10.4140    -5.0150    -2.6280 H     1 <1>   0.4580 
 38 H       -9.4590    -7.0420     0.0420 H     1 <1>   0.4580 
 39 H       -9.3600    -5.8130     1.2140 H     1 <1>   0.4580 
@<TRIPOS>BOND
  1   1   2  1   
  2   1   3  1   
  3   2   4  ar  
  4   2   5  ar  
  5   3  19  1   
  6   3  20  1   
  7   3  21  1   
  8   4   6  ar  
  9   4  22  1   
 10   5   7  ar  
 11   5  23  1   
 12   6   8  ar  
 13   6  24  1   
 14   7   8  ar  
 15   7  25  1   
 16   8   9  1   
 17   9  10  1   
 18   9  26  1   
 19   9  27  1   
 20  10  11  1   
 21  10  28  1   
 22  10  29  1   
 23  11  12  1   
 24  11  30  1   
 25  11  31  1   
 26  12  13  ar  
 27  12  32  1   
 28  13  14  ar  
 29  13  15  ar  
 30  14  33  1   
 31  14  34  1   
 32  15  16  ar  
 33  15  35  1   
 34  16  17  ar  
 35  16  18  ar  
 36  17  36  1   
 37  17  37  1   
 38  18  38  1   
 39  18  39  1   
@<TRIPOS>SUBSTRUCTURE
  1 ****  10 GROUP 4 **** **** 0

# MOE 2024.06 (io_trps.svl 2023.06)
