@<TRIPOS>MOLECULE
NONAME
47 49 1 0 0 
SMALL
USER_CHARGES


@<TRIPOS>ATOM
  1 CL      -0.7090     0.9960     1.8990 Cl    1 <1>  -0.1770 
  2 C       -0.5710     2.0970     0.5420 C.ar  1 <1>   0.1770 
  3 C       -1.7300     2.5470    -0.0900 C.ar  1 <1>   0.1170 
  4 C        0.6920     2.4870     0.1390 C.ar  1 <1>  -0.1500 
  5 N       -2.9820     2.1040     0.3830 N.am  1 <1>  -0.5470 
  6 C       -1.5700     3.4240    -1.1610 C.ar  1 <1>  -0.1500 
  7 C        0.8230     3.3570    -0.9300 C.ar  1 <1>  -0.1500 
  8 C       -4.2600     2.2720    -0.0740 C.2   1 <1>   0.5690 
  9 C       -0.3100     3.8230    -1.5760 C.ar  1 <1>  -0.1500 
 10 O       -4.5340     2.9000    -1.0670 O.2   1 <1>  -0.5700 
 11 C       -5.3770     1.6110     0.7370 C.3   1 <1>  -0.0190 
 12 C       -5.4820     0.1090     0.4100 C.3   1 <1>  -0.1600 
 13 C       -6.7500     2.2840     0.5310 C.3   1 <1>  -0.1600 
 14 C       -6.5890    -0.5680     1.2230 C.3   1 <1>   0.1400 
 15 C       -7.8540     1.5930     1.3350 C.3   1 <1>   0.1400 
 16 N       -7.8800     0.1410     1.0020 N.am  1 <1>  -0.6600 
 17 C       -8.9490    -0.4820     0.3840 C.2   1 <1>   0.5440 
 18 O       -8.7800    -1.5710    -0.1310 O.2   1 <1>  -0.5700 
 19 C      -10.2630     0.1260     0.3210 C.ar  1 <1>   0.0860 
 20 C      -10.9420     0.5220     1.4750 C.ar  1 <1>  -0.1500 
 21 C      -10.8990     0.3310    -0.9030 C.ar  1 <1>  -0.1500 
 22 C      -12.1890     1.1140     1.4050 C.ar  1 <1>  -0.1500 
 23 C      -12.1470     0.9220    -0.9810 C.ar  1 <1>  -0.1500 
 24 C      -12.8010     1.3230     0.1800 C.ar  1 <1>   0.0830 
 25 O      -14.0190     1.9110     0.1950 O.3   1 <1>  -0.3630 
 26 C      -14.7460     2.1400    -0.9910 C.3   1 <1>   0.0400 
 27 H        1.5600     2.1150     0.6530 H     1 <1>   0.1500 
 28 H       -2.9020     1.5130     1.2110 H     1 <1>   0.3700 
 29 H       -2.4270     3.8060    -1.6840 H     1 <1>   0.1500 
 30 H        1.8000     3.6710    -1.2570 H     1 <1>   0.1500 
 31 H       -0.2130     4.5000    -2.4070 H     1 <1>   0.1500 
 32 H       -5.1230     1.7120     1.7770 H     1 <1>   0.0800 
 33 H       -4.5470    -0.3810     0.6150 H     1 <1>   0.0800 
 34 H       -5.6950    -0.0210    -0.6370 H     1 <1>   0.0800 
 35 H       -7.0180     2.2550    -0.5120 H     1 <1>   0.0800 
 36 H       -6.6930     3.3190     0.8210 H     1 <1>   0.0800 
 37 H       -6.3490    -0.5370     2.2710 H     1 <1>   0.0800 
 38 H       -6.6660    -1.6030     0.9340 H     1 <1>   0.0800 
 39 H       -8.7950     2.0610     1.1070 H     1 <1>   0.0800 
 40 H       -7.6700     1.7070     2.3900 H     1 <1>   0.0800 
 41 H      -10.4810     0.3580     2.4320 H     1 <1>   0.1500 
 42 H      -10.3960     0.0160    -1.8010 H     1 <1>   0.1500 
 43 H      -12.7020     1.4170     2.3010 H     1 <1>   0.1500 
 44 H      -12.5930     1.0610    -1.9480 H     1 <1>   0.1500 
 45 H      -15.6800     2.6030    -0.7250 H     1 <1>   0.0800 
 46 H      -14.9300     1.1970    -1.4750 H     1 <1>   0.0800 
 47 H      -14.1800     2.7970    -1.6270 H     1 <1>   0.0800 
@<TRIPOS>BOND
  1   1   2  1   
  2   2   3  ar  
  3   2   4  ar  
  4   3   5  1   
  5   3   6  ar  
  6   4   7  ar  
  7   4  27  1   
  8   5   8  am  
  9   5  28  1   
 10   6   9  ar  
 11   6  29  1   
 12   7   9  ar  
 13   7  30  1   
 14   8  10  2   
 15   8  11  1   
 16   9  31  1   
 17  11  12  1   
 18  11  13  1   
 19  11  32  1   
 20  12  14  1   
 21  12  33  1   
 22  12  34  1   
 23  13  15  1   
 24  13  35  1   
 25  13  36  1   
 26  14  16  1   
 27  14  37  1   
 28  14  38  1   
 29  15  16  1   
 30  15  39  1   
 31  15  40  1   
 32  16  17  am  
 33  17  18  2   
 34  17  19  1   
 35  19  20  ar  
 36  19  21  ar  
 37  20  22  ar  
 38  20  41  1   
 39  21  23  ar  
 40  21  42  1   
 41  22  24  ar  
 42  22  43  1   
 43  23  24  ar  
 44  23  44  1   
 45  24  25  1   
 46  25  26  1   
 47  26  45  1   
 48  26  46  1   
 49  26  47  1   
@<TRIPOS>SUBSTRUCTURE
  1 ****  13 GROUP 4 **** **** 0

# MOE 2024.06 (io_trps.svl 2023.06)
