@<TRIPOS>MOLECULE
NONAME
37 37 1 0 0 
SMALL
USER_CHARGES


@<TRIPOS>ATOM
  1 I       -0.5840    -1.1850     0.4150 I     1 <1>  -0.0810 
  2 C        1.4880    -1.6090     0.2240 C.ar  1 <1>   0.0810 
  3 C        2.4030    -0.6260     0.5510 C.ar  1 <1>  -0.1500 
  4 C        1.8760    -2.8560    -0.2260 C.ar  1 <1>  -0.1500 
  5 C        3.7510    -0.9110     0.4240 C.ar  1 <1>  -0.1500 
  6 C        3.2290    -3.1200    -0.3450 C.ar  1 <1>  -0.1500 
  7 C        4.1970    -2.1630    -0.0190 C.ar  1 <1>   0.0860 
  8 C        5.6110    -2.4740    -0.1440 C.2   1 <1>   0.5440 
  9 O        6.0030    -3.3100    -0.9360 O.2   1 <1>  -0.5700 
 10 N        6.5510    -1.8440     0.6280 N.am  1 <1>  -0.7300 
 11 C        7.9900    -2.1790     0.5900 C.3   1 <1>   0.1400 
 12 C        8.6660    -1.4510    -0.5840 C.3   1 <1>  -0.0800 
 13 C        9.8690    -2.2300    -1.1410 C.3   1 <1>   0.3430 
 14 C        8.9990     0.0120    -0.2340 C.3   1 <1>  -0.2400 
 15 N       11.0620    -2.1880    -0.2360 N.4   1 <1>  -0.9590 
 16 C       12.3200    -2.2440    -1.0420 C.3   1 <1>   0.2630 
 17 C       11.0540    -3.2940     0.7730 C.3   1 <1>   0.2630 
 18 H        2.0680     0.3380     0.8930 H     1 <1>   0.1500 
 19 H        1.1430    -3.6010    -0.4780 H     1 <1>   0.1500 
 20 H        4.4650    -0.1440     0.6640 H     1 <1>   0.1500 
 21 H        3.5500    -4.0860    -0.6970 H     1 <1>   0.1500 
 22 H        6.2440    -1.1970     1.3560 H     1 <1>   0.3700 
 23 H        8.0800    -3.2460     0.4600 H     1 <1>   0.0800 
 24 H        8.4470    -1.9140     1.5280 H     1 <1>   0.0800 
 25 H        7.9560    -1.4340    -1.3950 H     1 <1>   0.0800 
 26 H       10.1310    -1.7830    -2.0860 H     1 <1>   0.0800 
 27 H        9.5820    -3.2520    -1.3370 H     1 <1>   0.0800 
 28 H        9.6420     0.0820     0.6250 H     1 <1>   0.0800 
 29 H        8.0910     0.5470    -0.0120 H     1 <1>   0.0800 
 30 H        9.4720     0.5020    -1.0670 H     1 <1>   0.0800 
 31 H       11.0360    -1.2810     0.2530 H     1 <1>   0.4500 
 32 H       12.3770    -3.1720    -1.5870 H     1 <1>   0.0800 
 33 H       13.1810    -2.1690    -0.3970 H     1 <1>   0.0800 
 34 H       12.3500    -1.4280    -1.7470 H     1 <1>   0.0800 
 35 H       11.0430    -4.2520     0.2790 H     1 <1>   0.0800 
 36 H       10.1860    -3.2240     1.4080 H     1 <1>   0.0800 
 37 H       11.9330    -3.2380     1.3950 H     1 <1>   0.0800 
@<TRIPOS>BOND
  1   1   2  1   
  2   2   3  ar  
  3   2   4  ar  
  4   3   5  ar  
  5   3  18  1   
  6   4   6  ar  
  7   4  19  1   
  8   5   7  ar  
  9   5  20  1   
 10   6   7  ar  
 11   6  21  1   
 12   7   8  1   
 13   8   9  2   
 14   8  10  am  
 15  10  11  1   
 16  10  22  1   
 17  11  12  1   
 18  11  23  1   
 19  11  24  1   
 20  12  13  1   
 21  12  14  1   
 22  12  25  1   
 23  13  15  1   
 24  13  26  1   
 25  13  27  1   
 26  14  28  1   
 27  14  29  1   
 28  14  30  1   
 29  15  16  1   
 30  15  17  1   
 31  15  31  1   
 32  16  32  1   
 33  16  33  1   
 34  16  34  1   
 35  17  35  1   
 36  17  36  1   
 37  17  37  1   
@<TRIPOS>SUBSTRUCTURE
  1 ****   8 GROUP 4 **** **** 0

# MOE 2024.06 (io_trps.svl 2023.06)
