@<TRIPOS>MOLECULE
NONAME
46 48 1 0 0 
SMALL
USER_CHARGES


@<TRIPOS>ATOM
  1 S        0.1650    -0.5580    -0.7160 S.3   1 <1>  -0.0800 
  2 C       -1.2720    -1.5830    -0.5160 C.2   1 <1>  -0.0450 
  3 C        0.0020     0.1030     0.8950 C.2   1 <1>  -0.1100 
  4 C       -1.7890    -1.3880     0.7340 C.2   1 <1>   0.0630 
  5 C       -1.6990    -2.4150    -1.5930 C.2   1 <1>   0.8050 
  6 C       -1.0630    -0.4330     1.5160 C.2   1 <1>  -0.1500 
  7 N       -2.9130    -2.0630     1.2130 N.am  1 <1>  -0.4930 
  8 O       -2.7120    -3.0930    -1.5430 O.2   1 <1>  -0.5700 
  9 O       -0.9600    -2.4560    -2.7110 O.3   1 <1>  -0.4300 
 10 C       -3.7680    -1.8270     2.2540 C.2   1 <1>   0.5690 
 11 C       -1.3190    -3.2630    -3.8150 C.3   1 <1>   0.0400 
 12 O       -3.6690    -0.8940     3.0140 O.2   1 <1>  -0.5700 
 13 C       -4.9190    -2.8190     2.4410 C.3   1 <1>   0.1710 
 14 N       -5.1120    -3.7600     1.2970 N.3   1 <1>  -0.8100 
 15 C       -5.9160    -4.9330     1.7100 C.3   1 <1>   0.1100 
 16 C       -5.7760    -3.0990     0.1420 C.3   1 <1>   0.1100 
 17 C       -6.1270    -5.9440     0.5630 C.3   1 <1>   0.2090 
 18 C       -5.9440    -4.0520    -1.0570 C.3   1 <1>   0.2090 
 19 N       -6.6750    -5.2940    -0.6650 N.pl3 1 <1>  -0.8380 
 20 C       -8.0110    -5.4310    -1.0350 C.ar  1 <1>   0.1000 
 21 C       -8.3270    -5.5820    -2.3830 C.ar  1 <1>  -0.1500 
 22 C       -9.0430    -5.4160    -0.0970 C.ar  1 <1>  -0.1500 
 23 C       -9.6410    -5.7150    -2.7970 C.ar  1 <1>  -0.1500 
 24 C      -10.3630    -5.5500    -0.4920 C.ar  1 <1>  -0.1500 
 25 C      -10.6370    -5.6970    -1.8390 C.ar  1 <1>   0.1900 
 26 F      -11.8830    -5.8220    -2.2200 F     1 <1>  -0.1900 
 27 H        0.7280     0.8300     1.2140 H     1 <1>   0.1500 
 28 H       -1.3710    -0.1870     2.5170 H     1 <1>   0.1500 
 29 H       -3.2340    -2.8660     0.6510 H     1 <1>   0.3700 
 30 H       -0.5780    -3.1350    -4.5840 H     1 <1>   0.0800 
 31 H       -2.2840    -2.9520    -4.1760 H     1 <1>   0.0800 
 32 H       -1.3520    -4.2920    -3.5010 H     1 <1>   0.0800 
 33 H       -5.8250    -2.2690     2.6220 H     1 <1>   0.0800 
 34 H       -4.6960    -3.3830     3.3290 H     1 <1>   0.0800 
 35 H       -6.8780    -4.6060     2.0650 H     1 <1>   0.0800 
 36 H       -5.4180    -5.4390     2.5190 H     1 <1>   0.0800 
 37 H       -5.1970    -2.2510    -0.1800 H     1 <1>   0.0800 
 38 H       -6.7490    -2.7430     0.4330 H     1 <1>   0.0800 
 39 H       -6.7900    -6.7280     0.8850 H     1 <1>   0.0800 
 40 H       -5.1820    -6.3960     0.3190 H     1 <1>   0.0800 
 41 H       -4.9750    -4.3210    -1.4390 H     1 <1>   0.0800 
 42 H       -6.4800    -3.5450    -1.8400 H     1 <1>   0.0800 
 43 H       -7.5280    -5.6000    -3.1010 H     1 <1>   0.1500 
 44 H       -8.8120    -5.2940     0.9430 H     1 <1>   0.1500 
 45 H       -9.8910    -5.8330    -3.8350 H     1 <1>   0.1500 
 46 H      -11.1660    -5.5410     0.2220 H     1 <1>   0.1500 
@<TRIPOS>BOND
  1   1   2  1   
  2   1   3  1   
  3   2   4  2   
  4   2   5  1   
  5   3   6  2   
  6   3  27  1   
  7   4   6  1   
  8   4   7  1   
  9   5   8  2   
 10   5   9  1   
 11   6  28  1   
 12   7  10  am  
 13   7  29  1   
 14   9  11  1   
 15  10  12  2   
 16  10  13  1   
 17  11  30  1   
 18  11  31  1   
 19  11  32  1   
 20  13  14  1   
 21  13  33  1   
 22  13  34  1   
 23  14  15  1   
 24  14  16  1   
 25  15  17  1   
 26  15  35  1   
 27  15  36  1   
 28  16  18  1   
 29  16  37  1   
 30  16  38  1   
 31  17  19  1   
 32  17  39  1   
 33  17  40  1   
 34  18  19  1   
 35  18  41  1   
 36  18  42  1   
 37  19  20  1   
 38  20  21  ar  
 39  20  22  ar  
 40  21  23  ar  
 41  21  43  1   
 42  22  24  ar  
 43  22  44  1   
 44  23  25  ar  
 45  23  45  1   
 46  24  25  ar  
 47  24  46  1   
 48  25  26  1   
@<TRIPOS>SUBSTRUCTURE
  1 ****  16 GROUP 4 **** **** 0

# MOE 2024.06 (io_trps.svl 2023.06)
