@<TRIPOS>MOLECULE
NONAME
42 44 1 0 0 
SMALL
USER_CHARGES


@<TRIPOS>ATOM
  1 O       -1.0510     0.0510     0.4090 O.2   1 <1>  -0.5760 
  2 C       -2.2250     0.1140     0.1280 C.2   1 <1>   0.6850 
  3 N       -2.9840     1.2500     0.3650 N.am  1 <1>  -0.4430 
  4 N       -2.8170    -0.9770    -0.4400 N.am  1 <1>  -0.4960 
  5 C       -4.3250     1.2120     0.0140 C.2   1 <1>   0.4190 
  6 C       -2.3820     2.4640     0.9890 C.3   1 <1>   0.0500 
  7 C       -4.1340    -1.0280    -0.7960 C.2   1 <1>   0.6980 
  8 N       -5.2530     2.1910     0.1760 N.pl3 1 <1>  -0.7050 
  9 C       -4.9270     0.1440    -0.5570 C.2   1 <1>   0.2690 
 10 O       -4.5700    -2.0490    -1.2880 O.2   1 <1>  -0.5760 
 11 C       -6.4230     1.7540    -0.2950 C.cat 1 <1>   1.0680 
 12 N       -6.2730     0.5040    -0.7550 N.pl3 1 <1>  -0.7680 
 13 N       -7.5360     2.5170    -0.2830 N.pl3 1 <1>  -0.5970 
 14 C       -7.3330    -0.5030    -0.9850 C.3   1 <1>   0.4860 
 15 C       -8.5970     2.4680    -1.3380 C.3   1 <1>   0.1590 
 16 C       -7.8150     3.5500     0.7660 C.3   1 <1>   0.1590 
 17 C       -7.8990    -0.8630     0.3700 C.2   1 <1>  -0.2960 
 18 C       -8.9460     3.8790    -1.8420 C.3   1 <1>   0.1110 
 19 C       -8.1920     4.8990     0.1340 C.3   1 <1>   0.1110 
 20 C       -9.1260    -0.5640     0.8080 C.2   1 <1>  -0.2960 
 21 O       -9.2390     4.7200    -0.7690 O.3   1 <1>  -0.5660 
 22 C       -9.6610    -0.9440     2.1760 C.3   1 <1>  -0.1110 
 23 H       -2.2340    -1.7960    -0.5990 H     1 <1>   0.3630 
 24 H       -2.7980     2.6160     1.9690 H     1 <1>   0.0700 
 25 H       -2.5760     3.3270     0.3770 H     1 <1>   0.0700 
 26 H       -1.3140     2.3560     1.0870 H     1 <1>   0.0700 
 27 H       -5.0950     3.1190     0.5520 H     1 <1>   0.4430 
 28 H       -8.1060    -0.1130    -1.6200 H     1 <1>   0.0700 
 29 H       -6.9340    -1.3810    -1.4640 H     1 <1>   0.0700 
 30 H       -8.2650     1.8900    -2.1810 H     1 <1>   0.0700 
 31 H       -9.4850     2.0120    -0.9350 H     1 <1>   0.0700 
 32 H       -8.6420     3.2160     1.3710 H     1 <1>   0.0700 
 33 H       -6.9710     3.6830     1.4200 H     1 <1>   0.0700 
 34 H       -7.1930    -1.4100     0.9720 H     1 <1>   0.1410 
 35 H       -9.8150     3.8430    -2.4750 H     1 <1>   0.0700 
 36 H       -8.1310     4.3050    -2.4020 H     1 <1>   0.0700 
 37 H       -7.3580     5.3380    -0.3860 H     1 <1>   0.0700 
 38 H       -8.5290     5.5850     0.8910 H     1 <1>   0.0700 
 39 H       -9.8560    -0.0280     0.2240 H     1 <1>   0.1410 
 40 H      -10.5290    -1.5710     2.0700 H     1 <1>   0.0700 
 41 H       -9.9410    -0.0610     2.7230 H     1 <1>   0.0700 
 42 H       -8.9210    -1.4800     2.7440 H     1 <1>   0.0700 
@<TRIPOS>BOND
  1   1   2  2   
  2   2   3  am  
  3   2   4  am  
  4   3   5  1   
  5   3   6  1   
  6   4   7  am  
  7   4  23  1   
  8   5   8  1   
  9   5   9  2   
 10   6  24  1   
 11   6  25  1   
 12   6  26  1   
 13   7   9  1   
 14   7  10  2   
 15   8  11  ar  
 16   8  27  1   
 17   9  12  1   
 18  11  12  ar  
 19  11  13  ar  
 20  12  14  1   
 21  13  15  1   
 22  13  16  1   
 23  14  17  1   
 24  14  28  1   
 25  14  29  1   
 26  15  18  1   
 27  15  30  1   
 28  15  31  1   
 29  16  19  1   
 30  16  32  1   
 31  16  33  1   
 32  17  20  2   
 33  17  34  1   
 34  18  21  1   
 35  18  35  1   
 36  18  36  1   
 37  19  21  1   
 38  19  37  1   
 39  19  38  1   
 40  20  22  1   
 41  20  39  1   
 42  22  40  1   
 43  22  41  1   
 44  22  42  1   
@<TRIPOS>SUBSTRUCTURE
  1 ****  11 GROUP 4 **** **** 0

# MOE 2024.06 (io_trps.svl 2023.06)
