@<TRIPOS>MOLECULE
NONAME
40 42 1 0 0 
SMALL
USER_CHARGES


@<TRIPOS>ATOM
  1 S       -0.3810    -0.9480     0.4770 S.3   1 <1>  -0.0800 
  2 C        1.0870    -1.5760     1.2370 C.2   1 <1>  -0.0450 
  3 C       -1.4080    -2.0310     1.3890 C.2   1 <1>  -0.1100 
  4 C        2.3630    -1.0240     0.8520 C.2   1 <1>   0.7150 
  5 C        0.7320    -2.5470     2.1200 C.2   1 <1>  -0.1500 
  6 C       -0.6680    -2.8020     2.2050 C.2   1 <1>  -0.1500 
  7 O        2.4610    -0.1380     0.0250 O.2   1 <1>  -0.5700 
  8 N        3.5050    -1.5150     1.4180 N.am  1 <1>  -0.7300 
  9 C        4.8900    -1.0690     1.0920 C.3   1 <1>   0.1400 
 10 C        5.6740    -2.0580     0.1930 C.3   1 <1>   0.1430 
 11 C        7.0540    -1.3980    -0.0720 C.ar  1 <1>  -0.1430 
 12 C        5.7790    -3.4420     0.8860 C.3   1 <1>  -0.1600 
 13 C        4.9270    -2.3160    -1.1390 C.3   1 <1>  -0.1600 
 14 C        8.2440    -1.8490     0.4980 C.ar  1 <1>  -0.1500 
 15 C        7.1280    -0.2730    -0.8920 C.ar  1 <1>  -0.1500 
 16 C        6.4080    -4.4960    -0.0390 C.3   1 <1>   0.1200 
 17 C        5.6300    -3.3990    -1.9610 C.3   1 <1>   0.1200 
 18 C        9.4510    -1.2230     0.2380 C.ar  1 <1>  -0.1500 
 19 C        8.3320     0.3550    -1.1550 C.ar  1 <1>  -0.1500 
 20 O        5.6650    -4.5760    -1.2140 O.3   1 <1>  -0.5600 
 21 C        9.4990    -0.1210    -0.5920 C.ar  1 <1>  -0.1500 
 22 H       -2.4680    -1.9740     1.2170 H     1 <1>   0.1500 
 23 H        1.4180    -3.1070     2.7290 H     1 <1>   0.1500 
 24 H       -1.0590    -3.5510     2.8730 H     1 <1>   0.1500 
 25 H        3.4260    -2.3000     2.0610 H     1 <1>   0.3700 
 26 H        5.4320    -0.9240     2.0100 H     1 <1>   0.0800 
 27 H        4.8430    -0.1120     0.6010 H     1 <1>   0.0800 
 28 H        4.7980    -3.8000     1.1380 H     1 <1>   0.0800 
 29 H        6.3280    -3.3730     1.8060 H     1 <1>   0.0800 
 30 H        4.8310    -1.4220    -1.7240 H     1 <1>   0.0800 
 31 H        3.9270    -2.6600    -0.9460 H     1 <1>   0.0800 
 32 H        8.2710    -2.6930     1.1600 H     1 <1>   0.1500 
 33 H        6.2430     0.1430    -1.3380 H     1 <1>   0.1500 
 34 H        6.3860    -5.4660     0.4250 H     1 <1>   0.0800 
 35 H        7.4250    -4.2590    -0.3000 H     1 <1>   0.0800 
 36 H        6.6380    -3.1150    -2.2150 H     1 <1>   0.0800 
 37 H        5.0830    -3.6010    -2.8650 H     1 <1>   0.0800 
 38 H       10.3570    -1.5950     0.6850 H     1 <1>   0.1500 
 39 H        8.3580     1.2190    -1.7970 H     1 <1>   0.1500 
 40 H       10.4370     0.3650    -0.7960 H     1 <1>   0.1500 
@<TRIPOS>BOND
  1   1   2  1   
  2   1   3  1   
  3   2   4  1   
  4   2   5  2   
  5   3   6  2   
  6   3  22  1   
  7   4   7  2   
  8   4   8  am  
  9   5   6  1   
 10   5  23  1   
 11   6  24  1   
 12   8   9  1   
 13   8  25  1   
 14   9  10  1   
 15   9  26  1   
 16   9  27  1   
 17  10  11  1   
 18  10  12  1   
 19  10  13  1   
 20  11  14  ar  
 21  11  15  ar  
 22  12  16  1   
 23  12  28  1   
 24  12  29  1   
 25  13  17  1   
 26  13  30  1   
 27  13  31  1   
 28  14  18  ar  
 29  14  32  1   
 30  15  19  ar  
 31  15  33  1   
 32  16  20  1   
 33  16  34  1   
 34  16  35  1   
 35  17  20  1   
 36  17  36  1   
 37  17  37  1   
 38  18  21  ar  
 39  18  38  1   
 40  19  21  ar  
 41  19  39  1   
 42  21  40  1   
@<TRIPOS>SUBSTRUCTURE
  1 ****  10 GROUP 4 **** **** 0

# MOE 2024.06 (io_trps.svl 2023.06)
