@<TRIPOS>MOLECULE
NONAME
38 38 1 0 0 
SMALL
USER_CHARGES


@<TRIPOS>ATOM
  1 CL       1.0920     1.6840    -1.0590 Cl    1 <1>  -0.1770 
  2 C        2.7790     1.8510    -0.6440 C.ar  1 <1>   0.1770 
  3 C        3.2780     3.0990    -0.3210 C.ar  1 <1>  -0.1500 
  4 C        3.5910     0.7320    -0.6450 C.ar  1 <1>  -0.1500 
  5 C        4.6170     3.2250     0.0070 C.ar  1 <1>  -0.1500 
  6 C        4.9300     0.8600    -0.3170 C.ar  1 <1>  -0.1500 
  7 C        5.4490     2.1140     0.0110 C.ar  1 <1>   0.0830 
  8 O        6.7460     2.3280     0.3430 O.3   1 <1>  -0.3630 
  9 C        7.6930     1.2670     0.3360 C.3   1 <1>   0.1810 
 10 C        9.0800     1.7660     0.7300 C.2   1 <1>   0.5690 
 11 O       10.0270     1.0370     0.5450 O.2   1 <1>  -0.5700 
 12 N        9.2030     3.0190     1.2640 N.am  1 <1>  -0.7300 
 13 C       10.3280     3.7130     1.9520 C.3   1 <1>   0.1400 
 14 C       11.7200     3.1830     1.5890 C.3   1 <1>  -0.1600 
 15 C       11.9750     3.2600     0.0820 C.3   1 <1>   0.3430 
 16 N       13.2020     2.4920    -0.2820 N.4   1 <1>  -0.9590 
 17 C       13.6990     2.9050    -1.6290 C.3   1 <1>   0.2630 
 18 C       12.9170     1.0200    -0.2680 C.3   1 <1>   0.2630 
 19 H        2.6260     3.9540    -0.3270 H     1 <1>   0.1500 
 20 H        3.1740    -0.2260    -0.9010 H     1 <1>   0.1500 
 21 H        5.0220     4.1890     0.2610 H     1 <1>   0.1500 
 22 H        5.5430    -0.0220    -0.3230 H     1 <1>   0.1500 
 23 H        7.7300     0.8510    -0.6540 H     1 <1>   0.0800 
 24 H        7.3730     0.5200     1.0390 H     1 <1>   0.0800 
 25 H        8.3080     3.5200     1.3440 H     1 <1>   0.3700 
 26 H       10.1840     3.6210     3.0160 H     1 <1>   0.0800 
 27 H       10.2780     4.7620     1.7090 H     1 <1>   0.0800 
 28 H       11.7970     2.1760     1.9560 H     1 <1>   0.0800 
 29 H       12.4540     3.7770     2.1030 H     1 <1>   0.0800 
 30 H       12.0870     4.2940    -0.2010 H     1 <1>   0.0800 
 31 H       11.1300     2.8590    -0.4530 H     1 <1>   0.0800 
 32 H       13.9280     2.6940     0.4200 H     1 <1>   0.4500 
 33 H       12.9510     2.7060    -2.3800 H     1 <1>   0.0800 
 34 H       14.5940     2.3590    -1.8800 H     1 <1>   0.0800 
 35 H       13.9260     3.9590    -1.6380 H     1 <1>   0.0800 
 36 H       12.1290     0.7850    -0.9660 H     1 <1>   0.0800 
 37 H       12.5940     0.7060     0.7120 H     1 <1>   0.0800 
 38 H       13.7980     0.4610    -0.5350 H     1 <1>   0.0800 
@<TRIPOS>BOND
  1   1   2  1   
  2   2   3  ar  
  3   2   4  ar  
  4   3   5  ar  
  5   3  19  1   
  6   4   6  ar  
  7   4  20  1   
  8   5   7  ar  
  9   5  21  1   
 10   6   7  ar  
 11   6  22  1   
 12   7   8  1   
 13   8   9  1   
 14   9  10  1   
 15   9  23  1   
 16   9  24  1   
 17  10  11  2   
 18  10  12  am  
 19  12  13  1   
 20  12  25  1   
 21  13  14  1   
 22  13  26  1   
 23  13  27  1   
 24  14  15  1   
 25  14  28  1   
 26  14  29  1   
 27  15  16  1   
 28  15  30  1   
 29  15  31  1   
 30  16  17  1   
 31  16  18  1   
 32  16  32  1   
 33  17  33  1   
 34  17  34  1   
 35  17  35  1   
 36  18  36  1   
 37  18  37  1   
 38  18  38  1   
@<TRIPOS>SUBSTRUCTURE
  1 ****   9 GROUP 4 **** **** 0

# MOE 2024.06 (io_trps.svl 2023.06)
