@<TRIPOS>MOLECULE
NONAME
46 48 1 0 0 
SMALL
USER_CHARGES


@<TRIPOS>ATOM
  1 CL      -0.0950    -0.5200     2.3600 Cl    1 <1>  -0.1770 
  2 C       -0.2520    -2.0420     1.5190 C.ar  1 <1>   0.1770 
  3 C       -1.4930    -2.4460     1.0730 C.ar  1 <1>  -0.1500 
  4 C        0.8730    -2.8140     1.3100 C.ar  1 <1>  -0.1500 
  5 C       -1.6320    -3.6560     0.4000 C.ar  1 <1>   0.1170 
  6 C        0.7460    -4.0170     0.6390 C.ar  1 <1>  -0.1500 
  7 N       -2.8770    -4.0920    -0.0840 N.am  1 <1>  -0.5470 
  8 C       -0.4950    -4.4420     0.1840 C.ar  1 <1>  -0.1430 
  9 C       -4.1520    -3.8130     0.3300 C.2   1 <1>   0.5690 
 10 C       -0.5840    -5.7790    -0.5430 C.3   1 <1>  -0.0960 
 11 O       -4.4020    -3.1000     1.2700 O.2   1 <1>  -0.5700 
 12 C       -5.2960    -4.4660    -0.4500 C.3   1 <1>  -0.0190 
 13 C       -6.6240    -3.6890    -0.3300 C.3   1 <1>  -0.1600 
 14 C       -5.5040    -5.9260    -0.0040 C.3   1 <1>  -0.1600 
 15 C       -7.7610    -4.3740    -1.0910 C.3   1 <1>   0.1400 
 16 C       -6.6450    -6.5940    -0.7760 C.3   1 <1>   0.1400 
 17 N       -7.8870    -5.7850    -0.6320 N.am  1 <1>  -0.6600 
 18 C       -8.9940    -6.2780     0.0320 C.2   1 <1>   0.5440 
 19 O       -8.9100    -7.3400     0.6200 O.2   1 <1>  -0.5700 
 20 C      -10.2580    -5.5670     0.0580 C.ar  1 <1>   0.0860 
 21 C      -10.8340    -5.1870     1.2730 C.ar  1 <1>  -0.1500 
 22 C      -10.9370    -5.2480    -1.1220 C.ar  1 <1>  -0.1500 
 23 C      -12.0350    -4.5010     1.3170 C.ar  1 <1>  -0.1500 
 24 C      -12.1390    -4.5610    -1.0970 C.ar  1 <1>  -0.1500 
 25 C      -12.6670    -4.1970     0.1270 C.ar  1 <1>   0.1900 
 26 F      -13.7970    -3.5480     0.1580 F     1 <1>  -0.1900 
 27 H       -2.3400    -1.8120     1.2520 H     1 <1>   0.1500 
 28 H        1.8280    -2.4760     1.6680 H     1 <1>   0.1500 
 29 H        1.6240    -4.6190     0.4780 H     1 <1>   0.1500 
 30 H       -2.8080    -4.7820    -0.8260 H     1 <1>   0.3700 
 31 H       -1.2950    -6.4200    -0.0530 H     1 <1>   0.0800 
 32 H        0.3680    -6.2810    -0.5450 H     1 <1>   0.0800 
 33 H       -0.8850    -5.6270    -1.5640 H     1 <1>   0.0800 
 34 H       -5.0180    -4.4680    -1.4890 H     1 <1>   0.0800 
 35 H       -6.4930    -2.6900    -0.7060 H     1 <1>   0.0800 
 36 H       -6.9060    -3.6090     0.7070 H     1 <1>   0.0800 
 37 H       -5.7380    -5.9540     1.0470 H     1 <1>   0.0800 
 38 H       -4.6030    -6.4920    -0.1510 H     1 <1>   0.0800 
 39 H       -7.5550    -4.3670    -2.1480 H     1 <1>   0.0800 
 40 H       -8.6710    -3.8280    -0.9240 H     1 <1>   0.0800 
 41 H       -6.7930    -7.5950    -0.4060 H     1 <1>   0.0800 
 42 H       -6.3940    -6.6650    -1.8210 H     1 <1>   0.0800 
 43 H      -10.3260    -5.4430     2.1880 H     1 <1>   0.1500 
 44 H      -10.5110    -5.5490    -2.0630 H     1 <1>   0.1500 
 45 H      -12.4780    -4.2070     2.2530 H     1 <1>   0.1500 
 46 H      -12.6620    -4.3140    -2.0030 H     1 <1>   0.1500 
@<TRIPOS>BOND
  1   1   2  1   
  2   2   3  ar  
  3   2   4  ar  
  4   3   5  ar  
  5   3  27  1   
  6   4   6  ar  
  7   4  28  1   
  8   5   7  1   
  9   5   8  ar  
 10   6   8  ar  
 11   6  29  1   
 12   7   9  am  
 13   7  30  1   
 14   8  10  1   
 15   9  11  2   
 16   9  12  1   
 17  10  31  1   
 18  10  32  1   
 19  10  33  1   
 20  12  13  1   
 21  12  14  1   
 22  12  34  1   
 23  13  15  1   
 24  13  35  1   
 25  13  36  1   
 26  14  16  1   
 27  14  37  1   
 28  14  38  1   
 29  15  17  1   
 30  15  39  1   
 31  15  40  1   
 32  16  17  1   
 33  16  41  1   
 34  16  42  1   
 35  17  18  am  
 36  18  19  2   
 37  18  20  1   
 38  20  21  ar  
 39  20  22  ar  
 40  21  23  ar  
 41  21  43  1   
 42  22  24  ar  
 43  22  44  1   
 44  23  25  ar  
 45  23  45  1   
 46  24  25  ar  
 47  24  46  1   
 48  25  26  1   
@<TRIPOS>SUBSTRUCTURE
  1 ****  12 GROUP 4 **** **** 0

# MOE 2024.06 (io_trps.svl 2023.06)
