@<TRIPOS>MOLECULE
NONAME
35 35 1 0 0 
SMALL
USER_CHARGES


@<TRIPOS>ATOM
  1 BR      -0.8180    -0.0210     0.3670 Br    1 <1>  -0.1110 
  2 C       -0.5350    -1.8820    -0.0560 C.ar  1 <1>   0.1110 
  3 C       -1.5430    -2.5930    -0.6810 C.ar  1 <1>  -0.1440 
  4 C        0.6730    -2.4500     0.2970 C.ar  1 <1>  -0.1500 
  5 C       -1.3110    -3.9300    -0.9560 C.ar  1 <1>  -0.1500 
  6 C       -2.8560    -1.9430    -1.0510 C.3   1 <1>   0.4870 
  7 C        0.9000    -3.7960     0.0230 C.ar  1 <1>   0.0830 
  8 C       -0.1120    -4.5410    -0.6160 C.ar  1 <1>   0.0830 
  9 N       -3.7020    -1.9480     0.1610 N.4   1 <1>  -0.9060 
 10 O        2.0750    -4.3920     0.3750 O.3   1 <1>  -0.3620 
 11 O       -0.0620    -5.8610    -0.9600 O.3   1 <1>  -0.3620 
 12 C       -5.0400    -1.3610    -0.0500 C.3   1 <1>   0.3430 
 13 C        3.1520    -3.6850     0.9480 C.3   1 <1>   0.1200 
 14 C        1.1320    -6.6130    -0.9790 C.3   1 <1>   0.0400 
 15 C       -5.7920    -1.4150     1.2700 C.3   1 <1>  -0.2400 
 16 C        4.3020    -4.6670     1.1500 C.3   1 <1>  -0.2400 
 17 H        1.4050    -1.8320     0.7810 H     1 <1>   0.1500 
 18 H       -2.0550    -4.5340    -1.4460 H     1 <1>   0.1500 
 19 H       -3.3290    -2.5020    -1.8420 H     1 <1>   0.0800 
 20 H       -2.6870    -0.9340    -1.3920 H     1 <1>   0.0800 
 21 H       -3.2040    -1.4300     0.8970 H     1 <1>   0.4500 
 22 H       -3.7820    -2.9150     0.4980 H     1 <1>   0.4500 
 23 H       -5.5790    -1.9190    -0.8010 H     1 <1>   0.0800 
 24 H       -4.9510    -0.3370    -0.3780 H     1 <1>   0.0800 
 25 H        2.8320    -3.2780     1.8920 H     1 <1>   0.0800 
 26 H        3.4420    -2.8960     0.2760 H     1 <1>   0.0800 
 27 H        0.9240    -7.5610    -1.4410 H     1 <1>   0.0800 
 28 H        1.4630    -6.7670     0.0320 H     1 <1>   0.0800 
 29 H        1.8730    -6.0820    -1.5500 H     1 <1>   0.0800 
 30 H       -5.9140    -2.4310     1.6040 H     1 <1>   0.0800 
 31 H       -6.7720    -0.9910     1.1380 H     1 <1>   0.0800 
 32 H       -5.2850    -0.8430     2.0270 H     1 <1>   0.0800 
 33 H        3.9990    -5.4610     1.8090 H     1 <1>   0.0800 
 34 H        5.1410    -4.1590     1.5890 H     1 <1>   0.0800 
 35 H        4.6060    -5.0800     0.2050 H     1 <1>   0.0800 
@<TRIPOS>BOND
  1   1   2  1   
  2   2   3  ar  
  3   2   4  ar  
  4   3   5  ar  
  5   3   6  1   
  6   4   7  ar  
  7   4  17  1   
  8   5   8  ar  
  9   5  18  1   
 10   6   9  1   
 11   6  19  1   
 12   6  20  1   
 13   7   8  ar  
 14   7  10  1   
 15   8  11  1   
 16   9  12  1   
 17   9  21  1   
 18   9  22  1   
 19  10  13  1   
 20  11  14  1   
 21  12  15  1   
 22  12  23  1   
 23  12  24  1   
 24  13  16  1   
 25  13  25  1   
 26  13  26  1   
 27  14  27  1   
 28  14  28  1   
 29  14  29  1   
 30  15  30  1   
 31  15  31  1   
 32  15  32  1   
 33  16  33  1   
 34  16  34  1   
 35  16  35  1   
@<TRIPOS>SUBSTRUCTURE
  1 ****   3 GROUP 4 **** **** 0

# MOE 2024.06 (io_trps.svl 2023.06)
