@<TRIPOS>MOLECULE
NONAME
50 52 1 0 0 
SMALL
USER_CHARGES


@<TRIPOS>ATOM
  1 S       -0.1830     0.1090     1.5030 S.o2  1 <1>   1.4470 
  2 O        0.4220    -0.9830     2.2370 O.2   1 <1>  -0.6500 
  3 O       -0.9470     1.1050     2.2240 O.2   1 <1>  -0.6500 
  4 N        1.0900     0.9200     0.7270 N.am  1 <1>  -0.8490 
  5 C       -1.1750    -0.5300     0.1250 C.ar  1 <1>  -0.0090 
  6 C        2.0100    -0.0120     0.0670 C.3   1 <1>   0.1960 
  7 C        1.7920     1.8120     1.6530 C.3   1 <1>   0.1960 
  8 C       -1.5580     0.3000    -0.9240 C.ar  1 <1>  -0.1500 
  9 C       -1.5790    -1.8600     0.0820 C.ar  1 <1>  -0.1500 
 10 C        3.0570     0.7590    -0.7400 C.3   1 <1>  -0.1600 
 11 C        2.8440     2.6370     0.9050 C.3   1 <1>  -0.1600 
 12 C       -2.3110    -0.1800    -1.9820 C.ar  1 <1>  -0.1500 
 13 C       -2.3330    -2.3480    -0.9720 C.ar  1 <1>  -0.1500 
 14 C        3.8380     1.7360     0.1550 C.3   1 <1>  -0.0190 
 15 C       -2.6990    -1.5070    -2.0060 C.ar  1 <1>  -0.1500 
 16 C        4.8470     2.5600    -0.6440 C.2   1 <1>   0.5690 
 17 O        4.4550     3.2130    -1.5800 O.2   1 <1>  -0.5700 
 18 N        6.1590     2.5060    -0.2550 N.am  1 <1>  -0.5470 
 19 C        7.3020     3.1540    -0.7580 C.ar  1 <1>   0.1170 
 20 C        8.5640     2.5650    -0.6080 C.ar  1 <1>  -0.1430 
 21 C        7.2040     4.3940    -1.3840 C.ar  1 <1>  -0.1500 
 22 C        9.6840     3.2380    -1.0850 C.ar  1 <1>  -0.1500 
 23 C        8.6820     1.1940     0.0740 C.3   1 <1>  -0.0170 
 24 C        8.3240     5.0470    -1.8570 C.ar  1 <1>  -0.1500 
 25 C        9.5680     4.4680    -1.7060 C.ar  1 <1>  -0.1500 
 26 C       10.0740     0.5490     0.0540 C.3   1 <1>  -0.2400 
 27 H        1.4600    -0.6530    -0.6020 H     1 <1>   0.0800 
 28 H        2.4980    -0.6320     0.8020 H     1 <1>   0.0800 
 29 H        2.2560     1.2340     2.4360 H     1 <1>   0.0800 
 30 H        1.0880     2.4900     2.1080 H     1 <1>   0.0800 
 31 H       -1.2600     1.3350    -0.9090 H     1 <1>   0.1500 
 32 H       -1.3000    -2.5230     0.8840 H     1 <1>   0.1500 
 33 H        2.5580     1.3000    -1.5260 H     1 <1>   0.0800 
 34 H        3.7360     0.0650    -1.2010 H     1 <1>   0.0800 
 35 H        3.3710     3.2600     1.6050 H     1 <1>   0.0800 
 36 H        2.3410     3.2840     0.2060 H     1 <1>   0.0800 
 37 H       -2.5950     0.4800    -2.7830 H     1 <1>   0.1500 
 38 H       -2.6350    -3.3810    -0.9860 H     1 <1>   0.1500 
 39 H        4.3740     1.1560     0.8850 H     1 <1>   0.0800 
 40 H       -3.2850    -1.8830    -2.8270 H     1 <1>   0.1500 
 41 H        6.3610     1.8590     0.5010 H     1 <1>   0.3700 
 42 H        6.2440     4.8620    -1.5030 H     1 <1>   0.1500 
 43 H       10.6700     2.8240    -0.9890 H     1 <1>   0.1500 
 44 H        8.0030     0.5150    -0.4120 H     1 <1>   0.0800 
 45 H        8.3750     1.2950     1.1000 H     1 <1>   0.0800 
 46 H        8.2260     6.0040    -2.3410 H     1 <1>   0.1500 
 47 H       10.4440     4.9730    -2.0720 H     1 <1>   0.1500 
 48 H       10.4170     0.4290    -0.9590 H     1 <1>   0.0800 
 49 H       10.0330    -0.4220     0.5140 H     1 <1>   0.0800 
 50 H       10.7780     1.1510     0.6000 H     1 <1>   0.0800 
@<TRIPOS>BOND
  1   1   2  2   
  2   1   3  2   
  3   1   4  am  
  4   1   5  1   
  5   4   6  1   
  6   4   7  1   
  7   5   8  ar  
  8   5   9  ar  
  9   6  10  1   
 10   6  27  1   
 11   6  28  1   
 12   7  11  1   
 13   7  29  1   
 14   7  30  1   
 15   8  12  ar  
 16   8  31  1   
 17   9  13  ar  
 18   9  32  1   
 19  10  14  1   
 20  10  33  1   
 21  10  34  1   
 22  11  14  1   
 23  11  35  1   
 24  11  36  1   
 25  12  15  ar  
 26  12  37  1   
 27  13  15  ar  
 28  13  38  1   
 29  14  16  1   
 30  14  39  1   
 31  15  40  1   
 32  16  17  2   
 33  16  18  am  
 34  18  19  1   
 35  18  41  1   
 36  19  20  ar  
 37  19  21  ar  
 38  20  22  ar  
 39  20  23  1   
 40  21  24  ar  
 41  21  42  1   
 42  22  25  ar  
 43  22  43  1   
 44  23  26  1   
 45  23  44  1   
 46  23  45  1   
 47  24  25  ar  
 48  24  46  1   
 49  25  47  1   
 50  26  48  1   
 51  26  49  1   
 52  26  50  1   
@<TRIPOS>SUBSTRUCTURE
  1 ****  14 GROUP 4 **** **** 0

# MOE 2024.06 (io_trps.svl 2023.06)
