@<TRIPOS>MOLECULE
NONAME
38 38 1 0 0 
SMALL
USER_CHARGES


@<TRIPOS>ATOM
  1 S       -0.1210    -0.0240     0.2200 S.3   1 <1>  -0.4600 
  2 C       -1.7680     0.6720    -0.0920 C.3   1 <1>   0.0700 
  3 C        0.9180     0.8250    -0.9980 C.3   1 <1>  -0.0100 
  4 C       -2.7810    -0.1050     0.7480 C.3   1 <1>   0.1400 
  5 N       -4.1130     0.5490     0.6870 N.am  1 <1>  -0.7300 
  6 C       -4.9610     0.5000    -0.3850 C.2   1 <1>   0.5440 
  7 O       -4.5860    -0.0690    -1.3910 O.2   1 <1>  -0.5700 
  8 C       -6.2800     1.1060    -0.3170 C.ar  1 <1>   0.0860 
  9 C       -7.3360     0.6150    -1.0800 C.ar  1 <1>  -0.1500 
 10 C       -6.5560     2.1970     0.5060 C.ar  1 <1>  -0.1500 
 11 C       -8.5990     1.1720    -1.0150 C.ar  1 <1>  -0.1500 
 12 C       -7.8200     2.7560     0.5740 C.ar  1 <1>  -0.1500 
 13 C       -8.8720     2.2530    -0.1850 C.ar  1 <1>  -0.1430 
 14 C      -10.3010     2.8400    -0.1440 C.3   1 <1>   0.1430 
 15 C      -10.4410     4.0270     0.8240 C.3   1 <1>  -0.2400 
 16 C      -10.6920     3.3350    -1.5450 C.3   1 <1>  -0.2400 
 17 C      -11.2900     1.7550     0.3080 C.3   1 <1>  -0.2400 
 18 H       -1.9750     0.5660    -1.1420 H     1 <1>   0.0800 
 19 H       -1.7340     1.7080     0.1900 H     1 <1>   0.0800 
 20 H        1.9240     0.4630    -0.8780 H     1 <1>   0.0800 
 21 H        0.8650     1.8810    -0.8030 H     1 <1>   0.0800 
 22 H        0.5410     0.5910    -1.9770 H     1 <1>   0.0800 
 23 H       -2.4510    -0.1450     1.7710 H     1 <1>   0.0800 
 24 H       -2.8590    -1.1120     0.3710 H     1 <1>   0.0800 
 25 H       -4.4640     0.9150     1.5730 H     1 <1>   0.3700 
 26 H       -7.1560    -0.2200    -1.7360 H     1 <1>   0.1500 
 27 H       -5.7690     2.6250     1.1000 H     1 <1>   0.1500 
 28 H       -9.3750     0.7480    -1.6270 H     1 <1>   0.1500 
 29 H       -7.9580     3.5940     1.2310 H     1 <1>   0.1500 
 30 H      -10.2010     3.7260     1.8280 H     1 <1>   0.0800 
 31 H      -11.4490     4.4010     0.8210 H     1 <1>   0.0800 
 32 H       -9.7890     4.8310     0.5330 H     1 <1>   0.0800 
 33 H       -9.9860     4.0720    -1.8840 H     1 <1>   0.0800 
 34 H      -11.6710     3.7800    -1.5310 H     1 <1>   0.0800 
 35 H      -10.7040     2.5280    -2.2530 H     1 <1>   0.0800 
 36 H      -11.0040     1.3770     1.2730 H     1 <1>   0.0800 
 37 H      -11.3080     0.9330    -0.3840 H     1 <1>   0.0800 
 38 H      -12.2860     2.1530     0.3770 H     1 <1>   0.0800 
@<TRIPOS>BOND
  1   1   2  1   
  2   1   3  1   
  3   2   4  1   
  4   2  18  1   
  5   2  19  1   
  6   3  20  1   
  7   3  21  1   
  8   3  22  1   
  9   4   5  1   
 10   4  23  1   
 11   4  24  1   
 12   5   6  am  
 13   5  25  1   
 14   6   7  2   
 15   6   8  1   
 16   8   9  ar  
 17   8  10  ar  
 18   9  11  ar  
 19   9  26  1   
 20  10  12  ar  
 21  10  27  1   
 22  11  13  ar  
 23  11  28  1   
 24  12  13  ar  
 25  12  29  1   
 26  13  14  1   
 27  14  15  1   
 28  14  16  1   
 29  14  17  1   
 30  15  30  1   
 31  15  31  1   
 32  15  32  1   
 33  16  33  1   
 34  16  34  1   
 35  16  35  1   
 36  17  36  1   
 37  17  37  1   
 38  17  38  1   
@<TRIPOS>SUBSTRUCTURE
  1 ****   8 GROUP 4 **** **** 0

# MOE 2024.06 (io_trps.svl 2023.06)
