@<TRIPOS>MOLECULE
NONAME
44 46 1 0 0 
SMALL
USER_CHARGES


@<TRIPOS>ATOM
  1 O       -0.6280     0.0790    -1.6610 O.2   1 <1>  -0.5700 
  2 C       -0.4550    -0.8860    -0.9590 C.2   1 <1>   0.5690 
  3 N        0.7700    -1.2490    -0.5110 N.am  1 <1>  -0.7300 
  4 C       -1.6540    -1.7170    -0.5590 C.3   1 <1>  -0.0990 
  5 C        2.0270    -0.5440    -0.8160 C.3   1 <1>   0.2200 
  6 C       -2.6920    -0.8630     0.1820 C.3   1 <1>   0.0200 
  7 C        2.9930    -1.5220    -1.4720 C.3   1 <1>  -0.1600 
  8 C        2.7210    -0.1890     0.4920 C.3   1 <1>  -0.1600 
  9 C       -3.8710    -1.7010     0.6350 C.2   1 <1>   0.2980 
 10 C        3.6270    -2.3180    -0.3260 C.3   1 <1>  -0.1600 
 11 C        3.4600    -1.4580     0.9340 C.3   1 <1>  -0.1600 
 12 O       -3.6910    -2.5790     1.5870 O.3   1 <1>  -0.0190 
 13 N       -5.0480    -1.6370     0.1700 N.2   1 <1>  -0.5650 
 14 N       -4.8570    -3.1230     1.7390 N.2   1 <1>  -0.4100 
 15 C       -5.6640    -2.5690     0.9040 C.2   1 <1>   0.4620 
 16 C       -7.0740    -2.8880     0.7480 C.ar  1 <1>   0.0540 
 17 C       -7.8730    -2.2430    -0.1970 C.ar  1 <1>  -0.1500 
 18 C       -7.6880    -3.8600     1.5410 C.ar  1 <1>  -0.1500 
 19 C       -9.2150    -2.5440    -0.3510 C.ar  1 <1>   0.0820 
 20 C       -9.0290    -4.1710     1.3990 C.ar  1 <1>  -0.1500 
 21 O       -9.8910    -1.8510    -1.3020 O.3   1 <1>  -0.3620 
 22 C       -9.7970    -3.5160     0.4550 C.ar  1 <1>  -0.1500 
 23 C      -11.2620    -2.0780    -1.5410 C.3   1 <1>   0.0400 
 24 H        0.8930    -2.0780     0.0680 H     1 <1>   0.3700 
 25 H       -1.3380    -2.5330     0.0650 H     1 <1>   0.0800 
 26 H       -2.0970    -2.1240    -1.4490 H     1 <1>   0.0800 
 27 H        1.8410     0.3230    -1.4300 H     1 <1>   0.0800 
 28 H       -3.0470    -0.0830    -0.4690 H     1 <1>   0.0800 
 29 H       -2.2430    -0.3990     1.0420 H     1 <1>   0.0800 
 30 H        3.7610    -0.9560    -1.9700 H     1 <1>   0.0800 
 31 H        2.5060    -2.1500    -2.1990 H     1 <1>   0.0800 
 32 H        2.0320     0.1740     1.2340 H     1 <1>   0.0800 
 33 H        3.4450     0.5820     0.2920 H     1 <1>   0.0800 
 34 H        4.6650    -2.5210    -0.5290 H     1 <1>   0.0800 
 35 H        3.1100    -3.2530    -0.1980 H     1 <1>   0.0800 
 36 H        2.8730    -1.9910     1.6630 H     1 <1>   0.0800 
 37 H        4.4130    -1.2130     1.3710 H     1 <1>   0.0800 
 38 H       -7.4450    -1.4880    -0.8310 H     1 <1>   0.1500 
 39 H       -7.1060    -4.3800     2.2820 H     1 <1>   0.1500 
 40 H       -9.4740    -4.9250     2.0260 H     1 <1>   0.1500 
 41 H      -10.8350    -3.7740     0.3630 H     1 <1>   0.1500 
 42 H      -11.5750    -1.4200    -2.3310 H     1 <1>   0.0800 
 43 H      -11.8130    -1.8610    -0.6440 H     1 <1>   0.0800 
 44 H      -11.3990    -3.1020    -1.8420 H     1 <1>   0.0800 
@<TRIPOS>BOND
  1   1   2  2   
  2   2   3  am  
  3   2   4  1   
  4   3   5  1   
  5   3  24  1   
  6   4   6  1   
  7   4  25  1   
  8   4  26  1   
  9   5   7  1   
 10   5   8  1   
 11   5  27  1   
 12   6   9  1   
 13   6  28  1   
 14   6  29  1   
 15   7  10  1   
 16   7  30  1   
 17   7  31  1   
 18   8  11  1   
 19   8  32  1   
 20   8  33  1   
 21   9  12  1   
 22   9  13  2   
 23  10  11  1   
 24  10  34  1   
 25  10  35  1   
 26  11  36  1   
 27  11  37  1   
 28  12  14  1   
 29  13  15  1   
 30  14  15  2   
 31  15  16  1   
 32  16  17  ar  
 33  16  18  ar  
 34  17  19  ar  
 35  17  38  1   
 36  18  20  ar  
 37  18  39  1   
 38  19  21  1   
 39  19  22  ar  
 40  20  22  ar  
 41  20  40  1   
 42  21  23  1   
 43  22  41  1   
 44  23  42  1   
 45  23  43  1   
 46  23  44  1   
@<TRIPOS>SUBSTRUCTURE
  1 ****   9 GROUP 4 **** **** 0

# MOE 2024.06 (io_trps.svl 2023.06)
