@<TRIPOS>MOLECULE
NONAME
29 29 1 0 0 
SMALL
USER_CHARGES


@<TRIPOS>ATOM
  1 S        0.2510     1.7930     2.3920 S.3   1 <1>   0.1810 
  2 N        0.6290     2.9820     1.2270 N.2   1 <1>  -0.5100 
  3 C       -1.0050     1.0680     1.4300 C.2   1 <1>   0.0960 
  4 C       -0.1570     2.7960     0.2390 C.2   1 <1>   0.3440 
  5 S       -1.8210    -0.3390     2.1930 S.3   1 <1>  -0.2860 
  6 C       -1.1180     1.7370     0.2680 C.2   1 <1>   0.0190 
  7 S       -0.0650     3.8610    -1.2070 S.3   1 <1>  -0.2850 
  8 C       -2.8570    -1.1580     0.8990 C.3   1 <1>   0.0700 
  9 C       -2.0240     1.5110    -0.8100 C.1   1 <1>   0.5380 
 10 C        1.2250     5.1220    -0.7980 C.3   1 <1>   0.0700 
 11 C       -1.9340    -1.9210    -0.0550 C.3   1 <1>  -0.1600 
 12 N       -2.7650     1.2950    -1.6490 N.1   1 <1>  -0.5570 
 13 C        0.5770     6.2250     0.0440 C.3   1 <1>  -0.1600 
 14 C       -2.7300    -2.5570    -1.1990 C.3   1 <1>  -0.2400 
 15 C        1.5890     7.3200     0.3960 C.3   1 <1>  -0.2400 
 16 H       -3.4370    -0.4010     0.4030 H     1 <1>   0.0800 
 17 H       -3.5190    -1.8320     1.4130 H     1 <1>   0.0800 
 18 H        1.5920     5.5080    -1.7330 H     1 <1>   0.0800 
 19 H        2.0200     4.6240    -0.2710 H     1 <1>   0.0800 
 20 H       -1.4180    -2.6920     0.4920 H     1 <1>   0.0800 
 21 H       -1.1970    -1.2560    -0.4690 H     1 <1>   0.0800 
 22 H        0.1880     5.7990     0.9520 H     1 <1>   0.0800 
 23 H       -0.2410     6.6580    -0.5050 H     1 <1>   0.0800 
 24 H       -3.4620    -3.2450    -0.8150 H     1 <1>   0.0800 
 25 H       -2.0670    -3.0940    -1.8540 H     1 <1>   0.0800 
 26 H       -3.2330    -1.7980    -1.7730 H     1 <1>   0.0800 
 27 H        2.4060     6.9070     0.9630 H     1 <1>   0.0800 
 28 H        1.1140     8.0820     0.9870 H     1 <1>   0.0800 
 29 H        1.9810     7.7740    -0.4980 H     1 <1>   0.0800 
@<TRIPOS>BOND
  1   1   2  1   
  2   1   3  1   
  3   2   4  2   
  4   3   5  1   
  5   3   6  2   
  6   4   6  1   
  7   4   7  1   
  8   5   8  1   
  9   6   9  1   
 10   7  10  1   
 11   8  11  1   
 12   8  16  1   
 13   8  17  1   
 14   9  12  3   
 15  10  13  1   
 16  10  18  1   
 17  10  19  1   
 18  11  14  1   
 19  11  20  1   
 20  11  21  1   
 21  13  15  1   
 22  13  22  1   
 23  13  23  1   
 24  14  24  1   
 25  14  25  1   
 26  14  26  1   
 27  15  27  1   
 28  15  28  1   
 29  15  29  1   
@<TRIPOS>SUBSTRUCTURE
  1 ****   6 GROUP 4 **** **** 0

# MOE 2024.06 (io_trps.svl 2023.06)
