@<TRIPOS>MOLECULE
NONAME
41 42 1 0 0 
SMALL
USER_CHARGES


@<TRIPOS>ATOM
  1 P        0.2520     0.1950    -0.0540 P.3   1 <1>   0.9000 
  2 O        0.1210     0.7070    -1.4510 O.co2 1 <1>  -0.9500 
  3 O       -0.9800    -0.1080     0.7260 O.co2 1 <1>  -0.9500 
  4 C        1.0470     1.5970     0.7620 C.3   1 <1>   0.3430 
  5 C        1.3980    -1.1700     0.0400 C.3   1 <1>  -0.1600 
  6 N        0.3970     2.8510     0.2520 N.4   1 <1>  -0.9590 
  7 C        0.9100    -2.3310    -0.8150 C.3   1 <1>   0.1400 
  8 C        1.2530     4.0560     0.2600 C.3   1 <1>   0.3430 
  9 C       -0.9570     3.0150     0.8500 C.3   1 <1>   0.3430 
 10 N        1.7080    -3.5470    -0.5210 N.am  1 <1>  -0.6600 
 11 C        0.5270     5.2040    -0.4440 C.3   1 <1>  -0.1600 
 12 C       -1.6870     4.1640     0.1540 C.3   1 <1>  -0.1600 
 13 C        2.9880    -3.7780    -0.8900 C.2   1 <1>   0.5690 
 14 C        1.1110    -4.6630     0.2250 C.3   1 <1>   0.1400 
 15 C       -0.8630     5.4590     0.1560 C.3   1 <1>  -0.1600 
 16 O        3.7090    -3.0180    -1.4890 O.2   1 <1>  -0.5700 
 17 C        3.4370    -5.1360    -0.4280 C.3   1 <1>  -0.0990 
 18 C        2.1490    -5.7880     0.1090 C.3   1 <1>  -0.1600 
 19 H        2.0860     1.6360     0.4910 H     1 <1>   0.0800 
 20 H        0.9780     1.5500     1.8330 H     1 <1>   0.0800 
 21 H        1.4940    -1.5100     1.0520 H     1 <1>   0.0800 
 22 H        2.3690    -0.8900    -0.3200 H     1 <1>   0.0800 
 23 H        0.2000     2.5460    -0.7350 H     1 <1>   0.4500 
 24 H        1.0040    -2.0760    -1.8580 H     1 <1>   0.0800 
 25 H       -0.1310    -2.5210    -0.6090 H     1 <1>   0.0800 
 26 H        2.1810     3.8490    -0.2470 H     1 <1>   0.0800 
 27 H        1.4700     4.3370     1.2780 H     1 <1>   0.0800 
 28 H       -0.8680     3.2210     1.9030 H     1 <1>   0.0800 
 29 H       -1.5280     2.1050     0.7300 H     1 <1>   0.0800 
 30 H        0.4330     4.9660    -1.4900 H     1 <1>   0.0800 
 31 H        1.1220     6.0980    -0.3680 H     1 <1>   0.0800 
 32 H       -2.6280     4.3300     0.6490 H     1 <1>   0.0800 
 33 H       -1.9050     3.8670    -0.8580 H     1 <1>   0.0800 
 34 H        0.1690    -4.9500    -0.2120 H     1 <1>   0.0800 
 35 H        0.9650    -4.3700     1.2510 H     1 <1>   0.0800 
 36 H       -1.3740     6.2160    -0.4150 H     1 <1>   0.0800 
 37 H       -0.7600     5.8190     1.1660 H     1 <1>   0.0800 
 38 H        4.1660    -5.0130     0.3510 H     1 <1>   0.0800 
 39 H        3.8580    -5.6910    -1.2450 H     1 <1>   0.0800 
 40 H        1.7920    -6.5190    -0.5950 H     1 <1>   0.0800 
 41 H        2.3090    -6.2710     1.0570 H     1 <1>   0.0800 
@<TRIPOS>BOND
  1   1   2  ar  
  2   1   3  ar  
  3   1   4  1   
  4   1   5  1   
  5   4   6  1   
  6   4  19  1   
  7   4  20  1   
  8   5   7  1   
  9   5  21  1   
 10   5  22  1   
 11   6   8  1   
 12   6   9  1   
 13   6  23  1   
 14   7  10  1   
 15   7  24  1   
 16   7  25  1   
 17   8  11  1   
 18   8  26  1   
 19   8  27  1   
 20   9  12  1   
 21   9  28  1   
 22   9  29  1   
 23  10  13  am  
 24  10  14  1   
 25  11  15  1   
 26  11  30  1   
 27  11  31  1   
 28  12  15  1   
 29  12  32  1   
 30  12  33  1   
 31  13  16  2   
 32  13  17  1   
 33  14  18  1   
 34  14  34  1   
 35  14  35  1   
 36  15  36  1   
 37  15  37  1   
 38  17  18  1   
 39  17  38  1   
 40  17  39  1   
 41  18  40  1   
 42  18  41  1   
@<TRIPOS>SUBSTRUCTURE
  1 ****   1 GROUP 4 **** **** 0

# MOE 2024.06 (io_trps.svl 2023.06)
