@<TRIPOS>MOLECULE
NONAME
35 36 1 0 0 
SMALL
USER_CHARGES


@<TRIPOS>ATOM
  1 F       -0.0750     0.9350     1.6580 F     1 <1>  -0.1900 
  2 C        0.6450     1.8720     1.0890 C.ar  1 <1>   0.1900 
  3 C       -0.0060     2.9390     0.4750 C.ar  1 <1>   0.1170 
  4 C        2.0180     1.7480     1.1300 C.ar  1 <1>  -0.1500 
  5 N       -1.4160     2.9890     0.4760 N.am  1 <1>  -0.5470 
  6 C        0.8030     3.9130    -0.1050 C.ar  1 <1>  -0.1500 
  7 C        2.7930     2.7300     0.5380 C.ar  1 <1>  -0.1500 
  8 C       -2.3110     3.7700    -0.2020 C.2   1 <1>   0.5690 
  9 C        2.1940     3.8260    -0.0830 C.ar  1 <1>  -0.1440 
 10 O       -1.9820     4.6200    -0.9940 O.2   1 <1>  -0.5700 
 11 C       -3.7990     3.5320     0.0610 C.3   1 <1>  -0.0190 
 12 C        3.0350     4.9300    -0.7480 C.3   1 <1>   1.1640 
 13 C       -4.5130     3.0050    -1.1990 C.3   1 <1>  -0.1600 
 14 C       -4.4920     4.8070     0.5810 C.3   1 <1>  -0.1600 
 15 F        4.3190     4.8780    -0.4120 F     1 <1>  -0.3400 
 16 F        2.9960     4.8570    -2.0710 F     1 <1>  -0.3400 
 17 F        2.6200     6.1480    -0.4250 F     1 <1>  -0.3400 
 18 C       -6.0080     2.7690    -0.9440 C.3   1 <1>  -0.1600 
 19 C       -5.9870     4.5720     0.8380 C.3   1 <1>  -0.1600 
 20 C       -6.6880     4.0410    -0.4200 C.3   1 <1>  -0.1600 
 21 H        2.4700     0.9010     1.6140 H     1 <1>   0.1500 
 22 H       -1.8380     2.2660     1.0600 H     1 <1>   0.3700 
 23 H        0.3460     4.7620    -0.5840 H     1 <1>   0.1500 
 24 H        3.8670     2.6320     0.5680 H     1 <1>   0.1500 
 25 H       -3.8890     2.7810     0.8250 H     1 <1>   0.0800 
 26 H       -4.0530     2.0860    -1.5180 H     1 <1>   0.0800 
 27 H       -4.3980     3.7210    -1.9960 H     1 <1>   0.0800 
 28 H       -4.3780     5.5940    -0.1460 H     1 <1>   0.0800 
 29 H       -4.0170     5.1330     1.4900 H     1 <1>   0.0800 
 30 H       -6.1290     1.9780    -0.2240 H     1 <1>   0.0800 
 31 H       -6.4840     2.4590    -1.8580 H     1 <1>   0.0800 
 32 H       -6.4490     5.4950     1.1430 H     1 <1>   0.0800 
 33 H       -6.1070     3.8630     1.6390 H     1 <1>   0.0800 
 34 H       -7.7200     3.8340    -0.1980 H     1 <1>   0.0800 
 35 H       -6.6620     4.7980    -1.1860 H     1 <1>   0.0800 
@<TRIPOS>BOND
  1   1   2  1   
  2   2   3  ar  
  3   2   4  ar  
  4   3   5  1   
  5   3   6  ar  
  6   4   7  ar  
  7   4  21  1   
  8   5   8  am  
  9   5  22  1   
 10   6   9  ar  
 11   6  23  1   
 12   7   9  ar  
 13   7  24  1   
 14   8  10  2   
 15   8  11  1   
 16   9  12  1   
 17  11  13  1   
 18  11  14  1   
 19  11  25  1   
 20  12  15  1   
 21  12  16  1   
 22  12  17  1   
 23  13  18  1   
 24  13  26  1   
 25  13  27  1   
 26  14  19  1   
 27  14  28  1   
 28  14  29  1   
 29  18  20  1   
 30  18  30  1   
 31  18  31  1   
 32  19  20  1   
 33  19  32  1   
 34  19  33  1   
 35  20  34  1   
 36  20  35  1   
@<TRIPOS>SUBSTRUCTURE
  1 ****   5 GROUP 4 **** **** 0

# MOE 2024.06 (io_trps.svl 2023.06)
