@<TRIPOS>MOLECULE
NONAME
26 28 1 0 0 
SMALL
USER_CHARGES


@<TRIPOS>ATOM
  1 CL       0.1420    -0.0120    -1.0450 Cl    1 <1>  -0.1770 
  2 C        1.5430    -0.9670    -0.6240 C.ar  1 <1>   0.1770 
  3 C        1.4120    -2.2170    -0.0530 C.ar  1 <1>  -0.1440 
  4 C        2.8020    -0.4460    -0.8730 C.ar  1 <1>  -0.1500 
  5 C        2.5440    -2.9460     0.2680 C.ar  1 <1>   0.1170 
  6 C        0.1870    -3.0290     0.3290 C.3   1 <1>   0.6650 
  7 C        3.9330    -1.1830    -0.5490 C.ar  1 <1>  -0.1500 
  8 N        2.1910    -4.1690     0.8270 N.am  1 <1>  -0.5470 
  9 C        3.8170    -2.4420     0.0260 C.ar  1 <1>  -0.1440 
 10 S       -0.8660    -2.1500     1.5350 S.3   1 <1>  -0.4600 
 11 S       -0.8930    -3.3470    -1.1040 S.3   1 <1>  -0.4600 
 12 C        0.8420    -4.3040     0.9000 C.2   1 <1>   0.5690 
 13 C        5.0540    -3.2500     0.3820 C.3   1 <1>  -0.0960 
 14 C       -2.4190    -1.9940     0.6140 C.3   1 <1>   0.0700 
 15 C       -2.5100    -3.2000    -0.3140 C.3   1 <1>   0.0700 
 16 O        0.2850    -5.2830     1.3430 O.2   1 <1>  -0.5700 
 17 H        2.8930     0.5280    -1.3180 H     1 <1>   0.1500 
 18 H        4.9060    -0.7660    -0.7480 H     1 <1>   0.1500 
 19 H        2.8290    -4.8960     1.1480 H     1 <1>   0.3700 
 20 H        5.0530    -4.1810    -0.1570 H     1 <1>   0.0800 
 21 H        5.0670    -3.4570     1.4370 H     1 <1>   0.0800 
 22 H        5.9510    -2.7130     0.1300 H     1 <1>   0.0800 
 23 H       -2.3680    -1.0750     0.0560 H     1 <1>   0.0800 
 24 H       -3.2280    -1.9590     1.3220 H     1 <1>   0.0800 
 25 H       -2.6840    -4.1090     0.2360 H     1 <1>   0.0800 
 26 H       -3.2520    -3.0740    -1.0830 H     1 <1>   0.0800 
@<TRIPOS>BOND
  1   1   2  1   
  2   2   3  ar  
  3   2   4  ar  
  4   3   5  ar  
  5   3   6  1   
  6   4   7  ar  
  7   4  17  1   
  8   5   8  1   
  9   5   9  ar  
 10   6  10  1   
 11   6  11  1   
 12   6  12  1   
 13   7   9  ar  
 14   7  18  1   
 15   8  12  am  
 16   8  19  1   
 17   9  13  1   
 18  10  14  1   
 19  11  15  1   
 20  12  16  2   
 21  13  20  1   
 22  13  21  1   
 23  13  22  1   
 24  14  15  1   
 25  14  23  1   
 26  14  24  1   
 27  15  25  1   
 28  15  26  1   
@<TRIPOS>SUBSTRUCTURE
  1 ****   3 GROUP 4 **** **** 0

# MOE 2024.06 (io_trps.svl 2023.06)
