@<TRIPOS>MOLECULE
NONAME
44 46 1 0 0 
SMALL
USER_CHARGES


@<TRIPOS>ATOM
  1 O       -0.5690    -0.0050    -1.3850 O.3   1 <1>  -0.5600 
  2 C        0.4250    -0.6270    -2.1530 C.3   1 <1>   0.1200 
  3 C       -0.3250    -0.0430    -0.0060 C.3   1 <1>   0.1200 
  4 C        0.5950    -2.1090    -1.7480 C.3   1 <1>   0.3430 
  5 C       -0.1880    -1.5000     0.4950 C.3   1 <1>   0.3430 
  6 N       -0.3380    -2.4950    -0.6280 N.4   1 <1>  -0.9590 
  7 C       -0.2400    -3.9230    -0.2060 C.3   1 <1>   0.7030 
  8 C        1.1340    -4.1480     0.3350 C.1   1 <1>  -0.2000 
  9 C       -0.4900    -4.8380    -1.4270 C.3   1 <1>  -0.1600 
 10 C       -1.2970    -4.2100     0.8840 C.3   1 <1>  -0.1600 
 11 C        2.2310    -4.3180     0.7640 C.1   1 <1>  -0.0730 
 12 C       -0.6170    -6.3280    -1.0640 C.3   1 <1>  -0.1600 
 13 C       -1.4230    -5.7020     1.2430 C.3   1 <1>  -0.1600 
 14 C        3.5500    -4.5220     1.2800 C.ar  1 <1>   0.0730 
 15 C       -1.6970    -6.5510    -0.0010 C.3   1 <1>  -0.1600 
 16 C        4.5850    -4.9190     0.4430 C.ar  1 <1>  -0.1500 
 17 C        3.8220    -4.3240     2.6280 C.ar  1 <1>  -0.1500 
 18 C        5.8630    -5.1110     0.9380 C.ar  1 <1>  -0.1500 
 19 C        5.0990    -4.5140     3.1280 C.ar  1 <1>  -0.1500 
 20 C        6.1210    -4.9070     2.2820 C.ar  1 <1>  -0.1500 
 21 H        1.3480    -0.0870    -2.0260 H     1 <1>   0.0800 
 22 H        0.1340    -0.5550    -3.1870 H     1 <1>   0.0800 
 23 H       -1.1500     0.4430     0.4860 H     1 <1>   0.0800 
 24 H        0.5690     0.5190     0.2030 H     1 <1>   0.0800 
 25 H        1.6170    -2.2730    -1.4480 H     1 <1>   0.0800 
 26 H        0.4120    -2.7200    -2.6160 H     1 <1>   0.0800 
 27 H       -0.9370    -1.6700     1.2490 H     1 <1>   0.0800 
 28 H        0.7750    -1.6170     0.9640 H     1 <1>   0.0800 
 29 H       -1.2830    -2.3470    -0.9980 H     1 <1>   0.4500 
 30 H        0.3150    -4.7500    -2.1330 H     1 <1>   0.0800 
 31 H       -1.4020    -4.5370    -1.9120 H     1 <1>   0.0800 
 32 H       -2.2590    -3.8710     0.5410 H     1 <1>   0.0800 
 33 H       -1.0550    -3.6850     1.7900 H     1 <1>   0.0800 
 34 H        0.3260    -6.6990    -0.6950 H     1 <1>   0.0800 
 35 H       -0.8630    -6.8970    -1.9460 H     1 <1>   0.0800 
 36 H       -2.2240    -5.8380     1.9510 H     1 <1>   0.0800 
 37 H       -0.5160    -6.0440     1.7150 H     1 <1>   0.0800 
 38 H       -1.7200    -7.5920     0.2740 H     1 <1>   0.0800 
 39 H       -2.6630    -6.3010    -0.4060 H     1 <1>   0.0800 
 40 H        4.3930    -5.0840    -0.6020 H     1 <1>   0.1500 
 41 H        3.0330    -4.0230     3.2930 H     1 <1>   0.1500 
 42 H        6.6580    -5.4200     0.2810 H     1 <1>   0.1500 
 43 H        5.2990    -4.3590     4.1750 H     1 <1>   0.1500 
 44 H        7.1140    -5.0560     2.6700 H     1 <1>   0.1500 
@<TRIPOS>BOND
  1   1   2  1   
  2   1   3  1   
  3   2   4  1   
  4   2  21  1   
  5   2  22  1   
  6   3   5  1   
  7   3  23  1   
  8   3  24  1   
  9   4   6  1   
 10   4  25  1   
 11   4  26  1   
 12   5   6  1   
 13   5  27  1   
 14   5  28  1   
 15   6   7  1   
 16   6  29  1   
 17   7   8  1   
 18   7   9  1   
 19   7  10  1   
 20   8  11  3   
 21   9  12  1   
 22   9  30  1   
 23   9  31  1   
 24  10  13  1   
 25  10  32  1   
 26  10  33  1   
 27  11  14  1   
 28  12  15  1   
 29  12  34  1   
 30  12  35  1   
 31  13  15  1   
 32  13  36  1   
 33  13  37  1   
 34  14  16  ar  
 35  14  17  ar  
 36  15  38  1   
 37  15  39  1   
 38  16  18  ar  
 39  16  40  1   
 40  17  19  ar  
 41  17  41  1   
 42  18  20  ar  
 43  18  42  1   
 44  19  20  ar  
 45  19  43  1   
 46  20  44  1   
@<TRIPOS>SUBSTRUCTURE
  1 ****   8 GROUP 4 **** **** 0

# MOE 2024.06 (io_trps.svl 2023.06)
