@<TRIPOS>MOLECULE
NONAME
48 50 1 0 0 
SMALL
USER_CHARGES


@<TRIPOS>ATOM
  1 CL      -0.4690     1.1690     1.4740 Cl    1 <1>  -0.1770 
  2 C       -1.3820    -0.1680     0.8190 C.ar  1 <1>   0.1770 
  3 C       -0.8050    -1.4280     0.7490 C.ar  1 <1>  -0.1440 
  4 C       -2.6680     0.0660     0.3700 C.ar  1 <1>  -0.1500 
  5 C       -1.5520    -2.4730     0.2200 C.ar  1 <1>  -0.1500 
  6 C        0.6080    -1.6580     1.2440 C.3   1 <1>   0.4870 
  7 C       -3.4000    -0.9820    -0.1610 C.ar  1 <1>  -0.1500 
  8 C       -2.8410    -2.2470    -0.2340 C.ar  1 <1>  -0.1500 
  9 N        1.5200    -1.7230     0.0700 N.4   1 <1>  -0.9590 
 10 C        2.8550    -2.3090     0.4550 C.3   1 <1>   0.3430 
 11 C        1.6760    -0.3570    -0.5580 C.3   1 <1>   0.3430 
 12 C        3.8530    -2.3150    -0.7220 C.3   1 <1>   0.1400 
 13 C        2.6850    -0.3630    -1.7230 C.3   1 <1>   0.1400 
 14 N        3.9850    -0.9370    -1.2710 N.am  1 <1>  -0.6600 
 15 C        4.8660    -0.1010    -0.6470 C.2   1 <1>   0.6900 
 16 O        4.4310     0.8280     0.0050 O.2   1 <1>  -0.5700 
 17 N        6.1880    -0.4030    -0.7210 N.am  1 <1>  -0.5470 
 18 C        7.3290     0.0530    -0.0390 C.ar  1 <1>   0.1170 
 19 C        8.4990    -0.7080    -0.1370 C.ar  1 <1>   0.0830 
 20 C        7.3490     1.2200     0.7180 C.ar  1 <1>  -0.1500 
 21 O        8.4390    -1.8470    -0.8940 O.3   1 <1>  -0.3630 
 22 C        9.6550    -0.2990     0.5210 C.ar  1 <1>  -0.1500 
 23 C        8.5010     1.6220     1.3700 C.ar  1 <1>  -0.1500 
 24 C        9.5920    -2.6290    -1.1250 C.3   1 <1>   0.0400 
 25 C        9.6530     0.8630     1.2730 C.ar  1 <1>  -0.1500 
 26 H       -3.0910     1.0530     0.4360 H     1 <1>   0.1500 
 27 H       -1.1510    -3.4710     0.1590 H     1 <1>   0.1500 
 28 H        0.6380    -2.5870     1.7880 H     1 <1>   0.0800 
 29 H        0.9120    -0.8670     1.9110 H     1 <1>   0.0800 
 30 H       -4.4040    -0.8140    -0.5140 H     1 <1>   0.1500 
 31 H       -3.4210    -3.0590    -0.6430 H     1 <1>   0.1500 
 32 H        1.0750    -2.3320    -0.6270 H     1 <1>   0.4500 
 33 H        2.7260    -3.3180     0.8130 H     1 <1>   0.0800 
 34 H        3.2860    -1.7270     1.2540 H     1 <1>   0.0800 
 35 H        2.0260     0.3460     0.1820 H     1 <1>   0.0800 
 36 H        0.7230    -0.0030    -0.9180 H     1 <1>   0.0800 
 37 H        3.5180    -2.9840    -1.4960 H     1 <1>   0.0800 
 38 H        4.8100    -2.6660    -0.3730 H     1 <1>   0.0800 
 39 H        2.8380     0.6480    -2.0640 H     1 <1>   0.0800 
 40 H        2.3000    -0.9350    -2.5490 H     1 <1>   0.0800 
 41 H        6.4080    -1.1560    -1.3710 H     1 <1>   0.3700 
 42 H        6.4690     1.8290     0.8010 H     1 <1>   0.1500 
 43 H       10.5650    -0.8650     0.4650 H     1 <1>   0.1500 
 44 H        8.4980     2.5270     1.9530 H     1 <1>   0.1500 
 45 H        9.3210    -3.4440    -1.7720 H     1 <1>   0.0800 
 46 H        9.9480    -3.0130    -0.1850 H     1 <1>   0.0800 
 47 H       10.3390    -2.0190    -1.6010 H     1 <1>   0.0800 
 48 H       10.5480     1.1790     1.7820 H     1 <1>   0.1500 
@<TRIPOS>BOND
  1   1   2  1   
  2   2   3  ar  
  3   2   4  ar  
  4   3   5  ar  
  5   3   6  1   
  6   4   7  ar  
  7   4  26  1   
  8   5   8  ar  
  9   5  27  1   
 10   6   9  1   
 11   6  28  1   
 12   6  29  1   
 13   7   8  ar  
 14   7  30  1   
 15   8  31  1   
 16   9  10  1   
 17   9  11  1   
 18   9  32  1   
 19  10  12  1   
 20  10  33  1   
 21  10  34  1   
 22  11  13  1   
 23  11  35  1   
 24  11  36  1   
 25  12  14  1   
 26  12  37  1   
 27  12  38  1   
 28  13  14  1   
 29  13  39  1   
 30  13  40  1   
 31  14  15  am  
 32  15  16  2   
 33  15  17  am  
 34  17  18  1   
 35  17  41  1   
 36  18  19  ar  
 37  18  20  ar  
 38  19  21  1   
 39  19  22  ar  
 40  20  23  ar  
 41  20  42  1   
 42  21  24  1   
 43  22  25  ar  
 44  22  43  1   
 45  23  25  ar  
 46  23  44  1   
 47  24  45  1   
 48  24  46  1   
 49  24  47  1   
 50  25  48  1   
@<TRIPOS>SUBSTRUCTURE
  1 ****  14 GROUP 4 **** **** 0

# MOE 2024.06 (io_trps.svl 2023.06)
