@<TRIPOS>MOLECULE
NONAME
53 56 1 0 0 
SMALL
USER_CHARGES


@<TRIPOS>ATOM
  1 S        0.4290     0.2960    -0.2390 S.o2  1 <1>   1.4470 
  2 O        0.3560     0.9470    -1.5300 O.2   1 <1>  -0.6500 
  3 O        0.5010     1.1000     0.9610 O.2   1 <1>  -0.6500 
  4 N        1.8160    -0.6810    -0.2720 N.am  1 <1>  -0.8490 
  5 C       -0.9080    -0.9180    -0.0640 C.ar  1 <1>  -0.0090 
  6 C        3.0280     0.1100    -0.0460 C.3   1 <1>   0.1960 
  7 C        1.9140    -1.4450    -1.5180 C.3   1 <1>   0.1960 
  8 C       -0.9420    -1.7980     0.9880 C.ar  1 <1>  -0.1500 
  9 C       -1.9400    -0.9920    -1.0160 C.ar  1 <1>  -0.1500 
 10 C        4.2310    -0.8220     0.1110 C.3   1 <1>  -0.1600 
 11 C        3.0590    -2.4520    -1.4150 C.3   1 <1>  -0.1600 
 12 C       -1.9550    -2.7650     1.1370 C.ar  1 <1>   0.0000 
 13 C       -2.9410    -1.9170    -0.9050 C.ar  1 <1>  -0.1500 
 14 C        4.3930    -1.7480    -1.1080 C.3   1 <1>  -0.0190 
 15 C       -2.9760    -2.8290     0.1670 C.ar  1 <1>   0.0000 
 16 C       -1.9860    -3.6710     2.2160 C.ar  1 <1>  -0.1500 
 17 C        5.5280    -2.7460    -0.9150 C.2   1 <1>   0.5690 
 18 C       -3.9870    -3.8000     0.3100 C.ar  1 <1>  -0.1500 
 19 C       -2.9800    -4.6040     2.3300 C.ar  1 <1>  -0.1500 
 20 O        6.4750    -2.7060    -1.6620 O.2   1 <1>  -0.5700 
 21 N        5.4360    -3.6530     0.0880 N.am  1 <1>  -0.7300 
 22 C       -3.9920    -4.6690     1.3660 C.ar  1 <1>  -0.1500 
 23 C        6.4260    -4.6930     0.4030 C.3   1 <1>   0.2200 
 24 C        5.7410    -6.0520     0.3260 C.3   1 <1>  -0.1600 
 25 C        6.8040    -4.5740     1.8730 C.3   1 <1>  -0.1600 
 26 C        4.9990    -6.2210     1.6580 C.3   1 <1>  -0.1600 
 27 C        5.6800    -5.2690     2.6510 C.3   1 <1>  -0.1600 
 28 H        2.9260     0.6920     0.8550 H     1 <1>   0.0800 
 29 H        3.1830     0.7900    -0.8690 H     1 <1>   0.0800 
 30 H        2.0810    -0.7800    -2.3510 H     1 <1>   0.0800 
 31 H        0.9960    -1.9810    -1.6950 H     1 <1>   0.0800 
 32 H       -0.1660    -1.7590     1.7340 H     1 <1>   0.1500 
 33 H       -1.9290    -0.3010    -1.8440 H     1 <1>   0.1500 
 34 H        4.0950    -1.4020     1.0070 H     1 <1>   0.0800 
 35 H        5.1230    -0.2340     0.2350 H     1 <1>   0.0800 
 36 H        3.1450    -2.9920    -2.3420 H     1 <1>   0.0800 
 37 H        2.8210    -3.1620    -0.6430 H     1 <1>   0.0800 
 38 H       -3.7250    -1.9630    -1.6410 H     1 <1>   0.1500 
 39 H        4.6460    -1.1350    -1.9560 H     1 <1>   0.0800 
 40 H       -1.2080    -3.6160     2.9550 H     1 <1>   0.1500 
 41 H       -4.7630    -3.8460    -0.4330 H     1 <1>   0.1500 
 42 H       -3.0000    -5.2930     3.1560 H     1 <1>   0.1500 
 43 H        4.6170    -3.6580     0.6950 H     1 <1>   0.3700 
 44 H       -4.7670    -5.4090     1.4700 H     1 <1>   0.1500 
 45 H        7.2790    -4.6230    -0.2520 H     1 <1>   0.0800 
 46 H        6.5010    -6.8100     0.2510 H     1 <1>   0.0800 
 47 H        5.0920    -6.1330    -0.5280 H     1 <1>   0.0800 
 48 H        6.9520    -3.5520     2.1740 H     1 <1>   0.0800 
 49 H        7.7220    -5.1130     2.0300 H     1 <1>   0.0800 
 50 H        5.0490    -7.2430     1.9960 H     1 <1>   0.0800 
 51 H        3.9650    -5.9450     1.5400 H     1 <1>   0.0800 
 52 H        4.9700    -4.5390     2.9990 H     1 <1>   0.0800 
 53 H        6.0740    -5.8020     3.4990 H     1 <1>   0.0800 
@<TRIPOS>BOND
  1   1   2  2   
  2   1   3  2   
  3   1   4  am  
  4   1   5  1   
  5   4   6  1   
  6   4   7  1   
  7   5   8  ar  
  8   5   9  ar  
  9   6  10  1   
 10   6  28  1   
 11   6  29  1   
 12   7  11  1   
 13   7  30  1   
 14   7  31  1   
 15   8  12  ar  
 16   8  32  1   
 17   9  13  ar  
 18   9  33  1   
 19  10  14  1   
 20  10  34  1   
 21  10  35  1   
 22  11  14  1   
 23  11  36  1   
 24  11  37  1   
 25  12  15  ar  
 26  12  16  ar  
 27  13  15  ar  
 28  13  38  1   
 29  14  17  1   
 30  14  39  1   
 31  15  18  ar  
 32  16  19  ar  
 33  16  40  1   
 34  17  20  2   
 35  17  21  am  
 36  18  22  ar  
 37  18  41  1   
 38  19  22  ar  
 39  19  42  1   
 40  21  23  1   
 41  21  43  1   
 42  22  44  1   
 43  23  24  1   
 44  23  25  1   
 45  23  45  1   
 46  24  26  1   
 47  24  46  1   
 48  24  47  1   
 49  25  27  1   
 50  25  48  1   
 51  25  49  1   
 52  26  27  1   
 53  26  50  1   
 54  26  51  1   
 55  27  52  1   
 56  27  53  1   
@<TRIPOS>SUBSTRUCTURE
  1 ****   4 GROUP 4 **** **** 0

# MOE 2024.06 (io_trps.svl 2023.06)
