@<TRIPOS>MOLECULE
NONAME
45 48 1 0 0 
SMALL
USER_CHARGES


@<TRIPOS>ATOM
  1 O       -0.2940    -0.0610     0.8250 O.2   1 <1>  -0.5700 
  2 C       -0.7510    -1.0430     0.2870 C.2   1 <1>   0.5690 
  3 N        0.0330    -2.0910    -0.1180 N.am  1 <1>  -0.5470 
  4 C       -2.2790    -1.1190     0.0600 C.3   1 <1>   0.0610 
  5 C        1.4220    -2.2990    -0.0600 C.ar  1 <1>   0.1170 
  6 C       -3.0180    -0.9940     1.4170 C.3   1 <1>  -0.1600 
  7 C       -2.7330    -2.4480    -0.6090 C.3   1 <1>  -0.1600 
  8 C       -2.7310     0.0510    -0.8490 C.3   1 <1>  -0.1600 
  9 C        1.9210    -3.6040    -0.0330 C.ar  1 <1>  -0.1440 
 10 C        2.3190    -1.2380    -0.0500 C.ar  1 <1>  -0.1500 
 11 C       -4.5450    -1.0140     1.2210 C.3   1 <1>  -0.0800 
 12 C       -4.2590    -2.4740    -0.8140 C.3   1 <1>  -0.0800 
 13 C       -4.2570     0.0360    -1.0560 C.3   1 <1>  -0.0800 
 14 C        3.2910    -3.8160     0.0050 C.ar  1 <1>  -0.1500 
 15 C        0.9890    -4.8110    -0.0400 C.3   1 <1>  -0.0970 
 16 C        3.6870    -1.4480    -0.0030 C.ar  1 <1>   0.1000 
 17 C       -4.9550    -2.3380     0.5520 C.3   1 <1>  -0.1600 
 18 C       -4.9520     0.1610     0.3130 C.3   1 <1>  -0.1600 
 19 C       -4.6680    -1.2930    -1.7140 C.3   1 <1>  -0.1600 
 20 C        4.1670    -2.7480     0.0190 C.ar  1 <1>  -0.1500 
 21 N        4.5610    -0.3760     0.0250 N.pl3 1 <1>  -0.9000 
 22 H       -0.4840    -2.8830    -0.4870 H     1 <1>   0.3700 
 23 H       -2.7340    -0.0740     1.8990 H     1 <1>   0.0800 
 24 H       -2.7240    -1.8000     2.0660 H     1 <1>   0.0800 
 25 H       -2.4530    -3.2850     0.0070 H     1 <1>   0.0800 
 26 H       -2.2540    -2.5600    -1.5670 H     1 <1>   0.0800 
 27 H       -2.2350    -0.0170    -1.8020 H     1 <1>   0.0800 
 28 H       -2.4420     0.9870    -0.4030 H     1 <1>   0.0800 
 29 H        1.9560    -0.2300    -0.0860 H     1 <1>   0.1500 
 30 H       -5.0350    -0.9210     2.1760 H     1 <1>   0.0800 
 31 H       -4.5510    -3.4000    -1.2790 H     1 <1>   0.0800 
 32 H       -4.5470     0.8600    -1.6860 H     1 <1>   0.0800 
 33 H        3.6870    -4.8160     0.0230 H     1 <1>   0.1500 
 34 H        0.2910    -4.7420     0.7750 H     1 <1>   0.0800 
 35 H        1.5440    -5.7250     0.0730 H     1 <1>   0.0800 
 36 H        0.4510    -4.8560    -0.9690 H     1 <1>   0.0800 
 37 H       -6.0230    -2.3620     0.4200 H     1 <1>   0.0800 
 38 H       -4.6860    -3.1650     1.1850 H     1 <1>   0.0800 
 39 H       -4.6780     1.0930     0.7770 H     1 <1>   0.0800 
 40 H       -6.0200     0.1660     0.1800 H     1 <1>   0.0800 
 41 H       -5.7320    -1.3060    -1.8710 H     1 <1>   0.0800 
 42 H       -4.1960    -1.3840    -2.6770 H     1 <1>   0.0800 
 43 H        5.2270    -2.9200     0.0450 H     1 <1>   0.1500 
 44 H        5.4550    -0.5460     0.4920 H     1 <1>   0.4000 
 45 H        4.1440     0.5100     0.3250 H     1 <1>   0.4000 
@<TRIPOS>BOND
  1   1   2  2   
  2   2   3  am  
  3   2   4  1   
  4   3   5  1   
  5   3  22  1   
  6   4   6  1   
  7   4   7  1   
  8   4   8  1   
  9   5   9  ar  
 10   5  10  ar  
 11   6  11  1   
 12   6  23  1   
 13   6  24  1   
 14   7  12  1   
 15   7  25  1   
 16   7  26  1   
 17   8  13  1   
 18   8  27  1   
 19   8  28  1   
 20   9  14  ar  
 21   9  15  1   
 22  10  16  ar  
 23  10  29  1   
 24  11  17  1   
 25  11  18  1   
 26  11  30  1   
 27  12  17  1   
 28  12  19  1   
 29  12  31  1   
 30  13  18  1   
 31  13  19  1   
 32  13  32  1   
 33  14  20  ar  
 34  14  33  1   
 35  15  34  1   
 36  15  35  1   
 37  15  36  1   
 38  16  20  ar  
 39  16  21  1   
 40  17  37  1   
 41  17  38  1   
 42  18  39  1   
 43  18  40  1   
 44  19  41  1   
 45  19  42  1   
 46  20  43  1   
 47  21  44  1   
 48  21  45  1   
@<TRIPOS>SUBSTRUCTURE
  1 ****   2 GROUP 4 **** **** 0

# MOE 2024.06 (io_trps.svl 2023.06)
