@<TRIPOS>MOLECULE
NONAME
38 40 1 0 0 
SMALL
USER_CHARGES


@<TRIPOS>ATOM
  1 O       -0.1880     0.3120     1.2860 O.2   1 <1>  -0.5700 
  2 C       -1.1890     0.9110     0.9210 C.2   1 <1>   0.6160 
  3 N       -2.2820     0.1560     0.6280 N.am  1 <1>  -0.5390 
  4 C       -1.2740     2.3290     0.7770 C.2   1 <1>   0.0290 
  5 C       -3.4610     0.6870     0.1960 C.2   1 <1>  -0.0290 
  6 C       -2.4650     2.8840     0.3460 C.2   1 <1>  -0.1380 
  7 C       -0.0950     3.0790     1.1140 C.2   1 <1>   0.5410 
  8 C       -3.5810     2.0460     0.0570 C.2   1 <1>  -0.1380 
  9 C       -4.5410    -0.3450    -0.0960 C.3   1 <1>  -0.1020 
 10 C       -2.5770     4.4070     0.2010 C.3   1 <1>  -0.0220 
 11 O       -0.1640     3.9730     1.9400 O.2   1 <1>  -0.5700 
 12 C        1.1590     2.8350     0.4600 C.2   1 <1>  -0.1360 
 13 C       -4.9030     2.6540    -0.4240 C.3   1 <1>  -0.0220 
 14 C       -3.7500     4.8600    -0.6680 C.3   1 <1>  -0.1600 
 15 C        2.3270     3.4880     0.6650 C.2   1 <1>  -0.1050 
 16 C       -5.0230     4.1630    -0.2010 C.3   1 <1>  -0.1600 
 17 C        3.5700     3.2470     0.0010 C.2   1 <1>   0.0950 
 18 O        3.6600     2.3300    -0.9520 O.3   1 <1>  -0.2800 
 19 C        4.7910     3.8270     0.1650 C.2   1 <1>  -0.1500 
 20 C        4.8960     2.3060    -1.3990 C.2   1 <1>  -0.0100 
 21 C        5.6520     3.2140    -0.7460 C.2   1 <1>  -0.1500 
 22 H       -2.1490    -0.8470     0.7600 H     1 <1>   0.3700 
 23 H       -4.1320    -1.1410    -0.6930 H     1 <1>   0.0800 
 24 H       -5.3700     0.0690    -0.6360 H     1 <1>   0.0800 
 25 H       -4.9040    -0.7590     0.8270 H     1 <1>   0.0800 
 26 H       -2.6910     4.8280     1.1850 H     1 <1>   0.0800 
 27 H       -1.6720     4.8100    -0.2190 H     1 <1>   0.0800 
 28 H        1.1340     2.0420    -0.2650 H     1 <1>   0.1500 
 29 H       -4.9980     2.4540    -1.4770 H     1 <1>   0.0800 
 30 H       -5.7270     2.1820     0.0800 H     1 <1>   0.0800 
 31 H       -3.8630     5.9270    -0.5890 H     1 <1>   0.0800 
 32 H       -3.5550     4.6160    -1.6980 H     1 <1>   0.0800 
 33 H        2.3630     4.2760     1.3970 H     1 <1>   0.1500 
 34 H       -5.8710     4.5410    -0.7450 H     1 <1>   0.0800 
 35 H       -5.1810     4.3610     0.8450 H     1 <1>   0.0800 
 36 H        5.0610     4.6050     0.8550 H     1 <1>   0.1500 
 37 H        5.1550     1.6140    -2.1810 H     1 <1>   0.1500 
 38 H        6.6960     3.4380    -0.8770 H     1 <1>   0.1500 
@<TRIPOS>BOND
  1   1   2  2   
  2   2   3  am  
  3   2   4  1   
  4   3   5  1   
  5   3  22  1   
  6   4   6  2   
  7   4   7  1   
  8   5   8  2   
  9   5   9  1   
 10   6   8  1   
 11   6  10  1   
 12   7  11  2   
 13   7  12  1   
 14   8  13  1   
 15   9  23  1   
 16   9  24  1   
 17   9  25  1   
 18  10  14  1   
 19  10  26  1   
 20  10  27  1   
 21  12  15  2   
 22  12  28  1   
 23  13  16  1   
 24  13  29  1   
 25  13  30  1   
 26  14  16  1   
 27  14  31  1   
 28  14  32  1   
 29  15  17  1   
 30  15  33  1   
 31  16  34  1   
 32  16  35  1   
 33  17  18  1   
 34  17  19  2   
 35  18  20  1   
 36  19  21  1   
 37  19  36  1   
 38  20  21  2   
 39  20  37  1   
 40  21  38  1   
@<TRIPOS>SUBSTRUCTURE
  1 ****   4 GROUP 4 **** **** 0

# MOE 2024.06 (io_trps.svl 2023.06)
