@<TRIPOS>MOLECULE
NONAME
32 33 1 0 0 
SMALL
USER_CHARGES


@<TRIPOS>ATOM
  1 F       -0.6820     1.0050    -1.6410 F     1 <1>  -0.1900 
  2 C        0.2150     1.8930    -1.2850 C.ar  1 <1>   0.1900 
  3 C       -0.2120     3.0860    -0.7080 C.ar  1 <1>   0.1170 
  4 C        1.5440     1.5950    -1.5050 C.ar  1 <1>  -0.1500 
  5 N       -1.5900     3.3120    -0.5170 N.am  1 <1>  -0.5470 
  6 C        0.7790     3.9990    -0.3540 C.ar  1 <1>  -0.1500 
  7 C        2.5050     2.5220    -1.1390 C.ar  1 <1>  -0.1500 
  8 C       -2.2930     4.2980     0.1180 C.2   1 <1>   0.5690 
  9 C        2.1320     3.7350    -0.5610 C.ar  1 <1>  -0.1440 
 10 O       -1.7770     5.2330     0.6780 O.2   1 <1>  -0.5700 
 11 C       -3.8180     4.1990     0.1180 C.3   1 <1>  -0.0190 
 12 C        3.1790     4.7830    -0.1450 C.3   1 <1>   1.1640 
 13 C       -4.3750     2.9290     0.7870 C.3   1 <1>  -0.1600 
 14 C       -4.4480     4.2370    -1.2790 C.3   1 <1>  -0.1600 
 15 F        4.4030     4.4980    -0.5750 F     1 <1>  -0.3400 
 16 F        2.8970     5.9930    -0.6120 F     1 <1>  -0.3400 
 17 F        3.2690     4.9010     1.1730 F     1 <1>  -0.3400 
 18 C       -5.5260     2.4340    -0.0960 C.3   1 <1>  -0.1600 
 19 C       -5.7970     3.5510    -1.1010 C.3   1 <1>  -0.1600 
 20 H        1.8200     0.6570    -1.9530 H     1 <1>   0.1500 
 21 H       -2.1780     2.5740    -0.9070 H     1 <1>   0.3700 
 22 H        0.4980     4.9370     0.0910 H     1 <1>   0.1500 
 23 H        3.5440     2.2870    -1.3090 H     1 <1>   0.1500 
 24 H       -4.2000     5.0450     0.6650 H     1 <1>   0.0800 
 25 H       -4.7340     3.1690     1.7730 H     1 <1>   0.0800 
 26 H       -3.6270     2.1600     0.8810 H     1 <1>   0.0800 
 27 H       -3.8570     3.6730    -1.9800 H     1 <1>   0.0800 
 28 H       -4.5540     5.2450    -1.6420 H     1 <1>   0.0800 
 29 H       -6.4040     2.2020     0.4830 H     1 <1>   0.0800 
 30 H       -5.2170     1.5480    -0.6240 H     1 <1>   0.0800 
 31 H       -6.1890     3.1750    -2.0310 H     1 <1>   0.0800 
 32 H       -6.5010     4.2490    -0.6790 H     1 <1>   0.0800 
@<TRIPOS>BOND
  1   1   2  1   
  2   2   3  ar  
  3   2   4  ar  
  4   3   5  1   
  5   3   6  ar  
  6   4   7  ar  
  7   4  20  1   
  8   5   8  am  
  9   5  21  1   
 10   6   9  ar  
 11   6  22  1   
 12   7   9  ar  
 13   7  23  1   
 14   8  10  2   
 15   8  11  1   
 16   9  12  1   
 17  11  13  1   
 18  11  14  1   
 19  11  24  1   
 20  12  15  1   
 21  12  16  1   
 22  12  17  1   
 23  13  18  1   
 24  13  25  1   
 25  13  26  1   
 26  14  19  1   
 27  14  27  1   
 28  14  28  1   
 29  18  19  1   
 30  18  29  1   
 31  18  30  1   
 32  19  31  1   
 33  19  32  1   
@<TRIPOS>SUBSTRUCTURE
  1 ****   3 GROUP 4 **** **** 0

# MOE 2024.06 (io_trps.svl 2023.06)
