@<TRIPOS>MOLECULE
NONAME
31 32 1 0 0 
SMALL
USER_CHARGES


@<TRIPOS>ATOM
  1 BR      -0.1600    -0.7630     0.2870 Br    1 <1>  -0.1110 
  2 C        1.6380    -1.3640    -0.0210 C.ar  1 <1>   0.1110 
  3 C        1.8460    -2.4700    -0.8210 C.ar  1 <1>  -0.1500 
  4 C        2.6830    -0.6790     0.5680 C.ar  1 <1>  -0.1500 
  5 C        3.1460    -2.8940    -1.0380 C.ar  1 <1>  -0.1500 
  6 C        3.9760    -1.1170     0.3400 C.ar  1 <1>  -0.1500 
  7 C        4.2370    -2.2260    -0.4740 C.ar  1 <1>   0.0860 
  8 C        5.5920    -2.6760    -0.7280 C.2   1 <1>   0.5440 
  9 O        5.8410    -3.8670    -0.8320 O.2   1 <1>  -0.5700 
 10 N        6.6030    -1.7680    -0.8780 N.am  1 <1>  -0.4300 
 11 N        8.0340    -2.0850    -0.8170 N.am  1 <1>  -0.4300 
 12 C        8.8140    -2.0140     0.2940 C.2   1 <1>   0.5690 
 13 O        8.4440    -1.4640     1.3140 O.2   1 <1>  -0.5700 
 14 C       10.2080    -2.6490     0.2440 C.3   1 <1>   0.2610 
 15 O       10.6150    -2.9310    -1.0700 O.3   1 <1>  -0.5600 
 16 C       10.2910    -3.9970     0.9490 C.3   1 <1>  -0.1600 
 17 C       11.6030    -3.9130    -1.0680 C.3   1 <1>   0.1200 
 18 C       11.4350    -4.6970     0.2330 C.3   1 <1>  -0.1600 
 19 H        1.0110    -2.9870    -1.2590 H     1 <1>   0.1500 
 20 H        2.4850     0.1740     1.1930 H     1 <1>   0.1500 
 21 H        3.3290    -3.7590    -1.6540 H     1 <1>   0.1500 
 22 H        4.7950    -0.5990     0.8110 H     1 <1>   0.1500 
 23 H        6.3740    -0.7700    -0.8910 H     1 <1>   0.3700 
 24 H        8.4460    -2.5550    -1.6340 H     1 <1>   0.3700 
 25 H       10.9250    -1.9650     0.6640 H     1 <1>   0.0800 
 26 H        9.3710    -4.5360     0.7990 H     1 <1>   0.0800 
 27 H       10.4630    -3.8830     2.0050 H     1 <1>   0.0800 
 28 H       12.5630    -3.4260    -1.1110 H     1 <1>   0.0800 
 29 H       11.4670    -4.5350    -1.9360 H     1 <1>   0.0800 
 30 H       11.2060    -5.7300     0.0380 H     1 <1>   0.0800 
 31 H       12.3430    -4.6420     0.8070 H     1 <1>   0.0800 
@<TRIPOS>BOND
  1   1   2  1   
  2   2   3  ar  
  3   2   4  ar  
  4   3   5  ar  
  5   3  19  1   
  6   4   6  ar  
  7   4  20  1   
  8   5   7  ar  
  9   5  21  1   
 10   6   7  ar  
 11   6  22  1   
 12   7   8  1   
 13   8   9  2   
 14   8  10  am  
 15  10  11  1   
 16  10  23  1   
 17  11  12  am  
 18  11  24  1   
 19  12  13  2   
 20  12  14  1   
 21  14  15  1   
 22  14  16  1   
 23  14  25  1   
 24  15  17  1   
 25  16  18  1   
 26  16  26  1   
 27  16  27  1   
 28  17  18  1   
 29  17  28  1   
 30  17  29  1   
 31  18  30  1   
 32  18  31  1   
@<TRIPOS>SUBSTRUCTURE
  1 ****  10 GROUP 4 **** **** 0

# MOE 2024.06 (io_trps.svl 2023.06)
