@<TRIPOS>MOLECULE
NONAME
37 38 1 0 0 
SMALL
USER_CHARGES


@<TRIPOS>ATOM
  1 O       -0.4620     0.5060     0.1350 O.2   1 <1>  -0.5700 
  2 C       -1.4140     1.1720    -0.2290 C.2   1 <1>   0.6340 
  3 O       -2.4350     0.5350    -0.8160 O.3   1 <1>  -0.4300 
  4 C       -1.5170     2.6100    -0.0630 C.ar  1 <1>   0.0860 
  5 C       -2.4310    -0.8640    -1.0230 C.3   1 <1>   0.0400 
  6 C       -0.4030     3.4230     0.2440 C.ar  1 <1>   0.1170 
  7 C       -2.7610     3.2370    -0.2040 C.ar  1 <1>  -0.1500 
  8 N        0.8710     2.8480     0.3950 N.am  1 <1>  -0.5470 
  9 C       -0.5770     4.7950     0.4020 C.ar  1 <1>  -0.1500 
 10 C       -2.9220     4.5960    -0.0430 C.ar  1 <1>   0.0830 
 11 C        2.1370     3.3450     0.2810 C.2   1 <1>   0.6300 
 12 C       -1.8110     5.3920     0.2470 C.ar  1 <1>   0.0830 
 13 O       -4.1750     5.1030    -0.1780 O.3   1 <1>  -0.3630 
 14 O        2.3920     4.4930     0.0170 O.2   1 <1>  -0.5700 
 15 C        3.2840     2.3690     0.4960 C.3   1 <1>  -0.1000 
 16 O       -1.8900     6.7330     0.3840 O.3   1 <1>  -0.3630 
 17 C       -4.7540     5.6520     0.9860 C.3   1 <1>   0.0400 
 18 C        4.1270     1.9240    -0.6630 C.3   1 <1>  -0.2000 
 19 C        3.2260     0.9430     0.0190 C.3   1 <1>  -0.2000 
 20 C       -2.1540     7.4720    -0.7880 C.3   1 <1>   0.0400 
 21 H       -1.5920    -1.1220    -1.6460 H     1 <1>   0.0800 
 22 H       -3.3510    -1.1390    -1.5080 H     1 <1>   0.0800 
 23 H       -2.3520    -1.3570    -0.0700 H     1 <1>   0.0800 
 24 H       -3.6340     2.6550    -0.4400 H     1 <1>   0.1500 
 25 H        0.8470     1.8250     0.5060 H     1 <1>   0.3700 
 26 H        0.2570     5.4260     0.6480 H     1 <1>   0.1500 
 27 H        3.7960     2.5700     1.4190 H     1 <1>   0.1000 
 28 H       -5.7750     5.9050     0.7660 H     1 <1>   0.0800 
 29 H       -4.2140     6.5360     1.2720 H     1 <1>   0.0800 
 30 H       -4.7160     4.9200     1.7730 H     1 <1>   0.0800 
 31 H        5.1910     1.8460    -0.5220 H     1 <1>   0.1000 
 32 H        3.8670     2.2780    -1.6470 H     1 <1>   0.1000 
 33 H        2.3680     0.5870    -0.5260 H     1 <1>   0.1000 
 34 H        3.6660     0.1770     0.6340 H     1 <1>   0.1000 
 35 H       -2.1240     8.5170    -0.5400 H     1 <1>   0.0800 
 36 H       -3.1270     7.2100    -1.1630 H     1 <1>   0.0800 
 37 H       -1.3970     7.2450    -1.5180 H     1 <1>   0.0800 
@<TRIPOS>BOND
  1   1   2  2   
  2   2   3  1   
  3   2   4  1   
  4   3   5  1   
  5   4   6  ar  
  6   4   7  ar  
  7   5  21  1   
  8   5  22  1   
  9   5  23  1   
 10   6   8  1   
 11   6   9  ar  
 12   7  10  ar  
 13   7  24  1   
 14   8  11  am  
 15   8  25  1   
 16   9  12  ar  
 17   9  26  1   
 18  10  12  ar  
 19  10  13  1   
 20  11  14  2   
 21  11  15  1   
 22  12  16  1   
 23  13  17  1   
 24  15  18  1   
 25  15  19  1   
 26  15  27  1   
 27  16  20  1   
 28  17  28  1   
 29  17  29  1   
 30  17  30  1   
 31  18  19  1   
 32  18  31  1   
 33  18  32  1   
 34  19  33  1   
 35  19  34  1   
 36  20  35  1   
 37  20  36  1   
 38  20  37  1   
@<TRIPOS>SUBSTRUCTURE
  1 ****   6 GROUP 4 **** **** 0

# MOE 2024.06 (io_trps.svl 2023.06)
