@<TRIPOS>MOLECULE
NONAME
48 50 1 0 0 
SMALL
USER_CHARGES


@<TRIPOS>ATOM
  1 S       -0.7540    -1.0890     0.7720 S.3   1 <1>  -0.0800 
  2 C       -1.7300    -1.1770    -0.7060 C.2   1 <1>  -0.0450 
  3 C        0.6090    -1.8500    -0.0110 C.2   1 <1>  -0.1400 
  4 C       -3.0720    -0.6510    -0.7220 C.2   1 <1>   0.7150 
  5 C       -0.9830    -1.7500    -1.6860 C.2   1 <1>  -0.1500 
  6 C        0.3280    -2.1390    -1.2880 C.2   1 <1>  -0.1810 
  7 C        1.8990    -2.1100     0.7320 C.3   1 <1>   0.0200 
  8 O       -3.5630    -0.2760    -1.7730 O.2   1 <1>  -0.5700 
  9 N       -3.8810    -0.5860     0.3960 N.am  1 <1>  -0.6600 
 10 C        1.3410    -2.8080    -2.1990 C.3   1 <1>   0.0210 
 11 C        3.0000    -2.4890    -0.2780 C.3   1 <1>  -0.1600 
 12 C       -4.9530     0.4480     0.4690 C.3   1 <1>   0.1400 
 13 C       -3.8770    -1.6420     1.4400 C.3   1 <1>   0.1400 
 14 C        2.4890    -3.4500    -1.3810 C.3   1 <1>  -0.0800 
 15 C       -6.1770     0.0470    -0.3780 C.3   1 <1>   0.3430 
 16 C       -5.2690    -2.2580     1.6280 C.3   1 <1>  -0.1600 
 17 C        3.6130    -3.9010    -2.3350 C.3   1 <1>  -0.1600 
 18 N       -6.9280    -1.1610     0.1260 N.4   1 <1>  -0.9590 
 19 C       -6.0710    -2.3710     0.3280 C.3   1 <1>   0.3430 
 20 C        4.6860    -4.7620    -1.6560 C.3   1 <1>  -0.2400 
 21 C       -8.0320    -1.4800    -0.8280 C.3   1 <1>   0.2630 
 22 H       -1.3260    -1.9080    -2.6940 H     1 <1>   0.1500 
 23 H        1.7420    -2.9150     1.4270 H     1 <1>   0.0800 
 24 H        2.1930    -1.2330     1.2820 H     1 <1>   0.0800 
 25 H        1.7360    -2.0640    -2.8680 H     1 <1>   0.0800 
 26 H        0.8520    -3.5640    -2.7860 H     1 <1>   0.0800 
 27 H        3.8150    -2.9300     0.2660 H     1 <1>   0.0800 
 28 H        3.3630    -1.5900    -0.7450 H     1 <1>   0.0800 
 29 H       -4.5590     1.3710     0.0770 H     1 <1>   0.0800 
 30 H       -5.2370     0.6270     1.4910 H     1 <1>   0.0800 
 31 H       -3.5200    -1.2310     2.3700 H     1 <1>   0.0800 
 32 H       -3.1970    -2.4260     1.1480 H     1 <1>   0.0800 
 33 H        2.0880    -4.3250    -0.8970 H     1 <1>   0.0800 
 34 H       -5.8400    -0.1330    -1.3860 H     1 <1>   0.0800 
 35 H       -6.8500     0.8880    -0.4130 H     1 <1>   0.0800 
 36 H       -5.8210    -1.7120     2.3720 H     1 <1>   0.0800 
 37 H       -5.1230    -3.2480     2.0220 H     1 <1>   0.0800 
 38 H        4.0800    -3.0380    -2.7800 H     1 <1>   0.0800 
 39 H        3.1790    -4.4810    -3.1320 H     1 <1>   0.0800 
 40 H       -7.3430    -0.9230     1.0370 H     1 <1>   0.4500 
 41 H       -6.7050    -3.2410     0.3980 H     1 <1>   0.0800 
 42 H       -5.4070    -2.5090    -0.5120 H     1 <1>   0.0800 
 43 H        5.2490    -4.1910    -0.9410 H     1 <1>   0.0800 
 44 H        5.3720    -5.1370    -2.3950 H     1 <1>   0.0800 
 45 H        4.2350    -5.6020    -1.1560 H     1 <1>   0.0800 
 46 H       -7.6270    -1.7370    -1.7940 H     1 <1>   0.0800 
 47 H       -8.6860    -0.6310    -0.9430 H     1 <1>   0.0800 
 48 H       -8.6130    -2.3130    -0.4660 H     1 <1>   0.0800 
@<TRIPOS>BOND
  1   1   2  1   
  2   1   3  1   
  3   2   4  1   
  4   2   5  2   
  5   3   6  2   
  6   3   7  1   
  7   4   8  2   
  8   4   9  am  
  9   5   6  1   
 10   5  22  1   
 11   6  10  1   
 12   7  11  1   
 13   7  23  1   
 14   7  24  1   
 15   9  12  1   
 16   9  13  1   
 17  10  14  1   
 18  10  25  1   
 19  10  26  1   
 20  11  14  1   
 21  11  27  1   
 22  11  28  1   
 23  12  15  1   
 24  12  29  1   
 25  12  30  1   
 26  13  16  1   
 27  13  31  1   
 28  13  32  1   
 29  14  17  1   
 30  14  33  1   
 31  15  18  1   
 32  15  34  1   
 33  15  35  1   
 34  16  19  1   
 35  16  36  1   
 36  16  37  1   
 37  17  20  1   
 38  17  38  1   
 39  17  39  1   
 40  18  19  1   
 41  18  21  1   
 42  18  40  1   
 43  19  41  1   
 44  19  42  1   
 45  20  43  1   
 46  20  44  1   
 47  20  45  1   
 48  21  46  1   
 49  21  47  1   
 50  21  48  1   
@<TRIPOS>SUBSTRUCTURE
  1 ****   2 GROUP 4 **** **** 0

# MOE 2024.06 (io_trps.svl 2023.06)
