@<TRIPOS>MOLECULE
NONAME
55 58 1 0 0 
SMALL
USER_CHARGES


@<TRIPOS>ATOM
  1 S       -0.9480    -0.1440     1.0870 S.3   1 <1>  -0.2860 
  2 C        0.2420     1.1310     0.6580 C.2   1 <1>   0.2420 
  3 C       -1.9200     0.6060     2.4800 C.3   1 <1>   0.1310 
  4 N        0.3900     2.2280     1.3120 N.2   1 <1>  -0.3380 
  5 N        1.0590     1.0210    -0.3890 N.pl3 1 <1>   0.0480 
  6 C       -3.3820     0.2190     2.3670 C.2   1 <1>   0.5180 
  7 N        1.3560     2.8980     0.6800 N.2   1 <1>  -0.3380 
  8 C        1.7490     2.1710    -0.3160 C.2   1 <1>   0.0060 
  9 C        1.1420    -0.0870    -1.3640 C.3   1 <1>   0.0160 
 10 O       -3.9050    -0.2900     3.3310 O.2   1 <1>  -0.5700 
 11 N       -4.0510     0.4450     1.1430 N.pl3 1 <1>   0.2940 
 12 C        2.8470     2.5630    -1.2990 C.3   1 <1>   0.0200 
 13 C       -4.0200     1.5530     0.3070 C.2   1 <1>  -0.3320 
 14 C       -4.8750    -0.4540     0.4910 C.2   1 <1>  -0.3320 
 15 C        3.8560     3.5670    -0.7200 C.3   1 <1>   0.2000 
 16 C       -4.7700     1.3350    -0.7990 C.2   1 <1>  -0.1810 
 17 C       -3.2780     2.8600     0.5610 C.3   1 <1>   0.0200 
 18 C       -5.3210     0.0580    -0.6780 C.2   1 <1>  -0.1810 
 19 C       -5.2430    -1.8350     1.0110 C.3   1 <1>   0.0200 
 20 O        4.7390     3.9160    -1.7220 O.3   1 <1>  -0.6800 
 21 C        4.6930     3.0120     0.4320 C.3   1 <1>  -0.2400 
 22 C       -4.9690     2.3270    -1.9280 C.3   1 <1>   0.0210 
 23 C       -3.7940     3.9660    -0.3750 C.3   1 <1>  -0.1600 
 24 C       -6.2480    -0.6650    -1.6340 C.3   1 <1>   0.0210 
 25 C       -5.8840    -2.6760    -0.1080 C.3   1 <1>  -0.1600 
 26 C       -3.9410     3.4670    -1.8240 C.3   1 <1>  -0.1600 
 27 C       -6.9060    -1.8660    -0.9290 C.3   1 <1>  -0.1600 
 28 H       -1.8010     1.6710     2.4510 H     1 <1>   0.0800 
 29 H       -1.4980     0.2260     3.3920 H     1 <1>   0.0800 
 30 H        1.7900    -0.8520    -0.9770 H     1 <1>   0.0800 
 31 H        1.5260     0.2770    -2.2990 H     1 <1>   0.0800 
 32 H        0.1620    -0.4980    -1.5260 H     1 <1>   0.0800 
 33 H        2.3770     3.0060    -2.1590 H     1 <1>   0.0800 
 34 H        3.3780     1.6830    -1.6110 H     1 <1>   0.0800 
 35 H        3.3420     4.4650    -0.4140 H     1 <1>   0.0800 
 36 H       -2.2290     2.7120     0.3750 H     1 <1>   0.0800 
 37 H       -3.4090     3.1760     1.5800 H     1 <1>   0.0800 
 38 H       -5.9370    -1.7230     1.8260 H     1 <1>   0.0800 
 39 H       -4.3690    -2.3420     1.3810 H     1 <1>   0.0800 
 40 H        5.4650     3.2660    -1.7700 H     1 <1>   0.4000 
 41 H        5.2080     2.1150     0.1420 H     1 <1>   0.0800 
 42 H        4.0550     2.7790     1.2660 H     1 <1>   0.0800 
 43 H        5.4030     3.7500     0.7600 H     1 <1>   0.0800 
 44 H       -5.9640     2.7280    -1.8570 H     1 <1>   0.0800 
 45 H       -4.8680     1.8290    -2.8750 H     1 <1>   0.0800 
 46 H       -3.1190     4.8030    -0.3420 H     1 <1>   0.0800 
 47 H       -4.7550     4.3010    -0.0230 H     1 <1>   0.0800 
 48 H       -5.6730    -1.0060    -2.4760 H     1 <1>   0.0800 
 49 H       -7.0070     0.0090    -1.9880 H     1 <1>   0.0800 
 50 H       -6.3610    -3.5380     0.3250 H     1 <1>   0.0800 
 51 H       -5.1080    -3.0230    -0.7670 H     1 <1>   0.0800 
 52 H       -4.2390     4.2770    -2.4660 H     1 <1>   0.0800 
 53 H       -2.9860     3.1060    -2.1650 H     1 <1>   0.0800 
 54 H       -7.3750    -2.4980    -1.6610 H     1 <1>   0.0800 
 55 H       -7.6710    -1.5010    -0.2660 H     1 <1>   0.0800 
@<TRIPOS>BOND
  1   1   2  1   
  2   1   3  1   
  3   2   4  2   
  4   2   5  1   
  5   3   6  1   
  6   3  28  1   
  7   3  29  1   
  8   4   7  1   
  9   5   8  1   
 10   5   9  1   
 11   6  10  2   
 12   6  11  1   
 13   7   8  2   
 14   8  12  1   
 15   9  30  1   
 16   9  31  1   
 17   9  32  1   
 18  11  13  1   
 19  11  14  1   
 20  12  15  1   
 21  12  33  1   
 22  12  34  1   
 23  13  16  2   
 24  13  17  1   
 25  14  18  2   
 26  14  19  1   
 27  15  20  1   
 28  15  21  1   
 29  15  35  1   
 30  16  18  1   
 31  16  22  1   
 32  17  23  1   
 33  17  36  1   
 34  17  37  1   
 35  18  24  1   
 36  19  25  1   
 37  19  38  1   
 38  19  39  1   
 39  20  40  1   
 40  21  41  1   
 41  21  42  1   
 42  21  43  1   
 43  22  26  1   
 44  22  44  1   
 45  22  45  1   
 46  23  26  1   
 47  23  46  1   
 48  23  47  1   
 49  24  27  1   
 50  24  48  1   
 51  24  49  1   
 52  25  27  1   
 53  25  50  1   
 54  25  51  1   
 55  26  52  1   
 56  26  53  1   
 57  27  54  1   
 58  27  55  1   
@<TRIPOS>SUBSTRUCTURE
  1 ****   1 GROUP 4 **** **** 0

# MOE 2024.06 (io_trps.svl 2023.06)
