@<TRIPOS>MOLECULE
NONAME
47 49 1 0 0 
SMALL
USER_CHARGES


@<TRIPOS>ATOM
  1 CL      -1.5200     0.1780    -2.3090 Cl    1 <1>  -0.1770 
  2 C       -0.8220     1.5620    -1.4910 C.ar  1 <1>   0.1770 
  3 C       -1.6670     2.5060    -0.9080 C.ar  1 <1>   0.1170 
  4 C        0.5540     1.6760    -1.4510 C.ar  1 <1>  -0.1500 
  5 N       -3.0610     2.3260    -0.9930 N.am  1 <1>  -0.5470 
  6 C       -1.0680     3.5960    -0.2810 C.ar  1 <1>  -0.1500 
  7 C        1.1260     2.7650    -0.8150 C.ar  1 <1>  -0.1500 
  8 C       -4.0960     2.8840    -0.3070 C.2   1 <1>   0.6900 
  9 C        0.3110     3.7220    -0.2330 C.ar  1 <1>  -0.1500 
 10 O       -3.9320     3.6630     0.6100 O.2   1 <1>  -0.5700 
 11 N       -5.3560     2.5440    -0.6760 N.am  1 <1>  -0.7300 
 12 C       -6.5530     3.0310     0.0220 C.3   1 <1>   0.2200 
 13 C       -7.6810     2.0110    -0.1050 C.3   1 <1>  -0.1600 
 14 C       -6.9700     4.3770    -0.5670 C.3   1 <1>  -0.1600 
 15 C       -8.9480     2.5400     0.5650 C.3   1 <1>   0.3430 
 16 C       -8.2360     4.8820     0.1140 C.3   1 <1>   0.3430 
 17 N       -9.3200     3.8660    -0.0190 N.4   1 <1>  -0.9590 
 18 C      -10.6020     4.3680     0.5480 C.3   1 <1>   0.4860 
 19 C      -11.7080     3.4100     0.1520 C.ar  1 <1>  -0.1430 
 20 C      -12.2520     2.5440     1.0900 C.ar  1 <1>  -0.1500 
 21 C      -12.1800     3.3870    -1.1540 C.ar  1 <1>  -0.1500 
 22 C      -13.2460     1.6550     0.7230 C.ar  1 <1>  -0.1500 
 23 C      -13.1740     2.4970    -1.5180 C.ar  1 <1>  -0.1500 
 24 C      -13.7060     1.6300    -0.5810 C.ar  1 <1>  -0.1500 
 25 H        1.1690     0.9240    -1.9100 H     1 <1>   0.1500 
 26 H       -3.3290     1.5480    -1.5900 H     1 <1>   0.3700 
 27 H       -1.6720     4.3580     0.1760 H     1 <1>   0.1500 
 28 H        2.1970     2.8690    -0.7740 H     1 <1>   0.1500 
 29 H        0.7510     4.5720     0.2610 H     1 <1>   0.1500 
 30 H       -5.4950     2.0090    -1.5300 H     1 <1>   0.3700 
 31 H       -6.3150     3.1620     1.0670 H     1 <1>   0.0800 
 32 H       -7.3890     1.0950     0.3800 H     1 <1>   0.0800 
 33 H       -7.8860     1.7960    -1.1390 H     1 <1>   0.0800 
 34 H       -7.1340     4.2940    -1.6270 H     1 <1>   0.0800 
 35 H       -6.1820     5.0920    -0.4040 H     1 <1>   0.0800 
 36 H       -8.7780     2.6420     1.6250 H     1 <1>   0.0800 
 37 H       -9.7490     1.8320     0.4180 H     1 <1>   0.0800 
 38 H       -8.5390     5.8130    -0.3390 H     1 <1>   0.0800 
 39 H       -8.0310     5.0650     1.1570 H     1 <1>   0.0800 
 40 H       -9.5000     3.7080    -1.0190 H     1 <1>   0.4500 
 41 H      -10.8260     5.3470     0.1560 H     1 <1>   0.0800 
 42 H      -10.5380     4.4350     1.6220 H     1 <1>   0.0800 
 43 H      -11.9160     2.5480     2.1140 H     1 <1>   0.1500 
 44 H      -11.7910     4.0580    -1.9000 H     1 <1>   0.1500 
 45 H      -13.6690     0.9820     1.4500 H     1 <1>   0.1500 
 46 H      -13.5420     2.4780    -2.5310 H     1 <1>   0.1500 
 47 H      -14.4820     0.9380    -0.8660 H     1 <1>   0.1500 
@<TRIPOS>BOND
  1   1   2  1   
  2   2   3  ar  
  3   2   4  ar  
  4   3   5  1   
  5   3   6  ar  
  6   4   7  ar  
  7   4  25  1   
  8   5   8  am  
  9   5  26  1   
 10   6   9  ar  
 11   6  27  1   
 12   7   9  ar  
 13   7  28  1   
 14   8  10  2   
 15   8  11  am  
 16   9  29  1   
 17  11  12  1   
 18  11  30  1   
 19  12  13  1   
 20  12  14  1   
 21  12  31  1   
 22  13  15  1   
 23  13  32  1   
 24  13  33  1   
 25  14  16  1   
 26  14  34  1   
 27  14  35  1   
 28  15  17  1   
 29  15  36  1   
 30  15  37  1   
 31  16  17  1   
 32  16  38  1   
 33  16  39  1   
 34  17  18  1   
 35  17  40  1   
 36  18  19  1   
 37  18  41  1   
 38  18  42  1   
 39  19  20  ar  
 40  19  21  ar  
 41  20  22  ar  
 42  20  43  1   
 43  21  23  ar  
 44  21  44  1   
 45  22  24  ar  
 46  22  45  1   
 47  23  24  ar  
 48  23  46  1   
 49  24  47  1   
@<TRIPOS>SUBSTRUCTURE
  1 ****  12 GROUP 4 **** **** 0

# MOE 2024.06 (io_trps.svl 2023.06)
