@<TRIPOS>MOLECULE
NONAME
59 62 1 0 0 
SMALL
USER_CHARGES


@<TRIPOS>ATOM
  1 O       -0.5250     1.0000     0.8890 O.2   1 <1>  -0.5700 
  2 C       -1.0920     2.0590     0.7130 C.2   1 <1>   0.6900 
  3 N       -2.4320     2.0760     0.3420 N.am  1 <1>  -0.4200 
  4 N       -0.3980     3.2490     0.8740 N.am  1 <1>  -0.4360 
  5 C       -3.0880     3.2680     0.0670 C.2   1 <1>   0.7030 
  6 C       -3.1570     0.7740     0.2000 C.3   1 <1>   0.0600 
  7 C       -1.0610     4.4300     0.5990 C.2   1 <1>   0.4260 
  8 C        1.0340     3.2540     1.2960 C.3   1 <1>   0.0600 
  9 O       -4.2550     3.2690    -0.2870 O.2   1 <1>  -0.5700 
 10 C       -2.3560     4.4960     0.2080 C.2   1 <1>   0.2770 
 11 N       -0.5750     5.6920     0.6530 N.pl3 1 <1>  -0.7000 
 12 N       -2.6520     5.8540     0.0240 N.pl3 1 <1>  -0.7640 
 13 C       -1.5400     6.5310     0.3020 C.cat 1 <1>   0.6560 
 14 C       -3.9830     6.3610    -0.4210 C.3   1 <1>   0.3540 
 15 C       -1.3050     8.0500     0.2550 C.3   1 <1>   0.2540 
 16 C       -4.9610     6.4150     0.7540 C.3   1 <1>  -0.0170 
 17 N        0.1470     8.3720     0.2880 N.3   1 <1>  -0.8100 
 18 C       -6.2910     6.9670     0.2760 C.ar  1 <1>  -0.1430 
 19 C        0.3930     9.7100     0.8550 C.3   1 <1>   0.1100 
 20 C        0.7630     8.2540    -1.0480 C.3   1 <1>   0.1100 
 21 C       -7.2020     6.1280    -0.3480 C.ar  1 <1>  -0.1500 
 22 C       -6.6040     8.3070     0.4470 C.ar  1 <1>  -0.1500 
 23 C        1.8980     9.9290     1.0300 C.3   1 <1>  -0.1600 
 24 C        2.2800     8.4170    -0.9360 C.3   1 <1>  -0.1600 
 25 C       -8.4120     6.6250    -0.8010 C.ar  1 <1>  -0.1500 
 26 C       -7.8140     8.8030    -0.0060 C.ar  1 <1>  -0.1500 
 27 C        2.6460     9.7650    -0.3000 C.3   1 <1>  -0.0800 
 28 C       -8.7180     7.9630    -0.6310 C.ar  1 <1>  -0.1500 
 29 C        4.1600     9.8760    -0.0920 C.3   1 <1>  -0.2400 
 30 H       -2.8460     0.0890     0.9720 H     1 <1>   0.0800 
 31 H       -2.9330     0.3390    -0.7580 H     1 <1>   0.0800 
 32 H       -4.2220     0.9110     0.2830 H     1 <1>   0.0800 
 33 H        1.2850     2.3370     1.8010 H     1 <1>   0.0800 
 34 H        1.2220     4.0690     1.9720 H     1 <1>   0.0800 
 35 H        1.6670     3.3530     0.4310 H     1 <1>   0.0800 
 36 H        0.3620     6.0380     0.8890 H     1 <1>   0.4500 
 37 H       -4.3780     5.7180    -1.1900 H     1 <1>   0.0800 
 38 H       -3.8810     7.3470    -0.8420 H     1 <1>   0.0800 
 39 H       -1.7870     8.4740     1.1180 H     1 <1>   0.0800 
 40 H       -1.7580     8.4710    -0.6250 H     1 <1>   0.0800 
 41 H       -4.5680     7.0410     1.5340 H     1 <1>   0.0800 
 42 H       -5.1140     5.4280     1.1540 H     1 <1>   0.0800 
 43 H       -0.0810     9.7940     1.8200 H     1 <1>   0.0800 
 44 H       -0.0140    10.4700     0.2070 H     1 <1>   0.0800 
 45 H        0.3670     9.0120    -1.7060 H     1 <1>   0.0800 
 46 H        0.5480     7.2890    -1.4760 H     1 <1>   0.0800 
 47 H       -6.9810     5.0820    -0.4840 H     1 <1>   0.1500 
 48 H       -5.9190     8.9770     0.9360 H     1 <1>   0.1500 
 49 H        2.2700     9.2240     1.7520 H     1 <1>   0.0800 
 50 H        2.0690    10.9170     1.4190 H     1 <1>   0.0800 
 51 H        2.7170     8.3510    -1.9170 H     1 <1>   0.0800 
 52 H        2.6770     7.6110    -0.3440 H     1 <1>   0.0800 
 53 H       -9.1170     5.9700    -1.2830 H     1 <1>   0.1500 
 54 H       -8.0560     9.8430     0.1290 H     1 <1>   0.1500 
 55 H        2.3360    10.5530    -0.9670 H     1 <1>   0.0800 
 56 H       -9.6600     8.3490    -0.9820 H     1 <1>   0.1500 
 57 H        4.5120     9.1070     0.5730 H     1 <1>   0.0800 
 58 H        4.4080    10.8340     0.3310 H     1 <1>   0.0800 
 59 H        4.6740     9.7790    -1.0320 H     1 <1>   0.0800 
@<TRIPOS>BOND
  1   1   2  2   
  2   2   3  am  
  3   2   4  am  
  4   3   5  am  
  5   3   6  1   
  6   4   7  1   
  7   4   8  1   
  8   5   9  2   
  9   5  10  1   
 10   6  30  1   
 11   6  31  1   
 12   6  32  1   
 13   7  10  2   
 14   7  11  1   
 15   8  33  1   
 16   8  34  1   
 17   8  35  1   
 18  10  12  1   
 19  11  13  ar  
 20  11  36  1   
 21  12  13  ar  
 22  12  14  1   
 23  13  15  1   
 24  14  16  1   
 25  14  37  1   
 26  14  38  1   
 27  15  17  1   
 28  15  39  1   
 29  15  40  1   
 30  16  18  1   
 31  16  41  1   
 32  16  42  1   
 33  17  19  1   
 34  17  20  1   
 35  18  21  ar  
 36  18  22  ar  
 37  19  23  1   
 38  19  43  1   
 39  19  44  1   
 40  20  24  1   
 41  20  45  1   
 42  20  46  1   
 43  21  25  ar  
 44  21  47  1   
 45  22  26  ar  
 46  22  48  1   
 47  23  27  1   
 48  23  49  1   
 49  23  50  1   
 50  24  27  1   
 51  24  51  1   
 52  24  52  1   
 53  25  28  ar  
 54  25  53  1   
 55  26  28  ar  
 56  26  54  1   
 57  27  29  1   
 58  27  55  1   
 59  28  56  1   
 60  29  57  1   
 61  29  58  1   
 62  29  59  1   
@<TRIPOS>SUBSTRUCTURE
  1 ****  12 GROUP 4 **** **** 0

# MOE 2024.06 (io_trps.svl 2023.06)
