@<TRIPOS>MOLECULE
NONAME
50 52 1 0 0 
SMALL
USER_CHARGES


@<TRIPOS>ATOM
  1 S        0.8330     0.6690     0.7480 S.o2  1 <1>   1.3330 
  2 O        1.7460     0.5120     1.8550 O.2   1 <1>  -0.6500 
  3 O        1.2630     0.3860    -0.5980 O.2   1 <1>  -0.6500 
  4 N        0.2890     2.3070     0.8060 N.am  1 <1>  -0.6930 
  5 C       -0.6470    -0.2490     1.1150 C.3   1 <1>  -0.1350 
  6 C       -0.8720     2.6850     0.1440 C.ar  1 <1>   0.1990 
  7 C        1.3640     3.3420     0.9230 C.3   1 <1>   0.2570 
  8 C       -0.9810     2.6110    -1.2390 C.ar  1 <1>  -0.1500 
  9 C       -1.9630     3.1370     0.8740 C.ar  1 <1>  -0.1500 
 10 C        2.2650     3.4740    -0.3190 C.2   1 <1>   0.5690 
 11 C       -2.1560     2.9660    -1.8740 C.ar  1 <1>  -0.1500 
 12 C       -3.1400     3.4930     0.2410 C.ar  1 <1>  -0.1500 
 13 O        1.8490     4.1790    -1.2110 O.2   1 <1>  -0.5700 
 14 N        3.4860     2.8500    -0.4340 N.am  1 <1>  -0.6600 
 15 C       -3.2450     3.4070    -1.1380 C.ar  1 <1>  -0.1430 
 16 C        4.1600     2.8180    -1.7670 C.3   1 <1>   0.2840 
 17 C        4.1410     1.9930     0.5940 C.3   1 <1>   0.1400 
 18 C       -4.5370     3.7990    -1.8380 C.3   1 <1>  -0.0170 
 19 C        5.6830     2.7080    -1.6860 C.ar  1 <1>  -0.1430 
 20 C        5.5780     2.4610     0.8220 C.3   1 <1>  -0.0170 
 21 C       -4.5270     5.2880    -2.1900 C.3   1 <1>  -0.2400 
 22 C        6.3530     2.5350    -0.4810 C.ar  1 <1>  -0.1430 
 23 C        6.4130     2.7790    -2.8640 C.ar  1 <1>  -0.1500 
 24 C        7.7350     2.4350    -0.4650 C.ar  1 <1>  -0.1500 
 25 C        7.7930     2.6780    -2.8450 C.ar  1 <1>  -0.1500 
 26 C        8.4550     2.5060    -1.6440 C.ar  1 <1>  -0.1500 
 27 H       -0.4280    -1.2980     1.1530 H     1 <1>   0.0800 
 28 H       -1.3870    -0.0800     0.3570 H     1 <1>   0.0800 
 29 H       -1.0460     0.0550     2.0630 H     1 <1>   0.0800 
 30 H        1.9510     3.1490     1.7990 H     1 <1>   0.0800 
 31 H        0.8940     4.2980     1.0730 H     1 <1>   0.0800 
 32 H       -0.1370     2.2800    -1.8190 H     1 <1>   0.1500 
 33 H       -1.8850     3.2070     1.9430 H     1 <1>   0.1500 
 34 H       -2.2170     2.9040    -2.9470 H     1 <1>   0.1500 
 35 H       -3.9750     3.8420     0.8240 H     1 <1>   0.1500 
 36 H        3.9150     3.7090    -2.3200 H     1 <1>   0.0800 
 37 H        3.7780     1.9750    -2.3160 H     1 <1>   0.0800 
 38 H        4.1420     0.9720     0.2480 H     1 <1>   0.0800 
 39 H        3.6240     2.0280     1.5320 H     1 <1>   0.0800 
 40 H       -5.3760     3.5840    -1.1990 H     1 <1>   0.0800 
 41 H       -4.6540     3.2170    -2.7360 H     1 <1>   0.0800 
 42 H        6.0610     1.7780     1.4970 H     1 <1>   0.0800 
 43 H        5.5660     3.4330     1.2820 H     1 <1>   0.0800 
 44 H       -4.4250     5.8790    -1.2970 H     1 <1>   0.0800 
 45 H       -5.4420     5.5590    -2.6840 H     1 <1>   0.0800 
 46 H       -3.7010     5.5080    -2.8430 H     1 <1>   0.0800 
 47 H        5.9080     2.9130    -3.8040 H     1 <1>   0.1500 
 48 H        8.2580     2.3030     0.4650 H     1 <1>   0.1500 
 49 H        8.3500     2.7340    -3.7640 H     1 <1>   0.1500 
 50 H        9.5280     2.4270    -1.6260 H     1 <1>   0.1500 
@<TRIPOS>BOND
  1   1   2  2   
  2   1   3  2   
  3   1   4  am  
  4   1   5  1   
  5   4   6  1   
  6   4   7  1   
  7   5  27  1   
  8   5  28  1   
  9   5  29  1   
 10   6   8  ar  
 11   6   9  ar  
 12   7  10  1   
 13   7  30  1   
 14   7  31  1   
 15   8  11  ar  
 16   8  32  1   
 17   9  12  ar  
 18   9  33  1   
 19  10  13  2   
 20  10  14  am  
 21  11  15  ar  
 22  11  34  1   
 23  12  15  ar  
 24  12  35  1   
 25  14  16  1   
 26  14  17  1   
 27  15  18  1   
 28  16  19  1   
 29  16  36  1   
 30  16  37  1   
 31  17  20  1   
 32  17  38  1   
 33  17  39  1   
 34  18  21  1   
 35  18  40  1   
 36  18  41  1   
 37  19  22  ar  
 38  19  23  ar  
 39  20  22  1   
 40  20  42  1   
 41  20  43  1   
 42  21  44  1   
 43  21  45  1   
 44  21  46  1   
 45  22  24  ar  
 46  23  25  ar  
 47  23  47  1   
 48  24  26  ar  
 49  24  48  1   
 50  25  26  ar  
 51  25  49  1   
 52  26  50  1   
@<TRIPOS>SUBSTRUCTURE
  1 ****  10 GROUP 4 **** **** 0

# MOE 2024.06 (io_trps.svl 2023.06)
