@<TRIPOS>MOLECULE
NONAME
43 45 1 0 0 
SMALL
USER_CHARGES


@<TRIPOS>ATOM
  1 O        1.7510    -1.9770     2.5270 O.2   1 <1>  -0.5700 
  2 C        1.2200    -2.1660     1.4480 C.2   1 <1>   0.5440 
  3 N        1.6860    -1.4770     0.3450 N.am  1 <1>  -0.6600 
  4 C        0.1250    -3.1160     1.3630 C.ar  1 <1>   0.0860 
  5 C        2.5900    -0.3010     0.4820 C.3   1 <1>   0.1400 
  6 C        1.4330    -1.8840    -1.0680 C.3   1 <1>   0.1400 
  7 C       -1.0580    -2.8100     0.7000 C.ar  1 <1>  -0.1500 
  8 C        0.2170    -4.3740     1.9540 C.ar  1 <1>  -0.1500 
  9 C        2.0030     0.8900    -0.2850 C.3   1 <1>  -0.1600 
 10 C        0.8310    -0.7100    -1.8460 C.3   1 <1>  -0.1600 
 11 C       -2.0990    -3.7200     0.5720 C.ar  1 <1>   0.1170 
 12 C       -0.8150    -5.2880     1.8600 C.ar  1 <1>  -0.1500 
 13 C        1.7170     0.5400    -1.7530 C.3   1 <1>  -0.1600 
 14 N       -3.2620    -3.3830    -0.1330 N.am  1 <1>  -0.5470 
 15 C       -1.9740    -4.9750     1.1700 C.ar  1 <1>  -0.1440 
 16 C       -3.4150    -2.6300    -1.2740 C.2   1 <1>   0.7150 
 17 C       -3.0830    -6.0150     1.0730 C.3   1 <1>  -0.0970 
 18 O       -2.4290    -2.2170    -1.8570 O.2   1 <1>  -0.5700 
 19 C       -4.7540    -2.3670    -1.7580 C.2   1 <1>   0.0550 
 20 O       -4.9600    -1.8440    -2.9640 O.3   1 <1>  -0.2800 
 21 C       -5.9700    -2.5690    -1.1710 C.2   1 <1>  -0.1500 
 22 C       -6.2510    -1.7110    -3.1600 C.2   1 <1>  -0.0100 
 23 C       -6.9370    -2.1450    -2.0820 C.2   1 <1>  -0.1500 
 24 H        3.5580    -0.5560     0.0860 H     1 <1>   0.0800 
 25 H        2.7110    -0.0340     1.5180 H     1 <1>   0.0800 
 26 H        0.7760    -2.7340    -1.1220 H     1 <1>   0.0800 
 27 H        2.3690    -2.1680    -1.5170 H     1 <1>   0.0800 
 28 H       -1.1590    -1.8300     0.2710 H     1 <1>   0.1500 
 29 H        1.1150    -4.6260     2.4920 H     1 <1>   0.1500 
 30 H        2.6900     1.7160    -0.2360 H     1 <1>   0.0800 
 31 H        1.0910     1.1930     0.1990 H     1 <1>   0.0800 
 32 H       -0.1480    -0.4930    -1.4550 H     1 <1>   0.0800 
 33 H        0.7080    -0.9930    -2.8760 H     1 <1>   0.0800 
 34 H       -0.7040    -6.2500     2.3310 H     1 <1>   0.1500 
 35 H        2.6470     0.3570    -2.2630 H     1 <1>   0.0800 
 36 H        1.2280     1.3690    -2.2370 H     1 <1>   0.0800 
 37 H       -4.1030    -3.8640     0.1710 H     1 <1>   0.3700 
 38 H       -3.9590    -5.6720     1.5930 H     1 <1>   0.0800 
 39 H       -2.7740    -6.9470     1.5120 H     1 <1>   0.0800 
 40 H       -3.3290    -6.1990     0.0420 H     1 <1>   0.0800 
 41 H       -6.1850    -2.9680    -0.1960 H     1 <1>   0.1500 
 42 H       -6.5980    -1.3000    -4.0920 H     1 <1>   0.1500 
 43 H       -8.0030    -2.1670    -1.9320 H     1 <1>   0.1500 
@<TRIPOS>BOND
  1   1   2  2   
  2   2   3  am  
  3   2   4  1   
  4   3   5  1   
  5   3   6  1   
  6   4   7  ar  
  7   4   8  ar  
  8   5   9  1   
  9   5  24  1   
 10   5  25  1   
 11   6  10  1   
 12   6  26  1   
 13   6  27  1   
 14   7  11  ar  
 15   7  28  1   
 16   8  12  ar  
 17   8  29  1   
 18   9  13  1   
 19   9  30  1   
 20   9  31  1   
 21  10  13  1   
 22  10  32  1   
 23  10  33  1   
 24  11  14  1   
 25  11  15  ar  
 26  12  15  ar  
 27  12  34  1   
 28  13  35  1   
 29  13  36  1   
 30  14  16  am  
 31  14  37  1   
 32  15  17  1   
 33  16  18  2   
 34  16  19  1   
 35  17  38  1   
 36  17  39  1   
 37  17  40  1   
 38  19  20  1   
 39  19  21  2   
 40  20  22  1   
 41  21  23  1   
 42  21  41  1   
 43  22  23  2   
 44  22  42  1   
 45  23  43  1   
@<TRIPOS>SUBSTRUCTURE
  1 ****   7 GROUP 4 **** **** 0

# MOE 2024.06 (io_trps.svl 2023.06)
