@<TRIPOS>MOLECULE
NONAME
51 53 1 0 0 
SMALL
USER_CHARGES


@<TRIPOS>ATOM
  1 O        0.5200     0.4510     2.1970 O.2   1 <1>  -0.5700 
  2 C        0.0670     1.0990     1.2700 C.2   1 <1>   0.5440 
  3 N       -0.0430     0.5080     0.0260 N.am  1 <1>  -0.6600 
  4 C       -0.3420     2.4640     1.5120 C.ar  1 <1>   0.0860 
  5 C       -0.8460     1.1200    -1.0800 C.3   1 <1>   0.1400 
  6 C        0.5200    -0.8570    -0.2300 C.3   1 <1>   0.1400 
  7 C        0.3280     3.5550     0.9300 C.ar  1 <1>   0.1170 
  8 C       -1.4240     2.7090     2.3590 C.ar  1 <1>  -0.1500 
  9 C       -0.4150     0.5710    -2.4440 C.3   1 <1>  -0.1600 
 10 C       -0.3920    -1.6480    -1.1720 C.3   1 <1>  -0.1600 
 11 N        1.4270     3.3190     0.0830 N.am  1 <1>  -0.5470 
 12 C       -0.1240     4.8440     1.2130 C.ar  1 <1>  -0.1500 
 13 C       -1.8570     3.9910     2.6240 C.ar  1 <1>  -0.1500 
 14 C       -0.5590    -0.9570    -2.5360 C.3   1 <1>  -0.1600 
 15 C        2.2040     4.1180    -0.7150 C.2   1 <1>   0.5690 
 16 C       -1.2030     5.0630     2.0460 C.ar  1 <1>  -0.1500 
 17 O        2.0770     5.3160    -0.7970 O.2   1 <1>  -0.5700 
 18 C        3.2890     3.4510    -1.5500 C.3   1 <1>   0.1810 
 19 O        2.8070     2.2440    -2.1290 O.3   1 <1>  -0.3620 
 20 C        3.4940     1.0880    -1.9400 C.ar  1 <1>   0.0820 
 21 C        3.8460     0.5980    -0.6760 C.ar  1 <1>   0.0820 
 22 C        3.8160     0.3660    -3.0770 C.ar  1 <1>  -0.1500 
 23 O        3.4730     1.3030     0.4280 O.3   1 <1>  -0.3630 
 24 C        4.5430    -0.6040    -0.5880 C.ar  1 <1>  -0.1500 
 25 C        4.5030    -0.8300    -2.9770 C.ar  1 <1>  -0.1500 
 26 C        3.5680     0.7520     1.7250 C.3   1 <1>   0.0400 
 27 C        4.8690    -1.3120    -1.7330 C.ar  1 <1>  -0.1500 
 28 H       -0.7330     2.1890    -1.0850 H     1 <1>   0.0800 
 29 H       -1.8870     0.8960    -0.9170 H     1 <1>   0.0800 
 30 H        0.6270    -1.3980     0.6940 H     1 <1>   0.0800 
 31 H        1.4940    -0.7560    -0.6730 H     1 <1>   0.0800 
 32 H       -1.9230     1.8700     2.8130 H     1 <1>   0.1500 
 33 H        0.6130     0.8440    -2.6050 H     1 <1>   0.0800 
 34 H       -0.9940     1.0360    -3.2210 H     1 <1>   0.0800 
 35 H       -1.3520    -1.7540    -0.6970 H     1 <1>   0.0800 
 36 H        0.0090    -2.6360    -1.3150 H     1 <1>   0.0800 
 37 H        1.7070     2.3290     0.0150 H     1 <1>   0.3700 
 38 H        0.3670     5.6970     0.7850 H     1 <1>   0.1500 
 39 H       -2.6950     4.1590     3.2790 H     1 <1>   0.1500 
 40 H        0.1820    -1.3290    -3.2220 H     1 <1>   0.0800 
 41 H       -1.5270    -1.2090    -2.9330 H     1 <1>   0.0800 
 42 H       -1.5320     6.0680     2.2480 H     1 <1>   0.1500 
 43 H        4.1550     3.2530    -0.9460 H     1 <1>   0.0800 
 44 H        3.5720     4.1040    -2.3540 H     1 <1>   0.0800 
 45 H        3.5260     0.7450    -4.0410 H     1 <1>   0.1500 
 46 H        4.8410    -1.0080     0.3610 H     1 <1>   0.1500 
 47 H        4.7530    -1.3840    -3.8660 H     1 <1>   0.1500 
 48 H        3.1060     1.4370     2.4150 H     1 <1>   0.0800 
 49 H        4.6040     0.6220     1.9780 H     1 <1>   0.0800 
 50 H        3.0420    -0.1860     1.7490 H     1 <1>   0.0800 
 51 H        5.4070    -2.2410    -1.6550 H     1 <1>   0.1500 
@<TRIPOS>BOND
  1   1   2  2   
  2   2   3  am  
  3   2   4  1   
  4   3   5  1   
  5   3   6  1   
  6   4   7  ar  
  7   4   8  ar  
  8   5   9  1   
  9   5  28  1   
 10   5  29  1   
 11   6  10  1   
 12   6  30  1   
 13   6  31  1   
 14   7  11  1   
 15   7  12  ar  
 16   8  13  ar  
 17   8  32  1   
 18   9  14  1   
 19   9  33  1   
 20   9  34  1   
 21  10  14  1   
 22  10  35  1   
 23  10  36  1   
 24  11  15  am  
 25  11  37  1   
 26  12  16  ar  
 27  12  38  1   
 28  13  16  ar  
 29  13  39  1   
 30  14  40  1   
 31  14  41  1   
 32  15  17  2   
 33  15  18  1   
 34  16  42  1   
 35  18  19  1   
 36  18  43  1   
 37  18  44  1   
 38  19  20  1   
 39  20  21  ar  
 40  20  22  ar  
 41  21  23  1   
 42  21  24  ar  
 43  22  25  ar  
 44  22  45  1   
 45  23  26  1   
 46  24  27  ar  
 47  24  46  1   
 48  25  27  ar  
 49  25  47  1   
 50  26  48  1   
 51  26  49  1   
 52  26  50  1   
 53  27  51  1   
@<TRIPOS>SUBSTRUCTURE
  1 ****  11 GROUP 4 **** **** 0

# MOE 2024.06 (io_trps.svl 2023.06)
