@<TRIPOS>MOLECULE
NONAME
49 49 1 0 0 
SMALL
USER_CHARGES


@<TRIPOS>ATOM
  1 O       -0.0680    -1.1660     1.2970 O.2   1 <1>  -0.5700 
  2 C        0.0410    -1.8630     0.3090 C.2   1 <1>   0.5440 
  3 N       -1.0280    -2.0480    -0.5280 N.am  1 <1>  -0.7300 
  4 C        1.3120    -2.4910     0.0030 C.ar  1 <1>   0.0860 
  5 C       -2.4190    -1.5180    -0.4340 C.3   1 <1>   0.2200 
  6 C        2.5090    -1.8290     0.2670 C.ar  1 <1>  -0.1500 
  7 C        1.3790    -3.7660    -0.5590 C.ar  1 <1>  -0.1500 
  8 C       -2.4420    -0.0720    -1.0170 C.3   1 <1>  -0.0800 
  9 C       -3.0540    -1.7700     0.9690 C.3   1 <1>  -0.0800 
 10 C        3.7400    -2.3980    -0.0350 C.ar  1 <1>   0.0830 
 11 C        2.5970    -4.3590    -0.8700 C.ar  1 <1>   0.0830 
 12 C       -2.1910     1.0530     0.0020 C.3   1 <1>  -0.2400 
 13 C       -3.7200     0.2260    -1.8190 C.3   1 <1>  -0.2400 
 14 C       -2.9030    -3.2400     1.4100 C.3   1 <1>  -0.2400 
 15 C       -4.5540    -1.4280     1.0220 C.3   1 <1>  -0.2400 
 16 O        4.9230    -1.7630     0.2140 O.3   1 <1>  -0.3630 
 17 C        3.7800    -3.6680    -0.6130 C.ar  1 <1>   0.0830 
 18 O        2.6890    -5.6080    -1.4120 O.3   1 <1>  -0.3630 
 19 C        4.9640    -0.4550     0.7390 C.3   1 <1>   0.0400 
 20 O        4.9700    -4.2300    -0.9450 O.3   1 <1>  -0.3630 
 21 C        1.5490    -6.3880    -1.6960 C.3   1 <1>   0.0400 
 22 C        5.6440    -4.8950     0.0950 C.3   1 <1>   0.0400 
 23 H       -0.8380    -2.5070    -1.4170 H     1 <1>   0.3700 
 24 H       -2.9930    -2.1220    -1.1150 H     1 <1>   0.0800 
 25 H        2.4430    -0.8560     0.7150 H     1 <1>   0.1500 
 26 H        0.4580    -4.2850    -0.7370 H     1 <1>   0.1500 
 27 H       -1.6410    -0.0160    -1.7350 H     1 <1>   0.0800 
 28 H       -2.5560    -1.1520     1.6950 H     1 <1>   0.0800 
 29 H       -2.9720     1.1010     0.7380 H     1 <1>   0.0800 
 30 H       -2.1420     2.0030    -0.4990 H     1 <1>   0.0800 
 31 H       -1.2570     0.9010     0.5090 H     1 <1>   0.0800 
 32 H       -4.5870     0.2740    -1.1880 H     1 <1>   0.0800 
 33 H       -3.8810    -0.5300    -2.5670 H     1 <1>   0.0800 
 34 H       -3.6250     1.1730    -2.3210 H     1 <1>   0.0800 
 35 H       -3.3530    -3.9010     0.6910 H     1 <1>   0.0800 
 36 H       -3.3740    -3.3950     2.3640 H     1 <1>   0.0800 
 37 H       -1.8670    -3.5010     1.5200 H     1 <1>   0.0800 
 38 H       -5.0900    -1.9400     0.2430 H     1 <1>   0.0800 
 39 H       -4.7110    -0.3710     0.9210 H     1 <1>   0.0800 
 40 H       -4.9700    -1.7180     1.9700 H     1 <1>   0.0800 
 41 H        5.9950    -0.1630     0.8240 H     1 <1>   0.0800 
 42 H        4.5030    -0.4530     1.7110 H     1 <1>   0.0800 
 43 H        4.4500     0.2080     0.0660 H     1 <1>   0.0800 
 44 H        1.8810    -7.3230    -2.1090 H     1 <1>   0.0800 
 45 H        0.9410    -5.8690    -2.4150 H     1 <1>   0.0800 
 46 H        1.0090    -6.5640    -0.7830 H     1 <1>   0.0800 
 47 H        6.5570    -5.2980    -0.3010 H     1 <1>   0.0800 
 48 H        5.0160    -5.6880     0.4610 H     1 <1>   0.0800 
 49 H        5.8590    -4.1900     0.8790 H     1 <1>   0.0800 
@<TRIPOS>BOND
  1   1   2  2   
  2   2   3  am  
  3   2   4  1   
  4   3   5  1   
  5   3  23  1   
  6   4   6  ar  
  7   4   7  ar  
  8   5   8  1   
  9   5   9  1   
 10   5  24  1   
 11   6  10  ar  
 12   6  25  1   
 13   7  11  ar  
 14   7  26  1   
 15   8  12  1   
 16   8  13  1   
 17   8  27  1   
 18   9  14  1   
 19   9  15  1   
 20   9  28  1   
 21  10  16  1   
 22  10  17  ar  
 23  11  17  ar  
 24  11  18  1   
 25  12  29  1   
 26  12  30  1   
 27  12  31  1   
 28  13  32  1   
 29  13  33  1   
 30  13  34  1   
 31  14  35  1   
 32  14  36  1   
 33  14  37  1   
 34  15  38  1   
 35  15  39  1   
 36  15  40  1   
 37  16  19  1   
 38  17  20  1   
 39  18  21  1   
 40  19  41  1   
 41  19  42  1   
 42  19  43  1   
 43  20  22  1   
 44  21  44  1   
 45  21  45  1   
 46  21  46  1   
 47  22  47  1   
 48  22  48  1   
 49  22  49  1   
@<TRIPOS>SUBSTRUCTURE
  1 ****   4 GROUP 4 **** **** 0

# MOE 2024.06 (io_trps.svl 2023.06)
