@<TRIPOS>MOLECULE
NONAME
34 34 1 0 0 
SMALL
USER_CHARGES


@<TRIPOS>ATOM
  1 CL       0.5220    -0.0300     0.0090 Cl    1 <1>  -0.1770 
  2 C        0.2640     1.7080     0.0030 C.ar  1 <1>   0.1770 
  3 C        1.3880     2.5310     0.0000 C.ar  1 <1>   0.0820 
  4 C       -1.0250     2.2270     0.0010 C.ar  1 <1>  -0.1440 
  5 O        2.6110     1.9340     0.0030 O.3   1 <1>  -0.3630 
  6 C        1.2180     3.9130    -0.0040 C.ar  1 <1>  -0.1500 
  7 C       -1.1570     3.6100    -0.0040 C.ar  1 <1>   0.1770 
  8 C       -2.2740     1.3460     0.0040 C.3   1 <1>  -0.0960 
  9 C        3.8110     2.6630    -0.0010 C.3   1 <1>   0.1200 
 10 C       -0.0560     4.4590    -0.0060 C.ar  1 <1>  -0.1430 
 11 CL      -2.7640     4.3130    -0.0060 Cl    1 <1>  -0.1770 
 12 C        4.9460     1.6360     0.0020 C.3   1 <1>   0.3430 
 13 C       -0.2370     5.9710    -0.0110 C.3   1 <1>  -0.0960 
 14 N        6.2920     2.2840    -0.0020 N.4   1 <1>  -0.9060 
 15 C        7.3830     1.2860     0.0010 C.3   1 <1>   0.3430 
 16 C        8.7080     2.0330    -0.0030 C.3   1 <1>  -0.2400 
 17 H        2.0600     4.5780    -0.0060 H     1 <1>   0.1500 
 18 H       -2.0430     0.2980     0.0090 H     1 <1>   0.0800 
 19 H       -2.8660     1.5500    -0.8710 H     1 <1>   0.0800 
 20 H       -2.8670     1.5570     0.8760 H     1 <1>   0.0800 
 21 H        3.8330     3.2730     0.8850 H     1 <1>   0.0800 
 22 H        3.8320     3.2660    -0.8920 H     1 <1>   0.0800 
 23 H        4.8430     1.0090    -0.8700 H     1 <1>   0.0800 
 24 H        4.8450     1.0160     0.8790 H     1 <1>   0.0800 
 25 H        0.7090     6.4800    -0.0130 H     1 <1>   0.0800 
 26 H       -0.7860     6.2780     0.8610 H     1 <1>   0.0800 
 27 H       -0.7860     6.2720    -0.8860 H     1 <1>   0.0800 
 28 H        6.3980     2.8890     0.8230 H     1 <1>   0.4500 
 29 H        6.3970     2.8820    -0.8320 H     1 <1>   0.4500 
 30 H        7.3160     0.6550    -0.8720 H     1 <1>   0.0800 
 31 H        7.3180     0.6620     0.8800 H     1 <1>   0.0800 
 32 H        8.8080     2.6390    -0.8860 H     1 <1>   0.0800 
 33 H        9.5150     1.3210    -0.0010 H     1 <1>   0.0800 
 34 H        8.8090     2.6470     0.8740 H     1 <1>   0.0800 
@<TRIPOS>BOND
  1   1   2  1   
  2   2   3  ar  
  3   2   4  ar  
  4   3   5  1   
  5   3   6  ar  
  6   4   7  ar  
  7   4   8  1   
  8   5   9  1   
  9   6  10  ar  
 10   6  17  1   
 11   7  10  ar  
 12   7  11  1   
 13   8  18  1   
 14   8  19  1   
 15   8  20  1   
 16   9  12  1   
 17   9  21  1   
 18   9  22  1   
 19  10  13  1   
 20  12  14  1   
 21  12  23  1   
 22  12  24  1   
 23  13  25  1   
 24  13  26  1   
 25  13  27  1   
 26  14  15  1   
 27  14  28  1   
 28  14  29  1   
 29  15  16  1   
 30  15  30  1   
 31  15  31  1   
 32  16  32  1   
 33  16  33  1   
 34  16  34  1   
@<TRIPOS>SUBSTRUCTURE
  1 ****   3 GROUP 4 **** **** 0

# MOE 2024.06 (io_trps.svl 2023.06)
