@<TRIPOS>MOLECULE
NONAME
42 45 1 0 0 
SMALL
USER_CHARGES


@<TRIPOS>ATOM
  1 S       -0.3350     0.6910    -0.2070 S.3   1 <1>  -0.0800 
  2 C       -1.3080    -0.3140     0.8510 C.2   1 <1>  -0.0360 
  3 C        0.6720    -0.6720    -0.6580 C.2   1 <1>  -0.1400 
  4 N       -2.3890     0.2980     1.5180 N.pl3 1 <1>   0.6460 
  5 C       -0.8590    -1.5950     0.8450 C.2   1 <1>   0.0190 
  6 C        0.2750    -1.7930    -0.0230 C.2   1 <1>  -0.1810 
  7 C        1.7760    -0.3980    -1.6610 C.3   1 <1>   0.0200 
  8 N       -2.2420     1.2590     2.4310 N.2   1 <1>  -0.7070 
  9 C       -3.7050    -0.0260     1.4520 C.2   1 <1>   0.1330 
 10 C       -1.4350    -2.6570     1.6200 C.1   1 <1>   0.5380 
 11 C        0.9110    -3.1780    -0.1570 C.3   1 <1>   0.0210 
 12 C        3.1660    -0.8160    -1.1560 C.3   1 <1>  -0.1600 
 13 C       -3.4470     1.4420     2.8490 C.2   1 <1>   0.3660 
 14 N       -4.3910     0.6820     2.2930 N.2   1 <1>  -0.5650 
 15 C       -4.2370    -1.0330     0.5670 C.ar  1 <1>   0.0530 
 16 N       -1.8870    -3.4980     2.2430 N.1   1 <1>  -0.5570 
 17 C        2.2340    -3.2280    -0.9420 C.3   1 <1>  -0.1600 
 18 C        3.2530    -2.1850    -0.4510 C.3   1 <1>  -0.1600 
 19 C       -3.9490    -1.0400    -0.7970 C.ar  1 <1>  -0.1500 
 20 C       -5.0480    -2.0510     1.0610 C.ar  1 <1>  -0.1500 
 21 C       -4.4340    -2.0340    -1.6270 C.ar  1 <1>  -0.1500 
 22 C       -5.5350    -3.0460     0.2350 C.ar  1 <1>  -0.1500 
 23 C       -5.2290    -3.0450    -1.1160 C.ar  1 <1>  -0.1430 
 24 C       -5.7610    -4.1420    -2.0200 C.3   1 <1>  -0.0970 
 25 H        1.7960     0.6500    -1.9050 H     1 <1>   0.0800 
 26 H        1.5460    -0.9270    -2.5690 H     1 <1>   0.0800 
 27 H        0.2060    -3.8460    -0.6210 H     1 <1>   0.0800 
 28 H        1.1080    -3.5560     0.8320 H     1 <1>   0.0800 
 29 H        3.5230    -0.0650    -0.4730 H     1 <1>   0.0800 
 30 H        3.8340    -0.8180    -1.9990 H     1 <1>   0.0800 
 31 H       -3.7030     2.1650     3.6090 H     1 <1>   0.1500 
 32 H        2.0520    -3.1180    -1.9960 H     1 <1>   0.0800 
 33 H        2.6560    -4.2090    -0.8020 H     1 <1>   0.0800 
 34 H        3.1300    -2.0440     0.6100 H     1 <1>   0.0800 
 35 H        4.2470    -2.5700    -0.5980 H     1 <1>   0.0800 
 36 H       -3.3410    -0.2590    -1.2200 H     1 <1>   0.1500 
 37 H       -5.2920    -2.0610     2.1090 H     1 <1>   0.1500 
 38 H       -4.1920    -2.0170    -2.6760 H     1 <1>   0.1500 
 39 H       -6.1520    -3.8240     0.6490 H     1 <1>   0.1500 
 40 H       -5.8340    -3.7940    -3.0350 H     1 <1>   0.0800 
 41 H       -6.7390    -4.4510    -1.6970 H     1 <1>   0.0800 
 42 H       -5.1010    -4.9900    -1.9900 H     1 <1>   0.0800 
@<TRIPOS>BOND
  1   1   2  1   
  2   1   3  1   
  3   2   4  1   
  4   2   5  2   
  5   3   6  2   
  6   3   7  1   
  7   4   8  1   
  8   4   9  1   
  9   5   6  1   
 10   5  10  1   
 11   6  11  1   
 12   7  12  1   
 13   7  25  1   
 14   7  26  1   
 15   8  13  2   
 16   9  14  2   
 17   9  15  1   
 18  10  16  3   
 19  11  17  1   
 20  11  27  1   
 21  11  28  1   
 22  12  18  1   
 23  12  29  1   
 24  12  30  1   
 25  13  14  1   
 26  13  31  1   
 27  15  19  ar  
 28  15  20  ar  
 29  17  18  1   
 30  17  32  1   
 31  17  33  1   
 32  18  34  1   
 33  18  35  1   
 34  19  21  ar  
 35  19  36  1   
 36  20  22  ar  
 37  20  37  1   
 38  21  23  ar  
 39  21  38  1   
 40  22  23  ar  
 41  22  39  1   
 42  23  24  1   
 43  24  40  1   
 44  24  41  1   
 45  24  42  1   
@<TRIPOS>SUBSTRUCTURE
  1 ****   5 GROUP 4 **** **** 0

# MOE 2024.06 (io_trps.svl 2023.06)
