@<TRIPOS>MOLECULE
NONAME
30 31 1 0 0 
SMALL
USER_CHARGES


@<TRIPOS>ATOM
  1 BR       2.3240    -0.4470    -2.4120 Br    1 <1>  -0.1110 
  2 C        2.4210     0.8440    -0.9830 C.ar  1 <1>   0.1110 
  3 C        2.7080     0.4490     0.3200 C.ar  1 <1>  -0.0090 
  4 C        2.1910     2.1620    -1.3430 C.ar  1 <1>  -0.1500 
  5 S        3.0150    -1.2760     0.7730 S.o2  1 <1>   1.4470 
  6 C        2.7540     1.4560     1.2810 C.ar  1 <1>  -0.1500 
  7 C        2.2450     3.1430    -0.3700 C.ar  1 <1>  -0.1500 
  8 O        3.4180    -1.3370     2.1620 O.2   1 <1>  -0.6500 
  9 O        1.9020    -2.0930     0.3420 O.2   1 <1>  -0.6500 
 10 N        4.3800    -1.6940    -0.1420 N.am  1 <1>  -0.8490 
 11 C        2.5270     2.7750     0.9330 C.ar  1 <1>   0.1770 
 12 C        5.6180    -1.1360     0.4100 C.3   1 <1>   0.1960 
 13 C        4.4870    -3.1440    -0.3280 C.3   1 <1>   0.1960 
 14 CL       2.5990     4.0050     2.1670 Cl    1 <1>  -0.1770 
 15 C        6.7840    -1.3820    -0.5530 C.3   1 <1>  -0.1600 
 16 C        5.6220    -3.4720    -1.3050 C.3   1 <1>  -0.1600 
 17 C        6.9570    -2.8770    -0.8420 C.3   1 <1>  -0.1600 
 18 H        1.9730     2.4110    -2.3680 H     1 <1>   0.1500 
 19 H        2.9680     1.2160     2.3090 H     1 <1>   0.1500 
 20 H        2.0720     4.1770    -0.6120 H     1 <1>   0.1500 
 21 H        5.8330    -1.5900     1.3650 H     1 <1>   0.0800 
 22 H        5.5060    -0.0760     0.5590 H     1 <1>   0.0800 
 23 H        3.5670    -3.5300    -0.7360 H     1 <1>   0.0800 
 24 H        4.6610    -3.6230     0.6220 H     1 <1>   0.0800 
 25 H        7.6890    -0.9880    -0.1270 H     1 <1>   0.0800 
 26 H        6.5930    -0.8530    -1.4710 H     1 <1>   0.0800 
 27 H        5.3650    -3.0770    -2.2730 H     1 <1>   0.0800 
 28 H        5.7130    -4.5390    -1.4000 H     1 <1>   0.0800 
 29 H        7.2810    -3.3800     0.0540 H     1 <1>   0.0800 
 30 H        7.7080    -3.0230    -1.5990 H     1 <1>   0.0800 
@<TRIPOS>BOND
  1   1   2  1   
  2   2   3  ar  
  3   2   4  ar  
  4   3   5  1   
  5   3   6  ar  
  6   4   7  ar  
  7   4  18  1   
  8   5   8  2   
  9   5   9  2   
 10   5  10  am  
 11   6  11  ar  
 12   6  19  1   
 13   7  11  ar  
 14   7  20  1   
 15  10  12  1   
 16  10  13  1   
 17  11  14  1   
 18  12  15  1   
 19  12  21  1   
 20  12  22  1   
 21  13  16  1   
 22  13  23  1   
 23  13  24  1   
 24  15  17  1   
 25  15  25  1   
 26  15  26  1   
 27  16  17  1   
 28  16  27  1   
 29  16  28  1   
 30  17  29  1   
 31  17  30  1   
@<TRIPOS>SUBSTRUCTURE
  1 ****   3 GROUP 4 **** **** 0

# MOE 2024.06 (io_trps.svl 2023.06)
