@<TRIPOS>MOLECULE
NONAME
45 47 1 0 0 
SMALL
USER_CHARGES


@<TRIPOS>ATOM
  1 S        0.6040     0.2090    -1.8540 S.o2  1 <1>   1.4470 
  2 O        0.0610     1.0870    -2.8670 O.2   1 <1>  -0.6500 
  3 O        1.6200    -0.7500    -2.2270 O.2   1 <1>  -0.6500 
  4 N        1.2500     1.2200    -0.6670 N.am  1 <1>  -0.8490 
  5 C       -0.7530    -0.6210    -0.9810 C.ar  1 <1>  -0.0090 
  6 C        1.8740     0.4530     0.3880 C.3   1 <1>   0.5510 
  7 C        2.2700     2.1260    -1.1970 C.3   1 <1>   0.1960 
  8 C       -1.8930     0.0800    -0.6070 C.ar  1 <1>  -0.1500 
  9 C       -0.6760    -1.9650    -0.6370 C.ar  1 <1>  -0.1500 
 10 N        3.2730     0.5080     0.1130 N.am  1 <1>  -0.8490 
 11 C        3.5120     1.8490    -0.3720 C.3   1 <1>   0.1960 
 12 C       -2.9190    -0.5360     0.0880 C.ar  1 <1>  -0.1500 
 13 C       -1.6980    -2.5880     0.0580 C.ar  1 <1>  -0.1500 
 14 S        4.1430     0.0460     1.4780 S.o2  1 <1>   1.4470 
 15 C       -2.8260    -1.8750     0.4270 C.ar  1 <1>  -0.1440 
 16 O        4.1410     1.1880     2.3660 O.2   1 <1>  -0.6500 
 17 O        3.5420    -1.1890     1.9280 O.2   1 <1>  -0.6500 
 18 C        5.8030    -0.2610     0.8190 C.ar  1 <1>  -0.0090 
 19 C       -3.9470    -2.5590     1.1880 C.3   1 <1>  -0.0970 
 20 C        5.9840    -1.0190    -0.3320 C.ar  1 <1>  -0.1500 
 21 C        6.9350     0.2470     1.4450 C.ar  1 <1>  -0.1500 
 22 C        7.2480    -1.2570    -0.8440 C.ar  1 <1>  -0.1500 
 23 C        8.2010     0.0130     0.9380 C.ar  1 <1>  -0.1500 
 24 C        8.3650    -0.7420    -0.2100 C.ar  1 <1>  -0.1430 
 25 C        9.7510    -1.0010    -0.7720 C.3   1 <1>  -0.0970 
 26 H        1.5290    -0.5690     0.4250 H     1 <1>   0.0800 
 27 H        1.6640     0.9260     1.3360 H     1 <1>   0.0800 
 28 H        1.9570     3.1510    -1.0990 H     1 <1>   0.0800 
 29 H        2.4760     1.9220    -2.2350 H     1 <1>   0.0800 
 30 H       -1.9770     1.1230    -0.8640 H     1 <1>   0.1500 
 31 H        0.1950    -2.5360    -0.9160 H     1 <1>   0.1500 
 32 H        3.5660     2.5590     0.4360 H     1 <1>   0.0800 
 33 H        4.4100     1.9010    -0.9650 H     1 <1>   0.0800 
 34 H       -3.7910     0.0320     0.3620 H     1 <1>   0.1500 
 35 H       -1.6120    -3.6310     0.3100 H     1 <1>   0.1500 
 36 H       -4.5180    -1.8400     1.7480 H     1 <1>   0.0800 
 37 H       -3.5460    -3.2820     1.8750 H     1 <1>   0.0800 
 38 H       -4.6000    -3.0600     0.4980 H     1 <1>   0.0800 
 39 H        5.1220    -1.4270    -0.8360 H     1 <1>   0.1500 
 40 H        6.8250     0.8350     2.3410 H     1 <1>   0.1500 
 41 H        7.3560    -1.8460    -1.7390 H     1 <1>   0.1500 
 42 H        9.0590     0.4210     1.4440 H     1 <1>   0.1500 
 43 H        9.7940    -1.9760    -1.2250 H     1 <1>   0.0800 
 44 H       10.4900    -0.9580     0.0080 H     1 <1>   0.0800 
 45 H        9.9860    -0.2620    -1.5160 H     1 <1>   0.0800 
@<TRIPOS>BOND
  1   1   2  2   
  2   1   3  2   
  3   1   4  am  
  4   1   5  1   
  5   4   6  1   
  6   4   7  1   
  7   5   8  ar  
  8   5   9  ar  
  9   6  10  1   
 10   6  26  1   
 11   6  27  1   
 12   7  11  1   
 13   7  28  1   
 14   7  29  1   
 15   8  12  ar  
 16   8  30  1   
 17   9  13  ar  
 18   9  31  1   
 19  10  11  1   
 20  10  14  am  
 21  11  32  1   
 22  11  33  1   
 23  12  15  ar  
 24  12  34  1   
 25  13  15  ar  
 26  13  35  1   
 27  14  16  2   
 28  14  17  2   
 29  14  18  1   
 30  15  19  1   
 31  18  20  ar  
 32  18  21  ar  
 33  19  36  1   
 34  19  37  1   
 35  19  38  1   
 36  20  22  ar  
 37  20  39  1   
 38  21  23  ar  
 39  21  40  1   
 40  22  24  ar  
 41  22  41  1   
 42  23  24  ar  
 43  23  42  1   
 44  24  25  1   
 45  25  43  1   
 46  25  44  1   
 47  25  45  1   
@<TRIPOS>SUBSTRUCTURE
  1 ****  10 GROUP 4 **** **** 0

# MOE 2024.06 (io_trps.svl 2023.06)
