@<TRIPOS>MOLECULE
NONAME
43 44 1 0 0 
SMALL
USER_CHARGES


@<TRIPOS>ATOM
  1 S       -0.0010    -0.5750    -1.2910 S.o2  1 <1>   1.4470 
  2 O        0.4350    -1.3700    -2.4210 O.2   1 <1>  -0.6500 
  3 O        0.1050     0.8660    -1.3840 O.2   1 <1>  -0.6500 
  4 N        0.9540    -1.0810     0.0190 N.am  1 <1>  -0.8490 
  5 C       -1.7050    -1.0380    -0.8220 C.ar  1 <1>  -0.0090 
  6 C        2.3190    -0.5500    -0.0840 C.3   1 <1>   0.1960 
  7 C        0.9190    -2.5400     0.1730 C.3   1 <1>   0.1960 
  8 C       -2.4300    -0.4380     0.2180 C.ar  1 <1>  -0.1440 
  9 C       -2.3190    -2.0590    -1.5380 C.ar  1 <1>  -0.1500 
 10 C        2.9420    -0.4090     1.3070 C.3   1 <1>  -0.1600 
 11 C        1.5530    -3.0310     1.4800 C.3   1 <1>  -0.1600 
 12 C       -3.7390    -0.8430     0.4980 C.ar  1 <1>  -0.1440 
 13 C       -1.7830     0.6810     1.0440 C.3   1 <1>  -0.0970 
 14 C       -3.5990    -2.4840    -1.2530 C.ar  1 <1>  -0.1500 
 15 C        3.6990    -1.6450     1.8200 C.3   1 <1>  -0.1600 
 16 C        3.0880    -3.0040     1.4550 C.3   1 <1>  -0.1600 
 17 C       -4.3190    -1.8810    -0.2310 C.ar  1 <1>   0.0830 
 18 C       -4.5560    -0.1560     1.5980 C.3   1 <1>  -0.0970 
 19 O       -5.5820    -2.2770     0.0840 O.3   1 <1>  -0.3620 
 20 C       -6.2560    -3.2930    -0.6240 C.3   1 <1>   0.0400 
 21 H        2.2890     0.4380    -0.5110 H     1 <1>   0.0800 
 22 H        2.9250    -1.1610    -0.7330 H     1 <1>   0.0800 
 23 H        1.3980    -3.0120    -0.6700 H     1 <1>   0.0800 
 24 H       -0.1080    -2.8620     0.1810 H     1 <1>   0.0800 
 25 H       -1.7860    -2.5370    -2.3420 H     1 <1>   0.1500 
 26 H        2.1690    -0.1360     2.0050 H     1 <1>   0.0800 
 27 H        3.6380     0.4110     1.2820 H     1 <1>   0.0800 
 28 H        1.2500    -4.0550     1.6090 H     1 <1>   0.0800 
 29 H        1.1630    -2.4780     2.3170 H     1 <1>   0.0800 
 30 H       -1.9510     1.6280     0.5640 H     1 <1>   0.0800 
 31 H       -0.7260     0.5410     1.1570 H     1 <1>   0.0800 
 32 H       -2.1770     0.7250     2.0420 H     1 <1>   0.0800 
 33 H       -4.0140    -3.2810    -1.8390 H     1 <1>   0.1500 
 34 H        3.7650    -1.5700     2.8920 H     1 <1>   0.0800 
 35 H        4.7060    -1.6210     1.4410 H     1 <1>   0.0800 
 36 H        3.4330    -3.3040     0.4800 H     1 <1>   0.0800 
 37 H        3.4600    -3.7330     2.1550 H     1 <1>   0.0800 
 38 H       -4.2260    -0.4970     2.5620 H     1 <1>   0.0800 
 39 H       -5.6070    -0.3570     1.5130 H     1 <1>   0.0800 
 40 H       -4.4410     0.9110     1.5410 H     1 <1>   0.0800 
 41 H       -7.2350    -3.4050    -0.1930 H     1 <1>   0.0800 
 42 H       -5.7060    -4.2120    -0.5240 H     1 <1>   0.0800 
 43 H       -6.3420    -3.0020    -1.6550 H     1 <1>   0.0800 
@<TRIPOS>BOND
  1   1   2  2   
  2   1   3  2   
  3   1   4  am  
  4   1   5  1   
  5   4   6  1   
  6   4   7  1   
  7   5   8  ar  
  8   5   9  ar  
  9   6  10  1   
 10   6  21  1   
 11   6  22  1   
 12   7  11  1   
 13   7  23  1   
 14   7  24  1   
 15   8  12  ar  
 16   8  13  1   
 17   9  14  ar  
 18   9  25  1   
 19  10  15  1   
 20  10  26  1   
 21  10  27  1   
 22  11  16  1   
 23  11  28  1   
 24  11  29  1   
 25  12  17  ar  
 26  12  18  1   
 27  13  30  1   
 28  13  31  1   
 29  13  32  1   
 30  14  17  ar  
 31  14  33  1   
 32  15  16  1   
 33  15  34  1   
 34  15  35  1   
 35  16  36  1   
 36  16  37  1   
 37  17  19  1   
 38  18  38  1   
 39  18  39  1   
 40  18  40  1   
 41  19  20  1   
 42  20  41  1   
 43  20  42  1   
 44  20  43  1   
@<TRIPOS>SUBSTRUCTURE
  1 ****   5 GROUP 4 **** **** 0

# MOE 2024.06 (io_trps.svl 2023.06)
