@<TRIPOS>MOLECULE
NONAME
27 27 1 0 0 
SMALL
USER_CHARGES


@<TRIPOS>ATOM
  1 CL       1.2050     0.8590    -3.0430 Cl    1 <1>  -0.1770 
  2 C        2.2590    -0.2530    -2.2020 C.ar  1 <1>   0.1770 
  3 C        3.5500    -0.4460    -2.6580 C.ar  1 <1>  -0.1500 
  4 C        1.7890    -0.9330    -1.0940 C.ar  1 <1>  -0.1500 
  5 C        4.3820    -1.3210    -1.9890 C.ar  1 <1>  -0.1500 
  6 C        2.6320    -1.8030    -0.4310 C.ar  1 <1>  -0.1500 
  7 C        3.9620    -2.0110    -0.8340 C.ar  1 <1>   0.0860 
  8 C        4.7970    -2.8960    -0.0850 C.2   1 <1>   0.3030 
  9 N        4.2910    -4.0650     0.2260 N.2   1 <1>  -0.8000 
 10 C        6.2330    -2.3980     0.3220 C.3   1 <1>   0.3170 
 11 O        5.0380    -4.8380     0.7930 O.3   1 <1>  -0.6500 
 12 N        6.2370    -0.9010     0.2830 N.4   1 <1>  -0.2260 
 13 C        6.6490    -2.7300     1.7730 C.3   1 <1>  -0.2400 
 14 C        7.2870    -2.9750    -0.6430 C.3   1 <1>  -0.2400 
 15 O        7.4720    -0.3070     0.1860 O.2   1 <1>  -0.7500 
 16 H        3.8870     0.0800    -3.5340 H     1 <1>   0.1500 
 17 H        0.7760    -0.7870    -0.7640 H     1 <1>   0.1500 
 18 H        5.3730    -1.4920    -2.3700 H     1 <1>   0.1500 
 19 H        2.2790    -2.3610     0.4220 H     1 <1>   0.1500 
 20 H        5.7880    -0.5770     1.1430 H     1 <1>   0.3600 
 21 H        5.6690    -0.5880    -0.5070 H     1 <1>   0.3600 
 22 H        6.8970    -3.7710     1.8610 H     1 <1>   0.0800 
 23 H        5.8340    -2.5350     2.4450 H     1 <1>   0.0800 
 24 H        7.5170    -2.1680     2.0660 H     1 <1>   0.0800 
 25 H        7.2250    -4.0490    -0.6180 H     1 <1>   0.0800 
 26 H        8.2770    -2.6860    -0.3410 H     1 <1>   0.0800 
 27 H        7.1160    -2.6530    -1.6500 H     1 <1>   0.0800 
@<TRIPOS>BOND
  1   1   2  1   
  2   2   3  ar  
  3   2   4  ar  
  4   3   5  ar  
  5   3  16  1   
  6   4   6  ar  
  7   4  17  1   
  8   5   7  ar  
  9   5  18  1   
 10   6   7  ar  
 11   6  19  1   
 12   7   8  1   
 13   8   9  2   
 14   8  10  1   
 15   9  11  1   
 16  10  12  1   
 17  10  13  1   
 18  10  14  1   
 19  12  15  2   
 20  12  20  1   
 21  12  21  1   
 22  13  22  1   
 23  13  23  1   
 24  13  24  1   
 25  14  25  1   
 26  14  26  1   
 27  14  27  1   
@<TRIPOS>SUBSTRUCTURE
  1 ****   7 GROUP 4 **** **** 0

# MOE 2024.06 (io_trps.svl 2023.06)
