@<TRIPOS>MOLECULE
NONAME
37 37 1 0 0 
SMALL
USER_CHARGES


@<TRIPOS>ATOM
  1 BR       0.7100     0.5420    -2.3040 Br    1 <1>  -0.1110 
  2 C       -0.7690     1.0930    -1.1900 C.ar  1 <1>   0.1110 
  3 C       -0.6440     2.2040    -0.3630 C.ar  1 <1>   0.0830 
  4 C       -1.9360     0.3550    -1.2500 C.ar  1 <1>  -0.1500 
  5 O        0.4960     2.9280    -0.3020 O.3   1 <1>  -0.3630 
  6 C       -1.7320     2.5890     0.4060 C.ar  1 <1>  -0.1500 
  7 C       -3.0120     0.7440    -0.4680 C.ar  1 <1>  -0.1500 
  8 C        1.5520     2.3800     0.4460 C.3   1 <1>   0.1200 
  9 C       -2.9090     1.8570     0.3540 C.ar  1 <1>  -0.1500 
 10 C        2.8480     2.9600    -0.1170 C.3   1 <1>  -0.1600 
 11 C        4.0630     2.3440     0.5720 C.3   1 <1>   0.3430 
 12 N        5.3230     2.7820    -0.0960 N.4   1 <1>  -0.9590 
 13 C        6.4540     1.9120     0.3250 C.3   1 <1>   0.3430 
 14 C        5.6120     4.2250     0.1340 C.3   1 <1>   0.3430 
 15 C        7.6160     2.0640    -0.6490 C.3   1 <1>  -0.2400 
 16 C        5.5560     4.9470    -1.2060 C.3   1 <1>  -0.2400 
 17 H       -2.0030    -0.5020    -1.8970 H     1 <1>   0.1500 
 18 H       -1.6570     3.4560     1.0370 H     1 <1>   0.1500 
 19 H       -3.9310     0.1830    -0.5010 H     1 <1>   0.1500 
 20 H        1.5320     1.3080     0.3500 H     1 <1>   0.0800 
 21 H        1.4040     2.6530     1.4780 H     1 <1>   0.0800 
 22 H       -3.7510     2.1580     0.9540 H     1 <1>   0.1500 
 23 H        2.8330     4.0250     0.0280 H     1 <1>   0.0800 
 24 H        2.8830     2.7400    -1.1700 H     1 <1>   0.0800 
 25 H        3.9830     1.2690     0.5110 H     1 <1>   0.0800 
 26 H        4.0780     2.6210     1.6140 H     1 <1>   0.0800 
 27 H        5.1990     2.6530    -1.1100 H     1 <1>   0.4500 
 28 H        6.1380     0.8810     0.3260 H     1 <1>   0.0800 
 29 H        6.7710     2.1680     1.3250 H     1 <1>   0.0800 
 30 H        6.5910     4.3480     0.5700 H     1 <1>   0.0800 
 31 H        4.8870     4.6530     0.8090 H     1 <1>   0.0800 
 32 H        7.3100     1.8230    -1.6520 H     1 <1>   0.0800 
 33 H        8.3990     1.3810    -0.3710 H     1 <1>   0.0800 
 34 H        8.0270     3.0570    -0.6230 H     1 <1>   0.0800 
 35 H        6.2940     4.5590    -1.8840 H     1 <1>   0.0800 
 36 H        5.7650     5.9910    -1.0530 H     1 <1>   0.0800 
 37 H        4.5790     4.8680    -1.6490 H     1 <1>   0.0800 
@<TRIPOS>BOND
  1   1   2  1   
  2   2   3  ar  
  3   2   4  ar  
  4   3   5  1   
  5   3   6  ar  
  6   4   7  ar  
  7   4  17  1   
  8   5   8  1   
  9   6   9  ar  
 10   6  18  1   
 11   7   9  ar  
 12   7  19  1   
 13   8  10  1   
 14   8  20  1   
 15   8  21  1   
 16   9  22  1   
 17  10  11  1   
 18  10  23  1   
 19  10  24  1   
 20  11  12  1   
 21  11  25  1   
 22  11  26  1   
 23  12  13  1   
 24  12  14  1   
 25  12  27  1   
 26  13  15  1   
 27  13  28  1   
 28  13  29  1   
 29  14  16  1   
 30  14  30  1   
 31  14  31  1   
 32  15  32  1   
 33  15  33  1   
 34  15  34  1   
 35  16  35  1   
 36  16  36  1   
 37  16  37  1   
@<TRIPOS>SUBSTRUCTURE
  1 ****   8 GROUP 4 **** **** 0

# MOE 2024.06 (io_trps.svl 2023.06)
