@<TRIPOS>MOLECULE
NONAME
42 43 1 0 0 
SMALL
USER_CHARGES


@<TRIPOS>ATOM
  1 O        0.1440     3.2570     1.2860 O.3   1 <1>  -0.3630 
  2 C        0.6740     4.4710     0.9990 C.ar  1 <1>   0.0830 
  3 C       -1.0220     2.8780     0.5770 C.3   1 <1>   0.2640 
  4 C        1.2840     4.7270    -0.2300 C.ar  1 <1>   0.0830 
  5 C        0.6370     5.4550     1.9720 C.ar  1 <1>  -0.1500 
  6 C       -0.8400     1.4300     0.1480 C.ar  1 <1>  -0.1440 
  7 O        1.3480     3.7520    -1.1710 O.3   1 <1>  -0.3630 
  8 C        1.8220     5.9780    -0.4860 C.ar  1 <1>  -0.1500 
  9 C        1.1870     6.7000     1.7150 C.ar  1 <1>  -0.1500 
 10 C       -0.9640     0.4080     1.0770 C.ar  1 <1>  -0.1500 
 11 C       -0.5500     1.1180    -1.1710 C.ar  1 <1>  -0.1500 
 12 C        2.6260     3.2680    -1.5380 C.3   1 <1>   0.1200 
 13 C        1.7750     6.9620     0.4880 C.ar  1 <1>  -0.1500 
 14 C       -0.7890    -0.9110     0.6940 C.ar  1 <1>  -0.1500 
 15 C       -0.3710    -0.2000    -1.5550 C.ar  1 <1>  -0.1500 
 16 C        2.8060     1.8500    -0.9750 C.3   1 <1>   0.3430 
 17 C       -0.4880    -1.2150    -0.6220 C.ar  1 <1>  -0.1500 
 18 N        2.4940     1.8030     0.4790 N.4   1 <1>  -0.9060 
 19 C        2.4550     0.4390     1.0310 C.3   1 <1>   0.3430 
 20 C        2.2490     0.5470     2.5340 C.3   1 <1>  -0.2400 
 21 H       -1.1600     3.5220    -0.2750 H     1 <1>   0.0800 
 22 H       -1.8640     2.9830     1.2380 H     1 <1>   0.0800 
 23 H        0.1780     5.2520     2.9230 H     1 <1>   0.1500 
 24 H        2.2700     6.1920    -1.4400 H     1 <1>   0.1500 
 25 H        1.1550     7.4680     2.4700 H     1 <1>   0.1500 
 26 H       -1.2050     0.6350     2.1030 H     1 <1>   0.1500 
 27 H       -0.4730     1.8990    -1.9090 H     1 <1>   0.1500 
 28 H        3.3900     3.9280    -1.1670 H     1 <1>   0.0800 
 29 H        2.6740     3.2510    -2.6130 H     1 <1>   0.0800 
 30 H        2.1930     7.9360     0.2920 H     1 <1>   0.1500 
 31 H       -0.8960    -1.7010     1.4180 H     1 <1>   0.1500 
 32 H       -0.1570    -0.4400    -2.5830 H     1 <1>   0.1500 
 33 H        3.8180     1.5200    -1.1480 H     1 <1>   0.0800 
 34 H        2.1440     1.1860    -1.5060 H     1 <1>   0.0800 
 35 H       -0.3620    -2.2420    -0.9220 H     1 <1>   0.1500 
 36 H        1.5540     2.2290     0.6070 H     1 <1>   0.4500 
 37 H        3.1290     2.3960     1.0210 H     1 <1>   0.4500 
 38 H        3.3810    -0.0750     0.8270 H     1 <1>   0.0800 
 39 H        1.6450    -0.1160     0.5840 H     1 <1>   0.0800 
 40 H        3.0770     1.0490     3.0000 H     1 <1>   0.0800 
 41 H        2.1770    -0.4400     2.9540 H     1 <1>   0.0800 
 42 H        1.3370     1.0710     2.7590 H     1 <1>   0.0800 
@<TRIPOS>BOND
  1   1   2  1   
  2   1   3  1   
  3   2   4  ar  
  4   2   5  ar  
  5   3   6  1   
  6   3  21  1   
  7   3  22  1   
  8   4   7  1   
  9   4   8  ar  
 10   5   9  ar  
 11   5  23  1   
 12   6  10  ar  
 13   6  11  ar  
 14   7  12  1   
 15   8  13  ar  
 16   8  24  1   
 17   9  13  ar  
 18   9  25  1   
 19  10  14  ar  
 20  10  26  1   
 21  11  15  ar  
 22  11  27  1   
 23  12  16  1   
 24  12  28  1   
 25  12  29  1   
 26  13  30  1   
 27  14  17  ar  
 28  14  31  1   
 29  15  17  ar  
 30  15  32  1   
 31  16  18  1   
 32  16  33  1   
 33  16  34  1   
 34  17  35  1   
 35  18  19  1   
 36  18  36  1   
 37  18  37  1   
 38  19  20  1   
 39  19  38  1   
 40  19  39  1   
 41  20  40  1   
 42  20  41  1   
 43  20  42  1   
@<TRIPOS>SUBSTRUCTURE
  1 ****   1 GROUP 4 **** **** 0

# MOE 2024.06 (io_trps.svl 2023.06)
