@<TRIPOS>MOLECULE
NONAME
50 52 1 0 0 
SMALL
USER_CHARGES


@<TRIPOS>ATOM
  1 O        1.3090    -2.3060     2.5540 O.2   1 <1>  -0.5700 
  2 C        0.7700    -2.2300     1.4750 C.2   1 <1>   0.5690 
  3 N        1.1200    -1.3050     0.5490 N.am  1 <1>  -0.7300 
  4 C       -0.3640    -3.1980     1.1230 C.3   1 <1>   0.1710 
  5 C        2.1100    -0.2310     0.6990 C.3   1 <1>   0.2200 
  6 N       -1.3130    -2.6810     0.0900 N.3   1 <1>  -0.8100 
  7 C        1.3760     1.1030     0.7360 C.3   1 <1>  -0.1600 
  8 C        2.9310    -0.1430    -0.5800 C.3   1 <1>  -0.1600 
  9 C       -2.1500    -1.5850     0.6400 C.3   1 <1>   0.1100 
 10 C       -2.1940    -3.7600    -0.4090 C.3   1 <1>   0.1100 
 11 C        1.0610     1.4410    -0.7260 C.3   1 <1>  -0.1600 
 12 C        2.0780     0.6600    -1.5700 C.3   1 <1>  -0.1600 
 13 C       -3.1130    -1.0050    -0.4130 C.3   1 <1>   0.2090 
 14 C       -3.1830    -3.2630    -1.4840 C.3   1 <1>   0.2090 
 15 N       -3.9600    -2.0720    -1.0230 N.pl3 1 <1>  -0.8380 
 16 C       -5.2880    -2.1780    -0.6070 C.ar  1 <1>   0.1000 
 17 C       -6.1740    -1.1440    -0.8790 C.ar  1 <1>  -0.1500 
 18 C       -5.7630    -3.2870     0.0880 C.ar  1 <1>  -0.1500 
 19 C       -7.4950    -1.1980    -0.4730 C.ar  1 <1>   0.0820 
 20 C       -7.0830    -3.3570     0.4960 C.ar  1 <1>  -0.1500 
 21 O       -8.2760    -0.1320    -0.7850 O.3   1 <1>  -0.3620 
 22 C       -7.9530    -2.3160     0.2200 C.ar  1 <1>  -0.1500 
 23 C       -9.6440    -0.1050    -0.4440 C.3   1 <1>   0.0400 
 24 H        0.5570    -1.2830    -0.3050 H     1 <1>   0.3700 
 25 H       -0.9000    -3.4420     2.0230 H     1 <1>   0.0800 
 26 H        0.0960    -4.0980     0.7590 H     1 <1>   0.0800 
 27 H        2.7180    -0.3950     1.5750 H     1 <1>   0.0800 
 28 H        2.0450     1.8470     1.1310 H     1 <1>   0.0800 
 29 H        0.4980     1.0670     1.3560 H     1 <1>   0.0800 
 30 H        3.2030    -1.1140    -0.9560 H     1 <1>   0.0800 
 31 H        3.8310     0.4070    -0.3680 H     1 <1>   0.0800 
 32 H       -1.5220    -0.7900     0.9990 H     1 <1>   0.0800 
 33 H       -2.7310    -1.9490     1.4700 H     1 <1>   0.0800 
 34 H       -2.7520    -4.1800     0.4100 H     1 <1>   0.0800 
 35 H       -1.5910    -4.5420    -0.8360 H     1 <1>   0.0800 
 36 H        1.1310     2.5000    -0.9010 H     1 <1>   0.0800 
 37 H        0.0640     1.1130    -0.9690 H     1 <1>   0.0800 
 38 H        1.5590    -0.0090    -2.2360 H     1 <1>   0.0800 
 39 H        2.6940     1.3220    -2.1550 H     1 <1>   0.0800 
 40 H       -2.5450    -0.5220    -1.1870 H     1 <1>   0.0800 
 41 H       -3.7390    -0.2640     0.0520 H     1 <1>   0.0800 
 42 H       -3.8590    -4.0550    -1.7530 H     1 <1>   0.0800 
 43 H       -2.6310    -2.9920    -2.3660 H     1 <1>   0.0800 
 44 H       -5.8260    -0.2880    -1.4230 H     1 <1>   0.1500 
 45 H       -5.0970    -4.0950     0.3160 H     1 <1>   0.1500 
 46 H       -7.4350    -4.2210     1.0320 H     1 <1>   0.1500 
 47 H       -8.9710    -2.3920     0.5490 H     1 <1>   0.1500 
 48 H      -10.0580     0.8220    -0.7980 H     1 <1>   0.0800 
 49 H       -9.7380    -0.1620     0.6260 H     1 <1>   0.0800 
 50 H      -10.1380    -0.9320    -0.9210 H     1 <1>   0.0800 
@<TRIPOS>BOND
  1   1   2  2   
  2   2   3  am  
  3   2   4  1   
  4   3   5  1   
  5   3  24  1   
  6   4   6  1   
  7   4  25  1   
  8   4  26  1   
  9   5   7  1   
 10   5   8  1   
 11   5  27  1   
 12   6   9  1   
 13   6  10  1   
 14   7  11  1   
 15   7  28  1   
 16   7  29  1   
 17   8  12  1   
 18   8  30  1   
 19   8  31  1   
 20   9  13  1   
 21   9  32  1   
 22   9  33  1   
 23  10  14  1   
 24  10  34  1   
 25  10  35  1   
 26  11  12  1   
 27  11  36  1   
 28  11  37  1   
 29  12  38  1   
 30  12  39  1   
 31  13  15  1   
 32  13  40  1   
 33  13  41  1   
 34  14  15  1   
 35  14  42  1   
 36  14  43  1   
 37  15  16  1   
 38  16  17  ar  
 39  16  18  ar  
 40  17  19  ar  
 41  17  44  1   
 42  18  20  ar  
 43  18  45  1   
 44  19  21  1   
 45  19  22  ar  
 46  20  22  ar  
 47  20  46  1   
 48  21  23  1   
 49  22  47  1   
 50  23  48  1   
 51  23  49  1   
 52  23  50  1   
@<TRIPOS>SUBSTRUCTURE
  1 ****  13 GROUP 4 **** **** 0

# MOE 2024.06 (io_trps.svl 2023.06)
