@<TRIPOS>MOLECULE
NONAME
32 33 1 0 0 
SMALL
USER_CHARGES


@<TRIPOS>ATOM
  1 F      -15.0590     2.6320     1.0440 F     1 <1>  -0.3400 
  2 C      -14.0430     1.8890     0.6200 C.3   1 <1>   1.1640 
  3 F      -14.5270     1.1130    -0.3410 F     1 <1>  -0.3400 
  4 F      -13.7310     1.0830     1.6290 F     1 <1>  -0.3400 
  5 C      -12.8550     2.7330     0.1330 C.ar  1 <1>  -0.1440 
  6 C      -11.5460     2.2960     0.3090 C.ar  1 <1>  -0.1500 
  7 C      -13.0650     3.9520    -0.5040 C.ar  1 <1>  -0.1500 
  8 C      -10.4710     3.0500    -0.1320 C.ar  1 <1>   0.0830 
  9 C      -11.9970     4.7130    -0.9480 C.ar  1 <1>  -0.1500 
 10 O       -9.2370     2.5350     0.0890 O.3   1 <1>  -0.3630 
 11 C      -10.7010     4.2680    -0.7640 C.ar  1 <1>  -0.1500 
 12 C       -8.0730     3.2110    -0.3190 C.3   1 <1>   0.1200 
 13 C       -6.8700     2.3560     0.0790 C.3   1 <1>  -0.1600 
 14 C       -5.5560     3.0240    -0.3410 C.3   1 <1>   0.0960 
 15 N       -4.4060     2.1870     0.0500 N.pl3 1 <1>   0.0480 
 16 C       -3.7740     1.2480    -0.6900 C.2   1 <1>   0.0360 
 17 C       -3.7520     2.1920     1.2250 C.2   1 <1>  -0.3020 
 18 N       -2.7890     0.6730    -0.0810 N.2   1 <1>  -0.5650 
 19 C       -2.7730     1.2660     1.1270 C.2   1 <1>   0.0770 
 20 H      -11.3380     1.3560     0.7930 H     1 <1>   0.1500 
 21 H      -14.0670     4.3190    -0.6610 H     1 <1>   0.1500 
 22 H      -12.1780     5.6540    -1.4380 H     1 <1>   0.1500 
 23 H       -9.8930     4.8790    -1.1180 H     1 <1>   0.1500 
 24 H       -8.0460     4.1670     0.1770 H     1 <1>   0.0800 
 25 H       -8.1150     3.3430    -1.3860 H     1 <1>   0.0800 
 26 H       -6.9510     1.3950    -0.4000 H     1 <1>   0.0800 
 27 H       -6.8760     2.2200     1.1460 H     1 <1>   0.0800 
 28 H       -5.4560     3.9830     0.1340 H     1 <1>   0.0800 
 29 H       -5.5320     3.1640    -1.4070 H     1 <1>   0.0800 
 30 H       -4.0790     1.0120    -1.6940 H     1 <1>   0.1500 
 31 H       -4.0090     2.8340     2.0470 H     1 <1>   0.1500 
 32 H       -2.0460     0.9910     1.8740 H     1 <1>   0.1500 
@<TRIPOS>BOND
  1   1   2  1   
  2   2   3  1   
  3   2   4  1   
  4   2   5  1   
  5   5   6  ar  
  6   5   7  ar  
  7   6   8  ar  
  8   6  20  1   
  9   7   9  ar  
 10   7  21  1   
 11   8  10  1   
 12   8  11  ar  
 13   9  11  ar  
 14   9  22  1   
 15  10  12  1   
 16  11  23  1   
 17  12  13  1   
 18  12  24  1   
 19  12  25  1   
 20  13  14  1   
 21  13  26  1   
 22  13  27  1   
 23  14  15  1   
 24  14  28  1   
 25  14  29  1   
 26  15  16  1   
 27  15  17  1   
 28  16  18  2   
 29  16  30  1   
 30  17  19  2   
 31  17  31  1   
 32  18  19  1   
 33  19  32  1   
@<TRIPOS>SUBSTRUCTURE
  1 ****  10 GROUP 4 **** **** 0

# MOE 2024.06 (io_trps.svl 2023.06)
