@<TRIPOS>MOLECULE
NONAME
55 58 1 0 0 
SMALL
USER_CHARGES


@<TRIPOS>ATOM
  1 O        0.3170    -0.9830    -1.4750 O.2   1 <1>  -0.5700 
  2 C        0.0270    -1.7870    -0.6240 C.2   1 <1>   0.5690 
  3 N        0.8990    -2.3210     0.2830 N.am  1 <1>  -0.2370 
  4 C       -1.3630    -2.3990    -0.4960 C.3   1 <1>  -0.0190 
  5 C        2.2250    -1.8830     0.4730 C.ar  1 <1>   0.1170 
  6 C        0.3090    -3.3530     0.9510 C.2   1 <1>   0.5690 
  7 C       -2.4770    -1.4330     0.0050 C.3   1 <1>   0.0580 
  8 C       -1.1070    -3.5660     0.4860 C.3   1 <1>  -0.0990 
  9 C        3.3180    -2.6010    -0.0150 C.ar  1 <1>  -0.1440 
 10 C        2.4520    -0.6990     1.1650 C.ar  1 <1>  -0.1500 
 11 O        0.8100    -4.0380     1.8060 O.2   1 <1>  -0.5700 
 12 C       -3.8900    -2.0090    -0.2240 C.2   1 <1>  -0.0380 
 13 C       -2.3580    -0.0280    -0.6320 C.3   1 <1>  -0.1600 
 14 C        4.6030    -2.1280     0.2050 C.ar  1 <1>  -0.1500 
 15 C        3.1300    -3.8990    -0.7900 C.3   1 <1>  -0.0960 
 16 C        3.7360    -0.2350     1.3780 C.ar  1 <1>  -0.1500 
 17 N       -4.0600    -3.3650     0.0590 N.pl3 1 <1>  -0.8380 
 18 C       -4.9110    -1.2500    -0.6520 C.2   1 <1>  -0.2880 
 19 C       -3.5780     0.8490    -0.3340 C.3   1 <1>  -0.1600 
 20 C        4.8200    -0.9500     0.9000 C.ar  1 <1>  -0.1430 
 21 C       -4.7250    -3.7040     1.3560 C.3   1 <1>   0.2090 
 22 C       -4.4740    -4.2680    -1.0630 C.3   1 <1>   0.2090 
 23 C       -4.8410     0.2370    -0.9430 C.3   1 <1>  -0.0220 
 24 C        6.2340    -0.4480     1.1290 C.3   1 <1>  -0.0970 
 25 C       -6.2230    -4.0160     1.1860 C.3   1 <1>   0.1200 
 26 C       -5.9840    -4.5830    -1.0660 C.3   1 <1>   0.1200 
 27 O       -6.4260    -4.9860     0.1990 O.3   1 <1>  -0.5600 
 28 H       -1.6440    -2.7830    -1.4600 H     1 <1>   0.0800 
 29 H       -2.3600    -1.3040     1.0660 H     1 <1>   0.0800 
 30 H       -1.1880    -4.5140    -0.0120 H     1 <1>   0.0800 
 31 H       -1.7620    -3.5520     1.3360 H     1 <1>   0.0800 
 32 H        1.6160    -0.1350     1.5380 H     1 <1>   0.1500 
 33 H       -2.2550    -0.1260    -1.6990 H     1 <1>   0.0800 
 34 H       -1.4810     0.4700    -0.2580 H     1 <1>   0.0800 
 35 H        5.4470    -2.6800    -0.1680 H     1 <1>   0.1500 
 36 H        2.4410    -3.7490    -1.6010 H     1 <1>   0.0800 
 37 H        2.7480    -4.6620    -0.1370 H     1 <1>   0.0800 
 38 H        4.0630    -4.2410    -1.2020 H     1 <1>   0.0800 
 39 H        3.8870     0.6850     1.9150 H     1 <1>   0.1500 
 40 H       -5.8910    -1.6520    -0.8230 H     1 <1>   0.1500 
 41 H       -3.4280     1.8370    -0.7340 H     1 <1>   0.0800 
 42 H       -3.7020     0.9340     0.7320 H     1 <1>   0.0800 
 43 H       -4.6110    -2.8840     2.0430 H     1 <1>   0.0800 
 44 H       -4.2370    -4.5620     1.7850 H     1 <1>   0.0800 
 45 H       -3.9300    -5.1920    -0.9800 H     1 <1>   0.0800 
 46 H       -4.2070    -3.8160    -2.0030 H     1 <1>   0.0800 
 47 H       -5.7050     0.7300    -0.5330 H     1 <1>   0.0800 
 48 H       -4.8440     0.3840    -2.0090 H     1 <1>   0.0800 
 49 H        6.9040    -1.2760     1.2770 H     1 <1>   0.0800 
 50 H        6.2760     0.1810     2.0000 H     1 <1>   0.0800 
 51 H        6.5610     0.1170     0.2750 H     1 <1>   0.0800 
 52 H       -6.7630    -3.1260     0.9140 H     1 <1>   0.0800 
 53 H       -6.6270    -4.3950     2.1070 H     1 <1>   0.0800 
 54 H       -6.1900    -5.3820    -1.7540 H     1 <1>   0.0800 
 55 H       -6.5500    -3.7200    -1.3680 H     1 <1>   0.0800 
@<TRIPOS>BOND
  1   1   2  2   
  2   2   3  am  
  3   2   4  1   
  4   3   5  1   
  5   3   6  am  
  6   4   7  1   
  7   4   8  1   
  8   4  28  1   
  9   5   9  ar  
 10   5  10  ar  
 11   6   8  1   
 12   6  11  2   
 13   7  12  1   
 14   7  13  1   
 15   7  29  1   
 16   8  30  1   
 17   8  31  1   
 18   9  14  ar  
 19   9  15  1   
 20  10  16  ar  
 21  10  32  1   
 22  12  17  1   
 23  12  18  2   
 24  13  19  1   
 25  13  33  1   
 26  13  34  1   
 27  14  20  ar  
 28  14  35  1   
 29  15  36  1   
 30  15  37  1   
 31  15  38  1   
 32  16  20  ar  
 33  16  39  1   
 34  17  21  1   
 35  17  22  1   
 36  18  23  1   
 37  18  40  1   
 38  19  23  1   
 39  19  41  1   
 40  19  42  1   
 41  20  24  1   
 42  21  25  1   
 43  21  43  1   
 44  21  44  1   
 45  22  26  1   
 46  22  45  1   
 47  22  46  1   
 48  23  47  1   
 49  23  48  1   
 50  24  49  1   
 51  24  50  1   
 52  24  51  1   
 53  25  27  1   
 54  25  52  1   
 55  25  53  1   
 56  26  27  1   
 57  26  54  1   
 58  26  55  1   
@<TRIPOS>SUBSTRUCTURE
  1 ****   4 GROUP 4 **** **** 0

# MOE 2024.06 (io_trps.svl 2023.06)
