@<TRIPOS>MOLECULE
NONAME
46 48 1 0 0 
SMALL
USER_CHARGES


@<TRIPOS>ATOM
  1 S       -0.1750     0.1750     0.8430 S.3   1 <1>  -0.0800 
  2 C       -1.5350    -0.5600     0.0630 C.2   1 <1>   0.4420 
  3 C        0.8240    -0.9990     0.0520 C.2   1 <1>   0.1980 
  4 N       -1.1970    -1.5530    -0.6720 N.2   1 <1>  -0.3380 
  5 N       -2.7790    -0.0220     0.3320 N.am  1 <1>  -0.4940 
  6 N        0.1480    -1.7970    -0.6740 N.2   1 <1>  -0.3380 
  7 C        2.3260    -0.9390     0.3080 C.3   1 <1>   0.1000 
  8 C       -3.9710    -0.3360    -0.2680 C.2   1 <1>   0.5690 
  9 C        2.9670     0.2140    -0.4860 C.3   1 <1>  -0.1600 
 10 C        3.0170    -2.2740    -0.0320 C.3   1 <1>  -0.1600 
 11 O       -4.0610    -1.0260    -1.2520 O.2   1 <1>  -0.5700 
 12 C       -5.2940     0.1930     0.3170 C.3   1 <1>   0.4040 
 13 C        4.4840     0.2870    -0.2580 C.3   1 <1>  -0.1600 
 14 C        4.5330    -2.2040     0.2020 C.3   1 <1>  -0.1600 
 15 N       -6.4980    -0.6180    -0.1090 N.4   1 <1>  -0.9590 
 16 C        5.1610    -1.0500    -0.5900 C.3   1 <1>  -0.1600 
 17 C       -7.7900     0.0880     0.1230 C.3   1 <1>   0.3430 
 18 C       -6.4760    -1.9960     0.4690 C.3   1 <1>   0.3430 
 19 C       -8.9350    -0.7170    -0.4950 C.3   1 <1>  -0.1600 
 20 C       -7.6040    -2.8280    -0.1430 C.3   1 <1>  -0.1600 
 21 C       -8.9720    -2.1570     0.0340 C.3   1 <1>  -0.1600 
 22 H       -2.7610     0.6890     1.0600 H     1 <1>   0.3700 
 23 H        2.4720    -0.7520     1.3580 H     1 <1>   0.0800 
 24 H        2.5210     1.1490    -0.1970 H     1 <1>   0.0800 
 25 H        2.7730     0.0670    -1.5350 H     1 <1>   0.0800 
 26 H        2.8310    -2.5170    -1.0650 H     1 <1>   0.0800 
 27 H        2.5960    -3.0600     0.5690 H     1 <1>   0.0800 
 28 H       -5.4140     1.2080    -0.0210 H     1 <1>   0.0800 
 29 H       -5.2260     0.2010     1.3910 H     1 <1>   0.0800 
 30 H        4.6810     0.5400     0.7700 H     1 <1>   0.0800 
 31 H        4.9040     1.0630    -0.8740 H     1 <1>   0.0800 
 32 H        4.9860    -3.1340    -0.0980 H     1 <1>   0.0800 
 33 H        4.7290    -2.0660     1.2520 H     1 <1>   0.0800 
 34 H       -6.3810    -0.7610    -1.1280 H     1 <1>   0.4500 
 35 H        6.2120    -0.9880    -0.3650 H     1 <1>   0.0800 
 36 H        5.0610    -1.2470    -1.6440 H     1 <1>   0.0800 
 37 H       -7.7640     1.0700    -0.3220 H     1 <1>   0.0800 
 38 H       -7.9620     0.1970     1.1820 H     1 <1>   0.0800 
 39 H       -6.6040    -1.9490     1.5390 H     1 <1>   0.0800 
 40 H       -5.5310    -2.4730     0.2560 H     1 <1>   0.0800 
 41 H       -8.8280    -0.7240    -1.5660 H     1 <1>   0.0800 
 42 H       -9.8690    -0.2310    -0.2700 H     1 <1>   0.0800 
 43 H       -7.6180    -3.7970     0.3250 H     1 <1>   0.0800 
 44 H       -7.4020    -2.9820    -1.1890 H     1 <1>   0.0800 
 45 H       -9.7250    -2.7200    -0.4910 H     1 <1>   0.0800 
 46 H       -9.2380    -2.1500     1.0790 H     1 <1>   0.0800 
@<TRIPOS>BOND
  1   1   2  1   
  2   1   3  1   
  3   2   4  2   
  4   2   5  1   
  5   3   6  2   
  6   3   7  1   
  7   4   6  1   
  8   5   8  am  
  9   5  22  1   
 10   7   9  1   
 11   7  10  1   
 12   7  23  1   
 13   8  11  2   
 14   8  12  1   
 15   9  13  1   
 16   9  24  1   
 17   9  25  1   
 18  10  14  1   
 19  10  26  1   
 20  10  27  1   
 21  12  15  1   
 22  12  28  1   
 23  12  29  1   
 24  13  16  1   
 25  13  30  1   
 26  13  31  1   
 27  14  16  1   
 28  14  32  1   
 29  14  33  1   
 30  15  17  1   
 31  15  18  1   
 32  15  34  1   
 33  16  35  1   
 34  16  36  1   
 35  17  19  1   
 36  17  37  1   
 37  17  38  1   
 38  18  20  1   
 39  18  39  1   
 40  18  40  1   
 41  19  21  1   
 42  19  41  1   
 43  19  42  1   
 44  20  21  1   
 45  20  43  1   
 46  20  44  1   
 47  21  45  1   
 48  21  46  1   
@<TRIPOS>SUBSTRUCTURE
  1 ****   2 GROUP 4 **** **** 0

# MOE 2024.06 (io_trps.svl 2023.06)
