@<TRIPOS>MOLECULE
NONAME
48 49 1 0 0 
SMALL
USER_CHARGES


@<TRIPOS>ATOM
  1 O        0.4590    -3.1680    -1.9950 O.2   1 <1>  -0.5700 
  2 C        0.3610    -2.6790    -0.9000 C.2   1 <1>   0.6590 
  3 O       -0.5750    -1.7950    -0.5930 O.3   1 <1>  -0.4300 
  4 C        1.3330    -3.0280     0.2250 C.3   1 <1>  -0.0190 
  5 C       -1.5300    -1.3760    -1.5420 C.3   1 <1>   0.1200 
  6 C        2.5340    -2.0650     0.2210 C.3   1 <1>  -0.1600 
  7 C        1.8260    -4.4870     0.1390 C.3   1 <1>  -0.1600 
  8 C       -2.4480    -0.3590    -0.8730 C.3   1 <1>  -0.2400 
  9 C        3.5630    -2.4270     1.2910 C.3   1 <1>   0.3430 
 10 C        2.8630    -4.8040     1.2130 C.3   1 <1>   0.3430 
 11 N        3.9940    -3.8430     1.1110 N.4   1 <1>  -0.9590 
 12 C        5.1010    -4.2130     2.0200 C.3   1 <1>   0.4810 
 13 C        6.3250    -3.4950     1.5140 C.2   1 <1>  -0.2880 
 14 C        7.2110    -4.0290     0.6570 C.2   1 <1>  -0.1780 
 15 C        8.3890    -3.3960     0.1050 C.ar  1 <1>   0.0280 
 16 C        8.8500    -3.7180    -1.1790 C.ar  1 <1>   0.0820 
 17 C        9.0970    -2.4480     0.8410 C.ar  1 <1>  -0.1500 
 18 O        8.1440    -4.6380    -1.8900 O.3   1 <1>  -0.3630 
 19 C        9.9870    -3.0960    -1.6900 C.ar  1 <1>  -0.1500 
 20 C       10.2220    -1.8330     0.3280 C.ar  1 <1>  -0.1500 
 21 C        8.5550    -5.0720    -3.1700 C.3   1 <1>   0.0400 
 22 C       10.6690    -2.1570    -0.9390 C.ar  1 <1>  -0.1500 
 23 H        0.7990    -2.9080     1.1520 H     1 <1>   0.0800 
 24 H       -1.0120    -0.9380    -2.3790 H     1 <1>   0.0800 
 25 H       -2.0840    -2.2390    -1.8740 H     1 <1>   0.0800 
 26 H        2.1860    -1.0610     0.3960 H     1 <1>   0.0800 
 27 H        3.0080    -2.0750    -0.7460 H     1 <1>   0.0800 
 28 H        2.2570    -4.6760    -0.8300 H     1 <1>   0.0800 
 29 H        0.9880    -5.1530     0.2490 H     1 <1>   0.0800 
 30 H       -1.8820     0.4930    -0.5410 H     1 <1>   0.0800 
 31 H       -2.9520    -0.8070    -0.0350 H     1 <1>   0.0800 
 32 H       -3.1890    -0.0230    -1.5760 H     1 <1>   0.0800 
 33 H        3.1290    -2.2970     2.2700 H     1 <1>   0.0800 
 34 H        4.4110    -1.7660     1.2040 H     1 <1>   0.0800 
 35 H        3.2200    -5.8130     1.0770 H     1 <1>   0.0800 
 36 H        2.4080    -4.7330     2.1880 H     1 <1>   0.0800 
 37 H        4.3920    -3.9170     0.1630 H     1 <1>   0.4500 
 38 H        4.8840    -3.9450     3.0410 H     1 <1>   0.0800 
 39 H        5.2740    -5.2770     1.9670 H     1 <1>   0.0800 
 40 H        6.4210    -2.4930     1.8950 H     1 <1>   0.1500 
 41 H        7.0710    -5.0350     0.2950 H     1 <1>   0.1500 
 42 H        8.7730    -2.1910     1.8320 H     1 <1>   0.1500 
 43 H       10.3590    -3.3260    -2.6700 H     1 <1>   0.1500 
 44 H       10.7560    -1.1040     0.9140 H     1 <1>   0.1500 
 45 H        7.8580    -5.8150    -3.5130 H     1 <1>   0.0800 
 46 H        9.5380    -5.5020    -3.0940 H     1 <1>   0.0800 
 47 H        8.5520    -4.2320    -3.8410 H     1 <1>   0.0800 
 48 H       11.5460    -1.6790    -1.3390 H     1 <1>   0.1500 
@<TRIPOS>BOND
  1   1   2  2   
  2   2   3  1   
  3   2   4  1   
  4   3   5  1   
  5   4   6  1   
  6   4   7  1   
  7   4  23  1   
  8   5   8  1   
  9   5  24  1   
 10   5  25  1   
 11   6   9  1   
 12   6  26  1   
 13   6  27  1   
 14   7  10  1   
 15   7  28  1   
 16   7  29  1   
 17   8  30  1   
 18   8  31  1   
 19   8  32  1   
 20   9  11  1   
 21   9  33  1   
 22   9  34  1   
 23  10  11  1   
 24  10  35  1   
 25  10  36  1   
 26  11  12  1   
 27  11  37  1   
 28  12  13  1   
 29  12  38  1   
 30  12  39  1   
 31  13  14  2   
 32  13  40  1   
 33  14  15  1   
 34  14  41  1   
 35  15  16  ar  
 36  15  17  ar  
 37  16  18  1   
 38  16  19  ar  
 39  17  20  ar  
 40  17  42  1   
 41  18  21  1   
 42  19  22  ar  
 43  19  43  1   
 44  20  22  ar  
 45  20  44  1   
 46  21  45  1   
 47  21  46  1   
 48  21  47  1   
 49  22  48  1   
@<TRIPOS>SUBSTRUCTURE
  1 ****  11 GROUP 4 **** **** 0

# MOE 2024.06 (io_trps.svl 2023.06)
