@<TRIPOS>MOLECULE
NONAME
44 45 1 0 0 
SMALL
USER_CHARGES


@<TRIPOS>ATOM
  1 CL       1.2900     0.2960     0.4370 Cl    1 <1>  -0.1770 
  2 C        0.6380     1.8830     0.1210 C.ar  1 <1>   0.1770 
  3 C       -0.7150     2.1010     0.2870 C.ar  1 <1>  -0.1500 
  4 C        1.4830     2.8930    -0.2900 C.ar  1 <1>  -0.1500 
  5 C       -1.2590     3.3610     0.0510 C.ar  1 <1>  -0.0090 
  6 C        0.9570     4.1460    -0.5450 C.ar  1 <1>  -0.1500 
  7 S       -3.0260     3.7000     0.2540 S.o2  1 <1>   1.4470 
  8 C       -0.4090     4.3770    -0.3800 C.ar  1 <1>   0.0830 
  9 O       -3.3100     4.8360     1.1000 O.2   1 <1>  -0.6500 
 10 O       -3.7370     3.5840    -0.9980 O.2   1 <1>  -0.6500 
 11 N       -3.6110     2.4300     1.1920 N.am  1 <1>  -0.9140 
 12 O       -0.9780     5.5810    -0.6340 O.3   1 <1>  -0.3630 
 13 C       -5.0230     2.5510     1.5870 C.3   1 <1>   0.1960 
 14 C       -0.2330     6.6960    -1.0690 C.3   1 <1>   0.1200 
 15 C       -6.0270     2.4370     0.4120 C.3   1 <1>   0.3430 
 16 C       -1.2010     7.8610    -1.2430 C.3   1 <1>  -0.2400 
 17 N       -6.9620     3.6130     0.2890 N.4   1 <1>  -0.9590 
 18 C       -8.0240     3.3290    -0.7360 C.3   1 <1>   0.3430 
 19 C       -6.2500     4.8900    -0.0940 C.3   1 <1>   0.3430 
 20 C       -8.9590     4.5400    -0.9290 C.3   1 <1>   0.1200 
 21 C       -7.2410     6.0460    -0.3240 C.3   1 <1>   0.1200 
 22 O       -8.2190     5.6800    -1.2560 O.3   1 <1>  -0.5600 
 23 H       -1.3330     1.2760     0.5950 H     1 <1>   0.1500 
 24 H        2.5340     2.6960    -0.4110 H     1 <1>   0.1500 
 25 H        1.6240     4.9230    -0.8710 H     1 <1>   0.1500 
 26 H       -3.0740     2.5150     2.0570 H     1 <1>   0.4200 
 27 H       -5.1720     3.4760     2.1180 H     1 <1>   0.0800 
 28 H       -5.2370     1.7510     2.2760 H     1 <1>   0.0800 
 29 H        0.2380     6.4510    -2.0050 H     1 <1>   0.0800 
 30 H        0.5080     6.9260    -0.3230 H     1 <1>   0.0800 
 31 H       -6.6120     1.5450     0.5670 H     1 <1>   0.0800 
 32 H       -5.4870     2.3040    -0.5110 H     1 <1>   0.0800 
 33 H       -1.9450     7.6180    -1.9810 H     1 <1>   0.0800 
 34 H       -0.6660     8.7340    -1.5710 H     1 <1>   0.0800 
 35 H       -1.6820     8.0850    -0.3070 H     1 <1>   0.0800 
 36 H       -7.4320     3.7790     1.1870 H     1 <1>   0.4500 
 37 H       -8.6090     2.4750    -0.4380 H     1 <1>   0.0800 
 38 H       -7.5630     3.1020    -1.6840 H     1 <1>   0.0800 
 39 H       -5.6960     4.7390    -1.0060 H     1 <1>   0.0800 
 40 H       -5.5520     5.1750     0.6750 H     1 <1>   0.0800 
 41 H       -9.5290     4.7400    -0.0390 H     1 <1>   0.0800 
 42 H       -9.6430     4.3540    -1.7390 H     1 <1>   0.0800 
 43 H       -6.7200     6.9020    -0.7170 H     1 <1>   0.0800 
 44 H       -7.7250     6.3330     0.5930 H     1 <1>   0.0800 
@<TRIPOS>BOND
  1   1   2  1   
  2   2   3  ar  
  3   2   4  ar  
  4   3   5  ar  
  5   3  23  1   
  6   4   6  ar  
  7   4  24  1   
  8   5   7  1   
  9   5   8  ar  
 10   6   8  ar  
 11   6  25  1   
 12   7   9  2   
 13   7  10  2   
 14   7  11  am  
 15   8  12  1   
 16  11  13  1   
 17  11  26  1   
 18  12  14  1   
 19  13  15  1   
 20  13  27  1   
 21  13  28  1   
 22  14  16  1   
 23  14  29  1   
 24  14  30  1   
 25  15  17  1   
 26  15  31  1   
 27  15  32  1   
 28  16  33  1   
 29  16  34  1   
 30  16  35  1   
 31  17  18  1   
 32  17  19  1   
 33  17  36  1   
 34  18  20  1   
 35  18  37  1   
 36  18  38  1   
 37  19  21  1   
 38  19  39  1   
 39  19  40  1   
 40  20  22  1   
 41  20  41  1   
 42  20  42  1   
 43  21  22  1   
 44  21  43  1   
 45  21  44  1   
@<TRIPOS>SUBSTRUCTURE
  1 ****   7 GROUP 4 **** **** 0

# MOE 2024.06 (io_trps.svl 2023.06)
