@<TRIPOS>MOLECULE
NONAME
32 34 1 0 0 
SMALL
USER_CHARGES


@<TRIPOS>ATOM
  1 S        0.0170    -0.0670     0.1420 S.3   1 <1>  -0.3710 
  2 C        1.8110    -0.0140     0.1480 C.2   1 <1>   0.6760 
  3 C       -0.5370     1.6890     0.2740 C.3   1 <1>   0.1500 
  4 N        2.3730     1.1330     0.2800 N.2   1 <1>  -0.6290 
  5 C        2.5020    -1.2510     0.0060 C.2   1 <1>   0.1010 
  6 C       -1.9470     1.6670     0.8590 C.3   1 <1>  -0.2400 
  7 C       -0.5060     2.2950    -1.1290 C.3   1 <1>  -0.2400 
  8 C        3.7510     1.1670     0.2820 C.ar  1 <1>   0.1790 
  9 N        2.0550    -2.4730    -0.1340 N.2   1 <1>  -0.3380 
 10 N        3.8470    -1.2190     0.0090 N.pl3 1 <1>   0.3260 
 11 C        4.5360     0.0090     0.1490 C.ar  1 <1>  -0.0230 
 12 C        4.3770     2.4020     0.4220 C.ar  1 <1>  -0.1500 
 13 N        3.1100    -3.2630    -0.2250 N.2   1 <1>  -0.3380 
 14 C        4.1600    -2.5190    -0.1400 C.2   1 <1>   0.0060 
 15 C        5.9280     0.1330     0.1610 C.ar  1 <1>  -0.1500 
 16 C        5.7500     2.5070     0.4320 C.ar  1 <1>  -0.1500 
 17 C        5.5550    -3.1110    -0.2080 C.3   1 <1>  -0.0600 
 18 C        6.5280     1.3670     0.3010 C.ar  1 <1>  -0.1500 
 19 H        0.1390     2.2000     0.9390 H     1 <1>   0.0800 
 20 H       -2.6100     1.1120     0.2200 H     1 <1>   0.0800 
 21 H       -2.3210     2.6700     0.9600 H     1 <1>   0.0800 
 22 H       -1.9330     1.2070     1.8300 H     1 <1>   0.0800 
 23 H       -1.1420     1.7380    -1.7930 H     1 <1>   0.0800 
 24 H        0.4970     2.2840    -1.5160 H     1 <1>   0.0800 
 25 H       -0.8450     3.3150    -1.0970 H     1 <1>   0.0800 
 26 H        3.7640     3.2800     0.5240 H     1 <1>   0.1500 
 27 H        6.5640    -0.7240     0.0620 H     1 <1>   0.1500 
 28 H        6.2210     3.4690     0.5420 H     1 <1>   0.1500 
 29 H        6.0920    -2.9090     0.7010 H     1 <1>   0.0800 
 30 H        6.0910    -2.7100    -1.0500 H     1 <1>   0.0800 
 31 H        5.4910    -4.1780    -0.3290 H     1 <1>   0.0800 
 32 H        7.6010     1.4540     0.3090 H     1 <1>   0.1500 
@<TRIPOS>BOND
  1   1   2  1   
  2   1   3  1   
  3   2   4  2   
  4   2   5  1   
  5   3   6  1   
  6   3   7  1   
  7   3  19  1   
  8   4   8  1   
  9   5   9  2   
 10   5  10  1   
 11   6  20  1   
 12   6  21  1   
 13   6  22  1   
 14   7  23  1   
 15   7  24  1   
 16   7  25  1   
 17   8  11  ar  
 18   8  12  ar  
 19   9  13  1   
 20  10  11  1   
 21  10  14  1   
 22  11  15  ar  
 23  12  16  ar  
 24  12  26  1   
 25  13  14  2   
 26  14  17  1   
 27  15  18  ar  
 28  15  27  1   
 29  16  18  ar  
 30  16  28  1   
 31  17  29  1   
 32  17  30  1   
 33  17  31  1   
 34  18  32  1   
@<TRIPOS>SUBSTRUCTURE
  1 ****   2 GROUP 4 **** **** 0

# MOE 2024.06 (io_trps.svl 2023.06)
