@<TRIPOS>MOLECULE
NONAME
44 46 1 0 0 
SMALL
USER_CHARGES


@<TRIPOS>ATOM
  1 O        0.9230     0.0160     0.8090 O.3   1 <1>  -0.3630 
  2 C        0.4490    -1.2580     0.6620 C.ar  1 <1>   0.0830 
  3 C        0.2650     0.9490     1.6380 C.3   1 <1>   0.0400 
  4 C        1.1710    -2.1140    -0.1730 C.ar  1 <1>   0.1000 
  5 C       -0.6990    -1.7200     1.3000 C.ar  1 <1>  -0.1500 
  6 N        2.3490    -1.6520    -0.7920 N.pl3 1 <1>  -0.5500 
  7 C        0.7050    -3.4040    -0.3860 C.ar  1 <1>  -0.1500 
  8 C       -1.1340    -3.0200     1.1030 C.ar  1 <1>  -0.1500 
  9 C        3.5430    -2.2280    -0.9490 C.2   1 <1>   0.5500 
 10 C       -0.4300    -3.8680     0.2540 C.ar  1 <1>   0.0830 
 11 N        4.4610    -1.5820    -1.6040 N.2   1 <1>  -0.6510 
 12 N        3.7520    -3.4180    -0.4070 N.pl3 1 <1>  -0.8190 
 13 O       -0.7840    -5.1540     0.0000 O.3   1 <1>  -0.3630 
 14 C        5.6110    -2.1800    -1.7210 C.cat 1 <1>   0.9100 
 15 C        4.9700    -4.1490    -0.4760 C.3   1 <1>   0.8590 
 16 C       -1.9750    -5.6970     0.5260 C.3   1 <1>   0.0400 
 17 N        5.9050    -3.3660    -1.2260 N.pl3 1 <1>  -0.7940 
 18 N        6.5360    -1.5330    -2.3890 N.pl3 1 <1>  -0.7540 
 19 C        4.7940    -5.5140    -1.1240 C.3   1 <1>  -0.1600 
 20 C        5.5380    -4.4660     0.8990 C.3   1 <1>  -0.1600 
 21 C        5.9450    -6.3800    -0.5890 C.3   1 <1>  -0.1600 
 22 C        6.4230    -5.7070     0.7070 C.3   1 <1>  -0.1600 
 23 H        0.8110     1.8750     1.6010 H     1 <1>   0.0800 
 24 H        0.2520     0.5740     2.6460 H     1 <1>   0.0800 
 25 H       -0.7340     1.1020     1.2690 H     1 <1>   0.0800 
 26 H       -1.2680    -1.0870     1.9540 H     1 <1>   0.1500 
 27 H        2.3330    -0.6510    -0.9920 H     1 <1>   0.4000 
 28 H        1.2140    -4.0600    -1.0650 H     1 <1>   0.1500 
 29 H       -2.0190    -3.3500     1.6130 H     1 <1>   0.1500 
 30 H        3.0010    -3.8440     0.1360 H     1 <1>   0.4000 
 31 H       -2.0680    -6.7060     0.1680 H     1 <1>   0.0800 
 32 H       -2.8090    -5.1100     0.1840 H     1 <1>   0.0800 
 33 H       -1.9160    -5.6950     1.6000 H     1 <1>   0.0800 
 34 H        6.8060    -3.8090    -1.3320 H     1 <1>   0.4500 
 35 H        7.4800    -1.8530    -2.5700 H     1 <1>   0.4500 
 36 H        6.2850    -0.6190    -2.7640 H     1 <1>   0.4500 
 37 H        4.7820    -5.4600    -2.1980 H     1 <1>   0.0800 
 38 H        3.8650    -5.9420    -0.7880 H     1 <1>   0.0800 
 39 H        4.7300    -4.7260     1.5590 H     1 <1>   0.0800 
 40 H        6.0770    -3.6360     1.3200 H     1 <1>   0.0800 
 41 H        6.7510    -6.4180    -1.3030 H     1 <1>   0.0800 
 42 H        5.6090    -7.3880    -0.4040 H     1 <1>   0.0800 
 43 H        6.3320    -6.3740     1.5490 H     1 <1>   0.0800 
 44 H        7.4580    -5.4210     0.6130 H     1 <1>   0.0800 
@<TRIPOS>BOND
  1   1   2  1   
  2   1   3  1   
  3   2   4  ar  
  4   2   5  ar  
  5   3  23  1   
  6   3  24  1   
  7   3  25  1   
  8   4   6  1   
  9   4   7  ar  
 10   5   8  ar  
 11   5  26  1   
 12   6   9  1   
 13   6  27  1   
 14   7  10  ar  
 15   7  28  1   
 16   8  10  ar  
 17   8  29  1   
 18   9  11  2   
 19   9  12  1   
 20  10  13  1   
 21  11  14  1   
 22  12  15  1   
 23  12  30  1   
 24  13  16  1   
 25  14  17  ar  
 26  14  18  ar  
 27  15  17  1   
 28  15  19  1   
 29  15  20  1   
 30  16  31  1   
 31  16  32  1   
 32  16  33  1   
 33  17  34  1   
 34  18  35  1   
 35  18  36  1   
 36  19  21  1   
 37  19  37  1   
 38  19  38  1   
 39  20  22  1   
 40  20  39  1   
 41  20  40  1   
 42  21  22  1   
 43  21  41  1   
 44  21  42  1   
 45  22  43  1   
 46  22  44  1   
@<TRIPOS>SUBSTRUCTURE
  1 ****  12 GROUP 4 **** **** 0

# MOE 2024.06 (io_trps.svl 2023.06)
