@<TRIPOS>MOLECULE
NONAME
45 47 1 0 0 
SMALL
USER_CHARGES


@<TRIPOS>ATOM
  1 S        0.0540     0.2060     0.4210 S.3   1 <1>  -0.0800 
  2 C       -0.7690     1.7120     0.6540 C.2   1 <1>   0.4420 
  3 C        1.4580     0.9500     1.1100 C.2   1 <1>   0.1980 
  4 N       -0.0160     2.5990     1.1960 N.2   1 <1>  -0.3380 
  5 N       -2.0840     1.7620     0.2400 N.am  1 <1>  -0.4940 
  6 N        1.2530     2.1580     1.4530 N.2   1 <1>  -0.3380 
  7 C        2.7280     0.1270     1.2470 C.3   1 <1>   0.3000 
  8 C       -2.9840     2.7860     0.3340 C.2   1 <1>   0.5690 
  9 O        3.0070    -0.5440     0.0510 O.3   1 <1>  -0.5600 
 10 O       -2.7270     3.8500     0.8350 O.2   1 <1>  -0.5700 
 11 C       -4.3730     2.5680    -0.2510 C.3   1 <1>  -0.0190 
 12 C        4.1890    -1.2780     0.0700 C.3   1 <1>   0.0400 
 13 C       -5.4100     3.6000     0.2220 C.3   1 <1>   0.1400 
 14 C       -5.0020     1.1980     0.0720 C.3   1 <1>  -0.0990 
 15 N       -6.6740     2.8430     0.2420 N.am  1 <1>  -0.6600 
 16 C       -6.4680     1.5060     0.1620 C.2   1 <1>   0.5690 
 17 C       -7.9570     3.5620     0.4310 C.3   1 <1>   0.2200 
 18 O       -7.3020     0.6360     0.1610 O.2   1 <1>  -0.5700 
 19 C       -8.6140     3.1580     1.7560 C.3   1 <1>  -0.1600 
 20 C       -8.8940     3.3180    -0.7590 C.3   1 <1>  -0.1600 
 21 C       -9.9500     3.8910     1.9530 C.3   1 <1>  -0.1600 
 22 C      -10.2300     4.0510    -0.5650 C.3   1 <1>  -0.1600 
 23 C      -10.8910     3.6540     0.7630 C.3   1 <1>  -0.1600 
 24 H       -2.4140     0.9100    -0.2020 H     1 <1>   0.3700 
 25 H        2.6060    -0.6020     2.0280 H     1 <1>   0.0800 
 26 H        3.5530     0.7770     1.4800 H     1 <1>   0.0800 
 27 H       -4.2960     2.6650    -1.3190 H     1 <1>   0.0800 
 28 H        4.3030    -1.7530    -0.8880 H     1 <1>   0.0800 
 29 H        4.1330    -2.0280     0.8410 H     1 <1>   0.0800 
 30 H        5.0190    -0.6140     0.2440 H     1 <1>   0.0800 
 31 H       -5.4650     4.4370    -0.4530 H     1 <1>   0.0800 
 32 H       -5.1960     3.9490     1.2190 H     1 <1>   0.0800 
 33 H       -4.6810     0.8280     1.0290 H     1 <1>   0.0800 
 34 H       -4.8150     0.4700    -0.6950 H     1 <1>   0.0800 
 35 H       -7.7490     4.6180     0.4750 H     1 <1>   0.0800 
 36 H       -7.9530     3.3910     2.5720 H     1 <1>   0.0800 
 37 H       -8.7980     2.0980     1.7590 H     1 <1>   0.0800 
 38 H       -9.0890     2.2640    -0.8540 H     1 <1>   0.0800 
 39 H       -8.4240     3.6600    -1.6630 H     1 <1>   0.0800 
 40 H       -9.7680     4.9460     2.0600 H     1 <1>   0.0800 
 41 H      -10.4200     3.5430     2.8570 H     1 <1>   0.0800 
 42 H      -10.8910     3.8130    -1.3810 H     1 <1>   0.0800 
 43 H      -10.0610     5.1140    -0.5770 H     1 <1>   0.0800 
 44 H      -11.7960     4.2200     0.8990 H     1 <1>   0.0800 
 45 H      -11.1580     2.6110     0.7260 H     1 <1>   0.0800 
@<TRIPOS>BOND
  1   1   2  1   
  2   1   3  1   
  3   2   4  2   
  4   2   5  1   
  5   3   6  2   
  6   3   7  1   
  7   4   6  1   
  8   5   8  am  
  9   5  24  1   
 10   7   9  1   
 11   7  25  1   
 12   7  26  1   
 13   8  10  2   
 14   8  11  1   
 15   9  12  1   
 16  11  13  1   
 17  11  14  1   
 18  11  27  1   
 19  12  28  1   
 20  12  29  1   
 21  12  30  1   
 22  13  15  1   
 23  13  31  1   
 24  13  32  1   
 25  14  16  1   
 26  14  33  1   
 27  14  34  1   
 28  15  16  am  
 29  15  17  1   
 30  16  18  2   
 31  17  19  1   
 32  17  20  1   
 33  17  35  1   
 34  19  21  1   
 35  19  36  1   
 36  19  37  1   
 37  20  22  1   
 38  20  38  1   
 39  20  39  1   
 40  21  23  1   
 41  21  40  1   
 42  21  41  1   
 43  22  23  1   
 44  22  42  1   
 45  22  43  1   
 46  23  44  1   
 47  23  45  1   
@<TRIPOS>SUBSTRUCTURE
  1 ****  11 GROUP 4 **** **** 0

# MOE 2024.06 (io_trps.svl 2023.06)
