@<TRIPOS>MOLECULE
NONAME
35 36 1 0 0 
SMALL
USER_CHARGES


@<TRIPOS>ATOM
  1 BR       0.8590    -0.3160     2.3660 Br    1 <1>  -0.1110 
  2 C        2.2070    -1.2390     1.3520 C.ar  1 <1>   0.1110 
  3 C        3.1500    -0.5000     0.6650 C.ar  1 <1>  -0.1500 
  4 C        2.2010    -2.6200     1.3330 C.ar  1 <1>  -0.1500 
  5 C        4.1170    -1.1750    -0.0610 C.ar  1 <1>  -0.1500 
  6 C        3.1780    -3.2750     0.6020 C.ar  1 <1>  -0.1500 
  7 C        4.1510    -2.5680    -0.1020 C.ar  1 <1>  -0.0090 
  8 S        5.4310    -3.4330    -1.0530 S.o2  1 <1>   1.4470 
  9 O        5.5180    -4.8260    -0.6740 O.2   1 <1>  -0.6500 
 10 O        5.3590    -3.0890    -2.4510 O.2   1 <1>  -0.6500 
 11 N        6.8600    -2.7390    -0.5210 N.am  1 <1>  -0.9140 
 12 C        7.2670    -3.1210     0.8490 C.3   1 <1>   0.2570 
 13 C        8.7900    -3.1780     1.0310 C.2   1 <1>   0.5690 
 14 O        9.2910    -2.3870     1.7960 O.2   1 <1>  -0.5700 
 15 N        9.5490    -4.0950     0.3410 N.am  1 <1>  -0.6600 
 16 C        9.0250    -5.2480    -0.4610 C.3   1 <1>   0.1400 
 17 C       11.0440    -4.0720     0.4100 C.3   1 <1>   0.1400 
 18 C        9.6990    -6.5630    -0.0330 C.3   1 <1>   0.1200 
 19 C       11.5950    -5.4550     0.7920 C.3   1 <1>   0.1200 
 20 O       11.0910    -6.4390    -0.0670 O.3   1 <1>  -0.5600 
 21 H        3.1260     0.5750     0.6980 H     1 <1>   0.1500 
 22 H        1.4500    -3.1650     1.8780 H     1 <1>   0.1500 
 23 H        4.8600    -0.6140    -0.6040 H     1 <1>   0.1500 
 24 H        3.1830    -4.3530     0.5770 H     1 <1>   0.1500 
 25 H        7.5650    -3.0900    -1.1670 H     1 <1>   0.4200 
 26 H        6.8780    -4.0830     1.1270 H     1 <1>   0.0800 
 27 H        6.8660    -2.4020     1.5420 H     1 <1>   0.0800 
 28 H        9.2290    -5.0770    -1.5040 H     1 <1>   0.0800 
 29 H        7.9640    -5.3570    -0.3410 H     1 <1>   0.0800 
 30 H       11.3830    -3.3470     1.1300 H     1 <1>   0.0800 
 31 H       11.4380    -3.7890    -0.5500 H     1 <1>   0.0800 
 32 H        9.4230    -7.3560    -0.7040 H     1 <1>   0.0800 
 33 H        9.4010    -6.8360     0.9650 H     1 <1>   0.0800 
 34 H       11.3250    -5.7040     1.8030 H     1 <1>   0.0800 
 35 H       12.6670    -5.4630     0.7080 H     1 <1>   0.0800 
@<TRIPOS>BOND
  1   1   2  1   
  2   2   3  ar  
  3   2   4  ar  
  4   3   5  ar  
  5   3  21  1   
  6   4   6  ar  
  7   4  22  1   
  8   5   7  ar  
  9   5  23  1   
 10   6   7  ar  
 11   6  24  1   
 12   7   8  1   
 13   8   9  2   
 14   8  10  2   
 15   8  11  am  
 16  11  12  1   
 17  11  25  1   
 18  12  13  1   
 19  12  26  1   
 20  12  27  1   
 21  13  14  2   
 22  13  15  am  
 23  15  16  1   
 24  15  17  1   
 25  16  18  1   
 26  16  28  1   
 27  16  29  1   
 28  17  19  1   
 29  17  30  1   
 30  17  31  1   
 31  18  20  1   
 32  18  32  1   
 33  18  33  1   
 34  19  20  1   
 35  19  34  1   
 36  19  35  1   
@<TRIPOS>SUBSTRUCTURE
  1 ****  12 GROUP 4 **** **** 0

# MOE 2024.06 (io_trps.svl 2023.06)
