@<TRIPOS>MOLECULE
NONAME
49 50 1 0 0 
SMALL
USER_CHARGES


@<TRIPOS>ATOM
  1 S        1.4180     0.4930    -0.4490 S.o2  1 <1>   1.4470 
  2 O        2.3060     0.7630     0.6640 O.2   1 <1>  -0.6500 
  3 O        1.7960     0.9100    -1.7760 O.2   1 <1>  -0.6500 
  4 N        1.2940    -1.1710    -0.5800 N.am  1 <1>  -0.9140 
  5 C       -0.2730     1.0190    -0.0600 C.ar  1 <1>  -0.0090 
  6 C        2.4250    -1.9110    -0.0170 C.3   1 <1>   0.3370 
  7 C       -1.1270     1.4900    -1.0500 C.ar  1 <1>  -0.1500 
  8 C       -0.7650     0.9430     1.2370 C.ar  1 <1>  -0.1500 
  9 C        3.7890    -1.6380    -0.7050 C.2   1 <1>   0.5690 
 10 C        2.0370    -3.3910    -0.0650 C.3   1 <1>  -0.2400 
 11 C       -2.4230     1.8760    -0.7560 C.ar  1 <1>  -0.1500 
 12 C       -2.0600     1.3280     1.5390 C.ar  1 <1>  -0.1500 
 13 O        4.0860    -2.2650    -1.6950 O.2   1 <1>  -0.5700 
 14 N        4.6110    -0.6910    -0.1600 N.am  1 <1>  -0.5470 
 15 C       -2.8960     1.7990     0.5420 C.ar  1 <1>  -0.1430 
 16 C        5.9230    -0.3590    -0.5290 C.ar  1 <1>   0.1170 
 17 C       -4.3180     2.2210     0.8690 C.3   1 <1>  -0.0970 
 18 C        6.9960    -1.2180    -0.2620 C.ar  1 <1>  -0.1430 
 19 C        6.1680     0.8710    -1.1450 C.ar  1 <1>  -0.1430 
 20 C        8.2820    -0.8360    -0.6100 C.ar  1 <1>  -0.1500 
 21 C        6.8150    -2.5750     0.4170 C.3   1 <1>  -0.0170 
 22 C        7.4600     1.2310    -1.4850 C.ar  1 <1>  -0.1500 
 23 C        5.0300     1.8310    -1.4720 C.3   1 <1>  -0.0970 
 24 C        8.5160     0.3820    -1.2180 C.ar  1 <1>  -0.1500 
 25 C        6.6900    -2.4170     1.9350 C.3   1 <1>  -0.2400 
 26 H        1.3260    -1.3330    -1.5880 H     1 <1>   0.4200 
 27 H        2.5260    -1.6510     1.0230 H     1 <1>   0.0800 
 28 H       -0.7770     1.5570    -2.0670 H     1 <1>   0.1500 
 29 H       -0.1270     0.5780     2.0240 H     1 <1>   0.1500 
 30 H        1.9060    -3.7150    -1.0820 H     1 <1>   0.0800 
 31 H        1.1280    -3.5560     0.4840 H     1 <1>   0.0800 
 32 H        2.8170    -3.9840     0.3790 H     1 <1>   0.0800 
 33 H       -3.0620     2.2370    -1.5440 H     1 <1>   0.1500 
 34 H       -2.4140     1.2580     2.5530 H     1 <1>   0.1500 
 35 H        4.1480    -0.0050     0.4490 H     1 <1>   0.3700 
 36 H       -4.9770     1.3770     0.7810 H     1 <1>   0.0800 
 37 H       -4.6470     2.9910     0.1930 H     1 <1>   0.0800 
 38 H       -4.3760     2.6040     1.8720 H     1 <1>   0.0800 
 39 H        9.1140    -1.4870    -0.4070 H     1 <1>   0.1500 
 40 H        7.6600    -3.2030     0.1990 H     1 <1>   0.0800 
 41 H        5.9510    -3.0780     0.0250 H     1 <1>   0.0800 
 42 H        7.6550     2.1750    -1.9620 H     1 <1>   0.1500 
 43 H        4.4800     2.0770    -0.5830 H     1 <1>   0.0800 
 44 H        4.3650     1.3710    -2.1810 H     1 <1>   0.0800 
 45 H        5.4020     2.7430    -1.9020 H     1 <1>   0.0800 
 46 H        9.5190     0.6670    -1.4840 H     1 <1>   0.1500 
 47 H        7.5690    -1.9380     2.3280 H     1 <1>   0.0800 
 48 H        6.5820    -3.3810     2.3990 H     1 <1>   0.0800 
 49 H        5.8330    -1.8160     2.1790 H     1 <1>   0.0800 
@<TRIPOS>BOND
  1   1   2  2   
  2   1   3  2   
  3   1   4  am  
  4   1   5  1   
  5   4   6  1   
  6   4  26  1   
  7   5   7  ar  
  8   5   8  ar  
  9   6   9  1   
 10   6  10  1   
 11   6  27  1   
 12   7  11  ar  
 13   7  28  1   
 14   8  12  ar  
 15   8  29  1   
 16   9  13  2   
 17   9  14  am  
 18  10  30  1   
 19  10  31  1   
 20  10  32  1   
 21  11  15  ar  
 22  11  33  1   
 23  12  15  ar  
 24  12  34  1   
 25  14  16  1   
 26  14  35  1   
 27  15  17  1   
 28  16  18  ar  
 29  16  19  ar  
 30  17  36  1   
 31  17  37  1   
 32  17  38  1   
 33  18  20  ar  
 34  18  21  1   
 35  19  22  ar  
 36  19  23  1   
 37  20  24  ar  
 38  20  39  1   
 39  21  25  1   
 40  21  40  1   
 41  21  41  1   
 42  22  24  ar  
 43  22  42  1   
 44  23  43  1   
 45  23  44  1   
 46  23  45  1   
 47  24  46  1   
 48  25  47  1   
 49  25  48  1   
 50  25  49  1   
@<TRIPOS>SUBSTRUCTURE
  1 ****   2 GROUP 4 **** **** 0

# MOE 2024.06 (io_trps.svl 2023.06)
