@<TRIPOS>MOLECULE
NONAME
52 54 1 0 0 
SMALL
USER_CHARGES


@<TRIPOS>ATOM
  1 O        0.3740    -1.0100     1.3530 O.3   1 <1>  -0.3630 
  2 C       -0.8180    -1.0210     0.6750 C.ar  1 <1>   0.0820 
  3 C        0.6370    -0.0500     2.3550 C.3   1 <1>   0.0400 
  4 C       -1.0050    -1.9850    -0.3330 C.ar  1 <1>   0.1000 
  5 C       -1.8360    -0.1130     0.9540 C.ar  1 <1>  -0.1500 
  6 N       -0.0450    -2.9430    -0.6890 N.pl3 1 <1>  -0.8380 
  7 C       -2.2070    -2.0030    -1.0250 C.ar  1 <1>  -0.1500 
  8 C       -3.0260    -0.1520     0.2490 C.ar  1 <1>  -0.1500 
  9 C        0.2370    -3.9560     0.3700 C.3   1 <1>   0.2090 
 10 C        1.1860    -2.3780    -1.3190 C.3   1 <1>   0.2090 
 11 C       -3.2120    -1.0980    -0.7410 C.ar  1 <1>  -0.1500 
 12 C        1.1600    -5.0710    -0.1640 C.3   1 <1>   0.3430 
 13 C        2.1040    -3.4990    -1.8420 C.3   1 <1>   0.3430 
 14 N        2.4220    -4.5250    -0.7820 N.4   1 <1>  -0.9590 
 15 C        3.3040    -5.6000    -1.2760 C.3   1 <1>   0.4810 
 16 C        4.6600    -4.9770    -1.4790 C.2   1 <1>  -0.2880 
 17 C        5.6390    -4.9850    -0.5590 C.2   1 <1>  -0.1780 
 18 C        6.9510    -4.3870    -0.6680 C.ar  1 <1>   0.0280 
 19 C        7.6170    -3.8880     0.4600 C.ar  1 <1>   0.0820 
 20 C        7.5880    -4.2920    -1.9040 C.ar  1 <1>  -0.1500 
 21 O        6.9810    -3.9770     1.6590 O.3   1 <1>  -0.3620 
 22 C        8.8820    -3.3170     0.3310 C.ar  1 <1>  -0.1500 
 23 C        8.8410    -3.7230    -2.0270 C.ar  1 <1>  -0.1500 
 24 C        7.5950    -3.5730     2.8650 C.3   1 <1>   0.0400 
 25 C        9.4890    -3.2340    -0.9080 C.ar  1 <1>  -0.1500 
 26 H        1.6270    -0.2230     2.7360 H     1 <1>   0.0800 
 27 H       -0.0830    -0.1650     3.1470 H     1 <1>   0.0800 
 28 H        0.5800     0.9330     1.9220 H     1 <1>   0.0800 
 29 H       -1.7310     0.6360     1.7150 H     1 <1>   0.1500 
 30 H       -2.3520    -2.7380    -1.7950 H     1 <1>   0.1500 
 31 H       -3.8080     0.5540     0.4710 H     1 <1>   0.1500 
 32 H        0.6970    -3.4830     1.2190 H     1 <1>   0.0800 
 33 H       -0.6930    -4.3880     0.6980 H     1 <1>   0.0800 
 34 H        0.9000    -1.7380    -2.1360 H     1 <1>   0.0800 
 35 H        1.7220    -1.7770    -0.6050 H     1 <1>   0.0800 
 36 H       -4.1380    -1.1290    -1.2910 H     1 <1>   0.1500 
 37 H        0.6100    -5.6310    -0.9010 H     1 <1>   0.0800 
 38 H        1.4050    -5.7370     0.6470 H     1 <1>   0.0800 
 39 H        3.0150    -3.0570    -2.2100 H     1 <1>   0.0800 
 40 H        1.6080    -3.9770    -2.6700 H     1 <1>   0.0800 
 41 H        2.9520    -4.0370    -0.0470 H     1 <1>   0.4500 
 42 H        3.3820    -6.3770    -0.5320 H     1 <1>   0.0800 
 43 H        2.9300    -6.0300    -2.1920 H     1 <1>   0.0800 
 44 H        4.7720    -4.5030    -2.4380 H     1 <1>   0.1500 
 45 H        5.4800    -5.4680     0.3920 H     1 <1>   0.1500 
 46 H        7.1070    -4.6770    -2.7830 H     1 <1>   0.1500 
 47 H        9.4110    -2.9280     1.1790 H     1 <1>   0.1500 
 48 H        9.3170    -3.6610    -2.9910 H     1 <1>   0.1500 
 49 H        6.9150    -3.7730     3.6720 H     1 <1>   0.0800 
 50 H        7.8030    -2.5190     2.8160 H     1 <1>   0.0800 
 51 H        8.5000    -4.1380     3.0030 H     1 <1>   0.0800 
 52 H       10.4660    -2.7910    -1.0030 H     1 <1>   0.1500 
@<TRIPOS>BOND
  1   1   2  1   
  2   1   3  1   
  3   2   4  ar  
  4   2   5  ar  
  5   3  26  1   
  6   3  27  1   
  7   3  28  1   
  8   4   6  1   
  9   4   7  ar  
 10   5   8  ar  
 11   5  29  1   
 12   6   9  1   
 13   6  10  1   
 14   7  11  ar  
 15   7  30  1   
 16   8  11  ar  
 17   8  31  1   
 18   9  12  1   
 19   9  32  1   
 20   9  33  1   
 21  10  13  1   
 22  10  34  1   
 23  10  35  1   
 24  11  36  1   
 25  12  14  1   
 26  12  37  1   
 27  12  38  1   
 28  13  14  1   
 29  13  39  1   
 30  13  40  1   
 31  14  15  1   
 32  14  41  1   
 33  15  16  1   
 34  15  42  1   
 35  15  43  1   
 36  16  17  2   
 37  16  44  1   
 38  17  18  1   
 39  17  45  1   
 40  18  19  ar  
 41  18  20  ar  
 42  19  21  1   
 43  19  22  ar  
 44  20  23  ar  
 45  20  46  1   
 46  21  24  1   
 47  22  25  ar  
 48  22  47  1   
 49  23  25  ar  
 50  23  48  1   
 51  24  49  1   
 52  24  50  1   
 53  24  51  1   
 54  25  52  1   
@<TRIPOS>SUBSTRUCTURE
  1 ****  14 GROUP 4 **** **** 0

# MOE 2024.06 (io_trps.svl 2023.06)
