@<TRIPOS>MOLECULE
NONAME
39 40 1 0 0 
SMALL
USER_CHARGES


@<TRIPOS>ATOM
  1 O        0.8830     3.5950    -2.6650 O.2   1 <1>  -0.5700 
  2 C        0.2970     3.0840    -1.7400 C.2   1 <1>   0.5690 
  3 N        0.8850     2.1650    -0.9330 N.am  1 <1>  -0.7300 
  4 C       -1.1490     3.4900    -1.4780 C.3   1 <1>   0.1810 
  5 C        2.2600     1.6590    -1.0360 C.3   1 <1>   0.2200 
  6 O       -1.6870     2.7970    -0.3590 O.3   1 <1>  -0.3630 
  7 C        2.2140     0.1400    -1.1480 C.3   1 <1>  -0.1600 
  8 C        2.9660     1.8900     0.2940 C.3   1 <1>  -0.1600 
  9 C       -2.9630     3.0000     0.0630 C.ar  1 <1>   0.0820 
 10 C        2.0340    -0.3790     0.2830 C.3   1 <1>  -0.1600 
 11 C        2.5170     0.7450     1.2100 C.3   1 <1>  -0.1600 
 12 C       -3.3950     2.2750     1.1690 C.ar  1 <1>  -0.1440 
 13 C       -3.8330     3.8910    -0.5630 C.ar  1 <1>  -0.1500 
 14 C       -4.6890     2.4490     1.6340 C.ar  1 <1>  -0.1500 
 15 C       -2.4650     1.2960     1.8710 C.3   1 <1>  -0.0970 
 16 C       -5.1240     4.0610    -0.0920 C.ar  1 <1>  -0.1440 
 17 C       -5.5470     3.3350     1.0080 C.ar  1 <1>  -0.1500 
 18 C       -6.0740     5.0300    -0.7730 C.3   1 <1>  -0.0970 
 19 H        0.3300     1.7740    -0.1690 H     1 <1>   0.3700 
 20 H       -1.7430     3.2550    -2.3410 H     1 <1>   0.0800 
 21 H       -1.1890     4.5440    -1.2770 H     1 <1>   0.0800 
 22 H        2.7750     2.1190    -1.8630 H     1 <1>   0.0800 
 23 H        3.1620    -0.2010    -1.5270 H     1 <1>   0.0800 
 24 H        1.4380    -0.1940    -1.8150 H     1 <1>   0.0800 
 25 H        2.7520     2.8610     0.7040 H     1 <1>   0.0800 
 26 H        4.0270     1.8120     0.1320 H     1 <1>   0.0800 
 27 H        2.5950    -1.2850     0.4360 H     1 <1>   0.0800 
 28 H        0.9930    -0.5800     0.4700 H     1 <1>   0.0800 
 29 H        1.7040     1.0740     1.8340 H     1 <1>   0.0800 
 30 H        3.3270     0.4170     1.8390 H     1 <1>   0.0800 
 31 H       -3.5240     4.4590    -1.4180 H     1 <1>   0.1500 
 32 H       -5.0370     1.8950     2.4880 H     1 <1>   0.1500 
 33 H       -2.1500     0.5350     1.1800 H     1 <1>   0.0800 
 34 H       -2.9550     0.8230     2.7020 H     1 <1>   0.0800 
 35 H       -1.5970     1.8170     2.2350 H     1 <1>   0.0800 
 36 H       -6.5490     3.4560     1.3830 H     1 <1>   0.1500 
 37 H       -5.5270     5.7970    -1.2910 H     1 <1>   0.0800 
 38 H       -6.7100     5.5010    -0.0460 H     1 <1>   0.0800 
 39 H       -6.6860     4.5010    -1.4810 H     1 <1>   0.0800 
@<TRIPOS>BOND
  1   1   2  2   
  2   2   3  am  
  3   2   4  1   
  4   3   5  1   
  5   3  19  1   
  6   4   6  1   
  7   4  20  1   
  8   4  21  1   
  9   5   7  1   
 10   5   8  1   
 11   5  22  1   
 12   6   9  1   
 13   7  10  1   
 14   7  23  1   
 15   7  24  1   
 16   8  11  1   
 17   8  25  1   
 18   8  26  1   
 19   9  12  ar  
 20   9  13  ar  
 21  10  11  1   
 22  10  27  1   
 23  10  28  1   
 24  11  29  1   
 25  11  30  1   
 26  12  14  ar  
 27  12  15  1   
 28  13  16  ar  
 29  13  31  1   
 30  14  17  ar  
 31  14  32  1   
 32  15  33  1   
 33  15  34  1   
 34  15  35  1   
 35  16  17  ar  
 36  16  18  1   
 37  17  36  1   
 38  18  37  1   
 39  18  38  1   
 40  18  39  1   
@<TRIPOS>SUBSTRUCTURE
  1 ****   6 GROUP 4 **** **** 0

# MOE 2024.06 (io_trps.svl 2023.06)
