@<TRIPOS>MOLECULE
NONAME
49 51 1 0 0 
SMALL
USER_CHARGES


@<TRIPOS>ATOM
  1 O        0.0160    -1.4160     2.1760 O.2   1 <1>  -0.5700 
  2 C        1.0220    -1.6400     1.5220 C.2   1 <1>   0.5440 
  3 N        1.8820    -0.5970     1.2440 N.am  1 <1>  -0.6600 
  4 C        1.2420    -2.9720     1.0030 C.ar  1 <1>   0.0860 
  5 C        1.7000     0.7500     1.8530 C.3   1 <1>   0.1400 
  6 C        2.8210    -0.6090     0.0880 C.3   1 <1>   0.1400 
  7 C        0.2940    -3.5610     0.1550 C.ar  1 <1>   0.1170 
  8 C        2.4000    -3.6870     1.3130 C.ar  1 <1>  -0.1500 
  9 C        1.1640     1.7190     0.7930 C.3   1 <1>  -0.1600 
 10 C        2.2950     0.3370    -0.9970 C.3   1 <1>  -0.1600 
 11 N       -0.8810    -2.8550    -0.1290 N.am  1 <1>  -0.5470 
 12 C        0.5370    -4.8260    -0.3710 C.ar  1 <1>  -0.1500 
 13 C        2.6280    -4.9440     0.7880 C.ar  1 <1>  -0.1500 
 14 C        2.0640     1.7550    -0.4510 C.3   1 <1>  -0.1600 
 15 C       -1.6810    -2.8130    -1.2340 C.2   1 <1>   0.5690 
 16 C        1.6940    -5.5130    -0.0600 C.ar  1 <1>  -0.1500 
 17 O       -1.5400    -3.5440    -2.1840 O.2   1 <1>  -0.5700 
 18 C       -2.7840    -1.7580    -1.2640 C.3   1 <1>  -0.0190 
 19 C       -2.1980    -0.3310    -1.1990 C.3   1 <1>  -0.1600 
 20 C       -3.8170    -1.9740    -0.1390 C.3   1 <1>  -0.1600 
 21 C       -3.3030     0.7340    -1.2320 C.3   1 <1>  -0.1600 
 22 C       -4.9180    -0.9050    -0.1740 C.3   1 <1>  -0.1600 
 23 C       -4.3210     0.5070    -0.1070 C.3   1 <1>  -0.1600 
 24 H        2.6490     1.0980     2.2220 H     1 <1>   0.0800 
 25 H        1.0190     0.7040     2.6860 H     1 <1>   0.0800 
 26 H        2.9240    -1.5970    -0.3230 H     1 <1>   0.0800 
 27 H        3.7910    -0.2830     0.4210 H     1 <1>   0.0800 
 28 H        3.1240    -3.2420     1.9740 H     1 <1>   0.1500 
 29 H        1.0920     2.7040     1.2170 H     1 <1>   0.0800 
 30 H        0.1710     1.4090     0.5160 H     1 <1>   0.0800 
 31 H        1.3710    -0.0580    -1.3820 H     1 <1>   0.0800 
 32 H        2.9990     0.3740    -1.8090 H     1 <1>   0.0800 
 33 H       -1.1030    -2.1470     0.5830 H     1 <1>   0.3700 
 34 H       -0.1870    -5.2770    -1.0250 H     1 <1>   0.1500 
 35 H        3.5270    -5.4820     1.0360 H     1 <1>   0.1500 
 36 H        3.0120     2.1930    -0.1890 H     1 <1>   0.0800 
 37 H        1.6120     2.3690    -1.2100 H     1 <1>   0.0800 
 38 H        1.8660    -6.4920    -0.4750 H     1 <1>   0.1500 
 39 H       -3.2960    -1.8610    -2.2050 H     1 <1>   0.0800 
 40 H       -1.5310    -0.1800    -2.0300 H     1 <1>   0.0800 
 41 H       -1.6280    -0.2100    -0.2940 H     1 <1>   0.0800 
 42 H       -3.3270    -1.9370     0.8200 H     1 <1>   0.0800 
 43 H       -4.2610    -2.9490    -0.2440 H     1 <1>   0.0800 
 44 H       -3.8070     0.6970    -2.1820 H     1 <1>   0.0800 
 45 H       -2.8640     1.7110    -1.1290 H     1 <1>   0.0800 
 46 H       -5.5890    -1.0520     0.6550 H     1 <1>   0.0800 
 47 H       -5.4880    -1.0090    -1.0810 H     1 <1>   0.0800 
 48 H       -5.1100     1.2350    -0.1840 H     1 <1>   0.0800 
 49 H       -3.8370     0.6450     0.8450 H     1 <1>   0.0800 
@<TRIPOS>BOND
  1   1   2  2   
  2   2   3  am  
  3   2   4  1   
  4   3   5  1   
  5   3   6  1   
  6   4   7  ar  
  7   4   8  ar  
  8   5   9  1   
  9   5  24  1   
 10   5  25  1   
 11   6  10  1   
 12   6  26  1   
 13   6  27  1   
 14   7  11  1   
 15   7  12  ar  
 16   8  13  ar  
 17   8  28  1   
 18   9  14  1   
 19   9  29  1   
 20   9  30  1   
 21  10  14  1   
 22  10  31  1   
 23  10  32  1   
 24  11  15  am  
 25  11  33  1   
 26  12  16  ar  
 27  12  34  1   
 28  13  16  ar  
 29  13  35  1   
 30  14  36  1   
 31  14  37  1   
 32  15  17  2   
 33  15  18  1   
 34  16  38  1   
 35  18  19  1   
 36  18  20  1   
 37  18  39  1   
 38  19  21  1   
 39  19  40  1   
 40  19  41  1   
 41  20  22  1   
 42  20  42  1   
 43  20  43  1   
 44  21  23  1   
 45  21  44  1   
 46  21  45  1   
 47  22  23  1   
 48  22  46  1   
 49  22  47  1   
 50  23  48  1   
 51  23  49  1   
@<TRIPOS>SUBSTRUCTURE
  1 ****  11 GROUP 4 **** **** 0

# MOE 2024.06 (io_trps.svl 2023.06)
