@<TRIPOS>MOLECULE
NONAME
49 51 1 0 0 
SMALL
USER_CHARGES


@<TRIPOS>ATOM
  1 O       -0.0810     0.4760     1.0230 O.2   1 <1>  -0.5700 
  2 C       -0.0140     1.6880     0.9380 C.2   1 <1>   0.5440 
  3 N        1.1700     2.3250     1.2560 N.am  1 <1>  -0.6600 
  4 C       -1.1810     2.4340     0.5060 C.ar  1 <1>   0.0860 
  5 C        2.4050     1.5620     1.5860 C.3   1 <1>   0.1400 
  6 C        1.3300     3.8060     1.2640 C.3   1 <1>   0.1400 
  7 C       -1.4330     2.7060    -0.8430 C.ar  1 <1>  -0.1440 
  8 C       -2.0810     2.9170     1.4540 C.ar  1 <1>  -0.1500 
  9 C        3.5180     1.9460     0.6070 C.3   1 <1>  -0.1600 
 10 C        2.4440     4.2110     0.2940 C.3   1 <1>  -0.1600 
 11 C       -2.5420     3.4520    -1.2090 C.ar  1 <1>  -0.1500 
 12 C       -0.4950     2.1780    -1.9220 C.3   1 <1>  -0.0970 
 13 C       -3.1870     3.6590     1.0860 C.ar  1 <1>  -0.1500 
 14 C        3.7610     3.4660     0.5880 C.3   1 <1>  -0.0190 
 15 C       -3.4170     3.9300    -0.2500 C.ar  1 <1>  -0.1500 
 16 C        4.8570     3.8310    -0.4130 C.2   1 <1>   0.5690 
 17 O        4.6050     3.7930    -1.5930 O.2   1 <1>  -0.5700 
 18 N        6.0840     4.1690     0.0910 N.am  1 <1>  -0.5470 
 19 C        7.2730     4.5620    -0.5440 C.ar  1 <1>   0.1170 
 20 C        8.4650     4.4710     0.1670 C.ar  1 <1>  -0.1500 
 21 C        7.3180     5.0560    -1.8440 C.ar  1 <1>  -0.1500 
 22 C        9.6710     4.8540    -0.3960 C.ar  1 <1>  -0.1430 
 23 C        8.5170     5.4400    -2.4150 C.ar  1 <1>  -0.1500 
 24 C        9.6920     5.3400    -1.6920 C.ar  1 <1>  -0.1500 
 25 C       10.9660     4.7480     0.3900 C.3   1 <1>  -0.0970 
 26 H        2.2280     0.5010     1.5270 H     1 <1>   0.0800 
 27 H        2.6990     1.7920     2.5950 H     1 <1>   0.0800 
 28 H        1.5820     4.1220     2.2620 H     1 <1>   0.0800 
 29 H        0.4170     4.2990     0.9820 H     1 <1>   0.0800 
 30 H       -1.9030     2.7010     2.4930 H     1 <1>   0.1500 
 31 H        3.2400     1.6100    -0.3780 H     1 <1>   0.0800 
 32 H        4.4220     1.4330     0.8820 H     1 <1>   0.0800 
 33 H        2.6050     5.2720     0.3610 H     1 <1>   0.0800 
 34 H        2.1210     3.9970    -0.7100 H     1 <1>   0.0800 
 35 H       -2.7360     3.6630    -2.2470 H     1 <1>   0.1500 
 36 H        0.4940     2.5730    -1.7820 H     1 <1>   0.0800 
 37 H       -0.8360     2.4530    -2.9030 H     1 <1>   0.0800 
 38 H       -0.4460     1.1040    -1.8680 H     1 <1>   0.0800 
 39 H       -3.8690     4.0230     1.8350 H     1 <1>   0.1500 
 40 H        4.0880     3.7620     1.5690 H     1 <1>   0.0800 
 41 H       -4.2760     4.5070    -0.5440 H     1 <1>   0.1500 
 42 H        6.1690     4.0860     1.1000 H     1 <1>   0.3700 
 43 H        8.4490     4.0940     1.1720 H     1 <1>   0.1500 
 44 H        6.4160     5.1460    -2.4210 H     1 <1>   0.1500 
 45 H        8.5350     5.8180    -3.4220 H     1 <1>   0.1500 
 46 H       10.6210     5.6420    -2.1430 H     1 <1>   0.1500 
 47 H       10.8350     4.1420     1.2680 H     1 <1>   0.0800 
 48 H       11.2890     5.7280     0.6920 H     1 <1>   0.0800 
 49 H       11.7310     4.3020    -0.2190 H     1 <1>   0.0800 
@<TRIPOS>BOND
  1   1   2  2   
  2   2   3  am  
  3   2   4  1   
  4   3   5  1   
  5   3   6  1   
  6   4   7  ar  
  7   4   8  ar  
  8   5   9  1   
  9   5  26  1   
 10   5  27  1   
 11   6  10  1   
 12   6  28  1   
 13   6  29  1   
 14   7  11  ar  
 15   7  12  1   
 16   8  13  ar  
 17   8  30  1   
 18   9  14  1   
 19   9  31  1   
 20   9  32  1   
 21  10  14  1   
 22  10  33  1   
 23  10  34  1   
 24  11  15  ar  
 25  11  35  1   
 26  12  36  1   
 27  12  37  1   
 28  12  38  1   
 29  13  15  ar  
 30  13  39  1   
 31  14  16  1   
 32  14  40  1   
 33  15  41  1   
 34  16  17  2   
 35  16  18  am  
 36  18  19  1   
 37  18  42  1   
 38  19  20  ar  
 39  19  21  ar  
 40  20  22  ar  
 41  20  43  1   
 42  21  23  ar  
 43  21  44  1   
 44  22  24  ar  
 45  22  25  1   
 46  23  24  ar  
 47  23  45  1   
 48  24  46  1   
 49  25  47  1   
 50  25  48  1   
 51  25  49  1   
@<TRIPOS>SUBSTRUCTURE
  1 ****  14 GROUP 4 **** **** 0

# MOE 2024.06 (io_trps.svl 2023.06)
