@<TRIPOS>MOLECULE
NONAME
43 44 1 0 0 
SMALL
USER_CHARGES


@<TRIPOS>ATOM
  1 O       -0.5940    -0.1600    -0.3340 O.2   1 <1>  -0.5700 
  2 C       -0.3380     1.0050    -0.1470 C.2   1 <1>   0.5690 
  3 N       -1.2190     1.8460     0.4430 N.am  1 <1>  -0.7300 
  4 C        1.0230     1.5430    -0.5780 C.3   1 <1>  -0.0190 
  5 C       -2.5980     1.5230     0.8370 C.3   1 <1>   0.2840 
  6 C        1.9160     1.8400     0.6410 C.3   1 <1>  -0.1600 
  7 C        0.9010     2.7910    -1.4770 C.3   1 <1>  -0.1600 
  8 C       -3.5330     2.5350     0.1950 C.ar  1 <1>  -0.1440 
  9 C        3.2760     2.4010     0.2190 C.3   1 <1>   0.1400 
 10 C        2.2760     3.3420    -1.8640 C.3   1 <1>   0.1400 
 11 C       -3.4860     3.8820     0.5490 C.ar  1 <1>   0.0820 
 12 C       -4.4450     2.1080    -0.7590 C.ar  1 <1>  -0.1500 
 13 N        3.0650     3.6070    -0.6290 N.am  1 <1>  -0.6600 
 14 O       -2.5660     4.2630     1.4770 O.3   1 <1>  -0.3630 
 15 C       -4.3630     4.7820    -0.0540 C.ar  1 <1>  -0.1500 
 16 C       -5.3120     3.0070    -1.3540 C.ar  1 <1>  -0.1500 
 17 C        3.5050     4.8720    -0.3290 C.2   1 <1>   0.5690 
 18 C       -2.4220     5.6110     1.8690 C.3   1 <1>   0.0400 
 19 C       -5.2720     4.3430    -1.0000 C.ar  1 <1>  -0.1500 
 20 O        3.2790     5.8190    -1.0420 O.2   1 <1>  -0.5700 
 21 C        4.2990     5.1340     0.9300 C.3   1 <1>  -0.1790 
 22 H       -1.0050     2.8400     0.5460 H     1 <1>   0.3700 
 23 H        1.4990     0.7690    -1.1560 H     1 <1>   0.0800 
 24 H       -2.6830     1.5790     1.9090 H     1 <1>   0.0800 
 25 H       -2.8470     0.5220     0.5280 H     1 <1>   0.0800 
 26 H        2.0650     0.9340     1.2030 H     1 <1>   0.0800 
 27 H        1.4330     2.5500     1.2890 H     1 <1>   0.0800 
 28 H        0.3580     3.5690    -0.9710 H     1 <1>   0.0800 
 29 H        0.3560     2.5400    -2.3700 H     1 <1>   0.0800 
 30 H        3.8140     1.6640    -0.3530 H     1 <1>   0.0800 
 31 H        3.8570     2.6300     1.0930 H     1 <1>   0.0800 
 32 H        2.1540     4.2420    -2.4420 H     1 <1>   0.0800 
 33 H        2.8040     2.6270    -2.4720 H     1 <1>   0.0800 
 34 H       -4.4820     1.0710    -1.0460 H     1 <1>   0.1500 
 35 H       -4.3560     5.8250     0.1970 H     1 <1>   0.1500 
 36 H       -6.0170     2.6660    -2.0930 H     1 <1>   0.1500 
 37 H       -1.6320     5.6660     2.5960 H     1 <1>   0.0800 
 38 H       -3.3450     5.9470     2.3070 H     1 <1>   0.0800 
 39 H       -2.1670     6.2010     1.0070 H     1 <1>   0.0800 
 40 H       -5.9480     5.0410    -1.4630 H     1 <1>   0.1500 
 41 H        5.2050     4.5590     0.9150 H     1 <1>   0.0800 
 42 H        3.7130     4.8770     1.7910 H     1 <1>   0.0800 
 43 H        4.5540     6.1760     0.9850 H     1 <1>   0.0800 
@<TRIPOS>BOND
  1   1   2  2   
  2   2   3  am  
  3   2   4  1   
  4   3   5  1   
  5   3  22  1   
  6   4   6  1   
  7   4   7  1   
  8   4  23  1   
  9   5   8  1   
 10   5  24  1   
 11   5  25  1   
 12   6   9  1   
 13   6  26  1   
 14   6  27  1   
 15   7  10  1   
 16   7  28  1   
 17   7  29  1   
 18   8  11  ar  
 19   8  12  ar  
 20   9  13  1   
 21   9  30  1   
 22   9  31  1   
 23  10  13  1   
 24  10  32  1   
 25  10  33  1   
 26  11  14  1   
 27  11  15  ar  
 28  12  16  ar  
 29  12  34  1   
 30  13  17  am  
 31  14  18  1   
 32  15  19  ar  
 33  15  35  1   
 34  16  19  ar  
 35  16  36  1   
 36  17  20  2   
 37  17  21  1   
 38  18  37  1   
 39  18  38  1   
 40  18  39  1   
 41  19  40  1   
 42  21  41  1   
 43  21  42  1   
 44  21  43  1   
@<TRIPOS>SUBSTRUCTURE
  1 ****   3 GROUP 4 **** **** 0

# MOE 2024.06 (io_trps.svl 2023.06)
