@<TRIPOS>MOLECULE
NONAME
33 33 1 0 0 
SMALL
USER_CHARGES


@<TRIPOS>ATOM
  1 BR       0.9300    -0.7140     1.9950 Br    1 <1>  -0.1110 
  2 C        2.4240     0.0940     1.0630 C.ar  1 <1>   0.1110 
  3 C        3.7120    -0.3240     1.3260 C.ar  1 <1>   0.3920 
  4 C        2.2300     1.0910     0.1380 C.ar  1 <1>   0.1660 
  5 O        3.9270    -1.3140     2.2160 O.3   1 <1>  -0.3630 
  6 N        4.7440     0.2230     0.7170 N.ar  1 <1>  -0.6200 
  7 N        3.2570     1.6380    -0.4800 N.ar  1 <1>  -0.6200 
  8 C        0.8520     1.6150    -0.2230 C.3   1 <1>  -0.0970 
  9 C        5.2310    -1.8070     2.4630 C.3   1 <1>   0.0400 
 10 C        4.4660     1.1800    -0.1580 C.ar  1 <1>   0.7370 
 11 N        5.5460     1.7320    -0.8180 N.am  1 <1>  -0.4770 
 12 C        5.8060     3.0770    -0.9050 C.2   1 <1>   0.5690 
 13 C        6.5410     0.7730    -1.4030 C.3   1 <1>   0.2010 
 14 O        6.6830     3.5100    -1.6110 O.2   1 <1>  -0.5700 
 15 C        5.0190     4.0850    -0.0930 C.3   1 <1>  -0.1790 
 16 C        7.5760     0.2800    -0.3950 C.2   1 <1>   0.6590 
 17 O        7.8260    -0.8940    -0.2750 O.2   1 <1>  -0.5700 
 18 O        8.1920     1.2040     0.3360 O.3   1 <1>  -0.4300 
 19 C        9.1630     0.8670     1.3030 C.3   1 <1>   0.0400 
 20 H        0.1470     0.8080    -0.3060 H     1 <1>   0.0800 
 21 H        0.8850     2.1300    -1.1660 H     1 <1>   0.0800 
 22 H        0.5160     2.3020     0.5320 H     1 <1>   0.0800 
 23 H        5.1630    -2.6030     3.1830 H     1 <1>   0.0800 
 24 H        5.8390    -1.0090     2.8500 H     1 <1>   0.0800 
 25 H        5.6460    -2.1780     1.5410 H     1 <1>   0.0800 
 26 H        7.0620     1.2300    -2.2240 H     1 <1>   0.0800 
 27 H        6.0170    -0.0810    -1.7920 H     1 <1>   0.0800 
 28 H        4.8750     3.7280     0.9100 H     1 <1>   0.0800 
 29 H        4.0660     4.2590    -0.5560 H     1 <1>   0.0800 
 30 H        5.5560     5.0150    -0.0520 H     1 <1>   0.0800 
 31 H        9.5180     1.7740     1.7590 H     1 <1>   0.0800 
 32 H        9.9740     0.3540     0.8160 H     1 <1>   0.0800 
 33 H        8.7100     0.2310     2.0430 H     1 <1>   0.0800 
@<TRIPOS>BOND
  1   1   2  1   
  2   2   3  ar  
  3   2   4  ar  
  4   3   5  1   
  5   3   6  ar  
  6   4   7  ar  
  7   4   8  1   
  8   5   9  1   
  9   6  10  ar  
 10   7  10  ar  
 11   8  20  1   
 12   8  21  1   
 13   8  22  1   
 14   9  23  1   
 15   9  24  1   
 16   9  25  1   
 17  10  11  1   
 18  11  12  am  
 19  11  13  1   
 20  12  14  2   
 21  12  15  1   
 22  13  16  1   
 23  13  26  1   
 24  13  27  1   
 25  15  28  1   
 26  15  29  1   
 27  15  30  1   
 28  16  17  2   
 29  16  18  1   
 30  18  19  1   
 31  19  31  1   
 32  19  32  1   
 33  19  33  1   
@<TRIPOS>SUBSTRUCTURE
  1 ****  10 GROUP 4 **** **** 0

# MOE 2024.06 (io_trps.svl 2023.06)
