@<TRIPOS>MOLECULE
NONAME
36 36 1 0 0 
SMALL
USER_CHARGES


@<TRIPOS>ATOM
  1 O       -0.4240     0.3230     0.0930 O.2   1 <1>  -0.5700 
  2 C       -1.3580    -0.4550     0.1470 C.2   1 <1>   0.6900 
  3 N       -2.6370    -0.0020     0.3650 N.am  1 <1>  -0.6600 
  4 N       -1.1680    -1.7960    -0.0450 N.am  1 <1>  -0.5470 
  5 C       -2.9320     1.4560     0.3210 C.3   1 <1>   0.1400 
  6 C       -3.7160    -0.8670     0.9140 C.3   1 <1>   0.1400 
  7 C       -0.0140    -2.5720    -0.1590 C.ar  1 <1>   0.1170 
  8 C       -3.1520     1.8920    -1.1260 C.3   1 <1>  -0.2400 
  9 C       -4.6210    -1.3490    -0.2170 C.3   1 <1>  -0.2400 
 10 C       -0.1010    -3.8250    -0.7550 C.ar  1 <1>  -0.1500 
 11 C        1.2310    -2.1660     0.3120 C.ar  1 <1>  -0.1500 
 12 C        1.0110    -4.6350    -0.8790 C.ar  1 <1>  -0.1500 
 13 C        2.3420    -2.9770     0.1860 C.ar  1 <1>  -0.1500 
 14 C        2.2670    -4.2380    -0.4130 C.ar  1 <1>   0.0860 
 15 C        3.4240    -5.1010    -0.5520 C.2   1 <1>   0.6340 
 16 O        3.3770    -6.2000    -1.0680 O.2   1 <1>  -0.5700 
 17 O        4.6000    -4.6630    -0.0860 O.3   1 <1>  -0.4300 
 18 C        5.7760    -5.4410    -0.1820 C.3   1 <1>   0.0400 
 19 H       -2.0440    -2.2710    -0.2290 H     1 <1>   0.3700 
 20 H       -2.1040     2.0050     0.7400 H     1 <1>   0.0800 
 21 H       -3.8060     1.6810     0.9070 H     1 <1>   0.0800 
 22 H       -4.2940    -0.3170     1.6370 H     1 <1>   0.0800 
 23 H       -3.2860    -1.7110     1.4260 H     1 <1>   0.0800 
 24 H       -2.2670     1.7010    -1.7060 H     1 <1>   0.0800 
 25 H       -3.3570     2.9460    -1.1580 H     1 <1>   0.0800 
 26 H       -3.9840     1.3680    -1.5590 H     1 <1>   0.0800 
 27 H       -5.1330    -0.5170    -0.6650 H     1 <1>   0.0800 
 28 H       -5.3600    -2.0250     0.1740 H     1 <1>   0.0800 
 29 H       -4.0520    -1.8620    -0.9710 H     1 <1>   0.0800 
 30 H       -1.0480    -4.1680    -1.1290 H     1 <1>   0.1500 
 31 H        1.3330    -1.2050     0.7850 H     1 <1>   0.1500 
 32 H        0.9130    -5.6000    -1.3480 H     1 <1>   0.1500 
 33 H        3.2870    -2.6240     0.5610 H     1 <1>   0.1500 
 34 H        6.5880    -4.8880     0.2540 H     1 <1>   0.0800 
 35 H        5.9770    -5.6400    -1.2210 H     1 <1>   0.0800 
 36 H        5.6260    -6.3650     0.3500 H     1 <1>   0.0800 
@<TRIPOS>BOND
  1   1   2  2   
  2   2   3  am  
  3   2   4  am  
  4   3   5  1   
  5   3   6  1   
  6   4   7  1   
  7   4  19  1   
  8   5   8  1   
  9   5  20  1   
 10   5  21  1   
 11   6   9  1   
 12   6  22  1   
 13   6  23  1   
 14   7  10  ar  
 15   7  11  ar  
 16   8  24  1   
 17   8  25  1   
 18   8  26  1   
 19   9  27  1   
 20   9  28  1   
 21   9  29  1   
 22  10  12  ar  
 23  10  30  1   
 24  11  13  ar  
 25  11  31  1   
 26  12  14  ar  
 27  12  32  1   
 28  13  14  ar  
 29  13  33  1   
 30  14  15  1   
 31  15  16  2   
 32  15  17  1   
 33  17  18  1   
 34  18  34  1   
 35  18  35  1   
 36  18  36  1   
@<TRIPOS>SUBSTRUCTURE
  1 ****   7 GROUP 4 **** **** 0

# MOE 2024.06 (io_trps.svl 2023.06)
