@<TRIPOS>MOLECULE
NONAME
37 38 1 0 0 
SMALL
USER_CHARGES


@<TRIPOS>ATOM
  1 BR       0.1520     0.4530    -1.8020 Br    1 <1>  -0.1110 
  2 C        1.8620     0.9790    -1.0890 C.ar  1 <1>   0.1110 
  3 C        2.0580     2.2980    -0.7290 C.ar  1 <1>  -0.1500 
  4 C        2.8520     0.0250    -0.9530 C.ar  1 <1>  -0.1500 
  5 C        3.2890     2.6690    -0.2180 C.ar  1 <1>  -0.1500 
  6 C        4.0780     0.4140    -0.4420 C.ar  1 <1>  -0.1500 
  7 C        4.3180     1.7370    -0.0700 C.ar  1 <1>   0.1170 
  8 N        5.5740     2.1290     0.4360 N.am  1 <1>  -0.4770 
  9 C        6.4260     1.4240     1.2370 C.2   1 <1>   0.5690 
 10 C        6.1530     3.4490     0.1100 C.3   1 <1>   0.1400 
 11 O        6.2610     0.3140     1.6790 O.2   1 <1>  -0.5700 
 12 C        7.6800     2.2020     1.5220 C.3   1 <1>  -0.0990 
 13 C        7.6420     3.3150     0.4660 C.3   1 <1>  -0.0190 
 14 C        8.2930     4.6130     0.9270 C.2   1 <1>   0.5690 
 15 O        7.6030     5.5640     1.1920 O.2   1 <1>  -0.5700 
 16 N        9.6370     4.7250     1.0490 N.am  1 <1>  -0.7300 
 17 C       10.7100     3.7420     0.7870 C.3   1 <1>   0.1400 
 18 C       11.7590     4.3860    -0.1160 C.3   1 <1>  -0.1600 
 19 C       12.8850     3.4010    -0.4250 C.3   1 <1>   0.1200 
 20 O       13.8410     4.0560    -1.1730 O.3   1 <1>  -0.6800 
 21 H        1.2630     3.0140    -0.8450 H     1 <1>   0.1500 
 22 H        2.6670    -0.9950    -1.2380 H     1 <1>   0.1500 
 23 H        3.4450     3.6910     0.0740 H     1 <1>   0.1500 
 24 H        4.8570    -0.3180    -0.3290 H     1 <1>   0.1500 
 25 H        5.6690     4.1950     0.7180 H     1 <1>   0.0800 
 26 H        6.0170     3.6850    -0.9320 H     1 <1>   0.0800 
 27 H        8.5480     1.5770     1.4290 H     1 <1>   0.0800 
 28 H        7.6160     2.6030     2.5170 H     1 <1>   0.0800 
 29 H        8.1460     2.9760    -0.4210 H     1 <1>   0.0800 
 30 H        9.9560     5.6390     1.3840 H     1 <1>   0.3700 
 31 H       10.3110     2.8620     0.3140 H     1 <1>   0.0800 
 32 H       11.1580     3.4540     1.7240 H     1 <1>   0.0800 
 33 H       12.1740     5.2450     0.3830 H     1 <1>   0.0800 
 34 H       11.2920     4.6950    -1.0350 H     1 <1>   0.0800 
 35 H       12.5300     2.5550    -0.9890 H     1 <1>   0.0800 
 36 H       13.3580     3.0560     0.4800 H     1 <1>   0.0800 
 37 H       13.4670     4.3780    -2.0170 H     1 <1>   0.4000 
@<TRIPOS>BOND
  1   1   2  1   
  2   2   3  ar  
  3   2   4  ar  
  4   3   5  ar  
  5   3  21  1   
  6   4   6  ar  
  7   4  22  1   
  8   5   7  ar  
  9   5  23  1   
 10   6   7  ar  
 11   6  24  1   
 12   7   8  1   
 13   8   9  am  
 14   8  10  1   
 15   9  11  2   
 16   9  12  1   
 17  10  13  1   
 18  10  25  1   
 19  10  26  1   
 20  12  13  1   
 21  12  27  1   
 22  12  28  1   
 23  13  14  1   
 24  13  29  1   
 25  14  15  2   
 26  14  16  am  
 27  16  17  1   
 28  16  30  1   
 29  17  18  1   
 30  17  31  1   
 31  17  32  1   
 32  18  19  1   
 33  18  33  1   
 34  18  34  1   
 35  19  20  1   
 36  19  35  1   
 37  19  36  1   
 38  20  37  1   
@<TRIPOS>SUBSTRUCTURE
  1 ****  10 GROUP 4 **** **** 0

# MOE 2024.06 (io_trps.svl 2023.06)
