@<TRIPOS>MOLECULE
NONAME
61 64 1 0 0 
SMALL
USER_CHARGES


@<TRIPOS>ATOM
  1 O       -0.0970     0.8710     1.4260 O.2   1 <1>  -0.5700 
  2 C       -0.1100     1.9550     0.8740 C.2   1 <1>   0.5440 
  3 N       -1.3130     2.6090     0.7240 N.am  1 <1>  -0.6600 
  4 C        1.1410     2.5250     0.4090 C.ar  1 <1>   0.0860 
  5 C       -2.5970     1.9250     1.0940 C.3   1 <1>   0.1400 
  6 C       -1.4220     4.0710     0.4120 C.3   1 <1>   0.1400 
  7 C        2.2380     2.6210     1.2610 C.ar  1 <1>  -0.1500 
  8 C        1.3050     2.9790    -0.9000 C.ar  1 <1>  -0.1500 
  9 C       -3.8250     2.5540     0.4110 C.3   1 <1>   0.2090 
 10 C       -2.6640     4.7230     1.0440 C.3   1 <1>   0.2090 
 11 C        3.4400     3.1580     0.8380 C.ar  1 <1>  -0.1500 
 12 C        2.5030     3.5180    -1.3330 C.ar  1 <1>  -0.1500 
 13 N       -3.9250     4.0310     0.6420 N.pl3 1 <1>  -0.8380 
 14 C        3.5810     3.6150    -0.4640 C.ar  1 <1>  -0.1430 
 15 C       -4.7860     4.7510    -0.1880 C.ar  1 <1>   0.1000 
 16 C        4.9000     4.2050    -0.9300 C.3   1 <1>   0.4860 
 17 C       -5.9040     5.4180     0.3250 C.ar  1 <1>  -0.1440 
 18 C       -4.5190     4.8220    -1.5500 C.ar  1 <1>  -0.1500 
 19 N        5.0460     5.5640    -0.3460 N.4   1 <1>  -0.9590 
 20 C       -6.7210     6.1570    -0.5280 C.ar  1 <1>  -0.1430 
 21 C       -6.1960     5.3260     1.8240 C.3   1 <1>  -0.0970 
 22 C       -5.3350     5.5440    -2.3950 C.ar  1 <1>  -0.1500 
 23 C        3.9700     6.5240    -0.7670 C.3   1 <1>   0.3430 
 24 C        6.4070     6.1640    -0.5450 C.3   1 <1>   0.3430 
 25 C       -6.4320     6.2110    -1.8840 C.ar  1 <1>  -0.1500 
 26 C       -7.9370     6.9250    -0.0270 C.3   1 <1>  -0.0970 
 27 C        4.1720     7.9150    -0.1210 C.3   1 <1>   0.1200 
 28 C        6.4950     7.5810     0.0720 C.3   1 <1>   0.1200 
 29 O        5.2980     7.9290     0.7150 O.3   1 <1>  -0.5600 
 30 H       -2.7250     1.9790     2.1610 H     1 <1>   0.0800 
 31 H       -2.5410     0.8850     0.8240 H     1 <1>   0.0800 
 32 H       -1.4770     4.1990    -0.6540 H     1 <1>   0.0800 
 33 H       -0.5470     4.5840     0.7690 H     1 <1>   0.0800 
 34 H        2.1350     2.2560     2.2700 H     1 <1>   0.1500 
 35 H        0.4770     2.8920    -1.5830 H     1 <1>   0.1500 
 36 H       -4.7160     2.0870     0.7900 H     1 <1>   0.0800 
 37 H       -3.7760     2.3520    -0.6440 H     1 <1>   0.0800 
 38 H       -2.7150     5.7570     0.7490 H     1 <1>   0.0800 
 39 H       -2.5760     4.6920     2.1160 H     1 <1>   0.0800 
 40 H        4.2600     3.2020     1.5360 H     1 <1>   0.1500 
 41 H        2.5850     3.8470    -2.3560 H     1 <1>   0.1500 
 42 H        4.9230     4.2550    -2.0060 H     1 <1>   0.0800 
 43 H        5.7070     3.5700    -0.6000 H     1 <1>   0.0800 
 44 H       -3.6640     4.3090    -1.9450 H     1 <1>   0.1500 
 45 H        4.9280     5.4830     0.6740 H     1 <1>   0.4500 
 46 H       -5.9500     4.3470     2.1940 H     1 <1>   0.0800 
 47 H       -7.2320     5.4950     2.0460 H     1 <1>   0.0800 
 48 H       -5.6010     6.0490     2.3490 H     1 <1>   0.0800 
 49 H       -5.1200     5.5900    -3.4480 H     1 <1>   0.1500 
 50 H        3.0030     6.1420    -0.4780 H     1 <1>   0.0800 
 51 H        3.9680     6.6320    -1.8390 H     1 <1>   0.0800 
 52 H        6.6340     6.2290    -1.5970 H     1 <1>   0.0800 
 53 H        7.1570     5.5390    -0.0890 H     1 <1>   0.0800 
 54 H       -7.0590     6.7730    -2.5520 H     1 <1>   0.1500 
 55 H       -7.6620     7.5540     0.8000 H     1 <1>   0.0800 
 56 H       -8.6990     6.2370     0.2890 H     1 <1>   0.0800 
 57 H       -8.3450     7.5510    -0.7990 H     1 <1>   0.0800 
 58 H        3.3160     8.1730     0.4780 H     1 <1>   0.0800 
 59 H        4.2930     8.6730    -0.8760 H     1 <1>   0.0800 
 60 H        6.7060     8.3160    -0.6860 H     1 <1>   0.0800 
 61 H        7.2830     7.6190     0.8040 H     1 <1>   0.0800 
@<TRIPOS>BOND
  1   1   2  2   
  2   2   3  am  
  3   2   4  1   
  4   3   5  1   
  5   3   6  1   
  6   4   7  ar  
  7   4   8  ar  
  8   5   9  1   
  9   5  30  1   
 10   5  31  1   
 11   6  10  1   
 12   6  32  1   
 13   6  33  1   
 14   7  11  ar  
 15   7  34  1   
 16   8  12  ar  
 17   8  35  1   
 18   9  13  1   
 19   9  36  1   
 20   9  37  1   
 21  10  13  1   
 22  10  38  1   
 23  10  39  1   
 24  11  14  ar  
 25  11  40  1   
 26  12  14  ar  
 27  12  41  1   
 28  13  15  1   
 29  14  16  1   
 30  15  17  ar  
 31  15  18  ar  
 32  16  19  1   
 33  16  42  1   
 34  16  43  1   
 35  17  20  ar  
 36  17  21  1   
 37  18  22  ar  
 38  18  44  1   
 39  19  23  1   
 40  19  24  1   
 41  19  45  1   
 42  20  25  ar  
 43  20  26  1   
 44  21  46  1   
 45  21  47  1   
 46  21  48  1   
 47  22  25  ar  
 48  22  49  1   
 49  23  27  1   
 50  23  50  1   
 51  23  51  1   
 52  24  28  1   
 53  24  52  1   
 54  24  53  1   
 55  25  54  1   
 56  26  55  1   
 57  26  56  1   
 58  26  57  1   
 59  27  29  1   
 60  27  58  1   
 61  27  59  1   
 62  28  29  1   
 63  28  60  1   
 64  28  61  1   
@<TRIPOS>SUBSTRUCTURE
  1 ****   6 GROUP 4 **** **** 0

# MOE 2024.06 (io_trps.svl 2023.06)
