@<TRIPOS>MOLECULE
NONAME
42 43 1 0 0 
SMALL
USER_CHARGES


@<TRIPOS>ATOM
  1 O       -1.2330     0.8830     0.9380 O.2   1 <1>  -0.5700 
  2 C       -1.5600     0.9700    -0.2210 C.2   1 <1>   0.6590 
  3 O       -1.9710    -0.0830    -0.9160 O.3   1 <1>  -0.4300 
  4 C       -1.5380     2.2930    -0.9540 C.3   1 <1>   0.0420 
  5 C       -2.0330    -1.3740    -0.3450 C.3   1 <1>   0.0400 
  6 C       -0.0840     2.7170    -1.0420 C.2   1 <1>   0.5690 
  7 C       -2.4490     3.3680    -0.2950 C.3   1 <1>  -0.0800 
  8 O        0.3960     2.8450    -2.1400 O.2   1 <1>  -0.5700 
  9 N        0.6100     2.9200     0.1140 N.am  1 <1>  -0.5470 
 10 C       -3.8800     2.8130    -0.1030 C.3   1 <1>  -0.1600 
 11 C       -2.4300     4.6960    -1.0890 C.3   1 <1>  -0.1600 
 12 C        1.8220     3.4910     0.3470 C.ar  1 <1>   0.7370 
 13 C       -4.9900     3.8310     0.2010 C.3   1 <1>  -0.1600 
 14 C       -2.5700     5.9270    -0.1790 C.3   1 <1>  -0.1600 
 15 N        2.2850     4.4040    -0.4980 N.ar  1 <1>  -0.6200 
 16 N        2.4000     3.0810     1.4680 N.ar  1 <1>  -0.6200 
 17 C       -4.5800     4.9710     1.1440 C.3   1 <1>  -0.1600 
 18 C       -3.9750     6.1630     0.3880 C.3   1 <1>  -0.1600 
 19 C        3.4530     4.9210    -0.2050 C.ar  1 <1>   0.1600 
 20 C        3.5670     3.6160     1.7400 C.ar  1 <1>   0.1600 
 21 C        4.1480     4.5540     0.9210 C.ar  1 <1>  -0.1500 
 22 H       -1.8910     2.1210    -1.9540 H     1 <1>   0.0800 
 23 H       -2.7070    -1.3520     0.4930 H     1 <1>   0.0800 
 24 H       -2.3890    -2.0600    -1.0920 H     1 <1>   0.0800 
 25 H       -1.0460    -1.6580    -0.0210 H     1 <1>   0.0800 
 26 H       -2.0470     3.5620     0.6850 H     1 <1>   0.0800 
 27 H        0.2410     2.4670     0.9490 H     1 <1>   0.3700 
 28 H       -3.8580     2.1060     0.7090 H     1 <1>   0.0800 
 29 H       -4.1760     2.2700    -0.9850 H     1 <1>   0.0800 
 30 H       -3.1930     4.6980    -1.8490 H     1 <1>   0.0800 
 31 H       -1.4910     4.8060    -1.6020 H     1 <1>   0.0800 
 32 H       -5.8110     3.2960     0.6470 H     1 <1>   0.0800 
 33 H       -5.3600     4.2450    -0.7210 H     1 <1>   0.0800 
 34 H       -2.2960     6.7980    -0.7500 H     1 <1>   0.0800 
 35 H       -1.8650     5.8550     0.6310 H     1 <1>   0.0800 
 36 H       -3.9070     4.6170     1.9060 H     1 <1>   0.0800 
 37 H       -5.4670     5.3220     1.6420 H     1 <1>   0.0800 
 38 H       -4.6360     6.4490    -0.4130 H     1 <1>   0.0800 
 39 H       -3.9230     7.0000     1.0630 H     1 <1>   0.0800 
 40 H        3.8620     5.6550    -0.8790 H     1 <1>   0.1500 
 41 H        4.0710     3.2990     2.6380 H     1 <1>   0.1500 
 42 H        5.1050     4.9830     1.1520 H     1 <1>   0.1500 
@<TRIPOS>BOND
  1   1   2  2   
  2   2   3  1   
  3   2   4  1   
  4   3   5  1   
  5   4   6  1   
  6   4   7  1   
  7   4  22  1   
  8   5  23  1   
  9   5  24  1   
 10   5  25  1   
 11   6   8  2   
 12   6   9  am  
 13   7  10  1   
 14   7  11  1   
 15   7  26  1   
 16   9  12  1   
 17   9  27  1   
 18  10  13  1   
 19  10  28  1   
 20  10  29  1   
 21  11  14  1   
 22  11  30  1   
 23  11  31  1   
 24  12  15  ar  
 25  12  16  ar  
 26  13  17  1   
 27  13  32  1   
 28  13  33  1   
 29  14  18  1   
 30  14  34  1   
 31  14  35  1   
 32  15  19  ar  
 33  16  20  ar  
 34  17  18  1   
 35  17  36  1   
 36  17  37  1   
 37  18  38  1   
 38  18  39  1   
 39  19  21  ar  
 40  19  40  1   
 41  20  21  ar  
 42  20  41  1   
 43  21  42  1   
@<TRIPOS>SUBSTRUCTURE
  1 ****   6 GROUP 4 **** **** 0

# MOE 2024.06 (io_trps.svl 2023.06)
