@<TRIPOS>MOLECULE
NONAME
59 61 1 0 0 
SMALL
USER_CHARGES


@<TRIPOS>ATOM
  1 S       -0.2370    -0.0040     1.7340 S.o2  1 <1>   1.4470 
  2 O       -1.0530     0.9390     2.4690 O.2   1 <1>  -0.6500 
  3 O        0.4960    -0.9940     2.4980 O.2   1 <1>  -0.6500 
  4 N        0.9810     0.8940     0.9640 N.am  1 <1>  -0.8490 
  5 C       -1.2160    -0.7260     0.3550 C.ar  1 <1>  -0.0090 
  6 C        1.9170     0.0290     0.2400 C.3   1 <1>   0.1960 
  7 C        1.6670     1.7740     1.9110 C.3   1 <1>   0.1960 
  8 C       -1.5180    -2.0960     0.2900 C.ar  1 <1>  -0.1440 
  9 C       -1.7000     0.0850    -0.6840 C.ar  1 <1>  -0.1440 
 10 C        2.9150     0.8740    -0.5530 C.3   1 <1>  -0.1600 
 11 C        2.6670     2.6710     1.1760 C.3   1 <1>  -0.1600 
 12 C       -2.2240    -2.6200    -0.7820 C.ar  1 <1>  -0.1500 
 13 C       -1.1110    -3.0900     1.3730 C.3   1 <1>  -0.0970 
 14 C       -2.4030    -0.4600    -1.7470 C.ar  1 <1>  -0.1500 
 15 C       -1.4960     1.5980    -0.7200 C.3   1 <1>  -0.0970 
 16 C        3.6770     1.8380     0.3690 C.3   1 <1>  -0.0190 
 17 C       -2.6680    -1.8110    -1.8070 C.ar  1 <1>  -0.1440 
 18 C        4.6490     2.7140    -0.4200 C.2   1 <1>   0.5690 
 19 C       -3.4360    -2.3970    -2.9780 C.3   1 <1>  -0.0970 
 20 O        4.2100     3.5590    -1.1600 O.2   1 <1>  -0.5700 
 21 N        5.9860     2.4700    -0.2570 N.am  1 <1>  -0.5470 
 22 C        7.1380     3.0580    -0.8080 C.ar  1 <1>   0.1170 
 23 C        8.3570     2.3460    -0.8640 C.ar  1 <1>   0.0860 
 24 C        7.0900     4.3630    -1.2970 C.ar  1 <1>  -0.1500 
 25 C        8.5350     0.9930    -0.3660 C.2   1 <1>   0.6340 
 26 C        9.4590     2.9890    -1.4400 C.ar  1 <1>  -0.1500 
 27 C        8.1960     4.9690    -1.8540 C.ar  1 <1>  -0.1500 
 28 O        9.4530     0.2800    -0.7180 O.2   1 <1>  -0.5700 
 29 O        7.6740     0.4990     0.5390 O.3   1 <1>  -0.4300 
 30 C        9.3890     4.2770    -1.9280 C.ar  1 <1>  -0.1500 
 31 C        7.8370    -0.7970     1.0870 C.3   1 <1>   0.0400 
 32 H        1.3740    -0.6010    -0.4450 H     1 <1>   0.0800 
 33 H        2.4450    -0.6060     0.9340 H     1 <1>   0.0800 
 34 H        2.1730     1.1840     2.6590 H     1 <1>   0.0800 
 35 H        0.9470     2.4010     2.4120 H     1 <1>   0.0800 
 36 H        2.3800     1.4320    -1.3030 H     1 <1>   0.0800 
 37 H        3.6090     0.2260    -1.0590 H     1 <1>   0.0800 
 38 H        3.1870     3.2850     1.8890 H     1 <1>   0.0800 
 39 H        2.1210     3.3250     0.5170 H     1 <1>   0.0800 
 40 H       -2.4380    -3.6730    -0.8250 H     1 <1>   0.1500 
 41 H       -0.0450    -3.2330     1.3650 H     1 <1>   0.0800 
 42 H       -1.5730    -4.0490     1.2200 H     1 <1>   0.0800 
 43 H       -1.4160    -2.7370     2.3420 H     1 <1>   0.0800 
 44 H       -2.7540     0.1750    -2.5410 H     1 <1>   0.1500 
 45 H       -0.4950     1.8320    -1.0350 H     1 <1>   0.0800 
 46 H       -1.6730     2.0390     0.2430 H     1 <1>   0.0800 
 47 H       -2.1770     2.0630    -1.4110 H     1 <1>   0.0800 
 48 H        4.2450     1.2490     1.0680 H     1 <1>   0.0800 
 49 H       -2.7510    -2.6840    -3.7550 H     1 <1>   0.0800 
 50 H       -4.1280    -1.6750    -3.3720 H     1 <1>   0.0800 
 51 H       -3.9920    -3.2630    -2.6670 H     1 <1>   0.0800 
 52 H        6.1930     1.6510     0.3230 H     1 <1>   0.3700 
 53 H        6.1760     4.9250    -1.2460 H     1 <1>   0.1500 
 54 H       10.3970     2.4630    -1.5050 H     1 <1>   0.1500 
 55 H        8.1310     5.9760    -2.2290 H     1 <1>   0.1500 
 56 H       10.2560     4.7420    -2.3650 H     1 <1>   0.1500 
 57 H        7.0360    -0.9820     1.7810 H     1 <1>   0.0800 
 58 H        8.7850    -0.8430     1.5950 H     1 <1>   0.0800 
 59 H        7.8120    -1.5200     0.2890 H     1 <1>   0.0800 
@<TRIPOS>BOND
  1   1   2  2   
  2   1   3  2   
  3   1   4  am  
  4   1   5  1   
  5   4   6  1   
  6   4   7  1   
  7   5   8  ar  
  8   5   9  ar  
  9   6  10  1   
 10   6  32  1   
 11   6  33  1   
 12   7  11  1   
 13   7  34  1   
 14   7  35  1   
 15   8  12  ar  
 16   8  13  1   
 17   9  14  ar  
 18   9  15  1   
 19  10  16  1   
 20  10  36  1   
 21  10  37  1   
 22  11  16  1   
 23  11  38  1   
 24  11  39  1   
 25  12  17  ar  
 26  12  40  1   
 27  13  41  1   
 28  13  42  1   
 29  13  43  1   
 30  14  17  ar  
 31  14  44  1   
 32  15  45  1   
 33  15  46  1   
 34  15  47  1   
 35  16  18  1   
 36  16  48  1   
 37  17  19  1   
 38  18  20  2   
 39  18  21  am  
 40  19  49  1   
 41  19  50  1   
 42  19  51  1   
 43  21  22  1   
 44  21  52  1   
 45  22  23  ar  
 46  22  24  ar  
 47  23  25  1   
 48  23  26  ar  
 49  24  27  ar  
 50  24  53  1   
 51  25  28  2   
 52  25  29  1   
 53  26  30  ar  
 54  26  54  1   
 55  27  30  ar  
 56  27  55  1   
 57  29  31  1   
 58  30  56  1   
 59  31  57  1   
 60  31  58  1   
 61  31  59  1   
@<TRIPOS>SUBSTRUCTURE
  1 ****  10 GROUP 4 **** **** 0

# MOE 2024.06 (io_trps.svl 2023.06)
