@<TRIPOS>MOLECULE
NONAME
45 47 1 0 0 
SMALL
USER_CHARGES


@<TRIPOS>ATOM
  1 S       -0.3120     0.1260    -0.0970 S.o2  1 <1>   1.0900 
  2 O       -0.1090     0.7110    -1.4030 O.2   1 <1>  -0.6500 
  3 O       -0.1370     0.9310     1.0910 O.2   1 <1>  -0.6500 
  4 C        0.6380    -1.3930     0.0510 C.3   1 <1>   0.0890 
  5 C       -1.9970    -0.4730    -0.0650 C.3   1 <1>  -0.0550 
  6 C        2.1460    -1.1840     0.0410 C.ar  1 <1>  -0.1440 
  7 C       -3.0220     0.6690    -0.1860 C.3   1 <1>  -0.0990 
  8 C        2.7810    -0.6490     1.1510 C.ar  1 <1>  -0.1500 
  9 C        2.8950    -1.5230    -1.0760 C.ar  1 <1>  -0.1500 
 10 C       -4.4650     0.1820    -0.1580 C.2   1 <1>   0.5690 
 11 C        4.1530    -0.4640     1.1490 C.ar  1 <1>  -0.1500 
 12 C        4.2670    -1.3380    -1.0780 C.ar  1 <1>  -0.1500 
 13 O       -4.6400    -1.0110    -0.0780 O.2   1 <1>  -0.5700 
 14 N       -5.5020     1.0920    -0.2060 N.am  1 <1>  -0.4770 
 15 C        4.8970    -0.8100     0.0350 C.ar  1 <1>  -0.1500 
 16 C       -6.8650     0.8420     0.0180 C.ar  1 <1>   0.1170 
 17 C       -5.3220     2.5700    -0.3190 C.3   1 <1>   0.2200 
 18 C       -7.5520     2.0040     0.2940 C.ar  1 <1>  -0.1430 
 19 C       -7.5590    -0.3620    -0.0130 C.ar  1 <1>  -0.1500 
 20 C       -6.6090     3.1770     0.2720 C.3   1 <1>  -0.0170 
 21 C       -5.1710     2.9490    -1.7980 C.3   1 <1>  -0.2400 
 22 C       -8.9110     2.0060     0.5450 C.ar  1 <1>  -0.1500 
 23 C       -8.9210    -0.3770     0.2370 C.ar  1 <1>  -0.1500 
 24 C       -9.5970     0.8020     0.5160 C.ar  1 <1>  -0.1500 
 25 H        0.3780    -2.0540    -0.7540 H     1 <1>   0.0800 
 26 H        0.3780    -1.8870     0.9670 H     1 <1>   0.0800 
 27 H       -2.1780    -0.9990     0.8540 H     1 <1>   0.0800 
 28 H       -2.1530    -1.1600    -0.8750 H     1 <1>   0.0800 
 29 H       -2.8430     1.1890    -1.1080 H     1 <1>   0.0800 
 30 H       -2.8700     1.3520     0.6290 H     1 <1>   0.0800 
 31 H        2.2130    -0.3670     2.0220 H     1 <1>   0.1500 
 32 H        2.4200    -1.9290    -1.9520 H     1 <1>   0.1500 
 33 H        4.6390    -0.0470     2.0130 H     1 <1>   0.1500 
 34 H        4.8450    -1.6020    -1.9470 H     1 <1>   0.1500 
 35 H        5.9630    -0.6640     0.0330 H     1 <1>   0.1500 
 36 H       -4.4690     2.9020     0.2470 H     1 <1>   0.0800 
 37 H       -7.0450    -1.2790    -0.2330 H     1 <1>   0.1500 
 38 H       -6.9920     3.9890    -0.3210 H     1 <1>   0.0800 
 39 H       -6.4300     3.5200     1.2750 H     1 <1>   0.0800 
 40 H       -6.0340     2.6290    -2.3550 H     1 <1>   0.0800 
 41 H       -4.2950     2.5010    -2.2270 H     1 <1>   0.0800 
 42 H       -5.0790     4.0160    -1.8950 H     1 <1>   0.0800 
 43 H       -9.4300     2.9240     0.7590 H     1 <1>   0.1500 
 44 H       -9.4570    -1.3100     0.2150 H     1 <1>   0.1500 
 45 H      -10.6550     0.7810     0.7090 H     1 <1>   0.1500 
@<TRIPOS>BOND
  1   1   2  2   
  2   1   3  2   
  3   1   4  1   
  4   1   5  1   
  5   4   6  1   
  6   4  25  1   
  7   4  26  1   
  8   5   7  1   
  9   5  27  1   
 10   5  28  1   
 11   6   8  ar  
 12   6   9  ar  
 13   7  10  1   
 14   7  29  1   
 15   7  30  1   
 16   8  11  ar  
 17   8  31  1   
 18   9  12  ar  
 19   9  32  1   
 20  10  13  2   
 21  10  14  am  
 22  11  15  ar  
 23  11  33  1   
 24  12  15  ar  
 25  12  34  1   
 26  14  16  1   
 27  14  17  1   
 28  15  35  1   
 29  16  18  ar  
 30  16  19  ar  
 31  17  20  1   
 32  17  21  1   
 33  17  36  1   
 34  18  20  1   
 35  18  22  ar  
 36  19  23  ar  
 37  19  37  1   
 38  20  38  1   
 39  20  39  1   
 40  21  40  1   
 41  21  41  1   
 42  21  42  1   
 43  22  24  ar  
 44  22  43  1   
 45  23  24  ar  
 46  23  44  1   
 47  24  45  1   
@<TRIPOS>SUBSTRUCTURE
  1 ****   7 GROUP 4 **** **** 0

# MOE 2024.06 (io_trps.svl 2023.06)
