@<TRIPOS>MOLECULE
NONAME
44 47 1 0 0 
SMALL
USER_CHARGES


@<TRIPOS>ATOM
  1 O        8.6060    -1.7740    -1.6600 O.2   1 <1>  -0.5700 
  2 C        8.7160    -1.3120    -0.5580 C.2   1 <1>   0.6590 
  3 O        7.6830    -1.0540     0.2310 O.3   1 <1>  -0.4300 
  4 C       10.0670    -0.9800     0.0200 C.3   1 <1>  -0.1790 
  5 C        6.3270    -1.3630    -0.0940 C.3   1 <1>   0.4240 
  6 C        6.1400    -2.9010    -0.1070 C.ar  1 <1>  -0.1440 
  7 C        5.4510    -0.7630     1.0460 C.3   1 <1>   0.0630 
  8 C        5.9260    -0.6150    -1.4230 C.3   1 <1>   0.2090 
  9 C        6.9760    -3.7310     0.6360 C.ar  1 <1>  -0.1500 
 10 C        5.1100    -3.5010    -0.8250 C.ar  1 <1>  -0.1500 
 11 C        3.9950    -0.8960     0.6050 C.ar  1 <1>  -0.1440 
 12 C        5.6850     0.7680     1.1250 C.3   1 <1>  -0.1600 
 13 N        4.8240     0.3970    -1.1850 N.pl3 1 <1>  -0.8380 
 14 C        6.8080    -5.1040     0.6370 C.ar  1 <1>  -0.1500 
 15 C        4.9400    -4.8740    -0.8250 C.ar  1 <1>  -0.1500 
 16 C        3.7370    -0.2490    -0.5970 C.ar  1 <1>   0.1000 
 17 C        2.9930    -1.5790     1.2690 C.ar  1 <1>  -0.1500 
 18 C        5.3570     1.4300    -0.2400 C.3   1 <1>   0.2090 
 19 C        5.7910    -5.6860    -0.0980 C.ar  1 <1>  -0.1440 
 20 C        2.4610    -0.2820    -1.1360 C.ar  1 <1>  -0.1500 
 21 C        1.7180    -1.6090     0.7250 C.ar  1 <1>  -0.1500 
 22 C        5.6060    -7.1920    -0.0990 C.3   1 <1>  -0.0970 
 23 C        1.4540    -0.9620    -0.4740 C.ar  1 <1>  -0.1500 
 24 H       10.8350    -1.2200    -0.6920 H     1 <1>   0.0800 
 25 H       10.1120     0.0670     0.2510 H     1 <1>   0.0800 
 26 H       10.2240    -1.5510     0.9150 H     1 <1>   0.0800 
 27 H        5.6280    -1.2560     1.9840 H     1 <1>   0.0800 
 28 H        5.5950    -1.3150    -2.1670 H     1 <1>   0.0800 
 29 H        6.7710    -0.1000    -1.8400 H     1 <1>   0.0800 
 30 H        7.7710    -3.3200     1.2290 H     1 <1>   0.1500 
 31 H        4.4100    -2.9080    -1.3880 H     1 <1>   0.1500 
 32 H        6.6960     0.9950     1.4100 H     1 <1>   0.0800 
 33 H        5.0390     1.1860     1.8760 H     1 <1>   0.0800 
 34 H        7.4740    -5.7200     1.2150 H     1 <1>   0.1500 
 35 H        4.1350    -5.3050    -1.3930 H     1 <1>   0.1500 
 36 H        3.1990    -2.0850     2.1960 H     1 <1>   0.1500 
 37 H        6.2390     1.8830    -0.6600 H     1 <1>   0.0800 
 38 H        4.6160     2.2000    -0.1080 H     1 <1>   0.0800 
 39 H        2.2780     0.2240    -2.0650 H     1 <1>   0.1500 
 40 H        0.9320    -2.1380     1.2330 H     1 <1>   0.1500 
 41 H        6.5540    -7.6860     0.0150 H     1 <1>   0.0800 
 42 H        5.1640    -7.5150    -1.0240 H     1 <1>   0.0800 
 43 H        4.9620    -7.4790     0.7130 H     1 <1>   0.0800 
 44 H        0.4630    -0.9890    -0.8920 H     1 <1>   0.1500 
@<TRIPOS>BOND
  1   1   2  2   
  2   2   3  1   
  3   2   4  1   
  4   3   5  1   
  5   4  24  1   
  6   4  25  1   
  7   4  26  1   
  8   5   6  1   
  9   5   7  1   
 10   5   8  1   
 11   6   9  ar  
 12   6  10  ar  
 13   7  11  1   
 14   7  12  1   
 15   7  27  1   
 16   8  13  1   
 17   8  28  1   
 18   8  29  1   
 19   9  14  ar  
 20   9  30  1   
 21  10  15  ar  
 22  10  31  1   
 23  11  16  ar  
 24  11  17  ar  
 25  12  18  1   
 26  12  32  1   
 27  12  33  1   
 28  13  16  1   
 29  13  18  1   
 30  14  19  ar  
 31  14  34  1   
 32  15  19  ar  
 33  15  35  1   
 34  16  20  ar  
 35  17  21  ar  
 36  17  36  1   
 37  18  37  1   
 38  18  38  1   
 39  19  22  1   
 40  20  23  ar  
 41  20  39  1   
 42  21  23  ar  
 43  21  40  1   
 44  22  41  1   
 45  22  42  1   
 46  22  43  1   
 47  23  44  1   
@<TRIPOS>SUBSTRUCTURE
  1 ****   5 GROUP 4 **** **** 0

# MOE 2024.06 (io_trps.svl 2023.06)
