@<TRIPOS>MOLECULE
NONAME
42 43 1 0 0 
SMALL
USER_CHARGES


@<TRIPOS>ATOM
  1 O       -1.1390    -1.8530     0.1020 O.3   1 <1>  -0.3630 
  2 C       -2.4220    -2.2900     0.0420 C.ar  1 <1>   0.0830 
  3 C       -0.0710    -2.7430     0.3490 C.3   1 <1>   0.1200 
  4 C       -3.3990    -1.3260    -0.1470 C.ar  1 <1>  -0.1500 
  5 C       -2.7930    -3.6280     0.1600 C.ar  1 <1>  -0.1500 
  6 C        1.2330    -1.9360     0.3740 C.3   1 <1>   0.2000 
  7 C       -4.7350    -1.6800    -0.2210 C.ar  1 <1>  -0.1440 
  8 C       -4.1280    -3.9890     0.0900 C.ar  1 <1>  -0.1440 
  9 O        1.3100    -1.1620    -0.7860 O.3   1 <1>  -0.6800 
 10 C        2.4860    -2.8320     0.4640 C.3   1 <1>   0.3430 
 11 C       -5.0920    -3.0120    -0.1020 C.ar  1 <1>  -0.1500 
 12 C       -5.8060    -0.6240    -0.4290 C.3   1 <1>  -0.0970 
 13 C       -4.5440    -5.4440     0.2150 C.3   1 <1>  -0.0970 
 14 N        3.6860    -2.0970    -0.0410 N.4   1 <1>  -0.9590 
 15 C        4.7980    -2.9480    -0.5190 C.3   1 <1>   0.3430 
 16 C        4.2640    -1.1160     0.9040 C.3   1 <1>   0.3430 
 17 C        5.9960    -2.0090    -0.5660 C.3   1 <1>  -0.1600 
 18 C        5.6430    -0.8190     0.3330 C.3   1 <1>  -0.1600 
 19 H       -0.0520    -3.4760    -0.4400 H     1 <1>   0.0800 
 20 H       -0.2430    -3.2240     1.2960 H     1 <1>   0.0800 
 21 H       -3.1040    -0.2970    -0.2350 H     1 <1>   0.1500 
 22 H       -2.0620    -4.3980     0.3030 H     1 <1>   0.1500 
 23 H        1.2090    -1.2630     1.2140 H     1 <1>   0.0800 
 24 H        0.4150    -0.7870    -0.9660 H     1 <1>   0.4000 
 25 H        2.3200    -3.6990    -0.1530 H     1 <1>   0.0800 
 26 H        2.6380    -3.1670     1.4760 H     1 <1>   0.0800 
 27 H       -6.1300    -3.2910    -0.1580 H     1 <1>   0.1500 
 28 H       -5.3710     0.3090    -0.7360 H     1 <1>   0.0800 
 29 H       -6.3460    -0.4690     0.4880 H     1 <1>   0.0800 
 30 H       -6.4960    -0.9440    -1.1890 H     1 <1>   0.0800 
 31 H       -3.7930    -6.0120     0.7340 H     1 <1>   0.0800 
 32 H       -4.6860    -5.8670    -0.7630 H     1 <1>   0.0800 
 33 H       -5.4650    -5.5210     0.7640 H     1 <1>   0.0800 
 34 H        3.3180    -1.5470    -0.8420 H     1 <1>   0.4500 
 35 H        4.5860    -3.3750    -1.4860 H     1 <1>   0.0800 
 36 H        4.9870    -3.7370     0.1920 H     1 <1>   0.0800 
 37 H        4.3660    -1.5630     1.8800 H     1 <1>   0.0800 
 38 H        3.6580    -0.2260     0.9730 H     1 <1>   0.0800 
 39 H        6.1600    -1.6780    -1.5780 H     1 <1>   0.0800 
 40 H        6.8820    -2.5160    -0.2260 H     1 <1>   0.0800 
 41 H        6.3590    -0.6880     1.1260 H     1 <1>   0.0800 
 42 H        5.6060     0.0890    -0.2450 H     1 <1>   0.0800 
@<TRIPOS>BOND
  1   1   2  1   
  2   1   3  1   
  3   2   4  ar  
  4   2   5  ar  
  5   3   6  1   
  6   3  19  1   
  7   3  20  1   
  8   4   7  ar  
  9   4  21  1   
 10   5   8  ar  
 11   5  22  1   
 12   6   9  1   
 13   6  10  1   
 14   6  23  1   
 15   7  11  ar  
 16   7  12  1   
 17   8  11  ar  
 18   8  13  1   
 19   9  24  1   
 20  10  14  1   
 21  10  25  1   
 22  10  26  1   
 23  11  27  1   
 24  12  28  1   
 25  12  29  1   
 26  12  30  1   
 27  13  31  1   
 28  13  32  1   
 29  13  33  1   
 30  14  15  1   
 31  14  16  1   
 32  14  34  1   
 33  15  17  1   
 34  15  35  1   
 35  15  36  1   
 36  16  18  1   
 37  16  37  1   
 38  16  38  1   
 39  17  18  1   
 40  17  39  1   
 41  17  40  1   
 42  18  41  1   
 43  18  42  1   
@<TRIPOS>SUBSTRUCTURE
  1 ****   3 GROUP 4 **** **** 0

# MOE 2024.06 (io_trps.svl 2023.06)
