@<TRIPOS>MOLECULE
NONAME
43 45 1 0 0 
SMALL
USER_CHARGES


@<TRIPOS>ATOM
  1 S        0.0440    -0.4210    -0.3090 S.3   1 <1>  -0.0800 
  2 C       -0.1430     1.3030    -0.0020 C.2   1 <1>   0.1040 
  3 C        1.7830    -0.2630    -0.3870 C.2   1 <1>  -0.1400 
  4 N       -1.4050     1.8510     0.1700 N.am  1 <1>  -0.4940 
  5 C        1.0770     1.9340     0.0240 C.2   1 <1>  -0.0860 
  6 C        2.1650     1.0000    -0.1790 C.2   1 <1>  -0.1810 
  7 C        2.6670    -1.4630    -0.6520 C.3   1 <1>   0.3000 
  8 C       -2.6860     1.3430     0.1710 C.2   1 <1>   0.7150 
  9 C        1.2170     3.3550     0.2170 C.2   1 <1>   0.8060 
 10 C        3.6610     1.2890    -0.1930 C.3   1 <1>   0.0210 
 11 O        3.9850    -1.0260    -0.8820 O.3   1 <1>  -0.5600 
 12 O       -2.8900     0.1580    -0.0010 O.2   1 <1>  -0.5700 
 13 C       -3.7950     2.2360     0.3820 C.2   1 <1>  -0.0450 
 14 O        0.2710     4.0840     0.4650 O.2   1 <1>  -0.5700 
 15 O        2.4280     3.9120     0.1120 O.3   1 <1>  -0.4300 
 16 C        4.5040    -0.0110    -0.0620 C.3   1 <1>   0.2800 
 17 S       -3.5000     3.9630     0.6330 S.3   1 <1>  -0.0800 
 18 C       -5.1340     2.0180     0.4330 C.2   1 <1>  -0.1500 
 19 C        2.6280     5.2990     0.2750 C.3   1 <1>   0.1200 
 20 C        4.5640    -0.5200     1.3870 C.3   1 <1>  -0.2400 
 21 C        5.9280     0.2300    -0.5640 C.3   1 <1>  -0.2400 
 22 C       -5.2080     4.3070     0.7960 C.2   1 <1>  -0.1100 
 23 C       -5.9290     3.1780     0.6660 C.2   1 <1>  -0.1500 
 24 C        4.1160     5.5830     0.1000 C.3   1 <1>  -0.2400 
 25 H       -1.3900     2.8620     0.3420 H     1 <1>   0.3700 
 26 H        2.3380    -1.9870    -1.5320 H     1 <1>   0.0800 
 27 H        2.6630    -2.1370     0.1850 H     1 <1>   0.0800 
 28 H        3.9230     1.9430     0.6180 H     1 <1>   0.0800 
 29 H        3.9050     1.7900    -1.1120 H     1 <1>   0.0800 
 30 H       -5.5890     1.0490     0.3110 H     1 <1>   0.1500 
 31 H        2.2940     5.5800     1.2600 H     1 <1>   0.0800 
 32 H        2.0450     5.8180    -0.4680 H     1 <1>   0.0800 
 33 H        3.5800    -0.6270     1.8050 H     1 <1>   0.0800 
 34 H        5.1020     0.1810     2.0000 H     1 <1>   0.0800 
 35 H        5.0750    -1.4650     1.4280 H     1 <1>   0.0800 
 36 H        5.9130     0.5290    -1.5970 H     1 <1>   0.0800 
 37 H        6.5110    -0.6690    -0.4730 H     1 <1>   0.0800 
 38 H        6.4030     1.0050     0.0100 H     1 <1>   0.0800 
 39 H       -5.4980     5.3270     0.9740 H     1 <1>   0.1500 
 40 H       -7.0020     3.1140     0.7240 H     1 <1>   0.1500 
 41 H        4.6860     5.0530     0.8420 H     1 <1>   0.0800 
 42 H        4.3000     6.6360     0.2170 H     1 <1>   0.0800 
 43 H        4.4380     5.2870    -0.8820 H     1 <1>   0.0800 
@<TRIPOS>BOND
  1   1   2  1   
  2   1   3  1   
  3   2   4  1   
  4   2   5  2   
  5   3   6  2   
  6   3   7  1   
  7   4   8  am  
  8   4  25  1   
  9   5   6  1   
 10   5   9  1   
 11   6  10  1   
 12   7  11  1   
 13   7  26  1   
 14   7  27  1   
 15   8  12  2   
 16   8  13  1   
 17   9  14  2   
 18   9  15  1   
 19  10  16  1   
 20  10  28  1   
 21  10  29  1   
 22  11  16  1   
 23  13  17  1   
 24  13  18  2   
 25  15  19  1   
 26  16  20  1   
 27  16  21  1   
 28  17  22  1   
 29  18  23  1   
 30  18  30  1   
 31  19  24  1   
 32  19  31  1   
 33  19  32  1   
 34  20  33  1   
 35  20  34  1   
 36  20  35  1   
 37  21  36  1   
 38  21  37  1   
 39  21  38  1   
 40  22  23  2   
 41  22  39  1   
 42  23  40  1   
 43  24  41  1   
 44  24  42  1   
 45  24  43  1   
@<TRIPOS>SUBSTRUCTURE
  1 ****   5 GROUP 4 **** **** 0

# MOE 2024.06 (io_trps.svl 2023.06)
