@<TRIPOS>MOLECULE
NONAME
36 37 1 0 0 
SMALL
USER_CHARGES


@<TRIPOS>ATOM
  1 CL      -0.9260     0.4290    -0.1790 Cl    1 <1>  -0.1770 
  2 C       -1.3000     2.1350    -0.2580 C.ar  1 <1>   0.1770 
  3 C       -2.5850     2.5860     0.0100 C.ar  1 <1>  -0.1440 
  4 C       -0.2750     3.0080    -0.5890 C.ar  1 <1>  -0.1500 
  5 C       -2.7940     3.9550    -0.0670 C.ar  1 <1>   0.1900 
  6 C       -3.7120     1.6310     0.3660 C.3   1 <1>   0.2140 
  7 C       -0.5190     4.3710    -0.6580 C.ar  1 <1>  -0.1500 
  8 F       -3.9830     4.4370     0.1820 F     1 <1>  -0.1900 
  9 C       -1.7920     4.8510    -0.3940 C.ar  1 <1>  -0.1500 
 10 S       -4.4870     1.0830    -1.1830 S.3   1 <1>  -0.4600 
 11 C       -5.7370    -0.1230    -0.6110 C.3   1 <1>   0.1310 
 12 C       -6.7460     0.5300     0.3220 C.2   1 <1>   0.5690 
 13 O       -7.1280    -0.0860     1.2880 O.2   1 <1>  -0.5700 
 14 N       -7.1750     1.7870     0.0480 N.am  1 <1>  -0.7300 
 15 C       -8.1240     2.5750     0.8500 C.3   1 <1>   0.2200 
 16 C       -9.2650     3.0300    -0.0510 C.3   1 <1>  -0.1600 
 17 C       -7.4540     3.8820     1.2540 C.3   1 <1>  -0.1600 
 18 C       -8.7420     4.2620    -0.7980 C.3   1 <1>  -0.1600 
 19 C       -7.5720     4.8030     0.0340 C.3   1 <1>  -0.1600 
 20 H        0.7060     2.6180    -0.7910 H     1 <1>   0.1500 
 21 H       -4.4700     2.1110     0.9600 H     1 <1>   0.0800 
 22 H       -3.3550     0.7570     0.8800 H     1 <1>   0.0800 
 23 H        0.2750     5.0510    -0.9160 H     1 <1>   0.1500 
 24 H       -2.0070     5.9030    -0.4420 H     1 <1>   0.1500 
 25 H       -5.2150    -0.9150    -0.1070 H     1 <1>   0.0800 
 26 H       -6.2310    -0.5090    -1.4830 H     1 <1>   0.0800 
 27 H       -6.7630     2.2910    -0.7410 H     1 <1>   0.3700 
 28 H       -8.4700     2.0080     1.6990 H     1 <1>   0.0800 
 29 H      -10.0910     3.3240     0.5710 H     1 <1>   0.0800 
 30 H       -9.5960     2.2490    -0.7140 H     1 <1>   0.0800 
 31 H       -6.4370     3.7390     1.5720 H     1 <1>   0.0800 
 32 H       -8.0110     4.3100     2.0690 H     1 <1>   0.0800 
 33 H       -9.5180     5.0000    -0.9120 H     1 <1>   0.0800 
 34 H       -8.3890     3.9770    -1.7750 H     1 <1>   0.0800 
 35 H       -6.6650     4.7590    -0.5460 H     1 <1>   0.0800 
 36 H       -7.7390     5.8220     0.3370 H     1 <1>   0.0800 
@<TRIPOS>BOND
  1   1   2  1   
  2   2   3  ar  
  3   2   4  ar  
  4   3   5  ar  
  5   3   6  1   
  6   4   7  ar  
  7   4  20  1   
  8   5   8  1   
  9   5   9  ar  
 10   6  10  1   
 11   6  21  1   
 12   6  22  1   
 13   7   9  ar  
 14   7  23  1   
 15   9  24  1   
 16  10  11  1   
 17  11  12  1   
 18  11  25  1   
 19  11  26  1   
 20  12  13  2   
 21  12  14  am  
 22  14  15  1   
 23  14  27  1   
 24  15  16  1   
 25  15  17  1   
 26  15  28  1   
 27  16  18  1   
 28  16  29  1   
 29  16  30  1   
 30  17  19  1   
 31  17  31  1   
 32  17  32  1   
 33  18  19  1   
 34  18  33  1   
 35  18  34  1   
 36  19  35  1   
 37  19  36  1   
@<TRIPOS>SUBSTRUCTURE
  1 ****   6 GROUP 4 **** **** 0

# MOE 2024.06 (io_trps.svl 2023.06)
