@<TRIPOS>MOLECULE
NONAME
37 39 1 0 0 
SMALL
USER_CHARGES


@<TRIPOS>ATOM
  1 O       -1.2600     0.1070     2.1530 O.2   1 <1>  -0.5700 
  2 C       -1.5520     1.0980     1.5280 C.2   1 <1>   0.5690 
  3 N       -0.6280     2.0970     1.5300 N.am  1 <1>  -0.7300 
  4 C       -2.9200     1.1550     0.7920 C.3   1 <1>   0.0610 
  5 C       -0.5670     3.4430     0.9070 C.3   1 <1>   0.1400 
  6 C       -2.7460     1.4000    -0.7310 C.3   1 <1>  -0.1600 
  7 C       -3.8360     2.2540     1.3950 C.3   1 <1>  -0.1600 
  8 C       -3.6810    -0.1950     0.9440 C.3   1 <1>  -0.1600 
  9 C        0.4790     3.4500    -0.2120 C.3   1 <1>   0.1200 
 10 C       -4.1090     1.4550    -1.4470 C.3   1 <1>  -0.0800 
 11 C       -5.1940     2.3070     0.6700 C.3   1 <1>  -0.0800 
 12 C       -5.0460    -0.1680     0.2330 C.3   1 <1>  -0.0800 
 13 O        0.4920     4.6970    -0.8200 O.3   1 <1>  -0.6800 
 14 C       -4.9630     2.5780    -0.8280 C.3   1 <1>  -0.1600 
 15 C       -4.8290     0.1080    -1.2640 C.3   1 <1>  -0.1600 
 16 C       -5.9070     0.9540     0.8370 C.3   1 <1>  -0.1600 
 17 H        0.1960     1.8600     2.0870 H     1 <1>   0.3700 
 18 H       -0.2870     4.1600     1.6590 H     1 <1>   0.0800 
 19 H       -1.5210     3.7250     0.5090 H     1 <1>   0.0800 
 20 H       -2.1490     0.6100    -1.1530 H     1 <1>   0.0800 
 21 H       -2.2330     2.3200    -0.9190 H     1 <1>   0.0800 
 22 H       -3.3750     3.2190     1.3330 H     1 <1>   0.0800 
 23 H       -3.9950     2.0480     2.4400 H     1 <1>   0.0800 
 24 H       -3.8310    -0.4100     1.9880 H     1 <1>   0.0800 
 25 H       -3.0830    -0.9930     0.5390 H     1 <1>   0.0800 
 26 H        0.2540     2.7100    -0.9600 H     1 <1>   0.0800 
 27 H        1.4600     3.2730     0.1920 H     1 <1>   0.0800 
 28 H       -3.9620     1.6450    -2.4970 H     1 <1>   0.0800 
 29 H       -5.8010     3.0890     1.0930 H     1 <1>   0.0800 
 30 H       -5.5410    -1.1160     0.3600 H     1 <1>   0.0800 
 31 H       -0.3070     4.8330    -1.3660 H     1 <1>   0.4000 
 32 H       -4.4700     3.5260    -0.9560 H     1 <1>   0.0800 
 33 H       -5.9100     2.6330    -1.3360 H     1 <1>   0.0800 
 34 H       -4.2430    -0.6830    -1.7000 H     1 <1>   0.0800 
 35 H       -5.7780     0.1290    -1.7720 H     1 <1>   0.0800 
 36 H       -6.8650     0.9830     0.3470 H     1 <1>   0.0800 
 37 H       -6.0800     0.7580     1.8810 H     1 <1>   0.0800 
@<TRIPOS>BOND
  1   1   2  2   
  2   2   3  am  
  3   2   4  1   
  4   3   5  1   
  5   3  17  1   
  6   4   6  1   
  7   4   7  1   
  8   4   8  1   
  9   5   9  1   
 10   5  18  1   
 11   5  19  1   
 12   6  10  1   
 13   6  20  1   
 14   6  21  1   
 15   7  11  1   
 16   7  22  1   
 17   7  23  1   
 18   8  12  1   
 19   8  24  1   
 20   8  25  1   
 21   9  13  1   
 22   9  26  1   
 23   9  27  1   
 24  10  14  1   
 25  10  15  1   
 26  10  28  1   
 27  11  14  1   
 28  11  16  1   
 29  11  29  1   
 30  12  15  1   
 31  12  16  1   
 32  12  30  1   
 33  13  31  1   
 34  14  32  1   
 35  14  33  1   
 36  15  34  1   
 37  15  35  1   
 38  16  36  1   
 39  16  37  1   
@<TRIPOS>SUBSTRUCTURE
  1 ****   4 GROUP 4 **** **** 0

# MOE 2024.06 (io_trps.svl 2023.06)
