@<TRIPOS>MOLECULE
NONAME
61 64 1 0 0 
SMALL
USER_CHARGES


@<TRIPOS>ATOM
  1 O        0.4890    -0.1180    -0.9200 O.2   1 <1>  -0.5700 
  2 C       -0.6760     0.2410    -0.6750 C.2   1 <1>   0.6160 
  3 N       -1.7520    -0.6030    -0.5590 N.am  1 <1>  -0.1570 
  4 C       -1.1230     1.5730    -0.5060 C.2   1 <1>   0.1230 
  5 N       -2.9000     0.2300    -0.3570 N.pl3 1 <1>  -0.4890 
  6 C       -1.6630    -1.8810     0.0270 C.ar  1 <1>   0.1170 
  7 N       -0.2350     2.6930    -0.5420 N.am  1 <1>  -0.5390 
  8 C       -2.4780     1.5280    -0.3520 C.2   1 <1>  -0.0380 
  9 C       -4.2340    -0.2490    -0.7960 C.3   1 <1>   0.1290 
 10 C       -2.2360    -2.1510     1.2670 C.ar  1 <1>  -0.1500 
 11 C       -0.9960    -2.9090    -0.6320 C.ar  1 <1>  -0.1500 
 12 C       -0.2070     3.8090     0.2430 C.2   1 <1>   0.5690 
 13 C       -3.4640     2.6790    -0.2320 C.3   1 <1>  -0.1020 
 14 C       -2.1560    -3.4140     1.8260 C.ar  1 <1>  -0.1500 
 15 C       -0.9140    -4.1730    -0.0770 C.ar  1 <1>  -0.1500 
 16 O       -1.0340     4.0000     1.1080 O.2   1 <1>  -0.5700 
 17 C        0.9280     4.8370    -0.0030 C.3   1 <1>   0.2040 
 18 C       -1.4960    -4.4280     1.1520 C.ar  1 <1>  -0.1500 
 19 C        2.1730     4.0900    -0.5310 C.ar  1 <1>  -0.1430 
 20 C        1.2590     5.6640     1.2570 C.3   1 <1>  -0.1600 
 21 C        0.4380     5.9380    -0.9620 C.3   1 <1>  -0.1600 
 22 C        3.0270     3.4530     0.3640 C.ar  1 <1>  -0.1500 
 23 C        2.4500     3.9890    -1.8920 C.ar  1 <1>  -0.1500 
 24 C        0.2790     6.8440     1.2940 C.3   1 <1>  -0.1600 
 25 C       -0.3440     6.9290    -0.1000 C.3   1 <1>  -0.1600 
 26 C        4.1330     2.7460    -0.0740 C.ar  1 <1>   0.0830 
 27 C        3.5390     3.2630    -2.3420 C.ar  1 <1>  -0.1500 
 28 O        4.9370     2.2000     0.8720 O.3   1 <1>  -0.3620 
 29 C        4.3730     2.6210    -1.4450 C.ar  1 <1>   0.0830 
 30 C        6.2700     2.6590     0.9140 C.3   1 <1>   0.0400 
 31 O        5.3830     1.8740    -1.9510 O.3   1 <1>  -0.3630 
 32 C        5.2590     0.4800    -1.7690 C.3   1 <1>   0.0400 
 33 H        0.6420     2.5020    -1.0390 H     1 <1>   0.3700 
 34 H       -4.3280    -1.3020    -0.5960 H     1 <1>   0.0800 
 35 H       -4.3480    -0.0780    -1.8510 H     1 <1>   0.0800 
 36 H       -5.0030     0.2770    -0.2600 H     1 <1>   0.0800 
 37 H       -2.7420    -1.3620     1.7950 H     1 <1>   0.1500 
 38 H       -0.5370    -2.7070    -1.5840 H     1 <1>   0.1500 
 39 H       -3.8440     2.7250     0.7720 H     1 <1>   0.0800 
 40 H       -4.2810     2.5500    -0.9160 H     1 <1>   0.0800 
 41 H       -2.9870     3.6130    -0.4620 H     1 <1>   0.0800 
 42 H       -2.6040    -3.6090     2.7850 H     1 <1>   0.1500 
 43 H       -0.3950    -4.9580    -0.6010 H     1 <1>   0.1500 
 44 H       -1.4330    -5.4110     1.5860 H     1 <1>   0.1500 
 45 H        2.2580     6.0560     1.1720 H     1 <1>   0.0800 
 46 H        1.1960     5.0740     2.1550 H     1 <1>   0.0800 
 47 H       -0.1670     5.5460    -1.7610 H     1 <1>   0.0800 
 48 H        1.2870     6.4530    -1.3790 H     1 <1>   0.0800 
 49 H        2.8490     3.4910     1.4240 H     1 <1>   0.1500 
 50 H        1.8210     4.4600    -2.6270 H     1 <1>   0.1500 
 51 H        0.7940     7.7550     1.5470 H     1 <1>   0.0800 
 52 H       -0.4920     6.6640     2.0260 H     1 <1>   0.0800 
 53 H       -1.3760     6.6240    -0.0460 H     1 <1>   0.0800 
 54 H       -0.2960     7.9270    -0.5000 H     1 <1>   0.0800 
 55 H        3.7430     3.1810    -3.3950 H     1 <1>   0.1500 
 56 H        6.7320     2.2680     1.8020 H     1 <1>   0.0800 
 57 H        6.2670     3.7350     0.9420 H     1 <1>   0.0800 
 58 H        6.7960     2.3100     0.0440 H     1 <1>   0.0800 
 59 H        6.0690    -0.0010    -2.2850 H     1 <1>   0.0800 
 60 H        4.3160     0.1590    -2.1770 H     1 <1>   0.0800 
 61 H        5.3040     0.2520    -0.7190 H     1 <1>   0.0800 
@<TRIPOS>BOND
  1   1   2  2   
  2   2   3  am  
  3   2   4  1   
  4   3   5  1   
  5   3   6  1   
  6   4   7  1   
  7   4   8  2   
  8   5   8  1   
  9   5   9  1   
 10   6  10  ar  
 11   6  11  ar  
 12   7  12  am  
 13   7  33  1   
 14   8  13  1   
 15   9  34  1   
 16   9  35  1   
 17   9  36  1   
 18  10  14  ar  
 19  10  37  1   
 20  11  15  ar  
 21  11  38  1   
 22  12  16  2   
 23  12  17  1   
 24  13  39  1   
 25  13  40  1   
 26  13  41  1   
 27  14  18  ar  
 28  14  42  1   
 29  15  18  ar  
 30  15  43  1   
 31  17  19  1   
 32  17  20  1   
 33  17  21  1   
 34  18  44  1   
 35  19  22  ar  
 36  19  23  ar  
 37  20  24  1   
 38  20  45  1   
 39  20  46  1   
 40  21  25  1   
 41  21  47  1   
 42  21  48  1   
 43  22  26  ar  
 44  22  49  1   
 45  23  27  ar  
 46  23  50  1   
 47  24  25  1   
 48  24  51  1   
 49  24  52  1   
 50  25  53  1   
 51  25  54  1   
 52  26  28  1   
 53  26  29  ar  
 54  27  29  ar  
 55  27  55  1   
 56  28  30  1   
 57  29  31  1   
 58  30  56  1   
 59  30  57  1   
 60  30  58  1   
 61  31  32  1   
 62  32  59  1   
 63  32  60  1   
 64  32  61  1   
@<TRIPOS>SUBSTRUCTURE
  1 ****   7 GROUP 4 **** **** 0

# MOE 2024.06 (io_trps.svl 2023.06)
