@<TRIPOS>MOLECULE
NONAME
37 38 1 0 0 
SMALL
USER_CHARGES


@<TRIPOS>ATOM
  1 O        0.6070    -0.0770     0.6600 O.2   1 <1>  -0.5700 
  2 C        0.9140     0.9410     0.0670 C.2   1 <1>   0.6900 
  3 N        2.1940     1.1180    -0.3810 N.am  1 <1>  -0.6600 
  4 N       -0.0050     1.9080    -0.1900 N.am  1 <1>  -0.7300 
  5 C        2.8010     2.4660    -0.5760 C.3   1 <1>   0.2840 
  6 C        3.1570    -0.0130    -0.4070 C.3   1 <1>   0.1400 
  7 C       -1.4170     1.9720     0.1950 C.3   1 <1>   0.3000 
  8 C        4.2070     2.5900     0.0130 C.ar  1 <1>  -0.1440 
  9 C        4.1710     0.1650     0.7210 C.3   1 <1>  -0.0160 
 10 C       -1.9430     3.3110    -0.3170 C.3   1 <1>  -0.2400 
 11 C       -2.1880     0.8310    -0.4700 C.3   1 <1>  -0.2400 
 12 C       -1.5470     1.9240     1.7180 C.3   1 <1>  -0.2400 
 13 C        4.8550     1.5190     0.6200 C.ar  1 <1>  -0.1440 
 14 C        4.8520     3.8160    -0.0650 C.ar  1 <1>  -0.1500 
 15 C        6.1290     1.6860     1.1400 C.ar  1 <1>  -0.1500 
 16 C        6.1240     3.9780     0.4520 C.ar  1 <1>  -0.1500 
 17 C        6.7640     2.9120     1.0560 C.ar  1 <1>  -0.1500 
 18 H        0.2550     2.5900    -0.8910 H     1 <1>   0.3700 
 19 H        2.1800     3.2130    -0.1150 H     1 <1>   0.0800 
 20 H        2.8480     2.6690    -1.6320 H     1 <1>   0.0800 
 21 H        3.6660    -0.0210    -1.3550 H     1 <1>   0.0800 
 22 H        2.6440    -0.9530    -0.2940 H     1 <1>   0.0800 
 23 H        4.8990    -0.6230     0.6650 H     1 <1>   0.0800 
 24 H        3.6640     0.0870     1.6670 H     1 <1>   0.0800 
 25 H       -1.8570     3.3690    -1.3870 H     1 <1>   0.0800 
 26 H       -1.3990     4.1250     0.1280 H     1 <1>   0.0800 
 27 H       -2.9810     3.4220    -0.0590 H     1 <1>   0.0800 
 28 H       -2.0520     0.8550    -1.5360 H     1 <1>   0.0800 
 29 H       -3.2370     0.9180    -0.2550 H     1 <1>   0.0800 
 30 H       -1.8520    -0.1190    -0.0980 H     1 <1>   0.0800 
 31 H       -0.9560     2.6990     2.1710 H     1 <1>   0.0800 
 32 H       -1.2220     0.9720     2.0980 H     1 <1>   0.0800 
 33 H       -2.5720     2.0610     2.0080 H     1 <1>   0.0800 
 34 H        4.3660     4.6550    -0.5310 H     1 <1>   0.1500 
 35 H        6.6320     0.8620     1.6140 H     1 <1>   0.1500 
 36 H        6.6160     4.9330     0.3860 H     1 <1>   0.1500 
 37 H        7.7530     3.0350     1.4610 H     1 <1>   0.1500 
@<TRIPOS>BOND
  1   1   2  2   
  2   2   3  am  
  3   2   4  am  
  4   3   5  1   
  5   3   6  1   
  6   4   7  1   
  7   4  18  1   
  8   5   8  1   
  9   5  19  1   
 10   5  20  1   
 11   6   9  1   
 12   6  21  1   
 13   6  22  1   
 14   7  10  1   
 15   7  11  1   
 16   7  12  1   
 17   8  13  ar  
 18   8  14  ar  
 19   9  13  1   
 20   9  23  1   
 21   9  24  1   
 22  10  25  1   
 23  10  26  1   
 24  10  27  1   
 25  11  28  1   
 26  11  29  1   
 27  11  30  1   
 28  12  31  1   
 29  12  32  1   
 30  12  33  1   
 31  13  15  ar  
 32  14  16  ar  
 33  14  34  1   
 34  15  17  ar  
 35  15  35  1   
 36  16  17  ar  
 37  16  36  1   
 38  17  37  1   
@<TRIPOS>SUBSTRUCTURE
  1 ****   3 GROUP 4 **** **** 0

# MOE 2024.06 (io_trps.svl 2023.06)
