@<TRIPOS>MOLECULE
NONAME
38 39 1 0 0 
SMALL
USER_CHARGES


@<TRIPOS>ATOM
  1 S       -0.2860    -0.0140     0.1040 S.o2  1 <1>   1.2950 
  2 O       -1.0230     0.0130     1.3530 O.2   1 <1>  -0.6500 
  3 O       -1.0040    -0.2170    -1.1400 O.2   1 <1>  -0.6500 
  4 N        0.8910    -1.3210     0.2350 N.pl3 1 <1>   0.3170 
  5 C        0.7580     1.4680    -0.0140 C.ar  1 <1>  -0.0090 
  6 C        1.4380    -1.7940     1.3810 C.2   1 <1>   0.0360 
  7 C        1.5970    -1.9530    -0.7370 C.2   1 <1>  -0.3020 
  8 C        0.1520     2.7020    -0.2260 C.ar  1 <1>   0.0830 
  9 C        2.1480     1.4370     0.1060 C.ar  1 <1>  -0.1500 
 10 N        2.4030    -2.6390     1.2120 N.2   1 <1>  -0.5650 
 11 C        2.5010    -2.7470    -0.1250 C.2   1 <1>   0.0770 
 12 O       -1.2000     2.7180    -0.3270 O.3   1 <1>  -0.3620 
 13 C        0.9170     3.8610    -0.3230 C.ar  1 <1>  -0.1500 
 14 C        2.9200     2.5840     0.0120 C.ar  1 <1>  -0.1430 
 15 C       -1.9330     3.8940    -0.5720 C.3   1 <1>   0.1200 
 16 C        2.2900     3.7980    -0.2060 C.ar  1 <1>  -0.1500 
 17 C        4.4400     2.4970     0.1490 C.3   1 <1>   0.0630 
 18 C       -3.4090     3.5150    -0.6410 C.3   1 <1>  -0.2400 
 19 C        4.9280     3.3060     1.3550 C.3   1 <1>  -0.2400 
 20 C        5.1330     2.9630    -1.1350 C.3   1 <1>  -0.2400 
 21 H        1.0780    -1.4690     2.3440 H     1 <1>   0.1500 
 22 H        1.4070    -1.7980    -1.7840 H     1 <1>   0.1500 
 23 H        2.6640     0.5100     0.2790 H     1 <1>   0.1500 
 24 H        3.2290    -3.4000    -0.5810 H     1 <1>   0.1500 
 25 H        0.4630     4.8200    -0.4890 H     1 <1>   0.1500 
 26 H       -1.6040     4.3140    -1.5070 H     1 <1>   0.0800 
 27 H       -1.7550     4.5840     0.2350 H     1 <1>   0.0800 
 28 H        2.8680     4.7030    -0.2830 H     1 <1>   0.1500 
 29 H        4.7190     1.4690     0.3140 H     1 <1>   0.0800 
 30 H       -3.5710     2.8080    -1.4360 H     1 <1>   0.0800 
 31 H       -4.0040     4.3890    -0.8310 H     1 <1>   0.0800 
 32 H       -3.7210     3.0800     0.2920 H     1 <1>   0.0800 
 33 H        4.7260     4.3530     1.2230 H     1 <1>   0.0800 
 34 H        5.9870     3.1750     1.4870 H     1 <1>   0.0800 
 35 H        4.4290     2.9710     2.2470 H     1 <1>   0.0800 
 36 H        4.9360     4.0030    -1.3230 H     1 <1>   0.0800 
 37 H        4.7760     2.3900    -1.9730 H     1 <1>   0.0800 
 38 H        6.1970     2.8260    -1.0550 H     1 <1>   0.0800 
@<TRIPOS>BOND
  1   1   2  2   
  2   1   3  2   
  3   1   4  1   
  4   1   5  1   
  5   4   6  1   
  6   4   7  1   
  7   5   8  ar  
  8   5   9  ar  
  9   6  10  2   
 10   6  21  1   
 11   7  11  2   
 12   7  22  1   
 13   8  12  1   
 14   8  13  ar  
 15   9  14  ar  
 16   9  23  1   
 17  10  11  1   
 18  11  24  1   
 19  12  15  1   
 20  13  16  ar  
 21  13  25  1   
 22  14  16  ar  
 23  14  17  1   
 24  15  18  1   
 25  15  26  1   
 26  15  27  1   
 27  16  28  1   
 28  17  19  1   
 29  17  20  1   
 30  17  29  1   
 31  18  30  1   
 32  18  31  1   
 33  18  32  1   
 34  19  33  1   
 35  19  34  1   
 36  19  35  1   
 37  20  36  1   
 38  20  37  1   
 39  20  38  1   
@<TRIPOS>SUBSTRUCTURE
  1 ****   5 GROUP 4 **** **** 0

# MOE 2024.06 (io_trps.svl 2023.06)
