@<TRIPOS>MOLECULE
NONAME
36 37 1 0 0 
SMALL
USER_CHARGES


@<TRIPOS>ATOM
  1 S        0.0360    -0.4530    -0.8000 S.o2  1 <1>   1.5010 
  2 O       -0.2470     0.8620    -0.2670 O.2   1 <1>  -0.6500 
  3 O       -0.0970    -0.6890    -2.2220 O.2   1 <1>  -0.6500 
  4 N       -0.9980    -1.5490    -0.0220 N.am  1 <1>  -0.8490 
  5 C        1.6600    -0.9790    -0.2380 C.2   1 <1>  -0.0630 
  6 C       -2.3870    -1.0760    -0.0410 C.3   1 <1>   0.1960 
  7 C       -0.8970    -2.8980    -0.5890 C.3   1 <1>   0.1960 
  8 C        1.9460    -1.3440     1.0700 C.2   1 <1>   0.1390 
  9 C        2.8490    -1.1130    -0.8770 C.2   1 <1>  -0.3020 
 10 C       -3.2890    -1.9970     0.8000 C.3   1 <1>  -0.0800 
 11 C       -1.7220    -3.8820     0.2440 C.3   1 <1>  -0.1600 
 12 N        3.1880    -1.6860     1.2370 N.2   1 <1>  -0.7070 
 13 N        3.7510    -1.5370     0.0270 N.pl3 1 <1>   0.3140 
 14 C       -3.1920    -3.4510     0.3160 C.3   1 <1>  -0.1600 
 15 C       -4.7460    -1.5180     0.7630 C.3   1 <1>  -0.2400 
 16 C        5.1820    -1.8170    -0.2120 C.3   1 <1>   0.0960 
 17 C        5.9970    -0.5190    -0.2690 C.3   1 <1>  -0.2400 
 18 H       -2.7440    -1.0350    -1.0570 H     1 <1>   0.0800 
 19 H       -2.4370    -0.0820     0.3720 H     1 <1>   0.0800 
 20 H        0.1310    -3.2190    -0.5890 H     1 <1>   0.0800 
 21 H       -1.2500    -2.8980    -1.6080 H     1 <1>   0.0800 
 22 H        1.2160    -1.3470     1.8640 H     1 <1>   0.1500 
 23 H        3.0870    -0.9280    -1.9090 H     1 <1>   0.1500 
 24 H       -2.9460    -1.9470     1.8200 H     1 <1>   0.0800 
 25 H       -1.3060    -3.9330     1.2360 H     1 <1>   0.0800 
 26 H       -1.6540    -4.8630    -0.1910 H     1 <1>   0.0800 
 27 H       -3.6340    -3.5380    -0.6620 H     1 <1>   0.0800 
 28 H       -3.7290    -4.1000     0.9860 H     1 <1>   0.0800 
 29 H       -5.1290    -1.5410    -0.2420 H     1 <1>   0.0800 
 30 H       -4.8170    -0.5110     1.1360 H     1 <1>   0.0800 
 31 H       -5.3610    -2.1500     1.3800 H     1 <1>   0.0800 
 32 H        5.2750    -2.3580    -1.1350 H     1 <1>   0.0800 
 33 H        5.5390    -2.4400     0.5880 H     1 <1>   0.0800 
 34 H        5.6580     0.1050    -1.0760 H     1 <1>   0.0800 
 35 H        7.0360    -0.7480    -0.4250 H     1 <1>   0.0800 
 36 H        5.9020     0.0160     0.6600 H     1 <1>   0.0800 
@<TRIPOS>BOND
  1   1   2  2   
  2   1   3  2   
  3   1   4  am  
  4   1   5  1   
  5   4   6  1   
  6   4   7  1   
  7   5   8  1   
  8   5   9  2   
  9   6  10  1   
 10   6  18  1   
 11   6  19  1   
 12   7  11  1   
 13   7  20  1   
 14   7  21  1   
 15   8  12  2   
 16   8  22  1   
 17   9  13  1   
 18   9  23  1   
 19  10  14  1   
 20  10  15  1   
 21  10  24  1   
 22  11  14  1   
 23  11  25  1   
 24  11  26  1   
 25  12  13  1   
 26  13  16  1   
 27  14  27  1   
 28  14  28  1   
 29  15  29  1   
 30  15  30  1   
 31  15  31  1   
 32  16  17  1   
 33  16  32  1   
 34  16  33  1   
 35  17  34  1   
 36  17  35  1   
 37  17  36  1   
@<TRIPOS>SUBSTRUCTURE
  1 ****   1 GROUP 4 **** **** 0

# MOE 2024.06 (io_trps.svl 2023.06)
