@<TRIPOS>MOLECULE
NONAME
50 52 1 0 0 
SMALL
USER_CHARGES


@<TRIPOS>ATOM
  1 O        3.6000    -0.3100     0.9610 O.2   1 <1>  -0.5700 
  2 C        3.0430    -1.2010     0.3540 C.2   1 <1>   0.5690 
  3 N        1.8310    -1.7020     0.7650 N.am  1 <1>  -0.6600 
  4 C        3.7910    -1.7290    -0.8730 C.3   1 <1>  -0.0190 
  5 C        1.0820    -2.8190     0.1180 C.3   1 <1>   0.1400 
  6 C        1.1970    -1.1770     2.0130 C.3   1 <1>   0.1400 
  7 C        5.2410    -2.0160    -0.4470 C.3   1 <1>   0.3430 
  8 C        3.7210    -0.7160    -2.0500 C.3   1 <1>  -0.1600 
  9 C        0.3620    -2.3350    -1.1390 C.3   1 <1>  -0.2400 
 10 C        0.1520    -0.1190     1.6720 C.3   1 <1>  -0.2400 
 11 N        5.9770    -0.7250    -0.3850 N.4   1 <1>  -0.9590 
 12 C        5.0900    -0.4960    -2.7190 C.3   1 <1>  -0.1600 
 13 C        6.1840    -0.0830    -1.7200 C.3   1 <1>   0.3430 
 14 C        7.1970    -0.7590     0.4530 C.3   1 <1>   0.4860 
 15 C        7.6110     0.6730     0.7230 C.ar  1 <1>  -0.1440 
 16 C        8.7580     1.1900     0.1250 C.ar  1 <1>  -0.1500 
 17 C        6.8330     1.4780     1.5590 C.ar  1 <1>  -0.1500 
 18 C        9.0830     2.5070     0.3780 C.ar  1 <1>   0.0820 
 19 C        7.1820     2.8000     1.8000 C.ar  1 <1>  -0.1500 
 20 O       10.1210     3.2040    -0.0920 O.3   1 <1>  -0.3620 
 21 C        8.3190     3.2910     1.1910 C.ar  1 <1>   0.0820 
 22 C       10.0210     4.5140     0.4680 C.3   1 <1>   0.4000 
 23 O        8.8420     4.5170     1.2710 O.3   1 <1>  -0.3620 
 24 H        3.3720    -2.6620    -1.1920 H     1 <1>   0.0800 
 25 H        0.3530    -3.2140     0.8060 H     1 <1>   0.0800 
 26 H        1.7530    -3.6250    -0.1230 H     1 <1>   0.0800 
 27 H        1.9460    -0.7370     2.6520 H     1 <1>   0.0800 
 28 H        0.7420    -1.9810     2.5660 H     1 <1>   0.0800 
 29 H        5.7130    -2.6720    -1.1600 H     1 <1>   0.0800 
 30 H        5.2380    -2.4960     0.5190 H     1 <1>   0.0800 
 31 H        3.3650     0.2360    -1.6890 H     1 <1>   0.0800 
 32 H        3.0130    -1.0570    -2.7850 H     1 <1>   0.0800 
 33 H       -0.3250    -1.5440    -0.9030 H     1 <1>   0.0800 
 34 H       -0.2000    -3.1480    -1.5640 H     1 <1>   0.0800 
 35 H        1.0560    -1.9880    -1.8790 H     1 <1>   0.0800 
 36 H        0.5930     0.6600     1.0740 H     1 <1>   0.0800 
 37 H       -0.2220     0.3210     2.5780 H     1 <1>   0.0800 
 38 H       -0.6760    -0.5550     1.1460 H     1 <1>   0.0800 
 39 H        5.3200    -0.1030     0.1300 H     1 <1>   0.4500 
 40 H        5.0080     0.2620    -3.4790 H     1 <1>   0.0800 
 41 H        5.3960    -1.4010    -3.2160 H     1 <1>   0.0800 
 42 H        7.1470    -0.3560    -2.1200 H     1 <1>   0.0800 
 43 H        6.1710     0.9890    -1.5960 H     1 <1>   0.0800 
 44 H        7.9870    -1.2900    -0.0520 H     1 <1>   0.0800 
 45 H        6.9910    -1.2500     1.3900 H     1 <1>   0.0800 
 46 H        9.3930     0.6080    -0.5190 H     1 <1>   0.1500 
 47 H        5.9450     1.0870     2.0310 H     1 <1>   0.1500 
 48 H        6.5950     3.4360     2.4410 H     1 <1>   0.1500 
 49 H        9.9230     5.2380    -0.3210 H     1 <1>   0.0800 
 50 H       10.8790     4.7100     1.0850 H     1 <1>   0.0800 
@<TRIPOS>BOND
  1   1   2  2   
  2   2   3  am  
  3   2   4  1   
  4   3   5  1   
  5   3   6  1   
  6   4   7  1   
  7   4   8  1   
  8   4  24  1   
  9   5   9  1   
 10   5  25  1   
 11   5  26  1   
 12   6  10  1   
 13   6  27  1   
 14   6  28  1   
 15   7  11  1   
 16   7  29  1   
 17   7  30  1   
 18   8  12  1   
 19   8  31  1   
 20   8  32  1   
 21   9  33  1   
 22   9  34  1   
 23   9  35  1   
 24  10  36  1   
 25  10  37  1   
 26  10  38  1   
 27  11  13  1   
 28  11  14  1   
 29  11  39  1   
 30  12  13  1   
 31  12  40  1   
 32  12  41  1   
 33  13  42  1   
 34  13  43  1   
 35  14  15  1   
 36  14  44  1   
 37  14  45  1   
 38  15  16  ar  
 39  15  17  ar  
 40  16  18  ar  
 41  16  46  1   
 42  17  19  ar  
 43  17  47  1   
 44  18  20  1   
 45  18  21  ar  
 46  19  21  ar  
 47  19  48  1   
 48  20  22  1   
 49  21  23  1   
 50  22  23  1   
 51  22  49  1   
 52  22  50  1   
@<TRIPOS>SUBSTRUCTURE
  1 ****  11 GROUP 4 **** **** 0

# MOE 2024.06 (io_trps.svl 2023.06)
