@<TRIPOS>MOLECULE
NONAME
39 40 1 0 0 
SMALL
USER_CHARGES


@<TRIPOS>ATOM
  1 CL      -1.6250     0.6200    -2.7960 Cl    1 <1>  -0.1770 
  2 C       -2.3860     1.1280    -1.3120 C.ar  1 <1>   0.1770 
  3 C       -3.6160     0.5970    -0.9740 C.ar  1 <1>  -0.1500 
  4 C       -1.7530     2.0510    -0.5030 C.ar  1 <1>  -0.1500 
  5 C       -4.2380     1.0020     0.2000 C.ar  1 <1>  -0.1440 
  6 C       -2.3670     2.4490     0.6720 C.ar  1 <1>  -0.1500 
  7 C       -3.6020     1.9260     1.0220 C.ar  1 <1>  -0.1500 
  8 C       -5.5980     0.4470     0.5790 C.3   1 <1>   0.4870 
  9 N       -6.6240     1.0560    -0.3120 N.4   1 <1>  -0.9590 
 10 C       -6.7000     2.5530    -0.1230 C.3   1 <1>   0.3430 
 11 C       -7.9690     0.3980    -0.1370 C.3   1 <1>   0.3430 
 12 C       -7.7680     3.1970    -1.0250 C.3   1 <1>   0.1400 
 13 C       -9.0510     1.0320    -1.0340 C.3   1 <1>   0.1400 
 14 N       -9.0800     2.5110    -0.8410 N.am  1 <1>  -0.6600 
 15 C      -10.1800     3.1880    -0.3810 C.2   1 <1>   0.7800 
 16 O      -10.1370     4.3660    -0.0920 O.2   1 <1>  -0.5700 
 17 O      -11.3100     2.5010    -0.2290 O.3   1 <1>  -0.4300 
 18 C      -12.4850     3.1350     0.2260 C.3   1 <1>   0.1200 
 19 C      -13.5920     2.0880     0.2940 C.3   1 <1>  -0.2400 
 20 H       -4.0590    -0.1270    -1.6350 H     1 <1>   0.1500 
 21 H       -0.7940     2.4470    -0.7890 H     1 <1>   0.1500 
 22 H       -1.8770     3.1640     1.3140 H     1 <1>   0.1500 
 23 H       -4.0530     2.2490     1.9460 H     1 <1>   0.1500 
 24 H       -5.8160     0.6740     1.6100 H     1 <1>   0.0800 
 25 H       -5.5890    -0.6250     0.4600 H     1 <1>   0.0800 
 26 H       -6.3080     0.8970    -1.2770 H     1 <1>   0.4500 
 27 H       -5.7440     3.0020    -0.3410 H     1 <1>   0.0800 
 28 H       -6.9440     2.7790     0.9020 H     1 <1>   0.0800 
 29 H       -8.2870     0.4940     0.8880 H     1 <1>   0.0800 
 30 H       -7.8980    -0.6530    -0.3640 H     1 <1>   0.0800 
 31 H       -7.4700     3.1260    -2.0570 H     1 <1>   0.0800 
 32 H       -7.8480     4.2440    -0.7850 H     1 <1>   0.0800 
 33 H      -10.0050     0.5940    -0.7950 H     1 <1>   0.0800 
 34 H       -8.8460     0.8130    -2.0680 H     1 <1>   0.0800 
 35 H      -12.7390     3.9210    -0.4650 H     1 <1>   0.0800 
 36 H      -12.2930     3.5580     1.1980 H     1 <1>   0.0800 
 37 H      -13.7690     1.6700    -0.6810 H     1 <1>   0.0800 
 38 H      -14.5010     2.5470     0.6380 H     1 <1>   0.0800 
 39 H      -13.3240     1.3050     0.9810 H     1 <1>   0.0800 
@<TRIPOS>BOND
  1   1   2  1   
  2   2   3  ar  
  3   2   4  ar  
  4   3   5  ar  
  5   3  20  1   
  6   4   6  ar  
  7   4  21  1   
  8   5   7  ar  
  9   5   8  1   
 10   6   7  ar  
 11   6  22  1   
 12   7  23  1   
 13   8   9  1   
 14   8  24  1   
 15   8  25  1   
 16   9  10  1   
 17   9  11  1   
 18   9  26  1   
 19  10  12  1   
 20  10  27  1   
 21  10  28  1   
 22  11  13  1   
 23  11  29  1   
 24  11  30  1   
 25  12  14  1   
 26  12  31  1   
 27  12  32  1   
 28  13  14  1   
 29  13  33  1   
 30  13  34  1   
 31  14  15  am  
 32  15  16  2   
 33  15  17  1   
 34  17  18  1   
 35  18  19  1   
 36  18  35  1   
 37  18  36  1   
 38  19  37  1   
 39  19  38  1   
 40  19  39  1   
@<TRIPOS>SUBSTRUCTURE
  1 ****  10 GROUP 4 **** **** 0

# MOE 2024.06 (io_trps.svl 2023.06)
