@<TRIPOS>MOLECULE
NONAME
51 54 1 0 0 
SMALL
USER_CHARGES


@<TRIPOS>ATOM
  1 O        0.2830    -0.5010    -0.6930 O.2   1 <1>  -0.5700 
  2 C        0.2480    -1.5730    -0.1400 C.2   1 <1>   0.5690 
  3 N        1.4040    -2.1610     0.3140 N.am  1 <1>  -0.6600 
  4 C       -1.0930    -2.2730     0.0220 C.3   1 <1>  -0.0990 
  5 C        1.5560    -3.6060     0.6640 C.3   1 <1>   0.1400 
  6 C        2.6880    -1.3920     0.3350 C.3   1 <1>   0.1400 
  7 C       -2.3020    -1.3400    -0.1300 C.3   1 <1>  -0.0170 
  8 C        2.6220    -4.2700    -0.2360 C.3   1 <1>   0.3430 
  9 C        3.7260    -2.0560    -0.5850 C.3   1 <1>   0.3430 
 10 C       -3.5860    -2.1220     0.0920 C.ar  1 <1>  -0.1440 
 11 N        3.9250    -3.5130    -0.2440 N.4   1 <1>  -0.9590 
 12 C       -4.1110    -2.2580     1.3680 C.ar  1 <1>  -0.1500 
 13 C       -4.2400    -2.7130    -0.9790 C.ar  1 <1>  -0.1500 
 14 C        4.9270    -4.1470    -1.1450 C.3   1 <1>   0.4860 
 15 C       -5.2740    -2.9810     1.5720 C.ar  1 <1>  -0.1500 
 16 C       -5.4020    -3.4360    -0.7760 C.ar  1 <1>  -0.1500 
 17 C        6.2620    -3.4630    -0.9260 C.ar  1 <1>  -0.1440 
 18 C       -5.9190    -3.5710     0.5000 C.ar  1 <1>  -0.1500 
 19 C        6.9730    -3.6920     0.2500 C.ar  1 <1>  -0.1500 
 20 C        6.7750    -2.5980    -1.8960 C.ar  1 <1>  -0.1500 
 21 C        8.1710    -3.0300     0.4240 C.ar  1 <1>   0.0820 
 22 C        7.9860    -1.9460    -1.7000 C.ar  1 <1>  -0.1500 
 23 O        9.0020    -3.0920     1.4680 O.3   1 <1>  -0.3620 
 24 C        8.6640    -2.1810    -0.5220 C.ar  1 <1>   0.0820 
 25 C       10.1080    -2.2420     1.1610 C.3   1 <1>   0.4000 
 26 O        9.8300    -1.6710    -0.1170 O.3   1 <1>  -0.3620 
 27 H       -1.1370    -2.7180     0.9990 H     1 <1>   0.0800 
 28 H       -1.1650    -3.0530    -0.7120 H     1 <1>   0.0800 
 29 H        0.6260    -4.1320     0.5400 H     1 <1>   0.0800 
 30 H        1.8440    -3.6930     1.6970 H     1 <1>   0.0800 
 31 H        3.0640    -1.3520     1.3420 H     1 <1>   0.0800 
 32 H        2.5330    -0.3760     0.0120 H     1 <1>   0.0800 
 33 H       -2.3080    -0.9010    -1.1130 H     1 <1>   0.0800 
 34 H       -2.2370    -0.5360     0.5840 H     1 <1>   0.0800 
 35 H        2.2300    -4.3200    -1.2380 H     1 <1>   0.0800 
 36 H        2.7870    -5.2800     0.1040 H     1 <1>   0.0800 
 37 H        4.6600    -1.5250    -0.4960 H     1 <1>   0.0800 
 38 H        3.3860    -1.9590    -1.6030 H     1 <1>   0.0800 
 39 H        4.3280    -3.5400     0.7010 H     1 <1>   0.4500 
 40 H       -3.6190    -1.8010     2.2080 H     1 <1>   0.1500 
 41 H       -3.8470    -2.6120    -1.9760 H     1 <1>   0.1500 
 42 H        4.6240    -4.0460    -2.1740 H     1 <1>   0.0800 
 43 H        5.0250    -5.1960    -0.9170 H     1 <1>   0.0800 
 44 H       -5.6770    -3.0830     2.5650 H     1 <1>   0.1500 
 45 H       -5.9050    -3.8920    -1.6110 H     1 <1>   0.1500 
 46 H       -6.8230    -4.1330     0.6590 H     1 <1>   0.1500 
 47 H        6.6330    -4.3600     1.0210 H     1 <1>   0.1500 
 48 H        6.2430    -2.4220    -2.8160 H     1 <1>   0.1500 
 49 H        8.3990    -1.2770    -2.4350 H     1 <1>   0.1500 
 50 H       11.0090    -2.8270     1.1070 H     1 <1>   0.0800 
 51 H       10.1820    -1.4620     1.8980 H     1 <1>   0.0800 
@<TRIPOS>BOND
  1   1   2  2   
  2   2   3  am  
  3   2   4  1   
  4   3   5  1   
  5   3   6  1   
  6   4   7  1   
  7   4  27  1   
  8   4  28  1   
  9   5   8  1   
 10   5  29  1   
 11   5  30  1   
 12   6   9  1   
 13   6  31  1   
 14   6  32  1   
 15   7  10  1   
 16   7  33  1   
 17   7  34  1   
 18   8  11  1   
 19   8  35  1   
 20   8  36  1   
 21   9  11  1   
 22   9  37  1   
 23   9  38  1   
 24  10  12  ar  
 25  10  13  ar  
 26  11  14  1   
 27  11  39  1   
 28  12  15  ar  
 29  12  40  1   
 30  13  16  ar  
 31  13  41  1   
 32  14  17  1   
 33  14  42  1   
 34  14  43  1   
 35  15  18  ar  
 36  15  44  1   
 37  16  18  ar  
 38  16  45  1   
 39  17  19  ar  
 40  17  20  ar  
 41  18  46  1   
 42  19  21  ar  
 43  19  47  1   
 44  20  22  ar  
 45  20  48  1   
 46  21  23  1   
 47  21  24  ar  
 48  22  24  ar  
 49  22  49  1   
 50  23  25  1   
 51  24  26  1   
 52  25  26  1   
 53  25  50  1   
 54  25  51  1   
@<TRIPOS>SUBSTRUCTURE
  1 ****   3 GROUP 4 **** **** 0

# MOE 2024.06 (io_trps.svl 2023.06)
