@<TRIPOS>MOLECULE
NONAME
42 44 1 0 0 
SMALL
USER_CHARGES


@<TRIPOS>ATOM
  1 CL      -4.1660     3.9380    -2.8080 Cl    1 <1>  -0.1770 
  2 C       -2.5610     3.5830    -2.2010 C.ar  1 <1>   0.1770 
  3 C       -2.4220     2.9030    -0.9920 C.ar  1 <1>   0.1170 
  4 C       -1.4710     3.9950    -2.9430 C.ar  1 <1>  -0.1500 
  5 N       -3.5680     2.5010    -0.2840 N.am  1 <1>  -0.5470 
  6 C       -1.1290     2.6440    -0.5470 C.ar  1 <1>  -0.1500 
  7 C       -0.1940     3.7280    -2.4790 C.ar  1 <1>  -0.1500 
  8 C       -3.7840     2.1350     1.0130 C.2   1 <1>   0.5690 
  9 C       -0.0280     3.0530    -1.2810 C.ar  1 <1>  -0.1500 
 10 O       -2.9180     2.0530     1.8500 O.2   1 <1>  -0.5700 
 11 C       -5.2320     1.8240     1.3990 C.3   1 <1>   0.1710 
 12 N       -6.2420     2.3810     0.4480 N.3   1 <1>  -0.8100 
 13 C       -7.5560     1.7210     0.6260 C.3   1 <1>   0.1100 
 14 C       -6.3980     3.8500     0.6250 C.3   1 <1>   0.1100 
 15 C       -8.6270     2.2830    -0.3300 C.3   1 <1>   0.2090 
 16 C       -7.4500     4.4460    -0.3290 C.3   1 <1>   0.2090 
 17 N       -8.7650     3.7560    -0.1670 N.pl3 1 <1>  -0.8380 
 18 C       -9.8830     4.3400    -0.7300 C.ar  1 <1>   0.4100 
 19 N       -9.7120     5.0550    -1.8370 N.ar  1 <1>  -0.6200 
 20 C      -11.1250     4.1510    -0.1300 C.ar  1 <1>  -0.1500 
 21 C      -10.8050     5.5870    -2.3560 C.ar  1 <1>   0.1600 
 22 C      -12.2550     4.7100    -0.6810 C.ar  1 <1>  -0.1500 
 23 C      -12.0780     5.4490    -1.8330 C.ar  1 <1>  -0.1500 
 24 H       -1.6210     4.5190    -3.8700 H     1 <1>   0.1500 
 25 H       -4.4570     2.5810    -0.7950 H     1 <1>   0.3700 
 26 H       -0.9750     2.1180     0.3780 H     1 <1>   0.1500 
 27 H        0.6660     4.0430    -3.0460 H     1 <1>   0.1500 
 28 H        0.9640     2.8430    -0.9170 H     1 <1>   0.1500 
 29 H       -5.4170     2.1940     2.3920 H     1 <1>   0.0800 
 30 H       -5.3230     0.7530     1.4240 H     1 <1>   0.0800 
 31 H       -7.8980     1.8540     1.6390 H     1 <1>   0.0800 
 32 H       -7.4520     0.6660     0.4420 H     1 <1>   0.0800 
 33 H       -5.4590     4.3440     0.4460 H     1 <1>   0.0800 
 34 H       -6.6980     4.0670     1.6370 H     1 <1>   0.0800 
 35 H       -9.5700     1.8060    -0.1320 H     1 <1>   0.0800 
 36 H       -8.3480     2.0640    -1.3470 H     1 <1>   0.0800 
 37 H       -7.1120     4.3420    -1.3460 H     1 <1>   0.0800 
 38 H       -7.5720     5.4960    -0.1240 H     1 <1>   0.0800 
 39 H      -11.1790     3.5690     0.7690 H     1 <1>   0.1500 
 40 H      -10.6780     6.1670    -3.2540 H     1 <1>   0.1500 
 41 H      -13.2270     4.5790    -0.2370 H     1 <1>   0.1500 
 42 H      -12.9170     5.9150    -2.3170 H     1 <1>   0.1500 
@<TRIPOS>BOND
  1   1   2  1   
  2   2   3  ar  
  3   2   4  ar  
  4   3   5  1   
  5   3   6  ar  
  6   4   7  ar  
  7   4  24  1   
  8   5   8  am  
  9   5  25  1   
 10   6   9  ar  
 11   6  26  1   
 12   7   9  ar  
 13   7  27  1   
 14   8  10  2   
 15   8  11  1   
 16   9  28  1   
 17  11  12  1   
 18  11  29  1   
 19  11  30  1   
 20  12  13  1   
 21  12  14  1   
 22  13  15  1   
 23  13  31  1   
 24  13  32  1   
 25  14  16  1   
 26  14  33  1   
 27  14  34  1   
 28  15  17  1   
 29  15  35  1   
 30  15  36  1   
 31  16  17  1   
 32  16  37  1   
 33  16  38  1   
 34  17  18  1   
 35  18  19  ar  
 36  18  20  ar  
 37  19  21  ar  
 38  20  22  ar  
 39  20  39  1   
 40  21  23  ar  
 41  21  40  1   
 42  22  23  ar  
 43  22  41  1   
 44  23  42  1   
@<TRIPOS>SUBSTRUCTURE
  1 ****  14 GROUP 4 **** **** 0

# MOE 2024.06 (io_trps.svl 2023.06)
