@<TRIPOS>MOLECULE
NONAME
43 45 1 0 0 
SMALL
USER_CHARGES


@<TRIPOS>ATOM
  1 CL      -2.7780     2.6750     2.3830 Cl    1 <1>  -0.1240 
  2 C       -2.8520     1.2130     1.4390 C.2   1 <1>   0.1640 
  3 S       -4.4060     0.4170     1.3510 S.3   1 <1>  -0.0800 
  4 C       -1.9120     0.5590     0.7390 C.2   1 <1>  -0.1500 
  5 C       -3.7400    -0.8510     0.3120 C.2   1 <1>  -0.0220 
  6 C       -2.4240    -0.6180     0.1030 C.2   1 <1>  -0.1500 
  7 S       -4.8470    -2.1760    -0.2320 S.o2  1 <1>   1.5000 
  8 O       -4.5690    -2.5360    -1.6030 O.2   1 <1>  -0.6500 
  9 O       -4.9220    -3.2070     0.7770 O.2   1 <1>  -0.6500 
 10 N       -6.3870    -1.4550    -0.2730 N.am  1 <1>  -0.8490 
 11 C       -6.5700    -0.5570    -1.4340 C.3   1 <1>   0.1960 
 12 C       -7.4550    -2.4780    -0.2450 C.3   1 <1>   0.1960 
 13 C       -7.9410     0.1670    -1.4010 C.3   1 <1>   0.3430 
 14 C       -8.8770    -1.8700    -0.3530 C.3   1 <1>   0.3430 
 15 N       -8.8440    -0.3630    -0.3170 N.4   1 <1>  -0.9590 
 16 C      -10.1900     0.2880    -0.3410 C.3   1 <1>   0.3430 
 17 C      -10.9940     0.0010     0.9290 C.3   1 <1>  -0.0170 
 18 C      -12.2940     0.7780     0.8590 C.ar  1 <1>  -0.1430 
 19 C      -13.4140     0.2160     0.2640 C.ar  1 <1>  -0.1500 
 20 C      -12.3700     2.0610     1.3790 C.ar  1 <1>  -0.1500 
 21 C      -14.5950     0.9330     0.1830 C.ar  1 <1>  -0.1500 
 22 C      -13.5520     2.7780     1.2980 C.ar  1 <1>  -0.1500 
 23 C      -14.6640     2.2140     0.6990 C.ar  1 <1>  -0.1500 
 24 H       -0.8820     0.8550     0.6460 H     1 <1>   0.1500 
 25 H       -1.7750    -1.2460    -0.4870 H     1 <1>   0.1500 
 26 H       -6.4990    -1.1210    -2.3510 H     1 <1>   0.0800 
 27 H       -5.7880     0.1830    -1.4550 H     1 <1>   0.0800 
 28 H       -7.3950    -3.0310     0.6790 H     1 <1>   0.0800 
 29 H       -7.3110    -3.1860    -1.0460 H     1 <1>   0.0800 
 30 H       -8.4150     0.0570    -2.3630 H     1 <1>   0.0800 
 31 H       -7.7710     1.2200    -1.2440 H     1 <1>   0.0800 
 32 H       -9.4760    -2.2500     0.4580 H     1 <1>   0.0800 
 33 H       -9.3290    -2.2020    -1.2730 H     1 <1>   0.0800 
 34 H       -8.3600    -0.1270     0.5650 H     1 <1>   0.4500 
 35 H      -10.7490    -0.0480    -1.1990 H     1 <1>   0.0800 
 36 H      -10.0700     1.3570    -0.4260 H     1 <1>   0.0800 
 37 H      -10.4410     0.3110     1.7990 H     1 <1>   0.0800 
 38 H      -11.2160    -1.0470     1.0150 H     1 <1>   0.0800 
 39 H      -13.3860    -0.7810    -0.1400 H     1 <1>   0.1500 
 40 H      -11.5200     2.5180     1.8540 H     1 <1>   0.1500 
 41 H      -15.4640     0.4950    -0.2780 H     1 <1>   0.1500 
 42 H      -13.6090     3.7730     1.7030 H     1 <1>   0.1500 
 43 H      -15.5830     2.7720     0.6370 H     1 <1>   0.1500 
@<TRIPOS>BOND
  1   1   2  1   
  2   2   3  1   
  3   2   4  2   
  4   3   5  1   
  5   4   6  1   
  6   4  24  1   
  7   5   6  2   
  8   5   7  1   
  9   6  25  1   
 10   7   8  2   
 11   7   9  2   
 12   7  10  am  
 13  10  11  1   
 14  10  12  1   
 15  11  13  1   
 16  11  26  1   
 17  11  27  1   
 18  12  14  1   
 19  12  28  1   
 20  12  29  1   
 21  13  15  1   
 22  13  30  1   
 23  13  31  1   
 24  14  15  1   
 25  14  32  1   
 26  14  33  1   
 27  15  16  1   
 28  15  34  1   
 29  16  17  1   
 30  16  35  1   
 31  16  36  1   
 32  17  18  1   
 33  17  37  1   
 34  17  38  1   
 35  18  19  ar  
 36  18  20  ar  
 37  19  21  ar  
 38  19  39  1   
 39  20  22  ar  
 40  20  40  1   
 41  21  23  ar  
 42  21  41  1   
 43  22  23  ar  
 44  22  42  1   
 45  23  43  1   
@<TRIPOS>SUBSTRUCTURE
  1 ****  15 GROUP 4 **** **** 0

# MOE 2024.06 (io_trps.svl 2023.06)
