@<TRIPOS>MOLECULE
NONAME
36 37 1 0 0 
SMALL
USER_CHARGES


@<TRIPOS>ATOM
  1 O       -0.0900     0.4960    -0.2860 O.2   1 <1>  -0.5700 
  2 C        0.2380     1.6490    -0.1510 C.2   1 <1>   0.5690 
  3 N       -0.5760     2.7450    -0.1190 N.am  1 <1>  -0.4770 
  4 C        1.6820     2.0330     0.0180 C.3   1 <1>  -0.0990 
  5 C       -1.9820     2.8020    -0.2010 C.ar  1 <1>   0.1170 
  6 C        0.2270     3.9730     0.0630 C.3   1 <1>   0.1400 
  7 C        1.5980     3.4740     0.5400 C.3   1 <1>  -0.0190 
  8 C       -2.7770     1.7940     0.3360 C.ar  1 <1>  -0.1500 
  9 C       -2.6200     3.8780    -0.8120 C.ar  1 <1>  -0.1500 
 10 C        2.7550     4.3640     0.1100 C.2   1 <1>   0.5690 
 11 C       -4.1570     1.8600     0.2710 C.ar  1 <1>  -0.1500 
 12 C       -4.0000     3.9480    -0.8770 C.ar  1 <1>  -0.1500 
 13 O        2.5260     5.4580    -0.3420 O.2   1 <1>  -0.5700 
 14 N        4.0250     3.9020     0.2650 N.am  1 <1>  -0.7300 
 15 C       -4.7790     2.9390    -0.3360 C.ar  1 <1>  -0.1430 
 16 C        5.2560     4.6510    -0.1000 C.3   1 <1>   0.0600 
 17 C       -6.2960     3.0120    -0.4070 C.3   1 <1>  -0.0170 
 18 C       -6.8570     3.7380     0.8170 C.3   1 <1>  -0.2400 
 19 H        2.1600     1.9870    -0.9440 H     1 <1>   0.0800 
 20 H        2.1740     1.3770     0.7110 H     1 <1>   0.0800 
 21 H       -0.2270     4.6280     0.7880 H     1 <1>   0.0800 
 22 H        0.3060     4.4780    -0.8840 H     1 <1>   0.0800 
 23 H        1.5790     3.4550     1.6140 H     1 <1>   0.0800 
 24 H       -2.3130     0.9490     0.8110 H     1 <1>   0.1500 
 25 H       -2.0390     4.6680    -1.2480 H     1 <1>   0.1500 
 26 H       -4.7440     1.0660     0.6970 H     1 <1>   0.1500 
 27 H       -4.4670     4.7910    -1.3530 H     1 <1>   0.1500 
 28 H        4.1790     2.9740     0.6650 H     1 <1>   0.3700 
 29 H        5.0020     5.6130    -0.5130 H     1 <1>   0.0800 
 30 H        5.8160     4.0970    -0.8340 H     1 <1>   0.0800 
 31 H        5.8650     4.8000     0.7740 H     1 <1>   0.0800 
 32 H       -6.7050     2.0180    -0.4570 H     1 <1>   0.0800 
 33 H       -6.5920     3.5300    -1.3030 H     1 <1>   0.0800 
 34 H       -6.5790     3.2170     1.7160 H     1 <1>   0.0800 
 35 H       -7.9300     3.7870     0.7610 H     1 <1>   0.0800 
 36 H       -6.4660     4.7390     0.8650 H     1 <1>   0.0800 
@<TRIPOS>BOND
  1   1   2  2   
  2   2   3  am  
  3   2   4  1   
  4   3   5  1   
  5   3   6  1   
  6   4   7  1   
  7   4  19  1   
  8   4  20  1   
  9   5   8  ar  
 10   5   9  ar  
 11   6   7  1   
 12   6  21  1   
 13   6  22  1   
 14   7  10  1   
 15   7  23  1   
 16   8  11  ar  
 17   8  24  1   
 18   9  12  ar  
 19   9  25  1   
 20  10  13  2   
 21  10  14  am  
 22  11  15  ar  
 23  11  26  1   
 24  12  15  ar  
 25  12  27  1   
 26  14  16  1   
 27  14  28  1   
 28  15  17  1   
 29  16  29  1   
 30  16  30  1   
 31  16  31  1   
 32  17  18  1   
 33  17  32  1   
 34  17  33  1   
 35  18  34  1   
 36  18  35  1   
 37  18  36  1   
@<TRIPOS>SUBSTRUCTURE
  1 ****   3 GROUP 4 **** **** 0

# MOE 2024.06 (io_trps.svl 2023.06)
