@<TRIPOS>MOLECULE
NONAME
41 42 1 0 0 
SMALL
USER_CHARGES


@<TRIPOS>ATOM
  1 BR       3.0830     2.8640    -2.1060 Br    1 <1>  -0.1110 
  2 C        1.7580     3.0540    -0.7150 C.ar  1 <1>   0.1110 
  3 C        2.0960     2.7450     0.5950 C.ar  1 <1>   0.0820 
  4 C        0.5010     3.4980    -1.0730 C.ar  1 <1>  -0.1500 
  5 O        3.3600     2.3170     0.8500 O.3   1 <1>  -0.3630 
  6 C        1.1160     2.8930     1.5720 C.ar  1 <1>  -0.1500 
  7 C       -0.4720     3.6430    -0.0940 C.ar  1 <1>  -0.1440 
  8 C        3.7860     1.9910     2.1660 C.3   1 <1>   0.1810 
  9 C       -0.1510     3.3370     1.2230 C.ar  1 <1>  -0.1500 
 10 C       -1.8770     4.1310    -0.4440 C.3   1 <1>   0.0630 
 11 C        5.2460     1.5530     2.1720 C.2   1 <1>   0.5690 
 12 C       -2.5660     3.1600    -1.4090 C.3   1 <1>  -0.2400 
 13 C       -1.8320     5.5440    -1.0340 C.3   1 <1>  -0.2400 
 14 O        5.7550     1.2420     3.2230 O.2   1 <1>  -0.5700 
 15 N        5.9420     1.5210     1.0080 N.am  1 <1>  -0.7300 
 16 C        7.3630     1.1710     0.8680 C.3   1 <1>   0.2840 
 17 C        7.9720     2.0780    -0.1840 C.ar  1 <1>  -0.1440 
 18 C        8.3620     3.3690     0.1130 C.ar  1 <1>  -0.1500 
 19 C        8.1620     1.6680    -1.4890 C.ar  1 <1>  -0.1500 
 20 C        8.9130     4.1630    -0.8800 C.ar  1 <1>   0.1600 
 21 C        8.7220     2.5420    -2.4060 C.ar  1 <1>   0.1600 
 22 N        9.1030     3.7790    -2.1320 N.ar  1 <1>  -0.6200 
 23 H        0.2940     3.7230    -2.1030 H     1 <1>   0.1500 
 24 H        1.3120     2.6690     2.6040 H     1 <1>   0.1500 
 25 H        3.1730     1.1900     2.5350 H     1 <1>   0.0800 
 26 H        3.6750     2.8610     2.7860 H     1 <1>   0.0800 
 27 H       -0.8950     3.4450     1.9940 H     1 <1>   0.1500 
 28 H       -2.4660     4.1700     0.4570 H     1 <1>   0.0800 
 29 H       -2.0470     3.1200    -2.3500 H     1 <1>   0.0800 
 30 H       -3.5790     3.4720    -1.5890 H     1 <1>   0.0800 
 31 H       -2.5830     2.1720    -0.9840 H     1 <1>   0.0800 
 32 H       -1.2970     5.5550    -1.9670 H     1 <1>   0.0800 
 33 H       -1.3390     6.2110    -0.3490 H     1 <1>   0.0800 
 34 H       -2.8290     5.9070    -1.2060 H     1 <1>   0.0800 
 35 H        5.4730     1.8330     0.1520 H     1 <1>   0.3700 
 36 H        7.4490     0.1400     0.5720 H     1 <1>   0.0800 
 37 H        7.8700     1.2990     1.8100 H     1 <1>   0.0800 
 38 H        8.2390     3.7610     1.1060 H     1 <1>   0.1500 
 39 H        7.8790     0.6790    -1.8020 H     1 <1>   0.1500 
 40 H        9.2110     5.1670    -0.6300 H     1 <1>   0.1500 
 41 H        8.8620     2.2070    -3.4190 H     1 <1>   0.1500 
@<TRIPOS>BOND
  1   1   2  1   
  2   2   3  ar  
  3   2   4  ar  
  4   3   5  1   
  5   3   6  ar  
  6   4   7  ar  
  7   4  23  1   
  8   5   8  1   
  9   6   9  ar  
 10   6  24  1   
 11   7   9  ar  
 12   7  10  1   
 13   8  11  1   
 14   8  25  1   
 15   8  26  1   
 16   9  27  1   
 17  10  12  1   
 18  10  13  1   
 19  10  28  1   
 20  11  14  2   
 21  11  15  am  
 22  12  29  1   
 23  12  30  1   
 24  12  31  1   
 25  13  32  1   
 26  13  33  1   
 27  13  34  1   
 28  15  16  1   
 29  15  35  1   
 30  16  17  1   
 31  16  36  1   
 32  16  37  1   
 33  17  18  ar  
 34  17  19  ar  
 35  18  20  ar  
 36  18  38  1   
 37  19  21  ar  
 38  19  39  1   
 39  20  22  ar  
 40  20  40  1   
 41  21  22  ar  
 42  21  41  1   
@<TRIPOS>SUBSTRUCTURE
  1 ****   5 GROUP 4 **** **** 0

# MOE 2024.06 (io_trps.svl 2023.06)
