@<TRIPOS>MOLECULE
NONAME
35 36 1 0 0 
SMALL
USER_CHARGES


@<TRIPOS>ATOM
  1 F        1.0030    -1.4860     0.4260 F     1 <1>  -0.1900 
  2 C        2.1900    -0.9360     0.4480 C.ar  1 <1>   0.1900 
  3 C        3.2970    -1.7450     0.6080 C.ar  1 <1>  -0.1500 
  4 C        2.2930     0.4340     0.3100 C.ar  1 <1>  -0.1500 
  5 C        4.5500    -1.1550     0.6300 C.ar  1 <1>  -0.1500 
  6 C        3.5530     1.0090     0.3350 C.ar  1 <1>  -0.1500 
  7 C        4.6960     0.2240     0.4910 C.ar  1 <1>   0.1170 
  8 N        5.9890     0.7640     0.5320 N.am  1 <1>  -0.5470 
  9 C        6.5020     1.9210     0.0260 C.2   1 <1>   0.6900 
 10 O        5.8240     2.7180    -0.5920 O.2   1 <1>  -0.5700 
 11 N        7.8220     2.1420     0.2200 N.am  1 <1>  -0.7300 
 12 C        8.5910     3.2050    -0.4560 C.3   1 <1>   0.2200 
 13 C       10.0890     2.8110    -0.4970 C.3   1 <1>   0.2000 
 14 C        8.3410     4.5400     0.2520 C.3   1 <1>  -0.2400 
 15 O       10.2290     1.4610    -0.8280 O.3   1 <1>  -0.5600 
 16 C       10.8510     2.9260     0.8210 C.3   1 <1>  -0.1600 
 17 C       11.5050     1.0210    -0.4940 C.3   1 <1>   0.1200 
 18 C       11.9550     1.8890     0.6790 C.3   1 <1>  -0.1600 
 19 H        3.1770    -2.8080     0.7120 H     1 <1>   0.1500 
 20 H        1.4110     1.0350     0.1870 H     1 <1>   0.1500 
 21 H        5.4210    -1.7730     0.7500 H     1 <1>   0.1500 
 22 H        3.6430     2.0750     0.2350 H     1 <1>   0.1500 
 23 H        6.6850     0.1900     0.9940 H     1 <1>   0.3700 
 24 H        8.4200     1.3210     0.3290 H     1 <1>   0.3700 
 25 H        8.2420     3.2850    -1.4730 H     1 <1>   0.0800 
 26 H       10.5930     3.3860    -1.2550 H     1 <1>   0.0800 
 27 H        8.5770     4.4750     1.2980 H     1 <1>   0.0800 
 28 H        7.3070     4.8190     0.1480 H     1 <1>   0.0800 
 29 H        8.9400     5.3120    -0.1950 H     1 <1>   0.0800 
 30 H       10.2070     2.6650     1.6420 H     1 <1>   0.0800 
 31 H       11.2350     3.9190     0.9740 H     1 <1>   0.0800 
 32 H       12.1430     1.1600    -1.3500 H     1 <1>   0.0800 
 33 H       11.4550    -0.0230    -0.2360 H     1 <1>   0.0800 
 34 H       12.0620     1.3030     1.5750 H     1 <1>   0.0800 
 35 H       12.8990     2.3510     0.4480 H     1 <1>   0.0800 
@<TRIPOS>BOND
  1   1   2  1   
  2   2   3  ar  
  3   2   4  ar  
  4   3   5  ar  
  5   3  19  1   
  6   4   6  ar  
  7   4  20  1   
  8   5   7  ar  
  9   5  21  1   
 10   6   7  ar  
 11   6  22  1   
 12   7   8  1   
 13   8   9  am  
 14   8  23  1   
 15   9  10  2   
 16   9  11  am  
 17  11  12  1   
 18  11  24  1   
 19  12  13  1   
 20  12  14  1   
 21  12  25  1   
 22  13  15  1   
 23  13  16  1   
 24  13  26  1   
 25  14  27  1   
 26  14  28  1   
 27  14  29  1   
 28  15  17  1   
 29  16  18  1   
 30  16  30  1   
 31  16  31  1   
 32  17  18  1   
 33  17  32  1   
 34  17  33  1   
 35  18  34  1   
 36  18  35  1   
@<TRIPOS>SUBSTRUCTURE
  1 ****   9 GROUP 4 **** **** 0

# MOE 2024.06 (io_trps.svl 2023.06)
