@<TRIPOS>MOLECULE
NONAME
55 57 1 0 0 
SMALL
USER_CHARGES


@<TRIPOS>ATOM
  1 N        0.4310     0.1760     0.5750 N.3   1 <1>  -0.8100 
  2 C        1.5970     0.9770     1.0390 C.3   1 <1>   0.1900 
  3 C        0.3670    -1.1930     1.1760 C.3   1 <1>   0.1100 
  4 C       -0.8850     0.8490     0.7950 C.3   1 <1>   0.1100 
  5 C        1.6720     2.3000     0.2520 C.3   1 <1>  -0.1600 
  6 C        2.9070     0.1910     0.8330 C.3   1 <1>  -0.1600 
  7 C       -0.9120    -1.9870     0.8080 C.3   1 <1>   0.3430 
  8 C       -2.0800     0.0610     0.2000 C.3   1 <1>   0.3430 
  9 C        2.9530     3.0880     0.5180 C.3   1 <1>   0.3430 
 10 C        4.1560     1.0280     1.0910 C.3   1 <1>   0.3430 
 11 N       -1.6750    -1.3010    -0.2840 N.4   1 <1>  -0.9590 
 12 N        4.1330     2.2390     0.2300 N.4   1 <1>  -0.9590 
 13 C       -2.7840    -2.1010    -0.8690 C.3   1 <1>   0.4230 
 14 C        5.4040     3.0100     0.3270 C.3   1 <1>   0.4860 
 15 C       -2.2380    -3.4200    -1.4180 C.3   1 <1>  -0.2400 
 16 C       -3.4410    -1.3200    -2.0080 C.3   1 <1>  -0.2400 
 17 C        6.5340     2.1420    -0.1900 C.ar  1 <1>  -0.1440 
 18 C        7.4480     1.5860     0.6950 C.ar  1 <1>  -0.1500 
 19 C        6.6590     1.8900    -1.5490 C.ar  1 <1>  -0.1500 
 20 C        8.4680     0.7770     0.2250 C.ar  1 <1>  -0.1500 
 21 C        7.6790     1.0800    -2.0160 C.ar  1 <1>  -0.1500 
 22 C        8.5820     0.5220    -1.1290 C.ar  1 <1>  -0.1500 
 23 H        1.4830     1.1960     2.0900 H     1 <1>   0.0800 
 24 H        0.4390    -1.1300     2.2490 H     1 <1>   0.0800 
 25 H        1.2010    -1.7760     0.8290 H     1 <1>   0.0800 
 26 H       -0.9000     1.8190     0.3360 H     1 <1>   0.0800 
 27 H       -1.0480     0.9900     1.8510 H     1 <1>   0.0800 
 28 H        0.8590     2.9430     0.5310 H     1 <1>   0.0800 
 29 H        1.5960     2.1010    -0.8030 H     1 <1>   0.0800 
 30 H        2.9490    -0.1940    -0.1710 H     1 <1>   0.0800 
 31 H        2.9500    -0.6390     1.5140 H     1 <1>   0.0800 
 32 H       -1.5350    -2.0840     1.6820 H     1 <1>   0.0800 
 33 H       -0.6190    -2.9770     0.5040 H     1 <1>   0.0800 
 34 H       -2.4820     0.6320    -0.6200 H     1 <1>   0.0800 
 35 H       -2.8530    -0.0250     0.9450 H     1 <1>   0.0800 
 36 H        2.9740     3.4060     1.5490 H     1 <1>   0.0800 
 37 H        2.9670     3.9670    -0.1080 H     1 <1>   0.0800 
 38 H        5.0310     0.4340     0.8720 H     1 <1>   0.0800 
 39 H        4.1960     1.3160     2.1300 H     1 <1>   0.0800 
 40 H       -0.9770    -1.1220    -1.0200 H     1 <1>   0.4500 
 41 H        4.0760     1.9090    -0.7420 H     1 <1>   0.4500 
 42 H       -3.5240    -2.3120    -0.1120 H     1 <1>   0.0800 
 43 H        5.5950     3.2940     1.3490 H     1 <1>   0.0800 
 44 H        5.3440     3.9040    -0.2720 H     1 <1>   0.0800 
 45 H       -1.4320    -3.2490    -2.1080 H     1 <1>   0.0800 
 46 H       -3.0180    -3.9430    -1.9430 H     1 <1>   0.0800 
 47 H       -1.9110    -4.0700    -0.6280 H     1 <1>   0.0800 
 48 H       -2.7150    -1.0200    -2.7420 H     1 <1>   0.0800 
 49 H       -3.9680    -0.4580    -1.6420 H     1 <1>   0.0800 
 50 H       -4.1700    -1.9410    -2.4990 H     1 <1>   0.0800 
 51 H        7.3850     1.7750     1.7530 H     1 <1>   0.1500 
 52 H        5.9760     2.3190    -2.2620 H     1 <1>   0.1500 
 53 H        9.1780     0.3460     0.9110 H     1 <1>   0.1500 
 54 H        7.7770     0.8840    -3.0700 H     1 <1>   0.1500 
 55 H        9.3770    -0.1070    -1.4940 H     1 <1>   0.1500 
@<TRIPOS>BOND
  1   1   2  1   
  2   1   3  1   
  3   1   4  1   
  4   2   5  1   
  5   2   6  1   
  6   2  23  1   
  7   3   7  1   
  8   3  24  1   
  9   3  25  1   
 10   4   8  1   
 11   4  26  1   
 12   4  27  1   
 13   5   9  1   
 14   5  28  1   
 15   5  29  1   
 16   6  10  1   
 17   6  30  1   
 18   6  31  1   
 19   7  11  1   
 20   7  32  1   
 21   7  33  1   
 22   8  11  1   
 23   8  34  1   
 24   8  35  1   
 25   9  12  1   
 26   9  36  1   
 27   9  37  1   
 28  10  12  1   
 29  10  38  1   
 30  10  39  1   
 31  11  13  1   
 32  11  40  1   
 33  12  14  1   
 34  12  41  1   
 35  13  15  1   
 36  13  16  1   
 37  13  42  1   
 38  14  17  1   
 39  14  43  1   
 40  14  44  1   
 41  15  45  1   
 42  15  46  1   
 43  15  47  1   
 44  16  48  1   
 45  16  49  1   
 46  16  50  1   
 47  17  18  ar  
 48  17  19  ar  
 49  18  20  ar  
 50  18  51  1   
 51  19  21  ar  
 52  19  52  1   
 53  20  22  ar  
 54  20  53  1   
 55  21  22  ar  
 56  21  54  1   
 57  22  55  1   
@<TRIPOS>SUBSTRUCTURE
  1 ****   6 GROUP 4 **** **** 0

# MOE 2024.06 (io_trps.svl 2023.06)
