@<TRIPOS>MOLECULE
NONAME
37 38 1 0 0 
SMALL
USER_CHARGES


@<TRIPOS>ATOM
  1 S       -0.0690     0.1990     1.5400 S.o2  1 <1>   1.4470 
  2 O        1.0540    -0.4700     2.1610 O.2   1 <1>  -0.6500 
  3 O       -1.0310     0.8940     2.3640 O.2   1 <1>  -0.6500 
  4 N        0.5690     1.3310     0.4520 N.am  1 <1>  -0.8490 
  5 C       -0.9420    -0.9750     0.4640 C.ar  1 <1>  -0.0090 
  6 C        1.7230     0.8140    -0.3030 C.3   1 <1>   0.1960 
  7 C        0.9590     2.5740     1.1380 C.3   1 <1>   0.1960 
  8 C       -0.8910    -2.3400     0.7120 C.ar  1 <1>  -0.1500 
  9 C       -1.6930    -0.5380    -0.6200 C.ar  1 <1>  -0.1500 
 10 C        2.2730     1.8790    -1.2680 C.3   1 <1>   0.1200 
 11 C        1.5460     3.5980     0.1480 C.3   1 <1>   0.1200 
 12 C       -1.5370    -3.2770    -0.0960 C.ar  1 <1>   0.0860 
 13 C       -2.3590    -1.4380    -1.4330 C.ar  1 <1>  -0.1500 
 14 O        2.6130     3.0410    -0.5670 O.3   1 <1>  -0.5600 
 15 C       -1.4650    -4.7030     0.1660 C.2   1 <1>   0.6340 
 16 C       -2.2800    -2.7910    -1.1700 C.ar  1 <1>  -0.1500 
 17 O       -2.4430    -5.4120     0.1360 O.2   1 <1>  -0.5700 
 18 O       -0.2960    -5.2920     0.4280 O.3   1 <1>  -0.4300 
 19 C        0.9360    -4.8320    -0.0780 C.3   1 <1>   0.1200 
 20 C        1.9500    -5.9610     0.0670 C.3   1 <1>  -0.2400 
 21 H        1.4290    -0.0530    -0.8680 H     1 <1>   0.0800 
 22 H        2.5120     0.5220     0.3720 H     1 <1>   0.0800 
 23 H        1.6900     2.3610     1.9010 H     1 <1>   0.0800 
 24 H        0.0980     3.0110     1.6150 H     1 <1>   0.0800 
 25 H       -0.3370    -2.6910     1.5670 H     1 <1>   0.1500 
 26 H       -1.7600     0.5180    -0.8260 H     1 <1>   0.1500 
 27 H        1.5400     2.1280    -2.0160 H     1 <1>   0.0800 
 28 H        3.1610     1.5190    -1.7560 H     1 <1>   0.0800 
 29 H        1.9180     4.4560     0.6780 H     1 <1>   0.0800 
 30 H        0.7940     3.9210    -0.5510 H     1 <1>   0.0800 
 31 H       -2.9420    -1.0820    -2.2670 H     1 <1>   0.1500 
 32 H       -2.8060    -3.4910    -1.7990 H     1 <1>   0.1500 
 33 H        1.2500    -3.9730     0.4900 H     1 <1>   0.0800 
 34 H        0.8090    -4.5670    -1.1140 H     1 <1>   0.0800 
 35 H        2.0600    -6.2290     1.1030 H     1 <1>   0.0800 
 36 H        2.9050    -5.6460    -0.3100 H     1 <1>   0.0800 
 37 H        1.6260    -6.8220    -0.4910 H     1 <1>   0.0800 
@<TRIPOS>BOND
  1   1   2  2   
  2   1   3  2   
  3   1   4  am  
  4   1   5  1   
  5   4   6  1   
  6   4   7  1   
  7   5   8  ar  
  8   5   9  ar  
  9   6  10  1   
 10   6  21  1   
 11   6  22  1   
 12   7  11  1   
 13   7  23  1   
 14   7  24  1   
 15   8  12  ar  
 16   8  25  1   
 17   9  13  ar  
 18   9  26  1   
 19  10  14  1   
 20  10  27  1   
 21  10  28  1   
 22  11  14  1   
 23  11  29  1   
 24  11  30  1   
 25  12  15  1   
 26  12  16  ar  
 27  13  16  ar  
 28  13  31  1   
 29  15  17  2   
 30  15  18  1   
 31  16  32  1   
 32  18  19  1   
 33  19  20  1   
 34  19  33  1   
 35  19  34  1   
 36  20  35  1   
 37  20  36  1   
 38  20  37  1   
@<TRIPOS>SUBSTRUCTURE
  1 ****   5 GROUP 4 **** **** 0

# MOE 2024.06 (io_trps.svl 2023.06)
