@<TRIPOS>MOLECULE
NONAME
29 30 1 0 0 
SMALL
USER_CHARGES


@<TRIPOS>ATOM
  1 O       -1.5600     0.3750    -2.3510 O.3   1 <1>  -0.5320 
  2 C       -2.0720     1.0650    -1.3240 C.ar  1 <1>   0.0830 
  3 C       -3.2090     0.5850    -0.7020 C.ar  1 <1>  -0.1500 
  4 C       -1.4720     2.2360    -0.8940 C.ar  1 <1>  -0.1500 
  5 C       -3.7680     1.2840     0.3580 C.ar  1 <1>  -0.1430 
  6 C       -2.0210     2.9300     0.1700 C.ar  1 <1>  -0.1500 
  7 C       -3.1650     2.4570     0.7940 C.ar  1 <1>  -0.1500 
  8 C       -5.0300     0.7710     1.0210 C.3   1 <1>   0.4860 
  9 N       -6.1640     0.9820     0.0840 N.4   1 <1>  -0.9590 
 10 C       -6.4150     2.4090    -0.2270 C.3   1 <1>   0.3430 
 11 C       -7.4500     0.4180     0.5480 C.3   1 <1>   0.3430 
 12 C       -7.8280     2.4240    -0.7930 C.3   1 <1>  -0.1600 
 13 C       -8.4980     1.1410    -0.2890 C.3   1 <1>  -0.1600 
 14 H       -0.7400     0.7610    -2.7100 H     1 <1>   0.4500 
 15 H       -3.6340    -0.3350    -1.0630 H     1 <1>   0.1500 
 16 H       -0.5850     2.6070    -1.3760 H     1 <1>   0.1500 
 17 H       -1.5560     3.8390     0.5120 H     1 <1>   0.1500 
 18 H       -3.5700     3.0150     1.6210 H     1 <1>   0.1500 
 19 H       -5.2030     1.2980     1.9450 H     1 <1>   0.0800 
 20 H       -4.9170    -0.2790     1.2390 H     1 <1>   0.0800 
 21 H       -5.9100     0.5320    -0.8050 H     1 <1>   0.4500 
 22 H       -5.6940     2.7970    -0.9300 H     1 <1>   0.0800 
 23 H       -6.3820     2.9940     0.6790 H     1 <1>   0.0800 
 24 H       -7.6000     0.6520     1.5900 H     1 <1>   0.0800 
 25 H       -7.4950    -0.6510     0.4080 H     1 <1>   0.0800 
 26 H       -7.7880     2.4290    -1.8690 H     1 <1>   0.0800 
 27 H       -8.3540     3.3050    -0.4680 H     1 <1>   0.0800 
 28 H       -9.3710     1.3530     0.3050 H     1 <1>   0.0800 
 29 H       -8.7940     0.5210    -1.1180 H     1 <1>   0.0800 
@<TRIPOS>BOND
  1   1   2  1   
  2   1  14  1   
  3   2   3  ar  
  4   2   4  ar  
  5   3   5  ar  
  6   3  15  1   
  7   4   6  ar  
  8   4  16  1   
  9   5   7  ar  
 10   5   8  1   
 11   6   7  ar  
 12   6  17  1   
 13   7  18  1   
 14   8   9  1   
 15   8  19  1   
 16   8  20  1   
 17   9  10  1   
 18   9  11  1   
 19   9  21  1   
 20  10  12  1   
 21  10  22  1   
 22  10  23  1   
 23  11  13  1   
 24  11  24  1   
 25  11  25  1   
 26  12  13  1   
 27  12  26  1   
 28  12  27  1   
 29  13  28  1   
 30  13  29  1   
@<TRIPOS>SUBSTRUCTURE
  1 ****   5 GROUP 4 **** **** 0

# MOE 2024.06 (io_trps.svl 2023.06)
