@<TRIPOS>MOLECULE
NONAME
37 37 1 0 0 
SMALL
USER_CHARGES


@<TRIPOS>ATOM
  1 O        1.5210     3.2300     1.0470 O.2   1 <1>  -0.5700 
  2 C        0.5720     2.6460     0.5810 C.2   1 <1>   0.5690 
  3 N        0.6680     1.9170    -0.5670 N.am  1 <1>  -0.7300 
  4 C       -0.7620     2.7110     1.3120 C.3   1 <1>   0.0440 
  5 C        1.7400     1.8420    -1.6140 C.3   1 <1>   0.1400 
  6 C       -1.8230     1.8340     0.6560 C.ar  1 <1>  -0.1430 
  7 C        3.1530     2.3220    -1.2040 C.3   1 <1>   0.3430 
  8 C       -1.9870     0.5160     1.0520 C.ar  1 <1>  -0.1500 
  9 C       -2.6180     2.3410    -0.3610 C.ar  1 <1>  -0.1500 
 10 N        3.6220     1.7600     0.1020 N.4   1 <1>  -0.9590 
 11 C       -2.9270    -0.2880     0.4310 C.ar  1 <1>  -0.1500 
 12 C       -3.5570     1.5350    -0.9810 C.ar  1 <1>  -0.1500 
 13 C        4.9150     2.3670     0.5270 C.3   1 <1>   0.2630 
 14 C        3.6540     0.2680     0.1530 C.3   1 <1>   0.2630 
 15 C       -3.7140     0.2160    -0.5910 C.ar  1 <1>  -0.1430 
 16 C       -4.7480    -0.6660    -1.2670 C.3   1 <1>  -0.0970 
 17 H       -0.2150     1.4610    -0.8460 H     1 <1>   0.3700 
 18 H       -1.0930     3.7330     1.3270 H     1 <1>   0.0800 
 19 H       -0.6130     2.4040     2.3300 H     1 <1>   0.0800 
 20 H        1.4220     2.4260    -2.4610 H     1 <1>   0.0800 
 21 H        1.8110     0.8230    -1.9510 H     1 <1>   0.0800 
 22 H        3.1260     3.3970    -1.1290 H     1 <1>   0.0800 
 23 H        3.8520     2.0670    -1.9840 H     1 <1>   0.0800 
 24 H       -1.3880     0.1040     1.8450 H     1 <1>   0.1500 
 25 H       -2.5140     3.3640    -0.6780 H     1 <1>   0.1500 
 26 H        2.8930     2.0980     0.7710 H     1 <1>   0.4500 
 27 H       -3.0470    -1.3090     0.7500 H     1 <1>   0.1500 
 28 H       -4.1700     1.9420    -1.7670 H     1 <1>   0.1500 
 29 H        5.7020     2.0980    -0.1590 H     1 <1>   0.0800 
 30 H        5.1810     2.0240     1.5130 H     1 <1>   0.0800 
 31 H        4.8290     3.4420     0.5530 H     1 <1>   0.0800 
 32 H        4.3550    -0.1180    -0.5690 H     1 <1>   0.0800 
 33 H        2.6760    -0.1330    -0.0590 H     1 <1>   0.0800 
 34 H        3.9500    -0.0630     1.1350 H     1 <1>   0.0800 
 35 H       -4.4210    -1.6900    -1.2780 H     1 <1>   0.0800 
 36 H       -4.9070    -0.3510    -2.2830 H     1 <1>   0.0800 
 37 H       -5.6800    -0.6050    -0.7350 H     1 <1>   0.0800 
@<TRIPOS>BOND
  1   1   2  2   
  2   2   3  am  
  3   2   4  1   
  4   3   5  1   
  5   3  17  1   
  6   4   6  1   
  7   4  18  1   
  8   4  19  1   
  9   5   7  1   
 10   5  20  1   
 11   5  21  1   
 12   6   8  ar  
 13   6   9  ar  
 14   7  10  1   
 15   7  22  1   
 16   7  23  1   
 17   8  11  ar  
 18   8  24  1   
 19   9  12  ar  
 20   9  25  1   
 21  10  13  1   
 22  10  14  1   
 23  10  26  1   
 24  11  15  ar  
 25  11  27  1   
 26  12  15  ar  
 27  12  28  1   
 28  13  29  1   
 29  13  30  1   
 30  13  31  1   
 31  14  32  1   
 32  14  33  1   
 33  14  34  1   
 34  15  16  1   
 35  16  35  1   
 36  16  36  1   
 37  16  37  1   
@<TRIPOS>SUBSTRUCTURE
  1 ****   3 GROUP 4 **** **** 0

# MOE 2024.06 (io_trps.svl 2023.06)
