@<TRIPOS>MOLECULE
NONAME
42 43 1 0 0 
SMALL
USER_CHARGES


@<TRIPOS>ATOM
  1 O       -8.6500     0.7070    -0.7190 O.3   1 <1>  -0.3630 
  2 C       -7.5900     1.4930    -0.4110 C.ar  1 <1>   0.0830 
  3 C       -9.6660     0.6210     0.2570 C.3   1 <1>   0.0400 
  4 C       -7.6910     2.8800    -0.2740 C.ar  1 <1>   0.0830 
  5 C       -6.3710     0.8680    -0.2250 C.ar  1 <1>  -0.1500 
  6 O       -8.8350     3.5700    -0.4920 O.3   1 <1>  -0.3630 
  7 C       -6.5710     3.5990     0.0970 C.ar  1 <1>  -0.1500 
  8 C       -5.2220     1.5750     0.1420 C.ar  1 <1>   0.0860 
  9 C       -9.3620     3.5370    -1.8010 C.3   1 <1>   0.0400 
 10 C       -5.3610     2.9570     0.2970 C.ar  1 <1>  -0.1440 
 11 C       -3.8970     0.9940     0.3540 C.2   1 <1>   0.3030 
 12 C       -4.1290     3.7500     0.7010 C.3   1 <1>  -0.0160 
 13 N       -2.8250     1.6790     0.3320 N.2   1 <1>  -0.6960 
 14 C       -3.7100    -0.5090     0.6340 C.3   1 <1>  -0.0190 
 15 C       -2.8410     3.1220     0.1290 C.3   1 <1>   0.2460 
 16 C       -3.7690    -1.3780    -0.6340 C.3   1 <1>  -0.2400 
 17 C       -4.6030    -1.0610     1.7590 C.3   1 <1>  -0.2400 
 18 C       -1.6190     3.6870     0.8530 C.3   1 <1>  -0.2400 
 19 C       -2.7070     3.3770    -1.3750 C.3   1 <1>  -0.2400 
 20 H      -10.1270     1.5850     0.3790 H     1 <1>   0.0800 
 21 H      -10.3960    -0.0940    -0.0790 H     1 <1>   0.0800 
 22 H       -9.2300     0.2960     1.1850 H     1 <1>   0.0800 
 23 H       -6.3420    -0.1890    -0.3740 H     1 <1>   0.1500 
 24 H       -6.6570     4.6640     0.2200 H     1 <1>   0.1500 
 25 H       -9.7160     2.5460    -2.0200 H     1 <1>   0.0800 
 26 H      -10.1770     4.2360    -1.8520 H     1 <1>   0.0800 
 27 H       -8.5900     3.8190    -2.4940 H     1 <1>   0.0800 
 28 H       -4.0720     3.7580     1.7750 H     1 <1>   0.0800 
 29 H       -4.2100     4.7690     0.3710 H     1 <1>   0.0800 
 30 H       -2.7020    -0.6140     1.0010 H     1 <1>   0.0800 
 31 H       -4.7470    -1.4040    -1.0690 H     1 <1>   0.0800 
 32 H       -3.4740    -2.3860    -0.4030 H     1 <1>   0.0800 
 33 H       -3.0830    -0.9870    -1.3660 H     1 <1>   0.0800 
 34 H       -5.6340    -1.1230     1.4710 H     1 <1>   0.0800 
 35 H       -4.5270    -0.4280     2.6260 H     1 <1>   0.0800 
 36 H       -4.2740    -2.0470     2.0340 H     1 <1>   0.0800 
 37 H       -1.6730     3.4660     1.9040 H     1 <1>   0.0800 
 38 H       -1.5670     4.7530     0.7270 H     1 <1>   0.0800 
 39 H       -0.7190     3.2510     0.4560 H     1 <1>   0.0800 
 40 H       -3.5520     2.9720    -1.9030 H     1 <1>   0.0800 
 41 H       -1.8110     2.9160    -1.7510 H     1 <1>   0.0800 
 42 H       -2.6570     4.4310    -1.5740 H     1 <1>   0.0800 
@<TRIPOS>BOND
  1   1   2  1   
  2   1   3  1   
  3   2   4  ar  
  4   2   5  ar  
  5   3  20  1   
  6   3  21  1   
  7   3  22  1   
  8   4   6  1   
  9   4   7  ar  
 10   5   8  ar  
 11   5  23  1   
 12   6   9  1   
 13   7  10  ar  
 14   7  24  1   
 15   8  10  ar  
 16   8  11  1   
 17   9  25  1   
 18   9  26  1   
 19   9  27  1   
 20  10  12  1   
 21  11  13  2   
 22  11  14  1   
 23  12  15  1   
 24  12  28  1   
 25  12  29  1   
 26  13  15  1   
 27  14  16  1   
 28  14  17  1   
 29  14  30  1   
 30  15  18  1   
 31  15  19  1   
 32  16  31  1   
 33  16  32  1   
 34  16  33  1   
 35  17  34  1   
 36  17  35  1   
 37  17  36  1   
 38  18  37  1   
 39  18  38  1   
 40  18  39  1   
 41  19  40  1   
 42  19  41  1   
 43  19  42  1   
@<TRIPOS>SUBSTRUCTURE
  1 ****   8 GROUP 4 **** **** 0

# MOE 2024.06 (io_trps.svl 2023.06)
