@<TRIPOS>MOLECULE
NONAME
45 47 1 0 0 
SMALL
USER_CHARGES


@<TRIPOS>ATOM
  1 O       -0.5130    -0.1780    -0.4770 O.3   1 <1>  -0.3630 
  2 C       -1.6760    -0.7610    -0.0660 C.ar  1 <1>   0.0830 
  3 C        0.5010    -0.8710    -1.1690 C.3   1 <1>   0.0400 
  4 C       -2.1510    -2.0400    -0.4010 C.ar  1 <1>   0.0830 
  5 C       -2.4420     0.0310     0.7730 C.ar  1 <1>  -0.1500 
  6 O       -1.4770    -2.8890    -1.2080 O.3   1 <1>  -0.5330 
  7 C       -3.3680    -2.4810     0.1000 C.ar  1 <1>  -0.1500 
  8 C       -3.6530    -0.4120     1.2710 C.ar  1 <1>  -0.1500 
  9 C       -4.1290    -1.6680     0.9280 C.ar  1 <1>  -0.1430 
 10 C       -5.4750    -2.1330     1.4520 C.3   1 <1>   0.4860 
 11 N       -6.4820    -2.0070     0.3630 N.4   1 <1>  -0.9590 
 12 C       -6.6270    -0.5770    -0.1110 C.3   1 <1>   0.3430 
 13 C       -7.8190    -2.5730     0.7720 C.3   1 <1>   0.3430 
 14 C       -7.6730    -0.4190    -1.2350 C.3   1 <1>   0.2090 
 15 C       -8.8760    -2.4720    -0.3470 C.3   1 <1>   0.2090 
 16 N       -8.9640    -1.0820    -0.8800 N.pl3 1 <1>  -0.8380 
 17 C      -10.0770    -0.3190    -0.5270 C.ar  1 <1>   0.1000 
 18 C       -9.9810     0.7790     0.3250 C.ar  1 <1>  -0.1500 
 19 C      -11.3270    -0.6630    -1.0250 C.ar  1 <1>  -0.1500 
 20 C      -11.1060     1.5060     0.6710 C.ar  1 <1>  -0.1500 
 21 C      -12.4540     0.0610    -0.6800 C.ar  1 <1>  -0.1500 
 22 C      -12.3450     1.1470     0.1700 C.ar  1 <1>  -0.1500 
 23 H        1.3430    -0.2120    -1.2770 H     1 <1>   0.0800 
 24 H        0.1320    -1.1520    -2.1390 H     1 <1>   0.0800 
 25 H        0.7850    -1.7370    -0.5990 H     1 <1>   0.0800 
 26 H       -2.0710     1.0070     1.0360 H     1 <1>   0.1500 
 27 H       -1.8670    -3.7770    -1.2770 H     1 <1>   0.4500 
 28 H       -3.7150    -3.4640    -0.1630 H     1 <1>   0.1500 
 29 H       -4.2090     0.2390     1.9260 H     1 <1>   0.1500 
 30 H       -5.7650    -1.5320     2.2990 H     1 <1>   0.0800 
 31 H       -5.3980    -3.1590     1.7720 H     1 <1>   0.0800 
 32 H       -6.1350    -2.5440    -0.4400 H     1 <1>   0.4500 
 33 H       -5.6780    -0.2100    -0.4690 H     1 <1>   0.0800 
 34 H       -6.9270     0.0450     0.7150 H     1 <1>   0.0800 
 35 H       -8.1930    -2.0330     1.6270 H     1 <1>   0.0800 
 36 H       -7.7120    -3.6070     1.0560 H     1 <1>   0.0800 
 37 H       -7.2960    -0.8530    -2.1440 H     1 <1>   0.0800 
 38 H       -7.8430     0.6280    -1.4260 H     1 <1>   0.0800 
 39 H       -9.8350    -2.7710     0.0440 H     1 <1>   0.0800 
 40 H       -8.6280    -3.1440    -1.1510 H     1 <1>   0.0800 
 41 H       -9.0310     1.0700     0.7250 H     1 <1>   0.1500 
 42 H      -11.4130    -1.5000    -1.6930 H     1 <1>   0.1500 
 43 H      -11.0230     2.3540     1.3290 H     1 <1>   0.1500 
 44 H      -13.4160    -0.2180    -1.0750 H     1 <1>   0.1500 
 45 H      -13.2210     1.7130     0.4380 H     1 <1>   0.1500 
@<TRIPOS>BOND
  1   1   2  1   
  2   1   3  1   
  3   2   4  ar  
  4   2   5  ar  
  5   3  23  1   
  6   3  24  1   
  7   3  25  1   
  8   4   6  1   
  9   4   7  ar  
 10   5   8  ar  
 11   5  26  1   
 12   6  27  1   
 13   7   9  ar  
 14   7  28  1   
 15   8   9  ar  
 16   8  29  1   
 17   9  10  1   
 18  10  11  1   
 19  10  30  1   
 20  10  31  1   
 21  11  12  1   
 22  11  13  1   
 23  11  32  1   
 24  12  14  1   
 25  12  33  1   
 26  12  34  1   
 27  13  15  1   
 28  13  35  1   
 29  13  36  1   
 30  14  16  1   
 31  14  37  1   
 32  14  38  1   
 33  15  16  1   
 34  15  39  1   
 35  15  40  1   
 36  16  17  1   
 37  17  18  ar  
 38  17  19  ar  
 39  18  20  ar  
 40  18  41  1   
 41  19  21  ar  
 42  19  42  1   
 43  20  22  ar  
 44  20  43  1   
 45  21  22  ar  
 46  21  44  1   
 47  22  45  1   
@<TRIPOS>SUBSTRUCTURE
  1 ****  12 GROUP 4 **** **** 0

# MOE 2024.06 (io_trps.svl 2023.06)
