@<TRIPOS>MOLECULE
NONAME
28 29 1 0 0 
SMALL
USER_CHARGES


@<TRIPOS>ATOM
  1 BR       0.2530    -0.1360    -0.1240 Br    1 <1>  -0.1110 
  2 C        0.0840     1.7860     0.0360 C.ar  1 <1>   0.1110 
  3 C        1.2520     2.5300     0.1410 C.ar  1 <1>   0.0830 
  4 C       -1.1790     2.3660     0.0320 C.ar  1 <1>  -0.1440 
  5 O        2.4460     1.8740     0.1520 O.3   1 <1>  -0.2330 
  6 C        1.1470     3.9100     0.2470 C.ar  1 <1>  -0.1500 
  7 C       -1.2610     3.7540     0.1270 C.ar  1 <1>  -0.1440 
  8 C       -2.4310     1.4980    -0.0970 C.3   1 <1>  -0.0160 
  9 C        3.6180     2.2930    -0.3180 C.2   1 <1>   0.6590 
 10 C       -0.1010     4.5090     0.2360 C.ar  1 <1>  -0.1500 
 11 C       -2.5980     4.4850     0.1260 C.3   1 <1>  -0.0160 
 12 C       -3.7270     2.2480     0.2350 C.3   1 <1>  -0.1600 
 13 O        3.7850     3.3400    -0.8860 O.2   1 <1>  -0.5700 
 14 C        4.7680     1.3420    -0.1000 C.3   1 <1>  -0.1790 
 15 C       -3.7380     3.6260    -0.4290 C.3   1 <1>  -0.1600 
 16 H        2.0240     4.5240     0.3420 H     1 <1>   0.1500 
 17 H       -2.3580     0.6460     0.5550 H     1 <1>   0.0800 
 18 H       -2.4850     1.1370    -1.1090 H     1 <1>   0.0800 
 19 H       -0.1640     5.5800     0.3150 H     1 <1>   0.1500 
 20 H       -2.5210     5.3850    -0.4580 H     1 <1>   0.0800 
 21 H       -2.8290     4.7670     1.1380 H     1 <1>   0.0800 
 22 H       -3.8050     2.3660     1.3030 H     1 <1>   0.0800 
 23 H       -4.5710     1.6700    -0.0980 H     1 <1>   0.0800 
 24 H        4.5550     0.4050    -0.5790 H     1 <1>   0.0800 
 25 H        4.9060     1.1810     0.9530 H     1 <1>   0.0800 
 26 H        5.6670     1.7560    -0.5160 H     1 <1>   0.0800 
 27 H       -3.6160     3.5140    -1.4930 H     1 <1>   0.0800 
 28 H       -4.6790     4.1150    -0.2480 H     1 <1>   0.0800 
@<TRIPOS>BOND
  1   1   2  1   
  2   2   3  ar  
  3   2   4  ar  
  4   3   5  1   
  5   3   6  ar  
  6   4   7  ar  
  7   4   8  1   
  8   5   9  1   
  9   6  10  ar  
 10   6  16  1   
 11   7  10  ar  
 12   7  11  1   
 13   8  12  1   
 14   8  17  1   
 15   8  18  1   
 16   9  13  2   
 17   9  14  1   
 18  10  19  1   
 19  11  15  1   
 20  11  20  1   
 21  11  21  1   
 22  12  15  1   
 23  12  22  1   
 24  12  23  1   
 25  14  24  1   
 26  14  25  1   
 27  14  26  1   
 28  15  27  1   
 29  15  28  1   
@<TRIPOS>SUBSTRUCTURE
  1 ****   2 GROUP 4 **** **** 0

# MOE 2024.06 (io_trps.svl 2023.06)
