@<TRIPOS>MOLECULE
NONAME
46 48 1 0 0 
SMALL
USER_CHARGES


@<TRIPOS>ATOM
  1 O        0.9750     0.9040     2.2630 O.2   1 <1>  -0.5700 
  2 C        1.1510     1.6880     1.3350 C.2   1 <1>   0.7160 
  3 N        2.3340     1.6740     0.6060 N.am  1 <1>  -0.2290 
  4 C        0.1680     2.6310     0.9560 C.2   1 <1>  -0.0860 
  5 C        2.4820     2.5790    -0.4580 C.2   1 <1>   0.4960 
  6 C        3.3720     0.7860     0.9020 C.2   1 <1>  -0.0410 
  7 C        0.4200     3.4680    -0.1000 C.2   1 <1>  -0.0260 
  8 C       -1.1090     2.9590     1.4250 C.2   1 <1>  -0.1500 
  9 N        1.5700     3.4490    -0.8160 N.2   1 <1>  -0.5760 
 10 C        3.7060     2.5330    -1.1850 C.2   1 <1>  -0.1360 
 11 C        4.5260     0.7650     0.1910 C.2   1 <1>  -0.1500 
 12 N       -0.6490     4.2880    -0.2890 N.pl3 1 <1>   0.0480 
 13 C       -1.6120     3.9710     0.6490 C.2   1 <1>  -0.2370 
 14 C        4.7040     1.6630    -0.8850 C.2   1 <1>  -0.1500 
 15 C       -0.7500     5.3450    -1.3160 C.3   1 <1>   0.0160 
 16 C       -2.8790     4.6480     0.7380 C.2   1 <1>   0.7150 
 17 O       -2.8950     5.8670     0.7410 O.2   1 <1>  -0.5700 
 18 N       -4.0780     3.9630     0.8230 N.am  1 <1>  -0.6600 
 19 C       -4.1910     2.4870     0.6160 C.3   1 <1>   0.1400 
 20 C       -5.2960     4.6570     1.3250 C.3   1 <1>   0.1400 
 21 C       -5.1910     2.1480    -0.4930 C.3   1 <1>  -0.1600 
 22 C       -6.0010     5.4070     0.1930 C.3   1 <1>  -0.2400 
 23 C       -5.1770     0.6470    -0.8120 C.3   1 <1>  -0.1600 
 24 C       -6.1840     0.3100    -1.9140 C.3   1 <1>  -0.2400 
 25 H        3.2140     0.1100     1.7280 H     1 <1>   0.1500 
 26 H       -1.5860     2.4800     2.2640 H     1 <1>   0.1500 
 27 H        3.8000     3.2320    -1.9950 H     1 <1>   0.1500 
 28 H        5.3220     0.0780     0.4250 H     1 <1>   0.1500 
 29 H        5.6270     1.6350    -1.4400 H     1 <1>   0.1500 
 30 H        0.0750     5.2700    -2.0000 H     1 <1>   0.0800 
 31 H       -0.7290     6.3050    -0.8340 H     1 <1>   0.0800 
 32 H       -1.6730     5.2340    -1.8530 H     1 <1>   0.0800 
 33 H       -4.4920     2.0220     1.5390 H     1 <1>   0.0800 
 34 H       -3.2400     2.0760     0.3340 H     1 <1>   0.0800 
 35 H       -5.0110     5.3600     2.0910 H     1 <1>   0.0800 
 36 H       -5.9680     3.9430     1.7690 H     1 <1>   0.0800 
 37 H       -4.9330     2.7010    -1.3790 H     1 <1>   0.0800 
 38 H       -6.1820     2.4260    -0.1830 H     1 <1>   0.0800 
 39 H       -5.3470     6.1540    -0.2200 H     1 <1>   0.0800 
 40 H       -6.8730     5.9020     0.5790 H     1 <1>   0.0800 
 41 H       -6.3080     4.7370    -0.5860 H     1 <1>   0.0800 
 42 H       -5.4210     0.0850     0.0740 H     1 <1>   0.0800 
 43 H       -4.1910     0.3540    -1.1330 H     1 <1>   0.0800 
 44 H       -7.1820     0.5710    -1.6080 H     1 <1>   0.0800 
 45 H       -6.1580    -0.7450    -2.1270 H     1 <1>   0.0800 
 46 H       -5.9470     0.8450    -2.8170 H     1 <1>   0.0800 
@<TRIPOS>BOND
  1   1   2  2   
  2   2   3  am  
  3   2   4  1   
  4   3   5  1   
  5   3   6  1   
  6   4   7  2   
  7   4   8  1   
  8   5   9  2   
  9   5  10  1   
 10   6  11  2   
 11   6  25  1   
 12   7   9  1   
 13   7  12  1   
 14   8  13  2   
 15   8  26  1   
 16  10  14  2   
 17  10  27  1   
 18  11  14  1   
 19  11  28  1   
 20  12  13  1   
 21  12  15  1   
 22  13  16  1   
 23  14  29  1   
 24  15  30  1   
 25  15  31  1   
 26  15  32  1   
 27  16  17  2   
 28  16  18  am  
 29  18  19  1   
 30  18  20  1   
 31  19  21  1   
 32  19  33  1   
 33  19  34  1   
 34  20  22  1   
 35  20  35  1   
 36  20  36  1   
 37  21  23  1   
 38  21  37  1   
 39  21  38  1   
 40  22  39  1   
 41  22  40  1   
 42  22  41  1   
 43  23  24  1   
 44  23  42  1   
 45  23  43  1   
 46  24  44  1   
 47  24  45  1   
 48  24  46  1   
@<TRIPOS>SUBSTRUCTURE
  1 ****   8 GROUP 4 **** **** 0

# MOE 2024.06 (io_trps.svl 2023.06)
