@<TRIPOS>MOLECULE
NONAME
47 51 1 0 0 
SMALL
USER_CHARGES


@<TRIPOS>ATOM
  1 F        3.4030    -3.5420     3.0050 F     1 <1>  -0.3400 
  2 C        4.3050    -3.1660     2.1060 C.3   1 <1>   1.1580 
  3 F        5.2020    -4.1420     2.0690 F     1 <1>  -0.3400 
  4 F        4.9010    -2.1000     2.6240 F     1 <1>  -0.3400 
  5 C        3.6570    -2.8980     0.7670 C.2   1 <1>  -0.1690 
  6 N        4.5080    -2.4850    -0.2320 N.pl3 1 <1>   0.6010 
  7 C        2.3340    -3.0210     0.4620 C.2   1 <1>  -0.1360 
  8 N        5.8330    -2.2820    -0.1980 N.2   1 <1>  -0.7070 
  9 C        3.9920    -2.2090    -1.4750 C.2   1 <1>  -0.0260 
 10 C        1.8670    -2.7270    -0.8520 C.2   1 <1>   0.4360 
 11 C        6.1710    -1.8720    -1.4170 C.2   1 <1>   0.2030 
 12 N        2.6560    -2.3310    -1.7920 N.2   1 <1>  -0.5760 
 13 C        5.0410    -1.8210    -2.2340 C.2   1 <1>  -0.1500 
 14 C        0.3810    -2.8850    -1.1360 C.3   1 <1>  -0.1000 
 15 C        7.5110    -1.5220    -1.9020 C.2   1 <1>   0.7160 
 16 C       -0.3070    -4.2060    -0.9400 C.3   1 <1>  -0.2000 
 17 C       -0.0930    -3.6740    -2.3220 C.3   1 <1>  -0.2000 
 18 O        7.6910    -1.4350    -3.1070 O.2   1 <1>  -0.5700 
 19 N        8.5980    -1.2750    -1.0740 N.am  1 <1>  -0.6600 
 20 C        9.9780    -1.1840    -1.6430 C.3   1 <1>   0.1400 
 21 C        8.4580    -1.0700     0.4030 C.3   1 <1>   0.1400 
 22 C       10.9940    -1.7280    -0.6410 C.3   1 <1>  -0.1600 
 23 C        9.6200    -0.2470     0.9510 C.3   1 <1>  -0.1600 
 24 C       10.9570    -0.9300     0.6690 C.3   1 <1>   0.5600 
 25 O       11.9460     0.0450     0.6600 O.3   1 <1>  -0.5600 
 26 O       11.2700    -1.7660     1.7310 O.3   1 <1>  -0.5600 
 27 C       13.0650    -0.4210     1.3280 C.3   1 <1>   0.1200 
 28 C       12.6360    -1.7480     1.9200 C.3   1 <1>   0.1200 
 29 H        1.6000    -3.3380     1.1830 H     1 <1>   0.1500 
 30 H        5.0240    -1.5290    -3.2690 H     1 <1>   0.1500 
 31 H       -0.1670    -1.9890    -0.9040 H     1 <1>   0.1000 
 32 H       -1.3080    -4.2170    -0.5440 H     1 <1>   0.1000 
 33 H        0.2650    -5.0680    -0.6410 H     1 <1>   0.1000 
 34 H        0.6470    -4.1350    -2.9550 H     1 <1>   0.1000 
 35 H       -0.9370    -3.3050    -2.8780 H     1 <1>   0.1000 
 36 H       10.2000    -0.1550    -1.8720 H     1 <1>   0.0800 
 37 H       10.0410    -1.7520    -2.5560 H     1 <1>   0.0800 
 38 H        8.4290    -2.0300     0.8920 H     1 <1>   0.0800 
 39 H        7.5390    -0.5530     0.6140 H     1 <1>   0.0800 
 40 H       11.9780    -1.6950    -1.0700 H     1 <1>   0.0800 
 41 H       10.7430    -2.7540    -0.4440 H     1 <1>   0.0800 
 42 H        9.5040    -0.1020     2.0090 H     1 <1>   0.0800 
 43 H        9.6000     0.7170     0.4760 H     1 <1>   0.0800 
 44 H       13.3260     0.2880     2.0940 H     1 <1>   0.0800 
 45 H       13.8760    -0.5340     0.6310 H     1 <1>   0.0800 
 46 H       13.0720    -2.5750     1.3880 H     1 <1>   0.0800 
 47 H       12.8530    -1.8200     2.9700 H     1 <1>   0.0800 
@<TRIPOS>BOND
  1   1   2  1   
  2   2   3  1   
  3   2   4  1   
  4   2   5  1   
  5   5   6  1   
  6   5   7  2   
  7   6   8  1   
  8   6   9  1   
  9   7  10  1   
 10   7  29  1   
 11   8  11  2   
 12   9  12  1   
 13   9  13  2   
 14  10  12  2   
 15  10  14  1   
 16  11  13  1   
 17  11  15  1   
 18  13  30  1   
 19  14  16  1   
 20  14  17  1   
 21  14  31  1   
 22  15  18  2   
 23  15  19  am  
 24  16  17  1   
 25  16  32  1   
 26  16  33  1   
 27  17  34  1   
 28  17  35  1   
 29  19  20  1   
 30  19  21  1   
 31  20  22  1   
 32  20  36  1   
 33  20  37  1   
 34  21  23  1   
 35  21  38  1   
 36  21  39  1   
 37  22  24  1   
 38  22  40  1   
 39  22  41  1   
 40  23  24  1   
 41  23  42  1   
 42  23  43  1   
 43  24  25  1   
 44  24  26  1   
 45  25  27  1   
 46  26  28  1   
 47  27  28  1   
 48  27  44  1   
 49  27  45  1   
 50  28  46  1   
 51  28  47  1   
@<TRIPOS>SUBSTRUCTURE
  1 ****   8 GROUP 4 **** **** 0

# MOE 2024.06 (io_trps.svl 2023.06)
