@<TRIPOS>MOLECULE
NONAME
46 48 1 0 0 
SMALL
USER_CHARGES


@<TRIPOS>ATOM
  1 S       -0.1540    -1.1860     1.5320 S.3   1 <1>  -0.3710 
  2 C        1.0780    -1.8420     0.4680 C.2   1 <1>   0.6510 
  3 C       -1.4610    -1.4230     0.2700 C.3   1 <1>   0.7350 
  4 N        0.6620    -2.1950    -0.6740 N.2   1 <1>  -0.5120 
  5 N        2.3380    -1.8920     1.0180 N.am  1 <1>  -0.4900 
  6 N       -0.7180    -1.9880    -0.9040 N.am  1 <1>  -0.2980 
  7 C       -2.2750    -0.1310     0.0750 C.2   1 <1>   0.5690 
  8 C       -2.5130    -2.3470     0.8570 C.ar  1 <1>  -0.1440 
  9 C        3.5090    -2.3340     0.5070 C.2   1 <1>   0.5690 
 10 C       -1.3200    -2.2950    -2.1130 C.2   1 <1>   0.5690 
 11 O       -1.8690     0.8950    -0.4270 O.2   1 <1>  -0.5700 
 12 N       -3.5510    -0.3320     0.5330 N.am  1 <1>  -0.4770 
 13 C       -3.6960    -1.6440     0.9950 C.ar  1 <1>   0.1170 
 14 C       -2.4260    -3.6770     1.2250 C.ar  1 <1>  -0.1500 
 15 O        4.5020    -2.2820     1.1850 O.2   1 <1>  -0.5700 
 16 C        3.6170    -2.8960    -0.8930 C.3   1 <1>  -0.1790 
 17 O       -0.7050    -2.7890    -3.0280 O.2   1 <1>  -0.5700 
 18 C       -2.7910    -2.0390    -2.3830 C.3   1 <1>  -0.1790 
 19 C       -4.6220     0.6910     0.5060 C.3   1 <1>   0.1400 
 20 C       -4.8170    -2.2680     1.5200 C.ar  1 <1>  -0.1500 
 21 C       -3.5450    -4.3090     1.7490 C.ar  1 <1>   0.0830 
 22 C       -5.5040     0.4870    -0.7290 C.3   1 <1>  -0.1600 
 23 C       -4.7390    -3.6000     1.8960 C.ar  1 <1>  -0.1500 
 24 O       -3.3940    -5.6140     2.0910 O.3   1 <1>  -0.3630 
 25 C       -6.6520     1.5010    -0.7650 C.3   1 <1>  -0.2400 
 26 C       -4.4640    -6.3550     2.6370 C.3   1 <1>   0.0400 
 27 H        2.4120    -1.5350     1.9660 H     1 <1>   0.3700 
 28 H       -1.5090    -4.2300     1.1140 H     1 <1>   0.1500 
 29 H        2.9870    -3.7610    -0.9920 H     1 <1>   0.0800 
 30 H        4.6320    -3.1820    -1.0950 H     1 <1>   0.0800 
 31 H        3.3160    -2.1550    -1.6100 H     1 <1>   0.0800 
 32 H       -3.4080    -2.5600    -1.6770 H     1 <1>   0.0800 
 33 H       -3.0380    -2.4050    -3.3630 H     1 <1>   0.0800 
 34 H       -2.9980    -0.9870    -2.3660 H     1 <1>   0.0800 
 35 H       -4.1780     1.6720     0.4770 H     1 <1>   0.0800 
 36 H       -5.2090     0.6150     1.4050 H     1 <1>   0.0800 
 37 H       -5.7390    -1.7260     1.6320 H     1 <1>   0.1500 
 38 H       -5.9150    -0.5080    -0.7230 H     1 <1>   0.0800 
 39 H       -4.9050     0.6060    -1.6150 H     1 <1>   0.0800 
 40 H       -5.6150    -4.0700     2.3010 H     1 <1>   0.1500 
 41 H       -7.2800     1.3950     0.1020 H     1 <1>   0.0800 
 42 H       -7.2540     1.3430    -1.6430 H     1 <1>   0.0800 
 43 H       -6.2670     2.5050    -0.7950 H     1 <1>   0.0800 
 44 H       -4.1140    -7.3530     2.8300 H     1 <1>   0.0800 
 45 H       -5.2690    -6.3820     1.9250 H     1 <1>   0.0800 
 46 H       -4.7750    -5.8930     3.5570 H     1 <1>   0.0800 
@<TRIPOS>BOND
  1   1   2  1   
  2   1   3  1   
  3   2   4  2   
  4   2   5  1   
  5   3   6  1   
  6   3   7  1   
  7   3   8  1   
  8   4   6  1   
  9   5   9  am  
 10   5  27  1   
 11   6  10  am  
 12   7  11  2   
 13   7  12  am  
 14   8  13  ar  
 15   8  14  ar  
 16   9  15  2   
 17   9  16  1   
 18  10  17  2   
 19  10  18  1   
 20  12  13  1   
 21  12  19  1   
 22  13  20  ar  
 23  14  21  ar  
 24  14  28  1   
 25  16  29  1   
 26  16  30  1   
 27  16  31  1   
 28  18  32  1   
 29  18  33  1   
 30  18  34  1   
 31  19  22  1   
 32  19  35  1   
 33  19  36  1   
 34  20  23  ar  
 35  20  37  1   
 36  21  23  ar  
 37  21  24  1   
 38  22  25  1   
 39  22  38  1   
 40  22  39  1   
 41  23  40  1   
 42  24  26  1   
 43  25  41  1   
 44  25  42  1   
 45  25  43  1   
 46  26  44  1   
 47  26  45  1   
 48  26  46  1   
@<TRIPOS>SUBSTRUCTURE
  1 ****   3 GROUP 4 **** **** 0

# MOE 2024.06 (io_trps.svl 2023.06)
