@<TRIPOS>MOLECULE
NONAME
36 38 1 0 0 
SMALL
USER_CHARGES


@<TRIPOS>ATOM
  1 CL       0.0260     2.2300    -3.5760 Cl    1 <1>  -0.1770 
  2 C       -0.1430     3.1370    -2.0940 C.ar  1 <1>   0.1770 
  3 C       -1.2850     2.9780    -1.3320 C.ar  1 <1>  -0.1500 
  4 C        0.8730     3.9920    -1.7130 C.ar  1 <1>  -0.1500 
  5 C       -1.4430     3.6890    -0.1440 C.ar  1 <1>   0.1170 
  6 C        0.7340     4.7080    -0.5380 C.ar  1 <1>  -0.1500 
  7 N       -2.5780     3.5570     0.6990 N.am  1 <1>  -0.4770 
  8 C       -0.4080     4.5640     0.2320 C.ar  1 <1>   0.0830 
  9 C       -2.7180     4.3940     1.7800 C.2   1 <1>   0.5690 
 10 C       -3.5780     2.4470     0.4950 C.3   1 <1>   0.2010 
 11 O       -0.4780     5.3000     1.3720 O.3   1 <1>  -0.3630 
 12 O       -3.5760     4.2510     2.6210 O.2   1 <1>  -0.5700 
 13 C       -1.7620     5.5730     1.9140 C.3   1 <1>   0.1810 
 14 C       -4.6270     2.7510    -0.5830 C.2   1 <1>   0.5690 
 15 O       -4.4700     2.2200    -1.6590 O.2   1 <1>  -0.5700 
 16 N       -5.7040     3.5770    -0.3610 N.am  1 <1>  -0.6600 
 17 C       -6.1470     4.0930     0.9720 C.3   1 <1>   0.1400 
 18 C       -6.5380     4.0800    -1.4970 C.3   1 <1>   0.1400 
 19 C       -7.6750     4.0140     1.1290 C.3   1 <1>   0.1200 
 20 C       -8.0360     3.9680    -1.1810 C.3   1 <1>   0.1200 
 21 O       -8.3260     4.5930     0.0360 O.3   1 <1>  -0.5600 
 22 H       -2.0280     2.2960    -1.6920 H     1 <1>   0.1500 
 23 H        1.7510     4.0920    -2.3250 H     1 <1>   0.1500 
 24 H        1.5090     5.3810    -0.2150 H     1 <1>   0.1500 
 25 H       -4.0750     2.2170     1.4180 H     1 <1>   0.0800 
 26 H       -3.0500     1.5560     0.2100 H     1 <1>   0.0800 
 27 H       -1.6340     5.8230     2.9510 H     1 <1>   0.0800 
 28 H       -2.1660     6.4190     1.3920 H     1 <1>   0.0800 
 29 H       -5.8300     5.1150     1.0820 H     1 <1>   0.0800 
 30 H       -5.7110     3.5190     1.7660 H     1 <1>   0.0800 
 31 H       -6.3290     3.5290    -2.3970 H     1 <1>   0.0800 
 32 H       -6.2950     5.1110    -1.6810 H     1 <1>   0.0800 
 33 H       -7.9830     4.5450     2.0130 H     1 <1>   0.0800 
 34 H       -7.9940     2.9900     1.2160 H     1 <1>   0.0800 
 35 H       -8.3370     2.9370    -1.1250 H     1 <1>   0.0800 
 36 H       -8.6140     4.4560    -1.9460 H     1 <1>   0.0800 
@<TRIPOS>BOND
  1   1   2  1   
  2   2   3  ar  
  3   2   4  ar  
  4   3   5  ar  
  5   3  22  1   
  6   4   6  ar  
  7   4  23  1   
  8   5   7  1   
  9   5   8  ar  
 10   6   8  ar  
 11   6  24  1   
 12   7   9  am  
 13   7  10  1   
 14   8  11  1   
 15   9  12  2   
 16   9  13  1   
 17  10  14  1   
 18  10  25  1   
 19  10  26  1   
 20  11  13  1   
 21  13  27  1   
 22  13  28  1   
 23  14  15  2   
 24  14  16  am  
 25  16  17  1   
 26  16  18  1   
 27  17  19  1   
 28  17  29  1   
 29  17  30  1   
 30  18  20  1   
 31  18  31  1   
 32  18  32  1   
 33  19  21  1   
 34  19  33  1   
 35  19  34  1   
 36  20  21  1   
 37  20  35  1   
 38  20  36  1   
@<TRIPOS>SUBSTRUCTURE
  1 ****   7 GROUP 4 **** **** 0

# MOE 2024.06 (io_trps.svl 2023.06)
