@<TRIPOS>MOLECULE
NONAME
40 41 1 0 0 
SMALL
USER_CHARGES


@<TRIPOS>ATOM
  1 O       -0.5080     0.4110     0.8250 O.2   1 <1>  -0.5700 
  2 C       -1.5090     1.0040     0.5210 C.2   1 <1>   0.6590 
  3 O       -2.6650     0.6040     1.0280 O.3   1 <1>  -0.4300 
  4 C       -1.4450     2.2170    -0.4220 C.3   1 <1>   0.1220 
  5 C       -3.9130     1.1870     0.7800 C.3   1 <1>   0.3380 
  6 C       -2.8480     2.6320    -0.8830 C.2   1 <1>   0.4480 
  7 C       -0.7700     3.3900     0.3290 C.3   1 <1>  -0.2400 
  8 C       -0.5850     1.8910    -1.6660 C.3   1 <1>  -0.2400 
  9 C       -5.0110     0.2150     1.2160 C.2   1 <1>  -0.2880 
 10 C       -4.0140     1.6550    -0.6870 C.3   1 <1>   0.0610 
 11 O       -3.0250     3.7070    -1.3820 O.2   1 <1>  -0.5700 
 12 C       -5.0960    -1.1250     1.0980 C.2   1 <1>  -0.1780 
 13 C       -5.3760     2.3560    -0.9170 C.3   1 <1>  -0.2400 
 14 C       -3.9200     0.4950    -1.7050 C.3   1 <1>  -0.2400 
 15 C       -4.1780    -2.0730     0.5100 C.ar  1 <1>   0.0280 
 16 C       -2.9090    -2.3030     1.0320 C.ar  1 <1>  -0.1500 
 17 C       -4.5620    -2.8040    -0.6100 C.ar  1 <1>  -0.1500 
 18 C       -2.0430    -3.2050     0.4420 C.ar  1 <1>  -0.1500 
 19 C       -3.7040    -3.7130    -1.2030 C.ar  1 <1>  -0.1500 
 20 C       -2.4390    -3.9130    -0.6790 C.ar  1 <1>  -0.1500 
 21 H       -3.9650     2.0500     1.4230 H     1 <1>   0.0800 
 22 H       -1.3540     3.6720     1.1870 H     1 <1>   0.0800 
 23 H       -0.6750     4.2490    -0.3130 H     1 <1>   0.0800 
 24 H        0.2130     3.1070     0.6650 H     1 <1>   0.0800 
 25 H       -0.5490     2.7370    -2.3300 H     1 <1>   0.0800 
 26 H       -0.9960     1.0550    -2.2030 H     1 <1>   0.0800 
 27 H        0.4210     1.6420    -1.3760 H     1 <1>   0.0800 
 28 H       -5.8200     0.7560     1.6730 H     1 <1>   0.1500 
 29 H       -5.9790    -1.6140     1.4720 H     1 <1>   0.1500 
 30 H       -6.1960     1.6750    -0.7730 H     1 <1>   0.0800 
 31 H       -5.4340     2.7380    -1.9220 H     1 <1>   0.0800 
 32 H       -5.4950     3.1850    -0.2410 H     1 <1>   0.0800 
 33 H       -3.8600     0.8830    -2.7070 H     1 <1>   0.0800 
 34 H       -3.0580    -0.1230    -1.5280 H     1 <1>   0.0800 
 35 H       -4.7910    -0.1320    -1.6440 H     1 <1>   0.0800 
 36 H       -2.5950    -1.7640     1.9080 H     1 <1>   0.1500 
 37 H       -5.5430    -2.6540    -1.0210 H     1 <1>   0.1500 
 38 H       -1.0620    -3.3540     0.8580 H     1 <1>   0.1500 
 39 H       -4.0180    -4.2650    -2.0710 H     1 <1>   0.1500 
 40 H       -1.7660    -4.6150    -1.1380 H     1 <1>   0.1500 
@<TRIPOS>BOND
  1   1   2  2   
  2   2   3  1   
  3   2   4  1   
  4   3   5  1   
  5   4   6  1   
  6   4   7  1   
  7   4   8  1   
  8   5   9  1   
  9   5  10  1   
 10   5  21  1   
 11   6  10  1   
 12   6  11  2   
 13   7  22  1   
 14   7  23  1   
 15   7  24  1   
 16   8  25  1   
 17   8  26  1   
 18   8  27  1   
 19   9  12  2   
 20   9  28  1   
 21  10  13  1   
 22  10  14  1   
 23  12  15  1   
 24  12  29  1   
 25  13  30  1   
 26  13  31  1   
 27  13  32  1   
 28  14  33  1   
 29  14  34  1   
 30  14  35  1   
 31  15  16  ar  
 32  15  17  ar  
 33  16  18  ar  
 34  16  36  1   
 35  17  19  ar  
 36  17  37  1   
 37  18  20  ar  
 38  18  38  1   
 39  19  20  ar  
 40  19  39  1   
 41  20  40  1   
@<TRIPOS>SUBSTRUCTURE
  1 ****   3 GROUP 4 **** **** 0

# MOE 2024.06 (io_trps.svl 2023.06)
