@<TRIPOS>MOLECULE
NONAME
34 35 1 0 0 
SMALL
USER_CHARGES


@<TRIPOS>ATOM
  1 S        0.1220    -0.0620     0.1920 S.o2  1 <1>   1.3330 
  2 O        1.3720    -0.7430    -0.0610 O.2   1 <1>  -0.6500 
  3 O       -1.1110    -0.8050     0.2600 O.2   1 <1>  -0.6500 
  4 N       -0.0340     1.1610    -1.0250 N.am  1 <1>  -0.6930 
  5 C        0.3010     0.9180     1.6670 C.3   1 <1>  -0.1350 
  6 C       -1.1440     1.9990    -1.1000 C.ar  1 <1>   0.1990 
  7 C        1.1540     1.4360    -1.8960 C.3   1 <1>   0.2570 
  8 C       -1.0060     3.3780    -0.9680 C.ar  1 <1>  -0.1500 
  9 C       -2.4180     1.4810    -1.3090 C.ar  1 <1>  -0.1500 
 10 C        2.3280     2.0990    -1.1690 C.2   1 <1>   0.5690 
 11 C       -2.1060     4.2130    -1.0390 C.ar  1 <1>  -0.1500 
 12 C       -3.5210     2.3120    -1.3790 C.ar  1 <1>  -0.1500 
 13 O        2.4680     3.2970    -1.2580 O.2   1 <1>  -0.5700 
 14 N        3.1750     1.3250    -0.4380 N.am  1 <1>  -0.5790 
 15 C       -3.3670     3.6800    -1.2440 C.ar  1 <1>  -0.1500 
 16 C        4.3200     1.7930     0.3510 C.3   1 <1>   0.0490 
 17 C        5.4720     0.8640     0.5320 C.3   1 <1>  -0.2000 
 18 C        4.5530     1.1560     1.6800 C.3   1 <1>  -0.2000 
 19 H        0.4320     0.2800     2.5190 H     1 <1>   0.0800 
 20 H       -0.5750     1.5170     1.8200 H     1 <1>   0.0800 
 21 H        1.1520     1.5660     1.5870 H     1 <1>   0.0800 
 22 H        0.8540     2.0800    -2.7030 H     1 <1>   0.0800 
 23 H        1.4900     0.5130    -2.3320 H     1 <1>   0.0800 
 24 H       -0.0330     3.8060    -0.8040 H     1 <1>   0.1500 
 25 H       -2.5440     0.4190    -1.4210 H     1 <1>   0.1500 
 26 H       -1.9820     5.2770    -0.9350 H     1 <1>   0.1500 
 27 H       -4.5000     1.8930    -1.5390 H     1 <1>   0.1500 
 28 H        2.9500     0.3240    -0.3310 H     1 <1>   0.3700 
 29 H       -4.2250     4.3280    -1.2990 H     1 <1>   0.1500 
 30 H        4.5180     2.8480     0.2360 H     1 <1>   0.1000 
 31 H        6.4670     1.2740     0.5590 H     1 <1>   0.1000 
 32 H        5.4370    -0.1060     0.0660 H     1 <1>   0.1000 
 33 H        3.8850     0.3830     2.0160 H     1 <1>   0.1000 
 34 H        4.9280     1.7620     2.4860 H     1 <1>   0.1000 
@<TRIPOS>BOND
  1   1   2  2   
  2   1   3  2   
  3   1   4  am  
  4   1   5  1   
  5   4   6  1   
  6   4   7  1   
  7   5  19  1   
  8   5  20  1   
  9   5  21  1   
 10   6   8  ar  
 11   6   9  ar  
 12   7  10  1   
 13   7  22  1   
 14   7  23  1   
 15   8  11  ar  
 16   8  24  1   
 17   9  12  ar  
 18   9  25  1   
 19  10  13  2   
 20  10  14  am  
 21  11  15  ar  
 22  11  26  1   
 23  12  15  ar  
 24  12  27  1   
 25  14  16  1   
 26  14  28  1   
 27  15  29  1   
 28  16  17  1   
 29  16  18  1   
 30  16  30  1   
 31  17  18  1   
 32  17  31  1   
 33  17  32  1   
 34  18  33  1   
 35  18  34  1   
@<TRIPOS>SUBSTRUCTURE
  1 ****   4 GROUP 4 **** **** 0

# MOE 2024.06 (io_trps.svl 2023.06)
