@<TRIPOS>MOLECULE
NONAME
49 51 1 0 0 
SMALL
USER_CHARGES


@<TRIPOS>ATOM
  1 O       -6.1720     0.8810    -0.1300 O.3   1 <1>  -0.3630 
  2 C       -7.5190     0.7800     0.0000 C.ar  1 <1>   0.0830 
  3 C       -5.5550     2.1210    -0.4020 C.3   1 <1>   0.1200 
  4 C       -8.3840     1.8730    -0.0590 C.ar  1 <1>  -0.1500 
  5 C       -8.0320    -0.4950     0.2020 C.ar  1 <1>  -0.1500 
  6 C       -4.0430     1.8940    -0.5190 C.3   1 <1>   0.2000 
  7 C       -9.7420     1.6590     0.0830 C.ar  1 <1>  -0.1440 
  8 C       -9.3950    -0.6960     0.3440 C.ar  1 <1>  -0.1500 
  9 O       -3.5970     1.2060     0.6120 O.3   1 <1>  -0.6800 
 10 C       -3.2520     3.2130    -0.6470 C.3   1 <1>   0.3430 
 11 C      -10.2410     0.3960     0.2820 C.ar  1 <1>  -0.1440 
 12 C      -10.8500     2.6840     0.0540 C.3   1 <1>  -0.0170 
 13 N       -1.8350     3.0170    -0.2110 N.4   1 <1>  -0.9590 
 14 C      -11.7430     0.4100     0.4090 C.3   1 <1>  -0.0170 
 15 C      -12.1260     1.8290    -0.0470 C.3   1 <1>  -0.1600 
 16 C       -1.2150     4.2650     0.3150 C.3   1 <1>   0.3430 
 17 C       -0.9990     2.3450    -1.2450 C.3   1 <1>   0.3430 
 18 C        0.1500     3.9430     0.9240 C.3   1 <1>  -0.1600 
 19 C        0.3680     1.9990    -0.6560 C.3   1 <1>  -0.1600 
 20 C        1.0710     3.2380    -0.0830 C.3   1 <1>  -0.0800 
 21 C        2.3970     2.8480     0.5790 C.3   1 <1>  -0.2400 
 22 H       -5.7790     2.7950     0.4070 H     1 <1>   0.0800 
 23 H       -5.9570     2.5040    -1.3240 H     1 <1>   0.0800 
 24 H       -8.0350     2.8750    -0.2110 H     1 <1>   0.1500 
 25 H       -7.3600    -1.3320     0.2470 H     1 <1>   0.1500 
 26 H       -3.8510     1.2720    -1.3770 H     1 <1>   0.0800 
 27 H       -9.7900    -1.6840     0.5000 H     1 <1>   0.1500 
 28 H       -4.2570     0.5040     0.8260 H     1 <1>   0.4000 
 29 H       -3.7200     3.9420    -0.0060 H     1 <1>   0.0800 
 30 H       -3.2970     3.5830    -1.6580 H     1 <1>   0.0800 
 31 H      -10.7540     3.3490    -0.7860 H     1 <1>   0.0800 
 32 H      -10.8420     3.2460     0.9710 H     1 <1>   0.0800 
 33 H       -1.9230     2.3410     0.5730 H     1 <1>   0.4500 
 34 H      -12.0160     0.2540     1.4380 H     1 <1>   0.0800 
 35 H      -12.2000    -0.3410    -0.2100 H     1 <1>   0.0800 
 36 H      -12.4340     1.7890    -1.0770 H     1 <1>   0.0800 
 37 H      -12.9280     2.2360     0.5440 H     1 <1>   0.0800 
 38 H       -1.8480     4.7030     1.0690 H     1 <1>   0.0800 
 39 H       -1.0930     4.9770    -0.4850 H     1 <1>   0.0800 
 40 H       -0.8700     2.9980    -2.0930 H     1 <1>   0.0800 
 41 H       -1.4820     1.4400    -1.5790 H     1 <1>   0.0800 
 42 H        0.0110     3.3280     1.7960 H     1 <1>   0.0800 
 43 H        0.6100     4.8610     1.2480 H     1 <1>   0.0800 
 44 H        0.9790     1.5650    -1.4280 H     1 <1>   0.0800 
 45 H        0.2420     1.2540     0.1110 H     1 <1>   0.0800 
 46 H        1.2860     3.9180    -0.8910 H     1 <1>   0.0800 
 47 H        2.2350     2.1660     1.3960 H     1 <1>   0.0800 
 48 H        2.8970     3.7220     0.9590 H     1 <1>   0.0800 
 49 H        3.0480     2.3750    -0.1350 H     1 <1>   0.0800 
@<TRIPOS>BOND
  1   1   2  1   
  2   1   3  1   
  3   2   4  ar  
  4   2   5  ar  
  5   3   6  1   
  6   3  22  1   
  7   3  23  1   
  8   4   7  ar  
  9   4  24  1   
 10   5   8  ar  
 11   5  25  1   
 12   6   9  1   
 13   6  10  1   
 14   6  26  1   
 15   7  11  ar  
 16   7  12  1   
 17   8  11  ar  
 18   8  27  1   
 19   9  28  1   
 20  10  13  1   
 21  10  29  1   
 22  10  30  1   
 23  11  14  1   
 24  12  15  1   
 25  12  31  1   
 26  12  32  1   
 27  13  16  1   
 28  13  17  1   
 29  13  33  1   
 30  14  15  1   
 31  14  34  1   
 32  14  35  1   
 33  15  36  1   
 34  15  37  1   
 35  16  18  1   
 36  16  38  1   
 37  16  39  1   
 38  17  19  1   
 39  17  40  1   
 40  17  41  1   
 41  18  20  1   
 42  18  42  1   
 43  18  43  1   
 44  19  20  1   
 45  19  44  1   
 46  19  45  1   
 47  20  21  1   
 48  20  46  1   
 49  21  47  1   
 50  21  48  1   
 51  21  49  1   
@<TRIPOS>SUBSTRUCTURE
  1 ****   3 GROUP 4 **** **** 0

# MOE 2024.06 (io_trps.svl 2023.06)
