@<TRIPOS>MOLECULE
NONAME
52 54 1 0 0 
SMALL
USER_CHARGES


@<TRIPOS>ATOM
  1 O       -0.0030    -0.4130    -0.4810 O.2   1 <1>  -0.5700 
  2 C       -0.6870    -1.3980    -0.2590 C.2   1 <1>   0.5440 
  3 N       -0.0820    -2.6250    -0.0460 N.am  1 <1>  -0.2370 
  4 C       -2.1200    -1.3240    -0.2190 C.ar  1 <1>   0.0860 
  5 C        1.3230    -2.7410    -0.0030 C.ar  1 <1>   0.1170 
  6 C       -0.8790    -3.7420     0.1410 C.2   1 <1>   0.4490 
  7 C       -2.8220    -2.5140     0.0030 C.ar  1 <1>   0.1790 
  8 C       -2.8390    -0.1380    -0.3890 C.ar  1 <1>  -0.1500 
  9 C        2.0580    -2.8580    -1.1770 C.ar  1 <1>  -0.1500 
 10 C        1.9860    -2.7840     1.2170 C.ar  1 <1>  -0.1500 
 11 N       -2.1620    -3.7160     0.1710 N.2   1 <1>  -0.6290 
 12 C       -0.1680    -5.1000     0.3270 C.3   1 <1>   0.4040 
 13 C       -4.2120    -2.4920     0.0520 C.ar  1 <1>  -0.1500 
 14 C       -4.2170    -0.1300    -0.3390 C.ar  1 <1>  -0.1500 
 15 C        3.4270    -3.0510    -1.1360 C.ar  1 <1>  -0.1500 
 16 C        3.3540    -2.9810     1.2610 C.ar  1 <1>  -0.1500 
 17 N       -1.1130    -6.2800     0.2930 N.4   1 <1>  -0.9590 
 18 C       -4.9070    -1.3130    -0.1170 C.ar  1 <1>  -0.1500 
 19 C        4.0810    -3.1230     0.0910 C.ar  1 <1>   0.0830 
 20 C       -0.5880    -7.4680     1.0180 C.3   1 <1>   0.3430 
 21 C       -1.5170    -6.5900    -1.1040 C.3   1 <1>   0.3430 
 22 O        5.4150    -3.3230     0.2260 O.3   1 <1>  -0.3630 
 23 C       -0.6280    -7.2100     2.5200 C.3   1 <1>  -0.2400 
 24 C       -2.8330    -7.3580    -1.0940 C.3   1 <1>  -0.2400 
 25 C        6.2790    -3.2600    -0.8850 C.3   1 <1>   0.1200 
 26 C        7.7090    -3.4120    -0.3780 C.3   1 <1>  -0.2400 
 27 H       -2.3020     0.7810    -0.5610 H     1 <1>   0.1500 
 28 H        1.5600    -2.7890    -2.1290 H     1 <1>   0.1500 
 29 H        1.4400    -2.6550     2.1360 H     1 <1>   0.1500 
 30 H        0.3390    -5.0680     1.2750 H     1 <1>   0.0800 
 31 H        0.5810    -5.2140    -0.4390 H     1 <1>   0.0800 
 32 H       -4.7450    -3.4090     0.2240 H     1 <1>   0.1500 
 33 H       -4.7610     0.7900    -0.4710 H     1 <1>   0.1500 
 34 H        3.9680    -3.1390    -2.0600 H     1 <1>   0.1500 
 35 H        3.8740    -3.0160     2.2030 H     1 <1>   0.1500 
 36 H       -1.9700    -5.9470     0.7650 H     1 <1>   0.4500 
 37 H       -5.9840    -1.3040    -0.0780 H     1 <1>   0.1500 
 38 H        0.4200    -7.6860     0.7020 H     1 <1>   0.0800 
 39 H       -1.2010    -8.3280     0.8020 H     1 <1>   0.0800 
 40 H       -0.7510    -7.1630    -1.6020 H     1 <1>   0.0800 
 41 H       -1.6650    -5.6710    -1.6520 H     1 <1>   0.0800 
 42 H        0.0490    -6.4270     2.8090 H     1 <1>   0.0800 
 43 H       -0.3270    -8.1040     3.0360 H     1 <1>   0.0800 
 44 H       -1.6260    -6.9660     2.8390 H     1 <1>   0.0800 
 45 H       -2.7300    -8.3180    -0.6230 H     1 <1>   0.0800 
 46 H       -3.1510    -7.5240    -2.1080 H     1 <1>   0.0800 
 47 H       -3.6000    -6.7890    -0.5980 H     1 <1>   0.0800 
 48 H        6.1460    -2.3070    -1.3680 H     1 <1>   0.0800 
 49 H        6.0290    -4.0610    -1.5590 H     1 <1>   0.0800 
 50 H        7.9460    -2.6160     0.3060 H     1 <1>   0.0800 
 51 H        8.3950    -3.3680    -1.2040 H     1 <1>   0.0800 
 52 H        7.8280    -4.3580     0.1180 H     1 <1>   0.0800 
@<TRIPOS>BOND
  1   1   2  2   
  2   2   3  am  
  3   2   4  1   
  4   3   5  1   
  5   3   6  1   
  6   4   7  ar  
  7   4   8  ar  
  8   5   9  ar  
  9   5  10  ar  
 10   6  11  2   
 11   6  12  1   
 12   7  11  1   
 13   7  13  ar  
 14   8  14  ar  
 15   8  27  1   
 16   9  15  ar  
 17   9  28  1   
 18  10  16  ar  
 19  10  29  1   
 20  12  17  1   
 21  12  30  1   
 22  12  31  1   
 23  13  18  ar  
 24  13  32  1   
 25  14  18  ar  
 26  14  33  1   
 27  15  19  ar  
 28  15  34  1   
 29  16  19  ar  
 30  16  35  1   
 31  17  20  1   
 32  17  21  1   
 33  17  36  1   
 34  18  37  1   
 35  19  22  1   
 36  20  23  1   
 37  20  38  1   
 38  20  39  1   
 39  21  24  1   
 40  21  40  1   
 41  21  41  1   
 42  22  25  1   
 43  23  42  1   
 44  23  43  1   
 45  23  44  1   
 46  24  45  1   
 47  24  46  1   
 48  24  47  1   
 49  25  26  1   
 50  25  48  1   
 51  25  49  1   
 52  26  50  1   
 53  26  51  1   
 54  26  52  1   
@<TRIPOS>SUBSTRUCTURE
  1 ****   3 GROUP 4 **** **** 0

# MOE 2024.06 (io_trps.svl 2023.06)
