@<TRIPOS>MOLECULE
NONAME
39 40 1 0 0 
SMALL
USER_CHARGES


@<TRIPOS>ATOM
  1 O        0.7320    -0.1560     0.5790 O.3   1 <1>  -0.5600 
  2 C        1.5790    -0.5740    -0.4630 C.3   1 <1>   0.5600 
  3 C        0.0960     1.0690     0.3940 C.3   1 <1>   0.1200 
  4 O        2.1940     0.5400    -1.0570 O.3   1 <1>  -0.5600 
  5 C        2.6480    -1.5050     0.1190 C.3   1 <1>  -0.1600 
  6 C        0.7710    -1.3060    -1.5400 C.3   1 <1>  -0.1600 
  7 C        1.1700     2.1590     0.3380 C.3   1 <1>  -0.1600 
  8 C        2.4890     1.5980    -0.2010 C.3   1 <1>   0.1200 
  9 C        2.0570    -2.8310     0.6320 C.3   1 <1>  -0.1600 
 10 C        0.1660    -2.6240    -1.0270 C.3   1 <1>  -0.1600 
 11 C        1.2480    -3.5760    -0.4600 C.3   1 <1>  -0.0800 
 12 C        0.6900    -4.9660     0.0020 C.3   1 <1>   0.0000 
 13 C       -0.0110    -5.6850    -1.1660 C.3   1 <1>  -0.2400 
 14 C        1.8370    -5.8850     0.4630 C.3   1 <1>  -0.2400 
 15 C       -0.3180    -4.8500     1.1600 C.3   1 <1>  -0.2400 
 16 H       -0.5800     1.2290     1.2150 H     1 <1>   0.0800 
 17 H       -0.4630     1.0300    -0.5250 H     1 <1>   0.0800 
 18 H        3.1560    -1.0090     0.9240 H     1 <1>   0.0800 
 19 H        3.3660    -1.7210    -0.6520 H     1 <1>   0.0800 
 20 H        1.4300    -1.5280    -2.3600 H     1 <1>   0.0800 
 21 H       -0.0060    -0.6660    -1.9110 H     1 <1>   0.0800 
 22 H        1.3320     2.5640     1.3190 H     1 <1>   0.0800 
 23 H        0.8290     2.9610    -0.2910 H     1 <1>   0.0800 
 24 H        3.0320     2.3430    -0.7550 H     1 <1>   0.0800 
 25 H        3.1080     1.2310     0.6000 H     1 <1>   0.0800 
 26 H        1.4210    -2.6150     1.4720 H     1 <1>   0.0800 
 27 H        2.8720    -3.4370     0.9800 H     1 <1>   0.0800 
 28 H       -0.3540    -3.0850    -1.8460 H     1 <1>   0.0800 
 29 H       -0.5550    -2.3930    -0.2630 H     1 <1>   0.0800 
 30 H        1.9340    -3.7760    -1.2660 H     1 <1>   0.0800 
 31 H        0.6370    -5.7320    -2.0230 H     1 <1>   0.0800 
 32 H       -0.9180    -5.1820    -1.4470 H     1 <1>   0.0800 
 33 H       -0.2770    -6.6890    -0.8890 H     1 <1>   0.0800 
 34 H        2.2820    -5.5290     1.3740 H     1 <1>   0.0800 
 35 H        2.6000    -5.9450    -0.2920 H     1 <1>   0.0800 
 36 H        1.4740    -6.8800     0.6540 H     1 <1>   0.0800 
 37 H        0.1340    -4.4010     2.0240 H     1 <1>   0.0800 
 38 H       -0.6730    -5.8250     1.4440 H     1 <1>   0.0800 
 39 H       -1.1690    -4.2610     0.8750 H     1 <1>   0.0800 
@<TRIPOS>BOND
  1   1   2  1   
  2   1   3  1   
  3   2   4  1   
  4   2   5  1   
  5   2   6  1   
  6   3   7  1   
  7   3  16  1   
  8   3  17  1   
  9   4   8  1   
 10   5   9  1   
 11   5  18  1   
 12   5  19  1   
 13   6  10  1   
 14   6  20  1   
 15   6  21  1   
 16   7   8  1   
 17   7  22  1   
 18   7  23  1   
 19   8  24  1   
 20   8  25  1   
 21   9  11  1   
 22   9  26  1   
 23   9  27  1   
 24  10  11  1   
 25  10  28  1   
 26  10  29  1   
 27  11  12  1   
 28  11  30  1   
 29  12  13  1   
 30  12  14  1   
 31  12  15  1   
 32  13  31  1   
 33  13  32  1   
 34  13  33  1   
 35  14  34  1   
 36  14  35  1   
 37  14  36  1   
 38  15  37  1   
 39  15  38  1   
 40  15  39  1   
@<TRIPOS>SUBSTRUCTURE
  1 ****   2 GROUP 4 **** **** 0

# MOE 2024.06 (io_trps.svl 2023.06)
