@<TRIPOS>MOLECULE
NONAME
51 54 1 0 0 
SMALL
USER_CHARGES


@<TRIPOS>ATOM
  1 S        0.2550    -0.2370    -0.9380 S.o2  1 <1>   1.4470 
  2 O        0.5230    -0.5760    -2.3200 O.2   1 <1>  -0.6500 
  3 O       -0.2950     1.0640    -0.6250 O.2   1 <1>  -0.6500 
  4 N        1.7390    -0.3650    -0.1240 N.am  1 <1>  -0.8490 
  5 C       -0.7580    -1.5250    -0.1570 C.ar  1 <1>  -0.0090 
  6 C        2.5690     0.8210    -0.3490 C.3   1 <1>   0.1960 
  7 C        2.4460    -1.6010    -0.4700 C.3   1 <1>   0.1960 
  8 C       -1.4350    -2.4720    -0.9170 C.ar  1 <1>  -0.1500 
  9 C       -0.8790    -1.5970     1.2250 C.ar  1 <1>  -0.1500 
 10 C        3.8430     0.7460     0.4970 C.3   1 <1>  -0.1600 
 11 C        3.7110    -1.7470     0.3790 C.3   1 <1>  -0.1600 
 12 C       -2.2000    -3.4580    -0.3190 C.ar  1 <1>  -0.1500 
 13 C       -1.6420    -2.5800     1.8300 C.ar  1 <1>  -0.1500 
 14 C        4.6420    -0.5370     0.2000 C.3   1 <1>  -0.0190 
 15 C       -2.3080    -3.5180     1.0590 C.ar  1 <1>  -0.1440 
 16 C        5.9000    -0.6720     1.0720 C.2   1 <1>   0.5690 
 17 C       -3.1450    -4.5990     1.7190 C.3   1 <1>  -0.0970 
 18 O        5.8220    -0.2910     2.2160 O.2   1 <1>  -0.5700 
 19 N        7.0570    -1.2270     0.5520 N.am  1 <1>  -0.4770 
 20 C        8.2960    -1.4100     1.1880 C.ar  1 <1>   0.1170 
 21 C        7.1550    -1.7960    -0.8240 C.3   1 <1>   0.1400 
 22 C        9.1840    -2.0940     0.3840 C.ar  1 <1>  -0.1440 
 23 C        8.7110    -1.0040     2.4510 C.ar  1 <1>  -0.1500 
 24 C        8.5450    -2.4390    -0.9330 C.3   1 <1>  -0.0170 
 25 C       10.4690    -2.3880     0.7990 C.ar  1 <1>  -0.1500 
 26 C        9.9960    -1.2910     2.8820 C.ar  1 <1>  -0.1500 
 27 C       10.8740    -1.9810     2.0600 C.ar  1 <1>  -0.1500 
 28 H        2.0240     1.7060    -0.0660 H     1 <1>   0.0800 
 29 H        2.8180     0.9000    -1.3950 H     1 <1>   0.0800 
 30 H        2.7070    -1.5960    -1.5160 H     1 <1>   0.0800 
 31 H        1.8070    -2.4490    -0.2880 H     1 <1>   0.0800 
 32 H       -1.3630    -2.4370    -1.9910 H     1 <1>   0.1500 
 33 H       -0.3660    -0.8710     1.8340 H     1 <1>   0.1500 
 34 H        3.5630     0.7770     1.5370 H     1 <1>   0.0800 
 35 H        4.4550     1.6080     0.3000 H     1 <1>   0.0800 
 36 H        4.2230    -2.6500     0.1010 H     1 <1>   0.0800 
 37 H        3.4290    -1.8370     1.4140 H     1 <1>   0.0800 
 38 H       -2.7110    -4.1790    -0.9330 H     1 <1>   0.1500 
 39 H       -1.7150    -2.6110     2.9030 H     1 <1>   0.1500 
 40 H        4.9320    -0.4800    -0.8310 H     1 <1>   0.0800 
 41 H       -2.5330    -5.4580     1.9250 H     1 <1>   0.0800 
 42 H       -3.9540    -4.8940     1.0750 H     1 <1>   0.0800 
 43 H       -3.5620    -4.2400     2.6430 H     1 <1>   0.0800 
 44 H        7.0590    -1.0060    -1.5490 H     1 <1>   0.0800 
 45 H        6.3880    -2.5350    -0.9780 H     1 <1>   0.0800 
 46 H        8.0440    -0.4670     3.0990 H     1 <1>   0.1500 
 47 H        9.1000    -2.0230    -1.7550 H     1 <1>   0.0800 
 48 H        8.4660    -3.5050    -1.0490 H     1 <1>   0.0800 
 49 H       11.1460    -2.9230     0.1570 H     1 <1>   0.1500 
 50 H       10.3130    -0.9750     3.8610 H     1 <1>   0.1500 
 51 H       11.8700    -2.2000     2.4020 H     1 <1>   0.1500 
@<TRIPOS>BOND
  1   1   2  2   
  2   1   3  2   
  3   1   4  am  
  4   1   5  1   
  5   4   6  1   
  6   4   7  1   
  7   5   8  ar  
  8   5   9  ar  
  9   6  10  1   
 10   6  28  1   
 11   6  29  1   
 12   7  11  1   
 13   7  30  1   
 14   7  31  1   
 15   8  12  ar  
 16   8  32  1   
 17   9  13  ar  
 18   9  33  1   
 19  10  14  1   
 20  10  34  1   
 21  10  35  1   
 22  11  14  1   
 23  11  36  1   
 24  11  37  1   
 25  12  15  ar  
 26  12  38  1   
 27  13  15  ar  
 28  13  39  1   
 29  14  16  1   
 30  14  40  1   
 31  15  17  1   
 32  16  18  2   
 33  16  19  am  
 34  17  41  1   
 35  17  42  1   
 36  17  43  1   
 37  19  20  1   
 38  19  21  1   
 39  20  22  ar  
 40  20  23  ar  
 41  21  24  1   
 42  21  44  1   
 43  21  45  1   
 44  22  24  1   
 45  22  25  ar  
 46  23  26  ar  
 47  23  46  1   
 48  24  47  1   
 49  24  48  1   
 50  25  27  ar  
 51  25  49  1   
 52  26  27  ar  
 53  26  50  1   
 54  27  51  1   
@<TRIPOS>SUBSTRUCTURE
  1 ****  11 GROUP 4 **** **** 0

# MOE 2024.06 (io_trps.svl 2023.06)
