@<TRIPOS>MOLECULE
NONAME
48 50 1 0 0 
SMALL
USER_CHARGES


@<TRIPOS>ATOM
  1 S       -7.1080    -0.3780     0.1810 S.3   1 <1>  -0.4600 
  2 C       -7.4330     1.1630    -0.7040 C.3   1 <1>   0.5940 
  3 C       -5.9430     0.2880     1.3910 C.3   1 <1>   0.1310 
  4 N       -6.5010     2.1390    -0.0950 N.am  1 <1>  -0.6600 
  5 C       -8.8970     1.5500    -0.5080 C.ar  1 <1>  -0.1440 
  6 C       -5.7590     1.7280     0.9700 C.2   1 <1>   0.5690 
  7 C       -6.3450     3.4780    -0.7150 C.3   1 <1>   0.1400 
  8 C       -9.7160     1.7230    -1.6210 C.ar  1 <1>  -0.1500 
  9 C       -9.4220     1.7500     0.7670 C.ar  1 <1>  -0.1500 
 10 O       -4.9890     2.4460     1.5630 O.2   1 <1>  -0.5700 
 11 C       -7.3960     4.4430    -0.1620 C.3   1 <1>  -0.1600 
 12 C      -11.0400     2.1010    -1.4660 C.ar  1 <1>  -0.1500 
 13 C      -10.7430     2.1260     0.9340 C.ar  1 <1>  -0.1500 
 14 C       -7.0990     5.8860    -0.5750 C.3   1 <1>   0.1100 
 15 C      -11.5270     2.2990    -0.1890 C.ar  1 <1>   0.1900 
 16 N       -8.2850     6.7330    -0.3700 N.3   1 <1>  -0.8100 
 17 F      -12.7710     2.6680    -0.0390 F     1 <1>  -0.1900 
 18 C       -8.1440     8.0260    -1.0650 C.3   1 <1>   0.1100 
 19 C       -8.6220     6.9240     1.0580 C.3   1 <1>   0.1100 
 20 C       -9.4230     8.8780    -0.9260 C.3   1 <1>   0.3430 
 21 C       -9.9050     7.7620     1.2220 C.3   1 <1>   0.3430 
 22 N       -9.8040     9.0870     0.5140 N.4   1 <1>  -0.9590 
 23 C      -11.0770     9.8560     0.6300 C.3   1 <1>   0.2630 
 24 H       -7.1930     0.9930    -1.7390 H     1 <1>   0.0800 
 25 H       -5.0260    -0.2670     1.3240 H     1 <1>   0.0800 
 26 H       -6.3830     0.2130     2.3670 H     1 <1>   0.0800 
 27 H       -6.4330     3.4000    -1.7860 H     1 <1>   0.0800 
 28 H       -5.3610     3.8540    -0.4890 H     1 <1>   0.0800 
 29 H       -9.3290     1.5670    -2.6130 H     1 <1>   0.1500 
 30 H       -8.7980     1.6150     1.6340 H     1 <1>   0.1500 
 31 H       -7.3930     4.3680     0.9100 H     1 <1>   0.0800 
 32 H       -8.3630     4.1690    -0.5410 H     1 <1>   0.0800 
 33 H      -11.6840     2.2390    -2.3160 H     1 <1>   0.1500 
 34 H      -11.1600     2.2810     1.9130 H     1 <1>   0.1500 
 35 H       -6.8450     5.8930    -1.6230 H     1 <1>   0.0800 
 36 H       -6.2570     6.2680    -0.0220 H     1 <1>   0.0800 
 37 H       -7.9650     7.8480    -2.1120 H     1 <1>   0.0800 
 38 H       -7.3000     8.5670    -0.6720 H     1 <1>   0.0800 
 39 H       -7.8030     7.3990     1.5720 H     1 <1>   0.0800 
 40 H       -8.7930     5.9680     1.5220 H     1 <1>   0.0800 
 41 H      -10.2210     8.3710    -1.4420 H     1 <1>   0.0800 
 42 H       -9.2680     9.8300    -1.4080 H     1 <1>   0.0800 
 43 H      -10.0930     7.9190     2.2710 H     1 <1>   0.0800 
 44 H      -10.7280     7.1970     0.8170 H     1 <1>   0.0800 
 45 H       -9.0420     9.6150     0.9600 H     1 <1>   0.4500 
 46 H      -11.8860     9.3130     0.1670 H     1 <1>   0.0800 
 47 H      -10.9820    10.8140     0.1430 H     1 <1>   0.0800 
 48 H      -11.3230    10.0220     1.6670 H     1 <1>   0.0800 
@<TRIPOS>BOND
  1   1   2  1   
  2   1   3  1   
  3   2   4  1   
  4   2   5  1   
  5   2  24  1   
  6   3   6  1   
  7   3  25  1   
  8   3  26  1   
  9   4   6  am  
 10   4   7  1   
 11   5   8  ar  
 12   5   9  ar  
 13   6  10  2   
 14   7  11  1   
 15   7  27  1   
 16   7  28  1   
 17   8  12  ar  
 18   8  29  1   
 19   9  13  ar  
 20   9  30  1   
 21  11  14  1   
 22  11  31  1   
 23  11  32  1   
 24  12  15  ar  
 25  12  33  1   
 26  13  15  ar  
 27  13  34  1   
 28  14  16  1   
 29  14  35  1   
 30  14  36  1   
 31  15  17  1   
 32  16  18  1   
 33  16  19  1   
 34  18  20  1   
 35  18  37  1   
 36  18  38  1   
 37  19  21  1   
 38  19  39  1   
 39  19  40  1   
 40  20  22  1   
 41  20  41  1   
 42  20  42  1   
 43  21  22  1   
 44  21  43  1   
 45  21  44  1   
 46  22  23  1   
 47  22  45  1   
 48  23  46  1   
 49  23  47  1   
 50  23  48  1   
@<TRIPOS>SUBSTRUCTURE
  1 ****  11 GROUP 4 **** **** 0

# MOE 2024.06 (io_trps.svl 2023.06)
