@<TRIPOS>MOLECULE
NONAME
44 46 1 0 0 
SMALL
USER_CHARGES


@<TRIPOS>ATOM
  1 O        1.8690     1.6480    -1.4890 O.2   1 <1>  -0.5700 
  2 C        0.8120     1.0800    -1.6280 C.2   1 <1>   0.5690 
  3 N        0.7330    -0.2690    -1.4600 N.am  1 <1>  -0.7300 
  4 C       -0.4440     1.8930    -1.8810 C.3   1 <1>   0.1570 
  5 C        1.8990    -1.1690    -1.2100 C.3   1 <1>   0.1400 
  6 N       -1.1910     1.9590    -0.6130 N.pl3 1 <1>   0.0480 
  7 C        2.3050    -1.2260     0.2790 C.3   1 <1>   0.3430 
  8 C       -1.9590     0.9500    -0.1180 C.ar  1 <1>  -0.1520 
  9 C       -0.8870     2.7400     0.4620 C.2   1 <1>   0.0060 
 10 N        2.4240     0.1410     0.8650 N.4   1 <1>  -0.9590 
 11 C       -2.0610     1.1900     1.2390 C.ar  1 <1>   0.2270 
 12 C       -2.5770    -0.1620    -0.7000 C.ar  1 <1>  -0.1500 
 13 N       -1.3700     2.3120     1.5740 N.2   1 <1>  -0.5650 
 14 C       -0.0410     3.9970     0.3650 C.3   1 <1>  -0.0600 
 15 C        3.7200     0.4520     1.5000 C.3   1 <1>   0.3430 
 16 C        1.3660     0.4640     1.8560 C.3   1 <1>   0.3430 
 17 C       -2.7760     0.3160     2.0530 C.ar  1 <1>  -0.1500 
 18 C       -3.2770    -1.0250     0.1130 C.ar  1 <1>  -0.1500 
 19 C        3.4240     1.7010     2.3130 C.3   1 <1>  -0.1600 
 20 C        1.9520     1.5790     2.7150 C.3   1 <1>  -0.1600 
 21 C       -3.3760    -0.7880     1.4900 C.ar  1 <1>  -0.1500 
 22 H       -0.1920    -0.7170    -1.4390 H     1 <1>   0.3700 
 23 H       -1.0480     1.4260    -2.6350 H     1 <1>   0.0800 
 24 H       -0.1830     2.8840    -2.2020 H     1 <1>   0.0800 
 25 H        2.7410    -0.8190    -1.7850 H     1 <1>   0.0800 
 26 H        1.6650    -2.1610    -1.5570 H     1 <1>   0.0800 
 27 H        3.2450    -1.7460     0.3630 H     1 <1>   0.0800 
 28 H        1.5670    -1.7930     0.8230 H     1 <1>   0.0800 
 29 H        2.3050     0.8160     0.0800 H     1 <1>   0.4500 
 30 H       -2.5210    -0.3340    -1.7610 H     1 <1>   0.1500 
 31 H       -0.4750     4.6790    -0.3430 H     1 <1>   0.0800 
 32 H        0.9610     3.7590     0.0620 H     1 <1>   0.0800 
 33 H       -0.0040     4.4860     1.3230 H     1 <1>   0.0800 
 34 H        4.4940     0.6240     0.7690 H     1 <1>   0.0800 
 35 H        4.0090    -0.3510     2.1590 H     1 <1>   0.0800 
 36 H        1.1590    -0.3940     2.4740 H     1 <1>   0.0800 
 37 H        0.4590     0.7740     1.3670 H     1 <1>   0.0800 
 38 H       -2.8450     0.5270     3.1050 H     1 <1>   0.1500 
 39 H       -3.7690    -1.8890    -0.3030 H     1 <1>   0.1500 
 40 H        3.5660     2.5680     1.6910 H     1 <1>   0.0800 
 41 H        4.0750     1.7780     3.1670 H     1 <1>   0.0800 
 42 H        1.8510     1.3180     3.7540 H     1 <1>   0.0800 
 43 H        1.4230     2.5010     2.5470 H     1 <1>   0.0800 
 44 H       -3.9360    -1.4740     2.1030 H     1 <1>   0.1500 
@<TRIPOS>BOND
  1   1   2  2   
  2   2   3  am  
  3   2   4  1   
  4   3   5  1   
  5   3  22  1   
  6   4   6  1   
  7   4  23  1   
  8   4  24  1   
  9   5   7  1   
 10   5  25  1   
 11   5  26  1   
 12   6   8  1   
 13   6   9  1   
 14   7  10  1   
 15   7  27  1   
 16   7  28  1   
 17   8  11  ar  
 18   8  12  ar  
 19   9  13  2   
 20   9  14  1   
 21  10  15  1   
 22  10  16  1   
 23  10  29  1   
 24  11  13  1   
 25  11  17  ar  
 26  12  18  ar  
 27  12  30  1   
 28  14  31  1   
 29  14  32  1   
 30  14  33  1   
 31  15  19  1   
 32  15  34  1   
 33  15  35  1   
 34  16  20  1   
 35  16  36  1   
 36  16  37  1   
 37  17  21  ar  
 38  17  38  1   
 39  18  21  ar  
 40  18  39  1   
 41  19  20  1   
 42  19  40  1   
 43  19  41  1   
 44  20  42  1   
 45  20  43  1   
 46  21  44  1   
@<TRIPOS>SUBSTRUCTURE
  1 ****   6 GROUP 4 **** **** 0

# MOE 2024.06 (io_trps.svl 2023.06)
