@<TRIPOS>MOLECULE
NONAME
39 40 1 0 0 
SMALL
USER_CHARGES


@<TRIPOS>ATOM
  1 O        0.3440     0.1390    -0.7620 O.2   1 <1>  -0.5700 
  2 C        0.7290    -0.9840    -0.5280 C.2   1 <1>   0.5690 
  3 N       -0.0950    -2.0190    -0.1790 N.am  1 <1>  -0.5470 
  4 C        2.2290    -1.2940    -0.6320 C.3   1 <1>   0.2610 
  5 C       -1.4860    -2.1140     0.0060 C.ar  1 <1>   0.1170 
  6 O        2.4970    -2.6630    -0.4640 O.3   1 <1>  -0.5600 
  7 C        3.0780    -0.6230     0.4420 C.3   1 <1>  -0.1600 
  8 C       -2.2970    -1.0020     0.1990 C.ar  1 <1>  -0.1500 
  9 C       -2.0650    -3.3750     0.0040 C.ar  1 <1>  -0.1500 
 10 C        3.8350    -2.8410    -0.1210 C.3   1 <1>   0.1200 
 11 C        4.2680    -1.5600     0.5890 C.3   1 <1>  -0.1600 
 12 C       -3.6690    -1.1360     0.3810 C.ar  1 <1>   0.0830 
 13 C       -3.4340    -3.5370     0.1890 C.ar  1 <1>   0.0830 
 14 O       -4.4960    -0.0630     0.5600 O.3   1 <1>  -0.3630 
 15 C       -4.2350    -2.4110     0.3790 C.ar  1 <1>   0.0830 
 16 O       -4.0370    -4.7630     0.1860 O.3   1 <1>  -0.3630 
 17 C       -3.9940     1.2550     0.5880 C.3   1 <1>   0.0400 
 18 O       -5.5740    -2.5620     0.5810 O.3   1 <1>  -0.3620 
 19 C       -3.2850    -5.9550     0.1970 C.3   1 <1>   0.0400 
 20 C       -6.3580    -2.4780    -0.5840 C.3   1 <1>   0.0400 
 21 H        0.4310    -2.8920    -0.0820 H     1 <1>   0.3700 
 22 H        2.5790    -1.0140    -1.6100 H     1 <1>   0.0800 
 23 H        2.5220    -0.5760     1.3620 H     1 <1>   0.0800 
 24 H        3.3630     0.3740     0.1520 H     1 <1>   0.0800 
 25 H       -1.8410    -0.0330     0.2080 H     1 <1>   0.1500 
 26 H       -1.4290    -4.2230    -0.1500 H     1 <1>   0.1500 
 27 H        4.3970    -2.9930    -1.0270 H     1 <1>   0.0800 
 28 H        3.9180    -3.7070     0.5130 H     1 <1>   0.0800 
 29 H        4.4920    -1.7490     1.6250 H     1 <1>   0.0800 
 30 H        5.1450    -1.1570     0.1120 H     1 <1>   0.0800 
 31 H       -4.8210     1.9240     0.7390 H     1 <1>   0.0800 
 32 H       -3.5180     1.4680    -0.3540 H     1 <1>   0.0800 
 33 H       -3.2960     1.3460     1.4010 H     1 <1>   0.0800 
 34 H       -3.9710    -6.7790     0.2770 H     1 <1>   0.0800 
 35 H       -2.6260    -5.9450     1.0470 H     1 <1>   0.0800 
 36 H       -2.7330    -6.0290    -0.7230 H     1 <1>   0.0800 
 37 H       -7.3870    -2.6150    -0.3060 H     1 <1>   0.0800 
 38 H       -6.0500    -3.2520    -1.2640 H     1 <1>   0.0800 
 39 H       -6.2200    -1.5080    -1.0260 H     1 <1>   0.0800 
@<TRIPOS>BOND
  1   1   2  2   
  2   2   3  am  
  3   2   4  1   
  4   3   5  1   
  5   3  21  1   
  6   4   6  1   
  7   4   7  1   
  8   4  22  1   
  9   5   8  ar  
 10   5   9  ar  
 11   6  10  1   
 12   7  11  1   
 13   7  23  1   
 14   7  24  1   
 15   8  12  ar  
 16   8  25  1   
 17   9  13  ar  
 18   9  26  1   
 19  10  11  1   
 20  10  27  1   
 21  10  28  1   
 22  11  29  1   
 23  11  30  1   
 24  12  14  1   
 25  12  15  ar  
 26  13  15  ar  
 27  13  16  1   
 28  14  17  1   
 29  15  18  1   
 30  16  19  1   
 31  17  31  1   
 32  17  32  1   
 33  17  33  1   
 34  18  20  1   
 35  19  34  1   
 36  19  35  1   
 37  19  36  1   
 38  20  37  1   
 39  20  38  1   
 40  20  39  1   
@<TRIPOS>SUBSTRUCTURE
  1 ****   5 GROUP 4 **** **** 0

# MOE 2024.06 (io_trps.svl 2023.06)
