@<TRIPOS>MOLECULE
NONAME
33 33 1 0 0 
SMALL
USER_CHARGES


@<TRIPOS>ATOM
  1 S       -0.1510    -0.1350    -0.1560 S.o2  1 <1>   1.4470 
  2 O       -0.3320    -1.0750    -1.2380 O.2   1 <1>  -0.6500 
  3 O       -0.2700    -0.5680     1.2170 O.2   1 <1>  -0.6500 
  4 N       -1.3540     1.0020    -0.4210 N.am  1 <1>  -0.9140 
  5 C        1.3750     0.8200    -0.3820 C.ar  1 <1>  -0.0090 
  6 C       -2.6300     0.6110     0.1470 C.3   1 <1>   0.1960 
  7 C        2.3110     0.4690    -1.3510 C.ar  1 <1>  -0.1500 
  8 C        1.6410     1.9290     0.4140 C.ar  1 <1>  -0.1500 
  9 C       -3.6870     1.6300    -0.2740 C.3   1 <1>  -0.1600 
 10 C        3.4730     1.2030    -1.5220 C.ar  1 <1>  -0.1500 
 11 C        2.8000     2.6720     0.2550 C.ar  1 <1>  -0.1500 
 12 C       -5.0610     1.2780     0.3100 C.3   1 <1>  -0.1600 
 13 C        3.7120     2.3010    -0.7180 C.ar  1 <1>   0.1010 
 14 C       -6.1180     2.3010    -0.1130 C.3   1 <1>  -0.2400 
 15 S        5.2420     3.2060    -0.9990 S.3   1 <1>  -0.3310 
 16 C        5.2750     4.5910     0.2220 C.3   1 <1>  -0.0100 
 17 H       -1.4680     0.9910    -1.4330 H     1 <1>   0.4200 
 18 H       -2.5550     0.5860     1.2230 H     1 <1>   0.0800 
 19 H       -2.9040    -0.3730    -0.2020 H     1 <1>   0.0800 
 20 H        2.1300    -0.3870    -1.9790 H     1 <1>   0.1500 
 21 H        0.9280     2.2130     1.1700 H     1 <1>   0.1500 
 22 H       -3.7550     1.6530    -1.3480 H     1 <1>   0.0800 
 23 H       -3.3920     2.6050     0.0750 H     1 <1>   0.0800 
 24 H        4.1920     0.9270    -2.2730 H     1 <1>   0.1500 
 25 H        2.9720     3.5220     0.8870 H     1 <1>   0.1500 
 26 H       -5.0030     1.2550     1.3860 H     1 <1>   0.0800 
 27 H       -5.3610     0.3000    -0.0280 H     1 <1>   0.0800 
 28 H       -5.8510     3.2840     0.2340 H     1 <1>   0.0800 
 29 H       -7.0730     2.0390     0.3070 H     1 <1>   0.0800 
 30 H       -6.2120     2.3260    -1.1850 H     1 <1>   0.0800 
 31 H        6.1870     5.1380     0.0670 H     1 <1>   0.0800 
 32 H        5.2500     4.1650     1.2090 H     1 <1>   0.0800 
 33 H        4.4200     5.2160     0.0390 H     1 <1>   0.0800 
@<TRIPOS>BOND
  1   1   2  2   
  2   1   3  2   
  3   1   4  am  
  4   1   5  1   
  5   4   6  1   
  6   4  17  1   
  7   5   7  ar  
  8   5   8  ar  
  9   6   9  1   
 10   6  18  1   
 11   6  19  1   
 12   7  10  ar  
 13   7  20  1   
 14   8  11  ar  
 15   8  21  1   
 16   9  12  1   
 17   9  22  1   
 18   9  23  1   
 19  10  13  ar  
 20  10  24  1   
 21  11  13  ar  
 22  11  25  1   
 23  12  14  1   
 24  12  26  1   
 25  12  27  1   
 26  13  15  1   
 27  14  28  1   
 28  14  29  1   
 29  14  30  1   
 30  15  16  1   
 31  16  31  1   
 32  16  32  1   
 33  16  33  1   
@<TRIPOS>SUBSTRUCTURE
  1 ****   5 GROUP 4 **** **** 0

# MOE 2024.06 (io_trps.svl 2023.06)
