@<TRIPOS>MOLECULE
NONAME
40 42 1 0 0 
SMALL
USER_CHARGES


@<TRIPOS>ATOM
  1 O        2.8350     2.2190    -1.9930 O.co2 1 <1>  -0.9000 
  2 C        3.3010     1.0850    -1.8600 C.2   1 <1>   0.9060 
  3 O        4.1250     0.6220    -2.6590 O.co2 1 <1>  -0.9000 
  4 C        2.8660     0.2630    -0.6540 C.3   1 <1>  -0.1860 
  5 C        3.7580     0.3900     0.6280 C.3   1 <1>  -0.0190 
  6 C        2.5720    -1.2320    -0.9550 C.3   1 <1>  -0.0800 
  7 C        5.1650     1.0000     0.5140 C.2   1 <1>   0.5690 
  8 C        3.8280    -0.9890     1.3400 C.3   1 <1>  -0.0800 
  9 C        3.8840    -2.0480    -0.9570 C.3   1 <1>  -0.1600 
 10 C        1.6980    -1.7710     0.1980 C.3   1 <1>  -0.1600 
 11 O        5.6120     1.5600     1.4900 O.2   1 <1>  -0.5700 
 12 N        5.9170     0.8630    -0.6030 N.am  1 <1>  -0.7300 
 13 C        4.5610    -1.9980     0.4300 C.3   1 <1>  -0.1600 
 14 C        2.3930    -1.5190     1.5570 C.3   1 <1>  -0.1600 
 15 C        7.2120     1.5370    -0.8550 C.3   1 <1>   0.2840 
 16 C        8.4200     0.6340    -0.5960 C.ar  1 <1>   0.1670 
 17 N        9.4360     0.7350    -1.4490 N.ar  1 <1>  -0.6200 
 18 C        8.4280    -0.2210     0.4990 C.ar  1 <1>  -0.1500 
 19 C       10.4730    -0.0500    -1.2100 C.ar  1 <1>   0.1600 
 20 C        9.5170    -1.0310     0.7370 C.ar  1 <1>  -0.1500 
 21 C       10.5650    -0.9360    -0.1510 C.ar  1 <1>  -0.1500 
 22 H        1.9170     0.6980    -0.3990 H     1 <1>   0.0800 
 23 H        3.2310     1.0580     1.2850 H     1 <1>   0.0800 
 24 H        2.0630    -1.3310    -1.8990 H     1 <1>   0.0800 
 25 H        4.3380    -0.8940     2.2830 H     1 <1>   0.0800 
 26 H        4.5540    -1.6540    -1.7010 H     1 <1>   0.0800 
 27 H        3.6780    -3.0690    -1.2240 H     1 <1>   0.0800 
 28 H        1.5370    -2.8260     0.0600 H     1 <1>   0.0800 
 29 H        0.7360    -1.2890     0.1850 H     1 <1>   0.0800 
 30 H        5.4230     0.5700    -1.4720 H     1 <1>   0.3700 
 31 H        4.5320    -2.9740     0.8810 H     1 <1>   0.0800 
 32 H        5.5960    -1.7270     0.3180 H     1 <1>   0.0800 
 33 H        1.8300    -0.7990     2.1240 H     1 <1>   0.0800 
 34 H        2.4220    -2.4330     2.1240 H     1 <1>   0.0800 
 35 H        7.2900     2.4100    -0.2320 H     1 <1>   0.0800 
 36 H        7.2250     1.8630    -1.8800 H     1 <1>   0.0800 
 37 H        7.5830    -0.2490     1.1630 H     1 <1>   0.1500 
 38 H       11.2980     0.0180    -1.8980 H     1 <1>   0.1500 
 39 H        9.5420    -1.7030     1.5770 H     1 <1>   0.1500 
 40 H       11.4450    -1.5400    -0.0260 H     1 <1>   0.1500 
@<TRIPOS>BOND
  1   1   2  ar  
  2   2   3  ar  
  3   2   4  1   
  4   4   5  1   
  5   4   6  1   
  6   4  22  1   
  7   5   7  1   
  8   5   8  1   
  9   5  23  1   
 10   6   9  1   
 11   6  10  1   
 12   6  24  1   
 13   7  11  2   
 14   7  12  am  
 15   8  13  1   
 16   8  14  1   
 17   8  25  1   
 18   9  13  1   
 19   9  26  1   
 20   9  27  1   
 21  10  14  1   
 22  10  28  1   
 23  10  29  1   
 24  12  15  1   
 25  12  30  1   
 26  13  31  1   
 27  13  32  1   
 28  14  33  1   
 29  14  34  1   
 30  15  16  1   
 31  15  35  1   
 32  15  36  1   
 33  16  17  ar  
 34  16  18  ar  
 35  17  19  ar  
 36  18  20  ar  
 37  18  37  1   
 38  19  21  ar  
 39  19  38  1   
 40  20  21  ar  
 41  20  39  1   
 42  21  40  1   
@<TRIPOS>SUBSTRUCTURE
  1 ****  12 GROUP 4 **** **** 0

# MOE 2024.06 (io_trps.svl 2023.06)
