@<TRIPOS>MOLECULE
NONAME
42 43 1 0 0 
SMALL
USER_CHARGES


@<TRIPOS>ATOM
  1 CL       3.0720     1.1620     1.4870 Cl    1 <1>  -0.1770 
  2 C        1.8450     1.9550     0.5120 C.ar  1 <1>   0.1770 
  3 C        2.2370     2.8790    -0.4520 C.ar  1 <1>   0.0820 
  4 C        0.5080     1.6470     0.7160 C.ar  1 <1>  -0.1440 
  5 O        3.5530     3.1590    -0.6130 O.3   1 <1>  -0.3630 
  6 C        1.2780     3.4930    -1.2540 C.ar  1 <1>  -0.1440 
  7 C       -0.4410     2.2780    -0.0730 C.ar  1 <1>  -0.1500 
  8 C        0.0740     0.6450     1.7760 C.3   1 <1>  -0.0960 
  9 C        4.0320     4.3230     0.0190 C.3   1 <1>   0.1200 
 10 C       -0.0590     3.1860    -1.0470 C.ar  1 <1>  -0.1500 
 11 C        1.6470     4.4800    -2.3530 C.3   1 <1>  -0.0970 
 12 C        5.5500     4.2060     0.1940 C.3   1 <1>  -0.1600 
 13 C        5.9450     3.0000     1.0550 C.3   1 <1>   0.3430 
 14 N        6.5850     1.9060     0.2650 N.4   1 <1>  -0.9590 
 15 C        5.7250     1.3360    -0.8310 C.3   1 <1>   0.3430 
 16 C        7.0600     0.7930     1.1520 C.3   1 <1>   0.3430 
 17 C        6.4310     0.1770    -1.5690 C.3   1 <1>   0.1200 
 18 C        7.6970    -0.3590     0.3390 C.3   1 <1>   0.1200 
 19 O        7.7040    -0.0710    -1.0330 O.3   1 <1>  -0.5600 
 20 H       -1.4880     2.0630     0.0610 H     1 <1>   0.1500 
 21 H        0.4060     0.9660     2.7470 H     1 <1>   0.0800 
 22 H        0.4980    -0.3210     1.5660 H     1 <1>   0.0800 
 23 H       -0.9970     0.5470     1.8000 H     1 <1>   0.0800 
 24 H        3.5430     4.4220     0.9740 H     1 <1>   0.0800 
 25 H        3.7790     5.1700    -0.5960 H     1 <1>   0.0800 
 26 H       -0.8190     3.6550    -1.6490 H     1 <1>   0.1500 
 27 H        1.7450     5.4680    -1.9420 H     1 <1>   0.0800 
 28 H        0.8870     4.5000    -3.1130 H     1 <1>   0.0800 
 29 H        2.5740     4.1990    -2.8190 H     1 <1>   0.0800 
 30 H        5.8760     5.0940     0.7060 H     1 <1>   0.0800 
 31 H        6.0400     4.1970    -0.7630 H     1 <1>   0.0800 
 32 H        5.0730     2.6240     1.5630 H     1 <1>   0.0800 
 33 H        6.6400     3.3340     1.8080 H     1 <1>   0.0800 
 34 H        7.4260     2.2600    -0.2120 H     1 <1>   0.4500 
 35 H        5.4780     2.1040    -1.5450 H     1 <1>   0.0800 
 36 H        4.7960     0.9760    -0.4220 H     1 <1>   0.0800 
 37 H        6.2320     0.4000     1.7190 H     1 <1>   0.0800 
 38 H        7.7860     1.1670     1.8560 H     1 <1>   0.0800 
 39 H        6.5550     0.4220    -2.6100 H     1 <1>   0.0800 
 40 H        5.8470    -0.7250    -1.5050 H     1 <1>   0.0800 
 41 H        7.1570    -1.2770     0.4950 H     1 <1>   0.0800 
 42 H        8.7170    -0.5120     0.6470 H     1 <1>   0.0800 
@<TRIPOS>BOND
  1   1   2  1   
  2   2   3  ar  
  3   2   4  ar  
  4   3   5  1   
  5   3   6  ar  
  6   4   7  ar  
  7   4   8  1   
  8   5   9  1   
  9   6  10  ar  
 10   6  11  1   
 11   7  10  ar  
 12   7  20  1   
 13   8  21  1   
 14   8  22  1   
 15   8  23  1   
 16   9  12  1   
 17   9  24  1   
 18   9  25  1   
 19  10  26  1   
 20  11  27  1   
 21  11  28  1   
 22  11  29  1   
 23  12  13  1   
 24  12  30  1   
 25  12  31  1   
 26  13  14  1   
 27  13  32  1   
 28  13  33  1   
 29  14  15  1   
 30  14  16  1   
 31  14  34  1   
 32  15  17  1   
 33  15  35  1   
 34  15  36  1   
 35  16  18  1   
 36  16  37  1   
 37  16  38  1   
 38  17  19  1   
 39  17  39  1   
 40  17  40  1   
 41  18  19  1   
 42  18  41  1   
 43  18  42  1   
@<TRIPOS>SUBSTRUCTURE
  1 ****   5 GROUP 4 **** **** 0

# MOE 2024.06 (io_trps.svl 2023.06)
