@<TRIPOS>MOLECULE
NONAME
41 45 1 0 0 
SMALL
USER_CHARGES


@<TRIPOS>ATOM
  1 O       -0.3010    -0.4900     1.1930 O.2   1 <1>  -0.5700 
  2 C       -1.0460    -1.0570     0.4350 C.2   1 <1>   0.5690 
  3 N       -0.8080    -2.2160    -0.2900 N.am  1 <1>  -0.2370 
  4 C       -2.4160    -0.5750     0.0550 C.3   1 <1>  -0.0190 
  5 C        0.4490    -2.8450    -0.4350 C.ar  1 <1>   0.1170 
  6 C       -2.0120    -2.6600    -0.8200 C.2   1 <1>   0.5690 
  7 C       -3.5520     0.3510     0.5260 C.3   1 <1>   0.1530 
  8 C       -3.1110    -1.9330    -0.0990 C.3   1 <1>  -0.0190 
  9 C        1.6090    -2.0880    -0.5510 C.ar  1 <1>  -0.1500 
 10 C        0.5620    -4.2310    -0.4530 C.ar  1 <1>  -0.1500 
 11 O       -2.1890    -3.4910    -1.6730 O.2   1 <1>  -0.5700 
 12 C       -4.3910    -0.2610     1.6400 C.2   1 <1>  -0.2880 
 13 C       -4.5000    -0.0410    -0.6170 C.3   1 <1>  -0.1900 
 14 C       -4.5950    -1.5320    -0.2920 C.3   1 <1>   0.1530 
 15 C        2.8720    -2.6680    -0.6420 C.ar  1 <1>   0.0860 
 16 C        1.7990    -4.8350    -0.5730 C.ar  1 <1>  -0.1500 
 17 C       -5.0420    -1.3210     1.1510 C.2   1 <1>  -0.2880 
 18 C       -4.5130     0.5350    -1.9960 C.3   1 <1>  -0.2000 
 19 C       -5.6690     0.7790    -1.0510 C.3   1 <1>  -0.2000 
 20 C        4.0790    -1.8660    -0.7180 C.2   1 <1>   0.6340 
 21 C        2.9400    -4.0600    -0.6660 C.ar  1 <1>  -0.1500 
 22 O        4.9570    -2.0980    -1.5170 O.2   1 <1>  -0.5700 
 23 O        4.2770    -0.8440     0.1210 O.3   1 <1>  -0.4300 
 24 C        3.6800    -0.7440     1.4000 C.3   1 <1>   0.0400 
 25 H       -2.1890    -0.1800    -0.9240 H     1 <1>   0.0800 
 26 H       -3.3450     1.4060     0.5860 H     1 <1>   0.0800 
 27 H       -3.0890    -2.4550     0.8460 H     1 <1>   0.0800 
 28 H        1.5380    -1.0150    -0.5700 H     1 <1>   0.1500 
 29 H       -0.3190    -4.8460    -0.3780 H     1 <1>   0.1500 
 30 H       -4.3960     0.1810     2.6230 H     1 <1>   0.1500 
 31 H       -5.2270    -2.1450    -0.9110 H     1 <1>   0.0800 
 32 H        1.8740    -5.9090    -0.5940 H     1 <1>   0.1500 
 33 H       -5.7400    -1.9980     1.6130 H     1 <1>   0.1500 
 34 H       -4.6750    -0.1170    -2.8380 H     1 <1>   0.1000 
 35 H       -3.8770     1.3690    -2.2360 H     1 <1>   0.1000 
 36 H       -5.7970     1.7610    -0.6280 H     1 <1>   0.1000 
 37 H       -6.6070     0.2860    -1.2360 H     1 <1>   0.1000 
 38 H        3.9040    -4.5340    -0.7620 H     1 <1>   0.1500 
 39 H        4.2470    -0.0350     1.9770 H     1 <1>   0.0800 
 40 H        3.7050    -1.7060     1.8810 H     1 <1>   0.0800 
 41 H        2.6680    -0.3950     1.2990 H     1 <1>   0.0800 
@<TRIPOS>BOND
  1   1   2  2   
  2   2   3  am  
  3   2   4  1   
  4   3   5  1   
  5   3   6  am  
  6   4   7  1   
  7   4   8  1   
  8   4  25  1   
  9   5   9  ar  
 10   5  10  ar  
 11   6   8  1   
 12   6  11  2   
 13   7  12  1   
 14   7  13  1   
 15   7  26  1   
 16   8  14  1   
 17   8  27  1   
 18   9  15  ar  
 19   9  28  1   
 20  10  16  ar  
 21  10  29  1   
 22  12  17  2   
 23  12  30  1   
 24  13  14  1   
 25  13  18  1   
 26  13  19  1   
 27  14  17  1   
 28  14  31  1   
 29  15  20  1   
 30  15  21  ar  
 31  16  21  ar  
 32  16  32  1   
 33  17  33  1   
 34  18  19  1   
 35  18  34  1   
 36  18  35  1   
 37  19  36  1   
 38  19  37  1   
 39  20  22  2   
 40  20  23  1   
 41  21  38  1   
 42  23  24  1   
 43  24  39  1   
 44  24  40  1   
 45  24  41  1   
@<TRIPOS>SUBSTRUCTURE
  1 ****   3 GROUP 4 **** **** 0

# MOE 2024.06 (io_trps.svl 2023.06)
