@<TRIPOS>MOLECULE
NONAME
44 46 1 0 0 
SMALL
USER_CHARGES


@<TRIPOS>ATOM
  1 O       -0.1200    -0.7470    -2.4550 O.2   1 <1>  -0.5700 
  2 C        0.0850    -1.4750    -1.5160 C.2   1 <1>   0.5690 
  3 N        1.3500    -1.9010    -1.2750 N.am  1 <1>  -0.7300 
  4 C       -1.0920    -1.8780    -0.6340 C.3   1 <1>   0.0440 
  5 C        1.8250    -2.8430    -0.2490 C.3   1 <1>   0.2200 
  6 C       -1.3850    -3.3810    -0.6980 C.ar  1 <1>  -0.1440 
  7 C        3.1050    -2.2970     0.3870 C.3   1 <1>  -0.1600 
  8 C        2.0710    -4.2120    -0.8890 C.3   1 <1>  -0.1600 
  9 C       -1.3430    -4.2360     0.4410 C.ar  1 <1>   0.0000 
 10 C       -1.6770    -3.8930    -1.9360 C.ar  1 <1>  -0.1500 
 11 C        3.6540    -3.2830     1.4310 C.3   1 <1>  -0.1600 
 12 C        2.6060    -5.2060     0.1510 C.3   1 <1>  -0.1600 
 13 C       -1.5560    -5.6220     0.2420 C.ar  1 <1>   0.0000 
 14 C       -1.0960    -3.8110     1.7710 C.ar  1 <1>  -0.1500 
 15 C       -1.9140    -5.2570    -2.1170 C.ar  1 <1>  -0.1500 
 16 C        3.8850    -4.6770     0.8230 C.3   1 <1>  -0.0800 
 17 C       -1.8480    -6.1010    -1.0490 C.ar  1 <1>  -0.1500 
 18 C       -1.4730    -6.5060     1.3370 C.ar  1 <1>  -0.1500 
 19 C       -1.0250    -4.6900     2.8160 C.ar  1 <1>  -0.1500 
 20 C        4.3640    -5.6570     1.8990 C.3   1 <1>  -0.2400 
 21 C       -1.2100    -6.0560     2.5980 C.ar  1 <1>  -0.1500 
 22 H        2.0510    -1.6040    -1.9540 H     1 <1>   0.3700 
 23 H       -1.9630    -1.3510    -0.9780 H     1 <1>   0.0800 
 24 H       -0.8900    -1.5240     0.3530 H     1 <1>   0.0800 
 25 H        1.0840    -2.9460     0.5220 H     1 <1>   0.0800 
 26 H        2.8960    -1.3560     0.8630 H     1 <1>   0.0800 
 27 H        3.8490    -2.1400    -0.3740 H     1 <1>   0.0800 
 28 H        2.7830    -4.1160    -1.6890 H     1 <1>   0.0800 
 29 H        1.1510    -4.5910    -1.2960 H     1 <1>   0.0800 
 30 H       -1.7200    -3.2540    -2.8030 H     1 <1>   0.1500 
 31 H        2.9530    -3.3600     2.2450 H     1 <1>   0.0800 
 32 H        4.5790    -2.9030     1.8270 H     1 <1>   0.0800 
 33 H        2.8090    -6.1470    -0.3290 H     1 <1>   0.0800 
 34 H        1.8460    -5.3750     0.8970 H     1 <1>   0.0800 
 35 H       -0.9590    -2.7720     1.9880 H     1 <1>   0.1500 
 36 H       -2.1410    -5.6230    -3.1040 H     1 <1>   0.1500 
 37 H        4.6540    -4.5980     0.0730 H     1 <1>   0.0800 
 38 H       -2.0220    -7.1540    -1.1800 H     1 <1>   0.1500 
 39 H       -1.6230    -7.5560     1.1600 H     1 <1>   0.1500 
 40 H       -0.8300    -4.3450     3.8170 H     1 <1>   0.1500 
 41 H        3.6200    -5.7680     2.6690 H     1 <1>   0.0800 
 42 H        5.2740    -5.3010     2.3490 H     1 <1>   0.0800 
 43 H        4.5560    -6.6220     1.4650 H     1 <1>   0.0800 
 44 H       -1.1480    -6.7360     3.4300 H     1 <1>   0.1500 
@<TRIPOS>BOND
  1   1   2  2   
  2   2   3  am  
  3   2   4  1   
  4   3   5  1   
  5   3  22  1   
  6   4   6  1   
  7   4  23  1   
  8   4  24  1   
  9   5   7  1   
 10   5   8  1   
 11   5  25  1   
 12   6   9  ar  
 13   6  10  ar  
 14   7  11  1   
 15   7  26  1   
 16   7  27  1   
 17   8  12  1   
 18   8  28  1   
 19   8  29  1   
 20   9  13  ar  
 21   9  14  ar  
 22  10  15  ar  
 23  10  30  1   
 24  11  16  1   
 25  11  31  1   
 26  11  32  1   
 27  12  16  1   
 28  12  33  1   
 29  12  34  1   
 30  13  17  ar  
 31  13  18  ar  
 32  14  19  ar  
 33  14  35  1   
 34  15  17  ar  
 35  15  36  1   
 36  16  20  1   
 37  16  37  1   
 38  17  38  1   
 39  18  21  ar  
 40  18  39  1   
 41  19  21  ar  
 42  19  40  1   
 43  20  41  1   
 44  20  42  1   
 45  20  43  1   
 46  21  44  1   
@<TRIPOS>SUBSTRUCTURE
  1 ****   9 GROUP 4 **** **** 0

# MOE 2024.06 (io_trps.svl 2023.06)
