@<TRIPOS>MOLECULE
NONAME
37 39 1 0 0 
SMALL
USER_CHARGES


@<TRIPOS>ATOM
  1 BR       0.5010     1.5440    -1.9650 Br    1 <1>  -0.1110 
  2 C        1.5220     0.1400    -1.1100 C.ar  1 <1>   0.1110 
  3 C        0.9460    -0.7070    -0.1890 C.ar  1 <1>   0.3920 
  4 C        2.8440    -0.0260    -1.4200 C.ar  1 <1>   0.1600 
  5 O       -0.3610    -0.5590     0.1150 O.3   1 <1>  -0.3630 
  6 N        1.6490    -1.6550     0.3930 N.ar  1 <1>  -0.6200 
  7 N        3.5580    -0.9800    -0.8610 N.ar  1 <1>  -0.6200 
  8 C       -1.0300    -1.4730     0.9640 C.3   1 <1>   0.2630 
  9 C        2.9200    -1.7600     0.0150 C.ar  1 <1>   0.7200 
 10 C       -1.2940    -2.7830     0.2310 C.ar  1 <1>  -0.1440 
 11 N        3.6330    -2.7930     0.5770 N.pl3 1 <1>  -0.8380 
 12 C       -1.9200    -2.7860    -1.0070 C.ar  1 <1>  -0.1500 
 13 C       -0.9080    -3.9890     0.7980 C.ar  1 <1>  -0.1500 
 14 C        3.0150    -4.1510     0.6630 C.3   1 <1>   0.2090 
 15 C        5.1230    -2.8630     0.4930 C.3   1 <1>   0.2090 
 16 C       -2.1590    -3.9790    -1.6680 C.ar  1 <1>  -0.1500 
 17 C       -1.1470    -5.1820     0.1390 C.ar  1 <1>  -0.1500 
 18 C        3.5590    -5.0630    -0.4520 C.3   1 <1>   0.1200 
 19 C        5.5520    -3.8340    -0.6210 C.3   1 <1>   0.1200 
 20 C       -1.7720    -5.1780    -1.0950 C.ar  1 <1>  -0.1500 
 21 O        4.9620    -5.0940    -0.4430 O.3   1 <1>  -0.5600 
 22 H        3.3180     0.6250    -2.1320 H     1 <1>   0.1500 
 23 H       -1.9650    -1.0230     1.2470 H     1 <1>   0.0800 
 24 H       -0.4380    -1.6210     1.8500 H     1 <1>   0.0800 
 25 H       -2.2200    -1.8570    -1.4590 H     1 <1>   0.1500 
 26 H       -0.4170    -4.0000     1.7560 H     1 <1>   0.1500 
 27 H        1.9440    -4.0970     0.5750 H     1 <1>   0.0800 
 28 H        3.2420    -4.5840     1.6210 H     1 <1>   0.0800 
 29 H        5.5120    -3.2130     1.4330 H     1 <1>   0.0800 
 30 H        5.5440    -1.8900     0.3120 H     1 <1>   0.0800 
 31 H       -2.6440    -3.9720    -2.6280 H     1 <1>   0.1500 
 32 H       -0.8470    -6.1140     0.5860 H     1 <1>   0.1500 
 33 H        3.2290    -4.7110    -1.4140 H     1 <1>   0.0800 
 34 H        3.2070    -6.0690    -0.3130 H     1 <1>   0.0800 
 35 H        6.6190    -3.9660    -0.6080 H     1 <1>   0.0800 
 36 H        5.2610    -3.4490    -1.5830 H     1 <1>   0.0800 
 37 H       -1.9590    -6.1040    -1.6090 H     1 <1>   0.1500 
@<TRIPOS>BOND
  1   1   2  1   
  2   2   3  ar  
  3   2   4  ar  
  4   3   5  1   
  5   3   6  ar  
  6   4   7  ar  
  7   4  22  1   
  8   5   8  1   
  9   6   9  ar  
 10   7   9  ar  
 11   8  10  1   
 12   8  23  1   
 13   8  24  1   
 14   9  11  1   
 15  10  12  ar  
 16  10  13  ar  
 17  11  14  1   
 18  11  15  1   
 19  12  16  ar  
 20  12  25  1   
 21  13  17  ar  
 22  13  26  1   
 23  14  18  1   
 24  14  27  1   
 25  14  28  1   
 26  15  19  1   
 27  15  29  1   
 28  15  30  1   
 29  16  20  ar  
 30  16  31  1   
 31  17  20  ar  
 32  17  32  1   
 33  18  21  1   
 34  18  33  1   
 35  18  34  1   
 36  19  21  1   
 37  19  35  1   
 38  19  36  1   
 39  20  37  1   
@<TRIPOS>SUBSTRUCTURE
  1 ****   6 GROUP 4 **** **** 0

# MOE 2024.06 (io_trps.svl 2023.06)
