@<TRIPOS>MOLECULE
NONAME
45 46 1 0 0 
SMALL
USER_CHARGES


@<TRIPOS>ATOM
  1 O       -5.8300     2.2990    -0.4590 O.3   1 <1>  -0.3620 
  2 C       -7.1350     2.0890    -0.1560 C.ar  1 <1>   0.0830 
  3 C       -4.9850     3.0280     0.4060 C.3   1 <1>   0.1200 
  4 C       -7.7360     2.5120     1.0260 C.ar  1 <1>  -0.1500 
  5 C       -7.8940     1.4100    -1.0950 C.ar  1 <1>  -0.1500 
  6 C       -3.5910     3.1000    -0.2290 C.3   1 <1>   0.2000 
  7 C       -9.0770     2.2550     1.2520 C.ar  1 <1>  -0.1500 
  8 C       -9.2330     1.1550    -0.8640 C.ar  1 <1>  -0.1500 
  9 O       -3.1810     1.8100    -0.5720 O.3   1 <1>  -0.6800 
 10 C       -2.5400     3.7260     0.7130 C.3   1 <1>   0.3430 
 11 C       -9.8390     1.5750     0.3120 C.ar  1 <1>  -0.1440 
 12 N       -1.1640     3.3070     0.3070 N.4   1 <1>  -0.9590 
 13 C      -11.3180     1.3020     0.5830 C.3   1 <1>   0.0630 
 14 C       -0.1420     3.3660     1.3740 C.3   1 <1>   0.3430 
 15 C       -0.6110     4.0220    -0.8650 C.3   1 <1>   0.3430 
 16 C      -11.5970    -0.2040     0.6290 C.3   1 <1>  -0.2400 
 17 C      -12.2010     1.9880    -0.4640 C.3   1 <1>  -0.2400 
 18 C        1.1850     3.3110     0.6280 C.3   1 <1>  -0.1600 
 19 C        0.8780     3.7130    -0.8190 C.3   1 <1>  -0.1600 
 20 H       -4.9480     2.5170     1.3520 H     1 <1>   0.0800 
 21 H       -5.3990     4.0130     0.5330 H     1 <1>   0.0800 
 22 H       -7.1880     3.0390     1.7810 H     1 <1>   0.1500 
 23 H       -7.4340     1.0810    -2.0090 H     1 <1>   0.1500 
 24 H       -3.6510     3.6760    -1.1360 H     1 <1>   0.0800 
 25 H       -9.5280     2.5880     2.1700 H     1 <1>   0.1500 
 26 H       -9.8030     0.6260    -1.6070 H     1 <1>   0.1500 
 27 H       -3.9540     1.3340    -0.9600 H     1 <1>   0.4000 
 28 H       -2.7350     3.3730     1.7110 H     1 <1>   0.0800 
 29 H       -2.6300     4.8000     0.7160 H     1 <1>   0.0800 
 30 H       -1.2840     2.3180     0.0130 H     1 <1>   0.4500 
 31 H      -11.5740     1.7120     1.5460 H     1 <1>   0.0800 
 32 H       -0.2430     2.5480     2.0700 H     1 <1>   0.0800 
 33 H       -0.2190     4.3030     1.9040 H     1 <1>   0.0800 
 34 H       -0.7640     5.0840    -0.7530 H     1 <1>   0.0800 
 35 H       -1.0620     3.6850    -1.7850 H     1 <1>   0.0800 
 36 H      -11.4040    -0.6590    -0.3250 H     1 <1>   0.0800 
 37 H      -12.6220    -0.3840     0.8960 H     1 <1>   0.0800 
 38 H      -10.9640    -0.6690     1.3640 H     1 <1>   0.0800 
 39 H      -12.0220     1.5800    -1.4430 H     1 <1>   0.0800 
 40 H      -11.9870     3.0410    -0.4880 H     1 <1>   0.0800 
 41 H      -13.2390     1.8540    -0.2210 H     1 <1>   0.0800 
 42 H        1.5810     2.3110     0.6630 H     1 <1>   0.0800 
 43 H        1.8980     3.9760     1.0840 H     1 <1>   0.0800 
 44 H        1.4510     4.5710    -1.1270 H     1 <1>   0.0800 
 45 H        1.0980     2.8980    -1.4880 H     1 <1>   0.0800 
@<TRIPOS>BOND
  1   1   2  1   
  2   1   3  1   
  3   2   4  ar  
  4   2   5  ar  
  5   3   6  1   
  6   3  20  1   
  7   3  21  1   
  8   4   7  ar  
  9   4  22  1   
 10   5   8  ar  
 11   5  23  1   
 12   6   9  1   
 13   6  10  1   
 14   6  24  1   
 15   7  11  ar  
 16   7  25  1   
 17   8  11  ar  
 18   8  26  1   
 19   9  27  1   
 20  10  12  1   
 21  10  28  1   
 22  10  29  1   
 23  11  13  1   
 24  12  14  1   
 25  12  15  1   
 26  12  30  1   
 27  13  16  1   
 28  13  17  1   
 29  13  31  1   
 30  14  18  1   
 31  14  32  1   
 32  14  33  1   
 33  15  19  1   
 34  15  34  1   
 35  15  35  1   
 36  16  36  1   
 37  16  37  1   
 38  16  38  1   
 39  17  39  1   
 40  17  40  1   
 41  17  41  1   
 42  18  19  1   
 43  18  42  1   
 44  18  43  1   
 45  19  44  1   
 46  19  45  1   
@<TRIPOS>SUBSTRUCTURE
  1 ****   1 GROUP 4 **** **** 0

# MOE 2024.06 (io_trps.svl 2023.06)
