@<TRIPOS>MOLECULE
NONAME
49 50 1 0 0 
SMALL
USER_CHARGES


@<TRIPOS>ATOM
  1 S        0.6120    -0.2580     1.4240 S.o2  1 <1>   1.4470 
  2 O        1.4990    -0.5910     2.5210 O.2   1 <1>  -0.6500 
  3 O       -0.2470     0.8950     1.5850 O.2   1 <1>  -0.6500 
  4 N        1.6670     0.0960     0.1410 N.am  1 <1>  -0.8490 
  5 C       -0.3820    -1.6880     0.8320 C.ar  1 <1>  -0.0090 
  6 C        2.6430    -0.9830    -0.0770 C.3   1 <1>   0.1960 
  7 C        2.3260     1.3900     0.3400 C.3   1 <1>   0.1960 
  8 C       -1.0110    -1.6560    -0.4230 C.ar  1 <1>  -0.1440 
  9 C       -0.5540    -2.8470     1.6050 C.ar  1 <1>  -0.1440 
 10 C        3.5090    -0.7040    -1.3100 C.3   1 <1>  -0.0190 
 11 C        3.1610     1.7540    -0.8910 C.3   1 <1>  -0.1600 
 12 C       -1.7270    -2.7470    -0.8890 C.ar  1 <1>  -0.1500 
 13 C       -0.9610    -0.4430    -1.3490 C.3   1 <1>  -0.0970 
 14 C       -1.2760    -3.9260     1.1190 C.ar  1 <1>  -0.1500 
 15 C        0.0170    -3.0030     3.0100 C.3   1 <1>  -0.0970 
 16 C        4.4890    -1.8490    -1.5080 C.2   1 <1>   0.5690 
 17 C        4.2000     0.6710    -1.2060 C.3   1 <1>  -0.1600 
 18 C       -1.8620    -3.8880    -0.1280 C.ar  1 <1>  -0.1440 
 19 O        4.2990    -2.6220    -2.4140 O.2   1 <1>  -0.5700 
 20 N        5.5390    -1.9870    -0.6540 N.am  1 <1>  -0.7300 
 21 C       -2.6450    -5.0770    -0.6560 C.3   1 <1>  -0.0970 
 22 C        6.5650    -3.0440    -0.7380 C.3   1 <1>   0.1400 
 23 C        7.9390    -2.3950    -0.6300 C.3   1 <1>  -0.2400 
 24 H        2.1230    -1.9150    -0.2270 H     1 <1>   0.0800 
 25 H        3.2720    -1.0880     0.7930 H     1 <1>   0.0800 
 26 H        2.9510     1.3510     1.2180 H     1 <1>   0.0800 
 27 H        1.5830     2.1560     0.4920 H     1 <1>   0.0800 
 28 H        2.8560    -0.6910    -2.1650 H     1 <1>   0.0800 
 29 H        3.6570     2.6930    -0.7190 H     1 <1>   0.0800 
 30 H        2.5000     1.8830    -1.7310 H     1 <1>   0.0800 
 31 H       -2.1900    -2.7120    -1.8600 H     1 <1>   0.1500 
 32 H       -1.1000     0.4710    -0.8020 H     1 <1>   0.0800 
 33 H       -1.7400    -0.4910    -2.0880 H     1 <1>   0.0800 
 34 H       -0.0170    -0.4070    -1.8630 H     1 <1>   0.0800 
 35 H       -1.3890    -4.8130     1.7170 H     1 <1>   0.1500 
 36 H        1.0880    -3.0910     2.9690 H     1 <1>   0.0800 
 37 H       -0.3680    -3.8810     3.4960 H     1 <1>   0.0800 
 38 H       -0.2460    -2.1570     3.6200 H     1 <1>   0.0800 
 39 H        4.6990     0.8980    -2.1330 H     1 <1>   0.0800 
 40 H        4.9370     0.6580    -0.4230 H     1 <1>   0.0800 
 41 H        5.6740    -1.3110     0.0980 H     1 <1>   0.3700 
 42 H       -3.4790    -4.7430    -1.2470 H     1 <1>   0.0800 
 43 H       -3.0230    -5.6720     0.1560 H     1 <1>   0.0800 
 44 H       -2.0070    -5.6880    -1.2680 H     1 <1>   0.0800 
 45 H        6.4780    -3.5710    -1.6740 H     1 <1>   0.0800 
 46 H        6.4200    -3.7480     0.0650 H     1 <1>   0.0800 
 47 H        8.0830    -1.6960    -1.4350 H     1 <1>   0.0800 
 48 H        8.7000    -3.1510    -0.7000 H     1 <1>   0.0800 
 49 H        8.0480    -1.8890     0.3120 H     1 <1>   0.0800 
@<TRIPOS>BOND
  1   1   2  2   
  2   1   3  2   
  3   1   4  am  
  4   1   5  1   
  5   4   6  1   
  6   4   7  1   
  7   5   8  ar  
  8   5   9  ar  
  9   6  10  1   
 10   6  24  1   
 11   6  25  1   
 12   7  11  1   
 13   7  26  1   
 14   7  27  1   
 15   8  12  ar  
 16   8  13  1   
 17   9  14  ar  
 18   9  15  1   
 19  10  16  1   
 20  10  17  1   
 21  10  28  1   
 22  11  17  1   
 23  11  29  1   
 24  11  30  1   
 25  12  18  ar  
 26  12  31  1   
 27  13  32  1   
 28  13  33  1   
 29  13  34  1   
 30  14  18  ar  
 31  14  35  1   
 32  15  36  1   
 33  15  37  1   
 34  15  38  1   
 35  16  19  2   
 36  16  20  am  
 37  17  39  1   
 38  17  40  1   
 39  18  21  1   
 40  20  22  1   
 41  20  41  1   
 42  21  42  1   
 43  21  43  1   
 44  21  44  1   
 45  22  23  1   
 46  22  45  1   
 47  22  46  1   
 48  23  47  1   
 49  23  48  1   
 50  23  49  1   
@<TRIPOS>SUBSTRUCTURE
  1 ****   6 GROUP 4 **** **** 0

# MOE 2024.06 (io_trps.svl 2023.06)
