@<TRIPOS>MOLECULE
NONAME
56 57 1 0 0 
SMALL
USER_CHARGES


@<TRIPOS>ATOM
  1 O      -14.4290     0.5990    -0.5870 O.3   1 <1>  -0.3630 
  2 C      -15.6540     0.0520    -0.3810 C.ar  1 <1>   0.0830 
  3 C      -13.2610    -0.0310    -0.1070 C.3   1 <1>   0.1200 
  4 C      -15.8690    -1.1410     0.2990 C.ar  1 <1>  -0.1500 
  5 C      -16.7410     0.7410    -0.8870 C.ar  1 <1>  -0.1500 
  6 C      -12.0610     0.8220    -0.4980 C.3   1 <1>   0.1200 
  7 C      -17.1550    -1.6260     0.4640 C.ar  1 <1>  -0.1500 
  8 C      -18.0230     0.2490    -0.7190 C.ar  1 <1>  -0.1500 
  9 O      -10.9060     0.2060    -0.0180 O.3   1 <1>  -0.5600 
 10 C      -18.2590    -0.9430    -0.0410 C.ar  1 <1>  -0.1430 
 11 C       -9.7340     0.8920    -0.3210 C.3   1 <1>   0.1200 
 12 C      -19.7100    -1.4490     0.1200 C.3   1 <1>   0.1440 
 13 C       -8.5570     0.0730     0.2150 C.3   1 <1>   0.1100 
 14 C      -20.5350    -0.4070     0.8880 C.3   1 <1>  -0.2400 
 15 C      -19.8070    -2.7770     0.8900 C.3   1 <1>  -0.2400 
 16 C      -20.3330    -1.6730    -1.2670 C.3   1 <1>  -0.2400 
 17 N       -7.2560     0.7160    -0.0790 N.3   1 <1>  -0.8100 
 18 C       -6.9960     1.8840     0.8020 C.3   1 <1>   0.1100 
 19 C       -6.1520    -0.2680     0.0410 C.3   1 <1>   0.1100 
 20 C       -5.6020     2.5180     0.5570 C.3   1 <1>   0.3430 
 21 C       -4.7660     0.3520    -0.2680 C.3   1 <1>   0.3430 
 22 N       -4.8800     1.8200    -0.5570 N.4   1 <1>  -0.9590 
 23 C       -3.5820     2.4570    -0.9190 C.3   1 <1>   0.2630 
 24 H      -13.1900    -1.0040    -0.5590 H     1 <1>   0.0800 
 25 H      -13.3330    -0.1080     0.9640 H     1 <1>   0.0800 
 26 H      -15.0530    -1.7050     0.7070 H     1 <1>   0.1500 
 27 H      -16.5780     1.6630    -1.4130 H     1 <1>   0.1500 
 28 H      -12.1420     1.8000    -0.0550 H     1 <1>   0.0800 
 29 H      -11.9940     0.8970    -1.5700 H     1 <1>   0.0800 
 30 H      -17.2670    -2.5510     0.9960 H     1 <1>   0.1500 
 31 H      -18.8410     0.8140    -1.1280 H     1 <1>   0.1500 
 32 H       -9.7790     1.8590     0.1480 H     1 <1>   0.0800 
 33 H       -9.6590     0.9930    -1.3900 H     1 <1>   0.0800 
 34 H       -8.5940    -0.8910    -0.2660 H     1 <1>   0.0800 
 35 H       -8.6700    -0.0720     1.2760 H     1 <1>   0.0800 
 36 H      -20.0860    -0.2180     1.8470 H     1 <1>   0.0800 
 37 H      -21.5400    -0.7560     1.0440 H     1 <1>   0.0800 
 38 H      -20.5850     0.5220     0.3510 H     1 <1>   0.0800 
 39 H      -19.4070    -2.6670     1.8830 H     1 <1>   0.0800 
 40 H      -19.2650    -3.5520     0.3770 H     1 <1>   0.0800 
 41 H      -20.8320    -3.0900     0.9780 H     1 <1>   0.0800 
 42 H      -20.3810    -0.7550    -1.8230 H     1 <1>   0.0800 
 43 H      -21.3310    -2.0600    -1.1770 H     1 <1>   0.0800 
 44 H      -19.7410    -2.3750    -1.8260 H     1 <1>   0.0800 
 45 H       -7.0670     1.5880     1.8350 H     1 <1>   0.0800 
 46 H       -7.7450     2.6380     0.6320 H     1 <1>   0.0800 
 47 H       -6.3230    -1.0820    -0.6440 H     1 <1>   0.0800 
 48 H       -6.1390    -0.6820     1.0350 H     1 <1>   0.0800 
 49 H       -5.0240     2.4600     1.4630 H     1 <1>   0.0800 
 50 H       -5.7310     3.5600     0.3160 H     1 <1>   0.0800 
 51 H       -4.3400    -0.1550    -1.1170 H     1 <1>   0.0800 
 52 H       -4.1120     0.1900     0.5730 H     1 <1>   0.0800 
 53 H       -5.5460     1.8620    -1.3470 H     1 <1>   0.4500 
 54 H       -2.8950     2.4070    -0.0890 H     1 <1>   0.0800 
 55 H       -3.7330     3.4920    -1.1800 H     1 <1>   0.0800 
 56 H       -3.1410     1.9530    -1.7640 H     1 <1>   0.0800 
@<TRIPOS>BOND
  1   1   2  1   
  2   1   3  1   
  3   2   4  ar  
  4   2   5  ar  
  5   3   6  1   
  6   3  24  1   
  7   3  25  1   
  8   4   7  ar  
  9   4  26  1   
 10   5   8  ar  
 11   5  27  1   
 12   6   9  1   
 13   6  28  1   
 14   6  29  1   
 15   7  10  ar  
 16   7  30  1   
 17   8  10  ar  
 18   8  31  1   
 19   9  11  1   
 20  10  12  1   
 21  11  13  1   
 22  11  32  1   
 23  11  33  1   
 24  12  14  1   
 25  12  15  1   
 26  12  16  1   
 27  13  17  1   
 28  13  34  1   
 29  13  35  1   
 30  14  36  1   
 31  14  37  1   
 32  14  38  1   
 33  15  39  1   
 34  15  40  1   
 35  15  41  1   
 36  16  42  1   
 37  16  43  1   
 38  16  44  1   
 39  17  18  1   
 40  17  19  1   
 41  18  20  1   
 42  18  45  1   
 43  18  46  1   
 44  19  21  1   
 45  19  47  1   
 46  19  48  1   
 47  20  22  1   
 48  20  49  1   
 49  20  50  1   
 50  21  22  1   
 51  21  51  1   
 52  21  52  1   
 53  22  23  1   
 54  22  53  1   
 55  23  54  1   
 56  23  55  1   
 57  23  56  1   
@<TRIPOS>SUBSTRUCTURE
  1 ****   3 GROUP 4 **** **** 0

# MOE 2024.06 (io_trps.svl 2023.06)
