@<TRIPOS>MOLECULE
NONAME
39 40 1 0 0 
SMALL
USER_CHARGES


@<TRIPOS>ATOM
  1 F       -1.2590    -0.9810    -1.1280 F     1 <1>  -0.3400 
  2 C       -1.9660    -0.1820    -0.3310 C.3   1 <1>   1.0200 
  3 F       -1.1120     0.7480     0.0840 F     1 <1>  -0.3400 
  4 F       -2.8050     0.4560    -1.1370 F     1 <1>  -0.3400 
  5 C       -2.6490    -0.9780     0.8370 C.3   1 <1>   0.4990 
  6 N       -3.5110    -0.2210     1.8400 N.am  1 <1>  -0.7300 
  7 C       -1.4780    -1.5980     1.6090 C.2   1 <1>   0.5690 
  8 C       -3.3520    -2.2830     0.4020 C.2   1 <1>  -0.1240 
  9 C       -4.3310     0.7900     1.4630 C.2   1 <1>   0.5440 
 10 O       -0.6770    -1.0020     2.2850 O.2   1 <1>  -0.5700 
 11 N       -1.5290    -2.9490     1.5290 N.am  1 <1>  -0.5390 
 12 C       -2.6350    -3.3480     0.8360 C.2   1 <1>  -0.0290 
 13 C       -4.5710    -2.2230    -0.3340 C.2   1 <1>   0.7060 
 14 O       -3.8090     1.8760     1.3720 O.2   1 <1>  -0.5700 
 15 C       -5.7460     0.5980     1.2140 C.ar  1 <1>   0.0860 
 16 C       -2.8640    -4.8400     0.6710 C.3   1 <1>  -0.1020 
 17 O       -4.9130    -1.2500    -0.9680 O.2   1 <1>  -0.5700 
 18 O       -5.3820    -3.2800    -0.2950 O.3   1 <1>  -0.4300 
 19 C       -6.4520    -0.4520     1.8020 C.ar  1 <1>   0.1600 
 20 C       -6.4620     1.4440     0.3780 C.ar  1 <1>  -0.1500 
 21 C       -6.6520    -3.2570    -0.9100 C.3   1 <1>   0.1200 
 22 N       -7.7360    -0.7230     1.6280 N.ar  1 <1>  -0.6200 
 23 C       -7.8010     1.1850     0.1830 C.ar  1 <1>  -0.1500 
 24 C       -7.3310    -4.5950    -0.6370 C.3   1 <1>  -0.2400 
 25 C       -8.3820     0.1030     0.8210 C.ar  1 <1>   0.1600 
 26 H       -2.8720     0.1060     2.5750 H     1 <1>   0.3700 
 27 H       -0.8450    -3.5390     2.0100 H     1 <1>   0.3700 
 28 H       -1.9820    -5.3040     0.2670 H     1 <1>   0.0800 
 29 H       -3.6800    -5.0470     0.0040 H     1 <1>   0.0800 
 30 H       -3.0830    -5.2850     1.6250 H     1 <1>   0.0800 
 31 H       -5.9150    -1.1120     2.4600 H     1 <1>   0.1500 
 32 H       -5.9730     2.2740    -0.1040 H     1 <1>   0.1500 
 33 H       -6.5190    -3.0970    -1.9660 H     1 <1>   0.0800 
 34 H       -7.2220    -2.4450    -0.4890 H     1 <1>   0.0800 
 35 H       -8.3900     1.8140    -0.4600 H     1 <1>   0.1500 
 36 H       -6.7480    -5.3990    -1.0470 H     1 <1>   0.0800 
 37 H       -8.3030    -4.6060    -1.0960 H     1 <1>   0.0800 
 38 H       -7.4530    -4.7380     0.4220 H     1 <1>   0.0800 
 39 H       -9.4300    -0.0910     0.6610 H     1 <1>   0.1500 
@<TRIPOS>BOND
  1   1   2  1   
  2   2   3  1   
  3   2   4  1   
  4   2   5  1   
  5   5   6  1   
  6   5   7  1   
  7   5   8  1   
  8   6   9  am  
  9   6  26  1   
 10   7  10  2   
 11   7  11  am  
 12   8  12  2   
 13   8  13  1   
 14   9  14  2   
 15   9  15  1   
 16  11  12  1   
 17  11  27  1   
 18  12  16  1   
 19  13  17  2   
 20  13  18  1   
 21  15  19  ar  
 22  15  20  ar  
 23  16  28  1   
 24  16  29  1   
 25  16  30  1   
 26  18  21  1   
 27  19  22  ar  
 28  19  31  1   
 29  20  23  ar  
 30  20  32  1   
 31  21  24  1   
 32  21  33  1   
 33  21  34  1   
 34  22  25  ar  
 35  23  25  ar  
 36  23  35  1   
 37  24  36  1   
 38  24  37  1   
 39  24  38  1   
 40  25  39  1   
@<TRIPOS>SUBSTRUCTURE
  1 ****  13 GROUP 4 **** **** 0

# MOE 2024.06 (io_trps.svl 2023.06)
