@<TRIPOS>MOLECULE
NONAME
43 45 1 0 0 
SMALL
USER_CHARGES


@<TRIPOS>ATOM
  1 N        0.1210     0.8010     0.1320 N.ar  1 <1>  -0.3100 
  2 N       -1.1750     0.8760     0.3510 N.ar  1 <1>  -0.3100 
  3 C        0.6590     1.3720    -0.9510 C.ar  1 <1>   0.4100 
  4 C       -1.9610     1.5220    -0.5140 C.ar  1 <1>   0.4100 
  5 N        2.0410     1.2830    -1.1400 N.pl3 1 <1>  -0.8380 
  6 C       -0.1160     2.0440    -1.8810 C.ar  1 <1>  -0.1500 
  7 N       -3.3240     1.5850    -0.2540 N.pl3 1 <1>  -0.8380 
  8 C       -1.4660     2.1230    -1.6540 C.ar  1 <1>  -0.1500 
  9 C        2.8340     2.5400    -1.1880 C.3   1 <1>   0.2090 
 10 C        2.7410     0.0340    -0.7310 C.3   1 <1>   0.2090 
 11 C       -4.0220     0.2770    -0.3510 C.3   1 <1>   0.2090 
 12 C       -3.6790     2.3240     0.9840 C.3   1 <1>   0.2090 
 13 C        3.0510     3.0950     0.2240 C.3   1 <1>  -0.1600 
 14 C        3.3830     0.1290     0.6590 C.3   1 <1>  -0.1600 
 15 C       -5.5370     0.5040    -0.3570 C.3   1 <1>  -0.1600 
 16 C       -5.1870     2.5950     1.0050 C.3   1 <1>  -0.1600 
 17 C        4.2780     2.5330     0.9630 C.3   1 <1>  -0.1600 
 18 C        4.6090     1.0550     0.7050 C.3   1 <1>  -0.1600 
 19 C       -5.9950     1.2950     0.8770 C.3   1 <1>  -0.1600 
 20 H        0.3370     2.4780    -2.7500 H     1 <1>   0.1500 
 21 H       -2.1350     2.6260    -2.3240 H     1 <1>   0.1500 
 22 H        2.2950     3.2690    -1.7660 H     1 <1>   0.0800 
 23 H        3.7760     2.3660    -1.6800 H     1 <1>   0.0800 
 24 H        3.4910    -0.2020    -1.4650 H     1 <1>   0.0800 
 25 H        2.0320    -0.7770    -0.7300 H     1 <1>   0.0800 
 26 H       -3.7430    -0.3410     0.4870 H     1 <1>   0.0800 
 27 H       -3.7220    -0.2240    -1.2560 H     1 <1>   0.0800 
 28 H       -3.1390     3.2560     1.0140 H     1 <1>   0.0800 
 29 H       -3.3950     1.7410     1.8450 H     1 <1>   0.0800 
 30 H        2.1640     2.9180     0.8080 H     1 <1>   0.0800 
 31 H        3.1690     4.1610     0.1540 H     1 <1>   0.0800 
 32 H        3.7080    -0.8610     0.9230 H     1 <1>   0.0800 
 33 H        2.6470     0.4240     1.3870 H     1 <1>   0.0800 
 34 H       -6.0380    -0.4460    -0.3860 H     1 <1>   0.0800 
 35 H       -5.7980     1.0430    -1.2510 H     1 <1>   0.0800 
 36 H       -5.4270     3.2550     0.1900 H     1 <1>   0.0800 
 37 H       -5.4450     3.0940     1.9220 H     1 <1>   0.0800 
 38 H        4.1180     2.6720     2.0190 H     1 <1>   0.0800 
 39 H        5.1420     3.1170     0.6970 H     1 <1>   0.0800 
 40 H        5.1590     0.9630    -0.2160 H     1 <1>   0.0800 
 41 H        5.2630     0.7230     1.4930 H     1 <1>   0.0800 
 42 H       -5.8450     0.6950     1.7590 H     1 <1>   0.0800 
 43 H       -7.0440     1.5220     0.7990 H     1 <1>   0.0800 
@<TRIPOS>BOND
  1   1   2  ar  
  2   1   3  ar  
  3   2   4  ar  
  4   3   5  1   
  5   3   6  ar  
  6   4   7  1   
  7   4   8  ar  
  8   5   9  1   
  9   5  10  1   
 10   6   8  ar  
 11   6  20  1   
 12   7  11  1   
 13   7  12  1   
 14   8  21  1   
 15   9  13  1   
 16   9  22  1   
 17   9  23  1   
 18  10  14  1   
 19  10  24  1   
 20  10  25  1   
 21  11  15  1   
 22  11  26  1   
 23  11  27  1   
 24  12  16  1   
 25  12  28  1   
 26  12  29  1   
 27  13  17  1   
 28  13  30  1   
 29  13  31  1   
 30  14  18  1   
 31  14  32  1   
 32  14  33  1   
 33  15  19  1   
 34  15  34  1   
 35  15  35  1   
 36  16  19  1   
 37  16  36  1   
 38  16  37  1   
 39  17  18  1   
 40  17  38  1   
 41  17  39  1   
 42  18  40  1   
 43  18  41  1   
 44  19  42  1   
 45  19  43  1   
@<TRIPOS>SUBSTRUCTURE
  1 ****   1 GROUP 4 **** **** 0

# MOE 2024.06 (io_trps.svl 2023.06)
