@<TRIPOS>MOLECULE
NONAME
34 37 1 0 0 
SMALL
USER_CHARGES


@<TRIPOS>ATOM
  1 O        0.1480     0.4300    -0.8510 O.2   1 <1>  -0.5700 
  2 C        0.3890     1.4790    -0.3130 C.2   1 <1>   0.5690 
  3 N        1.6190     2.0630    -0.0370 N.am  1 <1>  -0.2370 
  4 C       -0.6560     2.4030     0.2220 C.3   1 <1>  -0.0190 
  5 C        2.8760     1.4190    -0.0960 C.ar  1 <1>   0.1170 
  6 C        1.3960     3.3900     0.3100 C.2   1 <1>   0.5690 
  7 C       -2.1290     2.7790     0.1250 C.3   1 <1>   0.4180 
  8 C        0.0010     3.7340    -0.1150 C.3   1 <1>  -0.0190 
  9 C        4.0210     2.1070    -0.4860 C.ar  1 <1>  -0.1500 
 10 C        3.0120     0.0740     0.2350 C.ar  1 <1>  -0.1500 
 11 O        2.1480     4.1760     0.8250 O.2   1 <1>  -0.5700 
 12 O       -2.0180     3.8850     0.9660 O.3   1 <1>  -0.5600 
 13 C       -2.5350     3.5300    -1.1290 C.2   1 <1>  -0.2880 
 14 C       -3.1560     1.8040     0.6820 C.3   1 <1>  -0.2400 
 15 C       -1.1510     4.6990     0.2340 C.3   1 <1>   0.3380 
 16 C        5.2480     1.4750    -0.5430 C.ar  1 <1>  -0.1500 
 17 C        4.2420    -0.5540     0.1770 C.ar  1 <1>  -0.1500 
 18 C       -1.9830     4.7380    -1.0330 C.2   1 <1>  -0.2880 
 19 C        5.3970     0.1270    -0.2140 C.ar  1 <1>  -0.1790 
 20 C        6.6930    -0.5380    -0.2750 C.2   1 <1>   0.9790 
 21 O        7.7040     0.0770    -0.6600 O.co2 1 <1>  -0.9000 
 22 O        6.8110    -1.7310     0.0580 O.co2 1 <1>  -0.9000 
 23 H       -0.5500     2.2110     1.2800 H     1 <1>   0.0800 
 24 H        0.1320     3.8270    -1.1820 H     1 <1>   0.0800 
 25 H        3.9640     3.1480    -0.7470 H     1 <1>   0.1500 
 26 H        2.1560    -0.4990     0.5390 H     1 <1>   0.1500 
 27 H       -3.1650     3.0740    -1.8730 H     1 <1>   0.1500 
 28 H       -2.8800     1.4900     1.6720 H     1 <1>   0.0800 
 29 H       -3.2120     0.9390     0.0470 H     1 <1>   0.0800 
 30 H       -4.1230     2.2720     0.7140 H     1 <1>   0.0800 
 31 H       -0.9380     5.6290     0.7330 H     1 <1>   0.0800 
 32 H        6.1250     2.0240    -0.8460 H     1 <1>   0.1500 
 33 H        4.3290    -1.5970     0.4350 H     1 <1>   0.1500 
 34 H       -2.0090     5.6070    -1.6660 H     1 <1>   0.1500 
@<TRIPOS>BOND
  1   1   2  2   
  2   2   3  am  
  3   2   4  1   
  4   3   5  1   
  5   3   6  am  
  6   4   7  1   
  7   4   8  1   
  8   4  23  1   
  9   5   9  ar  
 10   5  10  ar  
 11   6   8  1   
 12   6  11  2   
 13   7  12  1   
 14   7  13  1   
 15   7  14  1   
 16   8  15  1   
 17   8  24  1   
 18   9  16  ar  
 19   9  25  1   
 20  10  17  ar  
 21  10  26  1   
 22  12  15  1   
 23  13  18  2   
 24  13  27  1   
 25  14  28  1   
 26  14  29  1   
 27  14  30  1   
 28  15  18  1   
 29  15  31  1   
 30  16  19  ar  
 31  16  32  1   
 32  17  19  ar  
 33  17  33  1   
 34  18  34  1   
 35  19  20  1   
 36  20  21  ar  
 37  20  22  ar  
@<TRIPOS>SUBSTRUCTURE
  1 ****   3 GROUP 4 **** **** 0

# MOE 2024.06 (io_trps.svl 2023.06)
