@<TRIPOS>MOLECULE
NONAME
48 50 1 0 0 
SMALL
USER_CHARGES


@<TRIPOS>ATOM
  1 O       -0.3880    -0.6170    -0.8520 O.3   1 <1>  -0.3630 
  2 C       -1.3790    -1.0050     0.0120 C.ar  1 <1>   0.0830 
  3 C       -0.4700     0.5950    -1.5650 C.3   1 <1>   0.1200 
  4 C       -1.1800    -2.1710     0.7740 C.ar  1 <1>   0.1000 
  5 C       -2.5620    -0.2850     0.1530 C.ar  1 <1>  -0.1500 
  6 C        0.8160     0.7570    -2.3690 C.3   1 <1>  -0.2400 
  7 N       -0.0260    -2.9650     0.7010 N.pl3 1 <1>  -0.8380 
  8 C       -2.1750    -2.5730     1.6530 C.ar  1 <1>  -0.1500 
  9 C       -3.5400    -0.7070     1.0380 C.ar  1 <1>  -0.1500 
 10 C        1.2090    -2.2900     1.2070 C.3   1 <1>   0.2090 
 11 C        0.1480    -3.6640    -0.6090 C.3   1 <1>   0.2090 
 12 C       -3.3460    -1.8510     1.7880 C.ar  1 <1>  -0.1500 
 13 C        2.4160    -3.2470     1.2020 C.3   1 <1>   0.3430 
 14 C        1.3680    -4.6050    -0.5880 C.3   1 <1>   0.3430 
 15 N        2.6200    -3.8980    -0.1440 N.4   1 <1>  -0.9590 
 16 C        3.8140    -4.7810    -0.1590 C.3   1 <1>   0.4860 
 17 C        5.0340    -3.9180     0.0900 C.ar  1 <1>  -0.1430 
 18 C        5.4370    -2.9970    -0.8650 C.ar  1 <1>  -0.1500 
 19 C        5.7500    -4.0280     1.2750 C.ar  1 <1>  -0.1500 
 20 C        6.5290    -2.1850    -0.6260 C.ar  1 <1>   0.0830 
 21 C        6.8490    -3.2160     1.5060 C.ar  1 <1>  -0.1500 
 22 O        6.8840    -1.2930    -1.5600 O.3   1 <1>  -0.5330 
 23 C        7.2410    -2.2890     0.5570 C.ar  1 <1>  -0.1500 
 24 H       -0.5820     1.4010    -0.8600 H     1 <1>   0.0800 
 25 H       -1.3240     0.5500    -2.2200 H     1 <1>   0.0800 
 26 H       -2.7520     0.6070    -0.4120 H     1 <1>   0.1500 
 27 H        1.6650     0.7890    -1.7090 H     1 <1>   0.0800 
 28 H        0.7820     1.6770    -2.9240 H     1 <1>   0.0800 
 29 H        0.9250    -0.0560    -3.0640 H     1 <1>   0.0800 
 30 H       -2.0250    -3.4620     2.2360 H     1 <1>   0.1500 
 31 H       -4.4520    -0.1440     1.1420 H     1 <1>   0.1500 
 32 H        1.0310    -1.9450     2.2110 H     1 <1>   0.0800 
 33 H        1.4340    -1.4300     0.6020 H     1 <1>   0.0800 
 34 H        0.2650    -2.9420    -1.3980 H     1 <1>   0.0800 
 35 H       -0.7400    -4.2350    -0.8190 H     1 <1>   0.0800 
 36 H       -4.1060    -2.1800     2.4770 H     1 <1>   0.1500 
 37 H        2.2470    -4.0040     1.9500 H     1 <1>   0.0800 
 38 H        3.2970    -2.6930     1.4820 H     1 <1>   0.0800 
 39 H        1.5060    -5.0170    -1.5740 H     1 <1>   0.0800 
 40 H        1.1520    -5.4170     0.0860 H     1 <1>   0.0800 
 41 H        2.8040    -3.1310    -0.8040 H     1 <1>   0.4500 
 42 H        3.9090    -5.2640    -1.1180 H     1 <1>   0.0800 
 43 H        3.7300    -5.5380     0.6040 H     1 <1>   0.0800 
 44 H        4.9240    -2.8880    -1.8050 H     1 <1>   0.1500 
 45 H        5.4680    -4.7430     2.0300 H     1 <1>   0.1500 
 46 H        7.4030    -3.3060     2.4260 H     1 <1>   0.1500 
 47 H        7.6880    -0.7900    -1.3320 H     1 <1>   0.4500 
 48 H        8.0930    -1.6600     0.7410 H     1 <1>   0.1500 
@<TRIPOS>BOND
  1   1   2  1   
  2   1   3  1   
  3   2   4  ar  
  4   2   5  ar  
  5   3   6  1   
  6   3  24  1   
  7   3  25  1   
  8   4   7  1   
  9   4   8  ar  
 10   5   9  ar  
 11   5  26  1   
 12   6  27  1   
 13   6  28  1   
 14   6  29  1   
 15   7  10  1   
 16   7  11  1   
 17   8  12  ar  
 18   8  30  1   
 19   9  12  ar  
 20   9  31  1   
 21  10  13  1   
 22  10  32  1   
 23  10  33  1   
 24  11  14  1   
 25  11  34  1   
 26  11  35  1   
 27  12  36  1   
 28  13  15  1   
 29  13  37  1   
 30  13  38  1   
 31  14  15  1   
 32  14  39  1   
 33  14  40  1   
 34  15  16  1   
 35  15  41  1   
 36  16  17  1   
 37  16  42  1   
 38  16  43  1   
 39  17  18  ar  
 40  17  19  ar  
 41  18  20  ar  
 42  18  44  1   
 43  19  21  ar  
 44  19  45  1   
 45  20  22  1   
 46  20  23  ar  
 47  21  23  ar  
 48  21  46  1   
 49  22  47  1   
 50  23  48  1   
@<TRIPOS>SUBSTRUCTURE
  1 ****  10 GROUP 4 **** **** 0

# MOE 2024.06 (io_trps.svl 2023.06)
