@<TRIPOS>MOLECULE
NONAME
42 44 1 0 0 
SMALL
USER_CHARGES


@<TRIPOS>ATOM
  1 S       -0.1770    -1.0090     1.7460 S.3   1 <1>  -0.3710 
  2 C       -1.0120     0.1960     0.7170 C.2   1 <1>   0.6510 
  3 C        1.4060    -0.1660     2.2660 C.3   1 <1>   0.1310 
  4 N       -0.4990     1.3640     0.6920 N.2   1 <1>  -0.6210 
  5 N       -2.1350    -0.2290     0.0290 N.am  1 <1>  -0.2370 
  6 C        2.5730    -0.5480     1.3550 C.2   1 <1>   0.5690 
  7 C       -1.0500     2.2890    -0.1380 C.2   1 <1>   0.0210 
  8 C       -2.7560     0.7310    -0.7690 C.2   1 <1>   0.6160 
  9 C       -2.6050    -1.5550     0.0770 C.ar  1 <1>   0.1170 
 10 O        3.1190    -1.6010     1.6060 O.2   1 <1>  -0.5700 
 11 N        3.0260     0.2580     0.3330 N.am  1 <1>  -0.6600 
 12 O       -0.4670     3.3690    -0.2250 O.3   1 <1>  -0.8500 
 13 C       -2.1900     1.9910    -0.8550 C.2   1 <1>  -0.1360 
 14 O       -3.7950     0.4300    -1.3860 O.2   1 <1>  -0.5700 
 15 C       -1.9650    -2.5600    -0.6410 C.ar  1 <1>  -0.1500 
 16 C       -3.7160    -1.8850     0.8440 C.ar  1 <1>  -0.1500 
 17 C        2.4180     1.5790    -0.0520 C.3   1 <1>   0.1400 
 18 C        4.1940    -0.1370    -0.4970 C.3   1 <1>   0.1400 
 19 C       -2.4210    -3.8650    -0.5890 C.ar  1 <1>  -0.1500 
 20 C       -4.1750    -3.1890     0.8980 C.ar  1 <1>  -0.1500 
 21 C        3.4320     2.5080    -0.7410 C.3   1 <1>  -0.1600 
 22 C        5.3320     0.8810    -0.3190 C.3   1 <1>  -0.1600 
 23 C       -3.5260    -4.1810     0.1820 C.ar  1 <1>  -0.1500 
 24 C        4.8430     2.3340    -0.1640 C.3   1 <1>  -0.1600 
 25 H        1.6130    -0.5220     3.2570 H     1 <1>   0.0800 
 26 H        1.2460     0.8910     2.3180 H     1 <1>   0.0800 
 27 H       -2.6250     2.7400    -1.4820 H     1 <1>   0.1500 
 28 H       -1.1050    -2.3130    -1.2380 H     1 <1>   0.1500 
 29 H       -4.2210    -1.1110     1.3940 H     1 <1>   0.1500 
 30 H        2.0410     2.0840     0.8190 H     1 <1>   0.0800 
 31 H        1.5910     1.4160    -0.7220 H     1 <1>   0.0800 
 32 H        3.8830    -0.1580    -1.5270 H     1 <1>   0.0800 
 33 H        4.5420    -1.1240    -0.2410 H     1 <1>   0.0800 
 34 H       -1.9140    -4.6340    -1.1460 H     1 <1>   0.1500 
 35 H       -5.0360    -3.4310     1.4950 H     1 <1>   0.1500 
 36 H        3.0960     3.5240    -0.6220 H     1 <1>   0.0800 
 37 H        3.4380     2.2980    -1.7950 H     1 <1>   0.0800 
 38 H        5.9820     0.8080    -1.1730 H     1 <1>   0.0800 
 39 H        5.9100     0.6090     0.5470 H     1 <1>   0.0800 
 40 H       -3.8820    -5.1960     0.2240 H     1 <1>   0.1500 
 41 H        4.8090     2.5810     0.8840 H     1 <1>   0.0800 
 42 H        5.5290     3.0110    -0.6420 H     1 <1>   0.0800 
@<TRIPOS>BOND
  1   1   2  1   
  2   1   3  1   
  3   2   4  2   
  4   2   5  1   
  5   3   6  1   
  6   3  25  1   
  7   3  26  1   
  8   4   7  1   
  9   5   8  am  
 10   5   9  1   
 11   6  10  2   
 12   6  11  am  
 13   7  12  1   
 14   7  13  2   
 15   8  13  1   
 16   8  14  2   
 17   9  15  ar  
 18   9  16  ar  
 19  11  17  1   
 20  11  18  1   
 21  13  27  1   
 22  15  19  ar  
 23  15  28  1   
 24  16  20  ar  
 25  16  29  1   
 26  17  21  1   
 27  17  30  1   
 28  17  31  1   
 29  18  22  1   
 30  18  32  1   
 31  18  33  1   
 32  19  23  ar  
 33  19  34  1   
 34  20  23  ar  
 35  20  35  1   
 36  21  24  1   
 37  21  36  1   
 38  21  37  1   
 39  22  24  1   
 40  22  38  1   
 41  22  39  1   
 42  23  40  1   
 43  24  41  1   
 44  24  42  1   
@<TRIPOS>SUBSTRUCTURE
  1 ****   2 GROUP 4 **** **** 0

# MOE 2024.06 (io_trps.svl 2023.06)
