@<TRIPOS>MOLECULE
NONAME
34 34 1 0 0 
SMALL
USER_CHARGES


@<TRIPOS>ATOM
  1 O       -0.9030    -0.8370     1.6140 O.2   1 <1>  -0.5700 
  2 C       -1.3610    -0.8030     0.4860 C.2   1 <1>   0.5440 
  3 N       -0.7330    -1.5060    -0.5040 N.am  1 <1>  -0.7300 
  4 C       -2.5740    -0.0810     0.1960 C.ar  1 <1>   0.0860 
  5 C        0.4880    -2.3180    -0.3350 C.3   1 <1>   0.1400 
  6 C       -3.7960    -0.7510     0.0640 C.ar  1 <1>   0.0830 
  7 C       -2.5650     1.3090     0.0210 C.ar  1 <1>   0.0830 
  8 C        0.0990    -3.7940    -0.3040 C.3   1 <1>  -0.1600 
  9 O       -3.8840    -2.0900     0.2030 O.3   1 <1>  -0.3630 
 10 C       -4.9610    -0.0660    -0.2380 C.ar  1 <1>  -0.1500 
 11 O       -1.3750     1.9490     0.1320 O.3   1 <1>  -0.3630 
 12 C       -3.7440     1.9910    -0.2700 C.ar  1 <1>  -0.1500 
 13 C        1.3280    -4.6650    -0.0580 C.3   1 <1>   0.1200 
 14 C       -3.8580    -2.6060     1.5160 C.3   1 <1>   0.0400 
 15 C       -4.9380     1.3050    -0.4010 C.ar  1 <1>  -0.1500 
 16 C       -1.2610     3.3550     0.1390 C.3   1 <1>   0.0400 
 17 O        0.9330    -5.9880    -0.0760 O.3   1 <1>  -0.6800 
 18 H       -1.1860    -1.5570    -1.4180 H     1 <1>   0.3700 
 19 H        0.9800    -2.0450     0.5840 H     1 <1>   0.0800 
 20 H        1.1620    -2.1210    -1.1510 H     1 <1>   0.0800 
 21 H       -0.3470    -4.0630    -1.2450 H     1 <1>   0.0800 
 22 H       -0.6120    -3.9460     0.4900 H     1 <1>   0.0800 
 23 H       -5.8810    -0.6120    -0.3440 H     1 <1>   0.1500 
 24 H       -3.7540     3.0560    -0.4050 H     1 <1>   0.1500 
 25 H        1.7720    -4.4550     0.9010 H     1 <1>   0.0800 
 26 H        2.0630    -4.5290    -0.8330 H     1 <1>   0.0800 
 27 H       -4.6130    -2.1110     2.1010 H     1 <1>   0.0800 
 28 H       -2.8870    -2.4420     1.9470 H     1 <1>   0.0800 
 29 H       -4.0610    -3.6600     1.4670 H     1 <1>   0.0800 
 30 H       -5.8460     1.8360    -0.6310 H     1 <1>   0.1500 
 31 H       -0.2300     3.6040     0.3130 H     1 <1>   0.0800 
 32 H       -1.8700     3.7500     0.9330 H     1 <1>   0.0800 
 33 H       -1.5740     3.7360    -0.8160 H     1 <1>   0.0800 
 34 H        0.2500    -6.1480     0.6040 H     1 <1>   0.4000 
@<TRIPOS>BOND
  1   1   2  2   
  2   2   3  am  
  3   2   4  1   
  4   3   5  1   
  5   3  18  1   
  6   4   6  ar  
  7   4   7  ar  
  8   5   8  1   
  9   5  19  1   
 10   5  20  1   
 11   6   9  1   
 12   6  10  ar  
 13   7  11  1   
 14   7  12  ar  
 15   8  13  1   
 16   8  21  1   
 17   8  22  1   
 18   9  14  1   
 19  10  15  ar  
 20  10  23  1   
 21  11  16  1   
 22  12  15  ar  
 23  12  24  1   
 24  13  17  1   
 25  13  25  1   
 26  13  26  1   
 27  14  27  1   
 28  14  28  1   
 29  14  29  1   
 30  15  30  1   
 31  16  31  1   
 32  16  32  1   
 33  16  33  1   
 34  17  34  1   
@<TRIPOS>SUBSTRUCTURE
  1 ****   2 GROUP 4 **** **** 0

# MOE 2024.06 (io_trps.svl 2023.06)
