@<TRIPOS>MOLECULE
NONAME
27 27 1 0 0 
SMALL
USER_CHARGES


@<TRIPOS>ATOM
  1 I       -0.6030     1.1440    -2.8670 I     1 <1>  -0.0810 
  2 C       -1.1530     2.1570    -1.0670 C.ar  1 <1>   0.0810 
  3 C       -0.1760     2.6690    -0.2200 C.ar  1 <1>   0.0830 
  4 C       -2.5050     2.2710    -0.8010 C.ar  1 <1>  -0.1500 
  5 O        1.1350     2.5200    -0.5470 O.3   1 <1>  -0.3630 
  6 C       -0.6060     3.3160     0.9350 C.ar  1 <1>  -0.1500 
  7 C       -2.9320     2.9220     0.3500 C.ar  1 <1>  -0.0090 
  8 C        2.1670     2.9970     0.2870 C.3   1 <1>   0.0400 
  9 C       -1.9610     3.4350     1.2070 C.ar  1 <1>  -0.1500 
 10 S       -4.7000     3.0890     0.7180 S.o2  1 <1>   1.4470 
 11 O       -4.9020     4.1020     1.7330 O.2   1 <1>  -0.6500 
 12 O       -5.2690     1.7730     0.9050 O.2   1 <1>  -0.6500 
 13 N       -5.3400     3.7130    -0.7290 N.am  1 <1>  -0.8490 
 14 C       -6.7950     3.5550    -0.7970 C.3   1 <1>   0.1160 
 15 C       -4.9750     5.1130    -0.9630 C.3   1 <1>   0.1160 
 16 H       -3.2300     1.8590    -1.4820 H     1 <1>   0.1500 
 17 H        0.0950     3.7320     1.6340 H     1 <1>   0.1500 
 18 H        3.1070     2.7540    -0.1760 H     1 <1>   0.0800 
 19 H        2.0960     2.5110     1.2440 H     1 <1>   0.0800 
 20 H        2.0740     4.0640     0.3850 H     1 <1>   0.0800 
 21 H       -2.2730     3.9390     2.1070 H     1 <1>   0.1500 
 22 H       -7.0560     2.5120    -0.7280 H     1 <1>   0.0800 
 23 H       -7.1680     3.9340    -1.7330 H     1 <1>   0.0800 
 24 H       -7.2680     4.0840     0.0140 H     1 <1>   0.0800 
 25 H       -3.9040     5.2230    -0.9560 H     1 <1>   0.0800 
 26 H       -5.3940     5.7470    -0.1990 H     1 <1>   0.0800 
 27 H       -5.3400     5.4340    -1.9240 H     1 <1>   0.0800 
@<TRIPOS>BOND
  1   1   2  1   
  2   2   3  ar  
  3   2   4  ar  
  4   3   5  1   
  5   3   6  ar  
  6   4   7  ar  
  7   4  16  1   
  8   5   8  1   
  9   6   9  ar  
 10   6  17  1   
 11   7   9  ar  
 12   7  10  1   
 13   8  18  1   
 14   8  19  1   
 15   8  20  1   
 16   9  21  1   
 17  10  11  2   
 18  10  12  2   
 19  10  13  am  
 20  13  14  1   
 21  13  15  1   
 22  14  22  1   
 23  14  23  1   
 24  14  24  1   
 25  15  25  1   
 26  15  26  1   
 27  15  27  1   
@<TRIPOS>SUBSTRUCTURE
  1 ****   7 GROUP 4 **** **** 0

# MOE 2024.06 (io_trps.svl 2023.06)
