@<TRIPOS>MOLECULE
NONAME
43 44 1 0 0 
SMALL
USER_CHARGES


@<TRIPOS>ATOM
  1 O       -0.6230    -0.0130     0.2720 O.2   1 <1>  -0.5700 
  2 C       -0.9410    -1.1590     0.0150 C.2   1 <1>   0.7150 
  3 N        0.0250    -2.1230    -0.1410 N.am  1 <1>  -0.5470 
  4 C       -2.3280    -1.5480    -0.1240 C.2   1 <1>   0.0550 
  5 C        1.4330    -2.1160    -0.1010 C.ar  1 <1>   0.1170 
  6 O       -3.3140    -0.6780     0.0830 O.3   1 <1>  -0.2800 
  7 C       -2.8880    -2.7480    -0.4580 C.2   1 <1>  -0.1500 
  8 C        2.0920    -3.3500    -0.0650 C.ar  1 <1>   0.0830 
  9 C        2.1980    -0.9560    -0.1090 C.ar  1 <1>  -0.1500 
 10 C       -4.4660    -1.2790    -0.1050 C.2   1 <1>  -0.0100 
 11 C       -4.2720    -2.5700    -0.4440 C.2   1 <1>  -0.1500 
 12 O        1.3070    -4.4720    -0.0750 O.3   1 <1>  -0.3620 
 13 C        3.4810    -3.4010    -0.0230 C.ar  1 <1>  -0.1500 
 14 C        3.5790    -1.0170    -0.0700 C.ar  1 <1>  -0.1500 
 15 C        1.8740    -5.7650    -0.0640 C.3   1 <1>   0.0400 
 16 C        4.2400    -2.2380    -0.0260 C.ar  1 <1>   0.1170 
 17 N        5.6410    -2.3390     0.0340 N.am  1 <1>  -0.5470 
 18 C        6.6170    -1.5000    -0.4370 C.2   1 <1>   0.5690 
 19 O        6.3600    -0.4940    -1.0540 O.2   1 <1>  -0.5700 
 20 C        8.1060    -1.8580    -0.1810 C.3   1 <1>   0.0610 
 21 C        8.7740    -0.7380     0.6370 C.3   1 <1>  -0.2400 
 22 C        8.2910    -3.1820     0.5940 C.3   1 <1>  -0.2400 
 23 C        8.8480    -1.9930    -1.5240 C.3   1 <1>  -0.2400 
 24 H       -0.3380    -3.0700    -0.2320 H     1 <1>   0.3700 
 25 H       -2.3960    -3.6740    -0.6950 H     1 <1>   0.1500 
 26 H        1.7270     0.0080    -0.1490 H     1 <1>   0.1500 
 27 H       -5.3750    -0.7160     0.0220 H     1 <1>   0.1500 
 28 H       -5.0090    -3.3230    -0.6630 H     1 <1>   0.1500 
 29 H        3.9980    -4.3390     0.0060 H     1 <1>   0.1500 
 30 H        4.1420    -0.1010    -0.0720 H     1 <1>   0.1500 
 31 H        1.0730    -6.4820    -0.0860 H     1 <1>   0.0800 
 32 H        2.4470    -5.8890     0.8380 H     1 <1>   0.0800 
 33 H        2.4920    -5.8840    -0.9360 H     1 <1>   0.0800 
 34 H        5.9950    -3.1830     0.4760 H     1 <1>   0.3700 
 35 H        8.2790    -0.6200     1.5850 H     1 <1>   0.0800 
 36 H        8.7100     0.1980     0.1090 H     1 <1>   0.0800 
 37 H        9.8130    -0.9550     0.8150 H     1 <1>   0.0800 
 38 H        9.3370    -3.3820     0.7470 H     1 <1>   0.0800 
 39 H        7.8210    -3.1280     1.5610 H     1 <1>   0.0800 
 40 H        7.8750    -4.0080     0.0440 H     1 <1>   0.0800 
 41 H        8.7870    -1.0710    -2.0770 H     1 <1>   0.0800 
 42 H        8.4040    -2.7700    -2.1210 H     1 <1>   0.0800 
 43 H        9.8870    -2.2270    -1.3700 H     1 <1>   0.0800 
@<TRIPOS>BOND
  1   1   2  2   
  2   2   3  am  
  3   2   4  1   
  4   3   5  1   
  5   3  24  1   
  6   4   6  1   
  7   4   7  2   
  8   5   8  ar  
  9   5   9  ar  
 10   6  10  1   
 11   7  11  1   
 12   7  25  1   
 13   8  12  1   
 14   8  13  ar  
 15   9  14  ar  
 16   9  26  1   
 17  10  11  2   
 18  10  27  1   
 19  11  28  1   
 20  12  15  1   
 21  13  16  ar  
 22  13  29  1   
 23  14  16  ar  
 24  14  30  1   
 25  15  31  1   
 26  15  32  1   
 27  15  33  1   
 28  16  17  1   
 29  17  18  am  
 30  17  34  1   
 31  18  19  2   
 32  18  20  1   
 33  20  21  1   
 34  20  22  1   
 35  20  23  1   
 36  21  35  1   
 37  21  36  1   
 38  21  37  1   
 39  22  38  1   
 40  22  39  1   
 41  22  40  1   
 42  23  41  1   
 43  23  42  1   
 44  23  43  1   
@<TRIPOS>SUBSTRUCTURE
  1 ****   5 GROUP 4 **** **** 0

# MOE 2024.06 (io_trps.svl 2023.06)
