@<TRIPOS>MOLECULE
NONAME
39 40 1 0 0 
SMALL
USER_CHARGES


@<TRIPOS>ATOM
  1 CL       0.2760     0.9160    -0.9180 Cl    1 <1>  -0.1770 
  2 C        1.9490     0.4580    -0.7060 C.ar  1 <1>   0.1770 
  3 C        2.9500     1.1510    -1.3630 C.ar  1 <1>   0.1600 
  4 C        2.2690    -0.5970     0.1200 C.ar  1 <1>  -0.1500 
  5 N        4.2440     0.8740    -1.2600 N.ar  1 <1>  -0.6200 
  6 C        3.6100    -0.8930     0.2340 C.ar  1 <1>  -0.1500 
  7 C        4.5580    -0.1410    -0.4650 C.ar  1 <1>   0.4270 
  8 N        5.9160    -0.3570    -0.4180 N.am  1 <1>  -0.5470 
  9 C        6.6990    -1.2370     0.2670 C.2   1 <1>   0.5690 
 10 O        6.2620    -2.0650     1.0270 O.2   1 <1>  -0.5700 
 11 C        8.2070    -1.1460     0.0530 C.3   1 <1>  -0.0190 
 12 C        8.8310    -2.4940    -0.3450 C.3   1 <1>  -0.1600 
 13 C        8.9300    -0.5900     1.2990 C.3   1 <1>  -0.1600 
 14 C       10.3420    -2.3710    -0.6120 C.3   1 <1>   0.1960 
 15 C       10.4250    -0.9420     1.3340 C.3   1 <1>   0.1960 
 16 N       10.9210    -1.1510    -0.0270 N.am  1 <1>  -0.8490 
 17 S       12.6130    -1.1700    -0.1230 S.o2  1 <1>   1.3330 
 18 O       13.1060    -1.7310     1.1150 O.2   1 <1>  -0.6500 
 19 O       12.9730    -1.7760    -1.3850 O.2   1 <1>  -0.6500 
 20 C       13.0280     0.5790    -0.2020 C.3   1 <1>  -0.0550 
 21 C       14.5360     0.8710    -0.3040 C.3   1 <1>  -0.2400 
 22 H        2.6680     1.9700    -2.0010 H     1 <1>   0.1500 
 23 H        1.5080    -1.1510     0.6410 H     1 <1>   0.1500 
 24 H        3.9160    -1.7070     0.8630 H     1 <1>   0.1500 
 25 H        6.3970     0.3030    -1.0220 H     1 <1>   0.3700 
 26 H        8.3900    -0.4660    -0.7610 H     1 <1>   0.0800 
 27 H        8.3460    -2.8870    -1.2200 H     1 <1>   0.0800 
 28 H        8.6760    -3.2040     0.4490 H     1 <1>   0.0800 
 29 H        8.4770    -0.9820     2.1930 H     1 <1>   0.0800 
 30 H        8.8150     0.4780     1.3260 H     1 <1>   0.0800 
 31 H       10.5080    -2.3500    -1.6770 H     1 <1>   0.0800 
 32 H       10.8440    -3.2420    -0.2210 H     1 <1>   0.0800 
 33 H       10.5790    -1.8410     1.9110 H     1 <1>   0.0800 
 34 H       10.9660    -0.1450     1.8170 H     1 <1>   0.0800 
 35 H       12.6450     1.0690     0.6710 H     1 <1>   0.0800 
 36 H       12.5380     1.0080    -1.0550 H     1 <1>   0.0800 
 37 H       15.0500     0.4710     0.5530 H     1 <1>   0.0800 
 38 H       14.7090     1.9320    -0.3490 H     1 <1>   0.0800 
 39 H       14.9420     0.4150    -1.1900 H     1 <1>   0.0800 
@<TRIPOS>BOND
  1   1   2  1   
  2   2   3  ar  
  3   2   4  ar  
  4   3   5  ar  
  5   3  22  1   
  6   4   6  ar  
  7   4  23  1   
  8   5   7  ar  
  9   6   7  ar  
 10   6  24  1   
 11   7   8  1   
 12   8   9  am  
 13   8  25  1   
 14   9  10  2   
 15   9  11  1   
 16  11  12  1   
 17  11  13  1   
 18  11  26  1   
 19  12  14  1   
 20  12  27  1   
 21  12  28  1   
 22  13  15  1   
 23  13  29  1   
 24  13  30  1   
 25  14  16  1   
 26  14  31  1   
 27  14  32  1   
 28  15  16  1   
 29  15  33  1   
 30  15  34  1   
 31  16  17  am  
 32  17  18  2   
 33  17  19  2   
 34  17  20  1   
 35  20  21  1   
 36  20  35  1   
 37  20  36  1   
 38  21  37  1   
 39  21  38  1   
 40  21  39  1   
@<TRIPOS>SUBSTRUCTURE
  1 ****  11 GROUP 4 **** **** 0

# MOE 2024.06 (io_trps.svl 2023.06)
