@<TRIPOS>MOLECULE
NONAME
39 39 1 0 0 
SMALL
USER_CHARGES


@<TRIPOS>ATOM
  1 O        0.3580    -0.8100    -0.3570 O.2   1 <1>  -0.5700 
  2 C        0.0780    -1.8530     0.2010 C.2   1 <1>   0.5440 
  3 N        1.0540    -2.4860     0.9220 N.am  1 <1>  -0.7300 
  4 C       -1.2600    -2.4090     0.1130 C.ar  1 <1>   0.0860 
  5 C        2.4350    -1.9740     1.1190 C.3   1 <1>   0.1400 
  6 C       -2.3650    -1.5840    -0.1080 C.ar  1 <1>  -0.1500 
  7 C       -1.5040    -3.7790     0.2410 C.ar  1 <1>  -0.1500 
  8 C        3.2550    -2.1310    -0.1620 C.3   1 <1>   0.1200 
  9 C       -3.6500    -2.0890    -0.1830 C.ar  1 <1>  -0.1500 
 10 C       -2.7850    -4.2930     0.1680 C.ar  1 <1>  -0.1500 
 11 O        4.5920    -1.8710     0.1340 O.3   1 <1>  -0.5600 
 12 C       -3.8680    -3.4560    -0.0410 C.ar  1 <1>   0.0830 
 13 C        5.4250    -1.8920    -0.9790 C.3   1 <1>   0.0400 
 14 O       -5.0870    -4.0360    -0.0960 O.3   1 <1>  -0.3630 
 15 C       -6.2620    -3.2790    -0.2950 C.3   1 <1>   0.1200 
 16 C       -7.4810    -4.2150    -0.2780 C.3   1 <1>  -0.0800 
 17 C       -8.7600    -3.4230    -0.5780 C.3   1 <1>  -0.2400 
 18 C       -7.6240    -4.9390     1.0680 C.3   1 <1>  -0.2400 
 19 H        0.8010    -3.2940     1.4910 H     1 <1>   0.3700 
 20 H        2.9050    -2.5230     1.9150 H     1 <1>   0.0800 
 21 H        2.3950    -0.9320     1.3870 H     1 <1>   0.0800 
 22 H       -2.2030    -0.5250    -0.2210 H     1 <1>   0.1500 
 23 H       -0.6820    -4.4560     0.3910 H     1 <1>   0.1500 
 24 H        2.9160    -1.4280    -0.9040 H     1 <1>   0.0800 
 25 H        3.1800    -3.1370    -0.5350 H     1 <1>   0.0800 
 26 H       -4.4630    -1.4090    -0.3530 H     1 <1>   0.1500 
 27 H       -2.9590    -5.3490     0.2690 H     1 <1>   0.1500 
 28 H        6.4290    -1.6870    -0.6500 H     1 <1>   0.0800 
 29 H        5.1090    -1.1320    -1.6730 H     1 <1>   0.0800 
 30 H        5.3840    -2.8650    -1.4370 H     1 <1>   0.0800 
 31 H       -6.1830    -2.7830    -1.2470 H     1 <1>   0.0800 
 32 H       -6.3350    -2.5530     0.4950 H     1 <1>   0.0800 
 33 H       -7.3500    -4.9480    -1.0570 H     1 <1>   0.0800 
 34 H       -8.9310    -2.6760     0.1780 H     1 <1>   0.0800 
 35 H       -9.6090    -4.0840    -0.6030 H     1 <1>   0.0800 
 36 H       -8.6850    -2.9370    -1.5340 H     1 <1>   0.0800 
 37 H       -7.7440    -4.2320     1.8700 H     1 <1>   0.0800 
 38 H       -6.7500    -5.5350     1.2670 H     1 <1>   0.0800 
 39 H       -8.4780    -5.5930     1.0530 H     1 <1>   0.0800 
@<TRIPOS>BOND
  1   1   2  2   
  2   2   3  am  
  3   2   4  1   
  4   3   5  1   
  5   3  19  1   
  6   4   6  ar  
  7   4   7  ar  
  8   5   8  1   
  9   5  20  1   
 10   5  21  1   
 11   6   9  ar  
 12   6  22  1   
 13   7  10  ar  
 14   7  23  1   
 15   8  11  1   
 16   8  24  1   
 17   8  25  1   
 18   9  12  ar  
 19   9  26  1   
 20  10  12  ar  
 21  10  27  1   
 22  11  13  1   
 23  12  14  1   
 24  13  28  1   
 25  13  29  1   
 26  13  30  1   
 27  14  15  1   
 28  15  16  1   
 29  15  31  1   
 30  15  32  1   
 31  16  17  1   
 32  16  18  1   
 33  16  33  1   
 34  17  34  1   
 35  17  35  1   
 36  17  36  1   
 37  18  37  1   
 38  18  38  1   
 39  18  39  1   
@<TRIPOS>SUBSTRUCTURE
  1 ****   4 GROUP 4 **** **** 0

# MOE 2024.06 (io_trps.svl 2023.06)
