@<TRIPOS>MOLECULE
NONAME
43 45 1 0 0 
SMALL
USER_CHARGES


@<TRIPOS>ATOM
  1 F       -1.6810     0.8400    -0.4220 F     1 <1>  -0.1900 
  2 C       -2.5480    -0.1340    -0.3540 C.ar  1 <1>   0.1900 
  3 C       -3.0930    -0.6250    -1.5240 C.ar  1 <1>  -0.1500 
  4 C       -2.8880    -0.6380     0.8870 C.ar  1 <1>  -0.1500 
  5 C       -4.0110    -1.6590    -1.4450 C.ar  1 <1>  -0.1500 
  6 C       -3.8080    -1.6720     0.9540 C.ar  1 <1>  -0.1500 
  7 C       -4.3700    -2.1860    -0.2090 C.ar  1 <1>  -0.1430 
  8 C       -5.3800    -3.3170    -0.1390 C.3   1 <1>   0.2840 
  9 N       -6.7250    -2.7380    -0.2850 N.am  1 <1>  -0.7300 
 10 C       -7.7590    -3.3520    -0.9050 C.2   1 <1>   0.5690 
 11 O       -7.6720    -4.4730    -1.3380 O.2   1 <1>  -0.5700 
 12 C       -9.0660    -2.6130    -1.0380 C.3   1 <1>  -0.0990 
 13 C      -10.0420    -3.1070     0.0290 C.3   1 <1>   0.1400 
 14 N      -11.2370    -2.2370     0.0680 N.am  1 <1>  -0.4200 
 15 C      -12.4410    -2.5350    -0.5040 C.2   1 <1>   0.5690 
 16 C      -11.2830    -1.0300     0.7040 C.2   1 <1>   0.5690 
 17 O      -12.7500    -3.5750    -1.0230 O.2   1 <1>  -0.5700 
 18 C      -13.3350    -1.3180    -0.4230 C.3   1 <1>  -0.0190 
 19 O      -10.3460    -0.4420     1.1800 O.2   1 <1>  -0.5700 
 20 C      -12.7160    -0.5510     0.7470 C.3   1 <1>  -0.0190 
 21 C      -14.8490    -1.4290    -0.2230 C.3   1 <1>  -0.0220 
 22 C      -13.0870     0.9310     0.6470 C.3   1 <1>  -0.0220 
 23 C      -15.3760    -0.0250     0.0840 C.2   1 <1>  -0.2880 
 24 C      -14.6030     1.0130     0.4460 C.2   1 <1>  -0.2880 
 25 H       -2.8040    -0.2060    -2.4710 H     1 <1>   0.1500 
 26 H       -2.4420    -0.2280     1.7750 H     1 <1>   0.1500 
 27 H       -4.4490    -2.0540    -2.3460 H     1 <1>   0.1500 
 28 H       -4.0820    -2.0730     1.9150 H     1 <1>   0.1500 
 29 H       -5.3110    -3.8280     0.8060 H     1 <1>   0.0800 
 30 H       -5.1960    -4.0300    -0.9260 H     1 <1>   0.0800 
 31 H       -6.8130    -1.7790     0.0580 H     1 <1>   0.3700 
 32 H       -9.4720    -2.7990    -2.0160 H     1 <1>   0.0800 
 33 H       -8.8890    -1.5600    -0.9270 H     1 <1>   0.0800 
 34 H       -9.5670    -3.0850     0.9960 H     1 <1>   0.0800 
 35 H      -10.3330    -4.1230    -0.1820 H     1 <1>   0.0800 
 36 H      -13.1650    -0.7670    -1.3320 H     1 <1>   0.0800 
 37 H      -13.1250    -0.9290     1.6690 H     1 <1>   0.0800 
 38 H      -15.0830    -2.0980     0.5860 H     1 <1>   0.0800 
 39 H      -15.3000    -1.8090    -1.1240 H     1 <1>   0.0800 
 40 H      -12.5790     1.4010    -0.1770 H     1 <1>   0.0800 
 41 H      -12.8030     1.4320     1.5560 H     1 <1>   0.0800 
 42 H      -16.4460     0.0560    -0.0230 H     1 <1>   0.1500 
 43 H      -15.0010     1.9980     0.6300 H     1 <1>   0.1500 
@<TRIPOS>BOND
  1   1   2  1   
  2   2   3  ar  
  3   2   4  ar  
  4   3   5  ar  
  5   3  25  1   
  6   4   6  ar  
  7   4  26  1   
  8   5   7  ar  
  9   5  27  1   
 10   6   7  ar  
 11   6  28  1   
 12   7   8  1   
 13   8   9  1   
 14   8  29  1   
 15   8  30  1   
 16   9  10  am  
 17   9  31  1   
 18  10  11  2   
 19  10  12  1   
 20  12  13  1   
 21  12  32  1   
 22  12  33  1   
 23  13  14  1   
 24  13  34  1   
 25  13  35  1   
 26  14  15  am  
 27  14  16  am  
 28  15  17  2   
 29  15  18  1   
 30  16  19  2   
 31  16  20  1   
 32  18  20  1   
 33  18  21  1   
 34  18  36  1   
 35  20  22  1   
 36  20  37  1   
 37  21  23  1   
 38  21  38  1   
 39  21  39  1   
 40  22  24  1   
 41  22  40  1   
 42  22  41  1   
 43  23  24  2   
 44  23  42  1   
 45  24  43  1   
@<TRIPOS>SUBSTRUCTURE
  1 ****  12 GROUP 4 **** **** 0

# MOE 2024.06 (io_trps.svl 2023.06)
