@<TRIPOS>MOLECULE
NONAME
47 49 1 0 0 
SMALL
USER_CHARGES


@<TRIPOS>ATOM
  1 CL      -1.5210     1.8230    -4.0140 Cl    1 <1>  -0.1770 
  2 C       -1.2260     2.5830    -2.4710 C.ar  1 <1>   0.1770 
  3 C       -2.2240     3.3310    -1.8820 C.ar  1 <1>  -0.1500 
  4 C        0.0020     2.4180    -1.8630 C.ar  1 <1>  -0.1500 
  5 C       -2.0060     3.9420    -0.6510 C.ar  1 <1>   0.1170 
  6 C        0.2290     3.0190    -0.6380 C.ar  1 <1>  -0.1500 
  7 N       -3.0030     4.6980    -0.0130 N.am  1 <1>  -0.5470 
  8 C       -0.7630     3.7760    -0.0300 C.ar  1 <1>  -0.1430 
  9 C       -4.0890     5.3600    -0.4930 C.2   1 <1>   0.6900 
 10 C       -0.4600     4.4210     1.3180 C.3   1 <1>  -0.0960 
 11 O       -4.3730     5.4190    -1.6730 O.2   1 <1>  -0.5700 
 12 N       -4.9200     5.9560     0.4080 N.am  1 <1>  -0.6600 
 13 C       -5.4430     7.3100     0.0580 C.3   1 <1>   0.1400 
 14 C       -5.9490     5.0840     1.0380 C.3   1 <1>   0.1400 
 15 C       -6.6720     7.1960    -0.8680 C.3   1 <1>   0.3430 
 16 C       -7.1750     4.9540     0.1100 C.3   1 <1>   0.3430 
 17 N       -7.7370     6.2970    -0.2940 N.4   1 <1>  -0.9590 
 18 C       -8.8650     6.1340    -1.2490 C.3   1 <1>   0.4860 
 19 C       -9.9790     5.3780    -0.5520 C.ar  1 <1>  -0.1430 
 20 C      -10.2090     4.0430    -0.8520 C.ar  1 <1>  -0.1500 
 21 C      -10.7700     6.0120     0.3970 C.ar  1 <1>  -0.1500 
 22 C      -11.2100     3.3450    -0.2000 C.ar  1 <1>  -0.1500 
 23 C      -11.7710     5.3110     1.0470 C.ar  1 <1>  -0.1500 
 24 C      -11.9890     3.9780     0.7510 C.ar  1 <1>  -0.1500 
 25 H       -3.1630     3.4260    -2.3920 H     1 <1>   0.1500 
 26 H        0.7630     1.8300    -2.3430 H     1 <1>   0.1500 
 27 H        1.1870     2.8900    -0.1640 H     1 <1>   0.1500 
 28 H       -2.8190     4.9030     0.9640 H     1 <1>   0.3700 
 29 H       -0.6060     5.4850     1.2610 H     1 <1>   0.0800 
 30 H        0.5590     4.2410     1.6110 H     1 <1>   0.0800 
 31 H       -1.1030     4.0130     2.0770 H     1 <1>   0.0800 
 32 H       -4.6730     7.8700    -0.4470 H     1 <1>   0.0800 
 33 H       -5.7010     7.8420     0.9570 H     1 <1>   0.0800 
 34 H       -6.2430     5.4950     1.9880 H     1 <1>   0.0800 
 35 H       -5.5350     4.1050     1.2160 H     1 <1>   0.0800 
 36 H       -6.3380     6.8000    -1.8140 H     1 <1>   0.0800 
 37 H       -7.0740     8.1790    -1.0460 H     1 <1>   0.0800 
 38 H       -7.9340     4.3730     0.6080 H     1 <1>   0.0800 
 39 H       -6.8710     4.4130    -0.7720 H     1 <1>   0.0800 
 40 H       -8.1260     6.7310     0.5520 H     1 <1>   0.4500 
 41 H       -8.5400     5.5910    -2.1220 H     1 <1>   0.0800 
 42 H       -9.2320     7.0980    -1.5630 H     1 <1>   0.0800 
 43 H       -9.6200     3.5300    -1.5940 H     1 <1>   0.1500 
 44 H      -10.6280     7.0510     0.6390 H     1 <1>   0.1500 
 45 H      -11.3900     2.3090    -0.4330 H     1 <1>   0.1500 
 46 H      -12.3870     5.8010     1.7830 H     1 <1>   0.1500 
 47 H      -12.7700     3.4350     1.2570 H     1 <1>   0.1500 
@<TRIPOS>BOND
  1   1   2  1   
  2   2   3  ar  
  3   2   4  ar  
  4   3   5  ar  
  5   3  25  1   
  6   4   6  ar  
  7   4  26  1   
  8   5   7  1   
  9   5   8  ar  
 10   6   8  ar  
 11   6  27  1   
 12   7   9  am  
 13   7  28  1   
 14   8  10  1   
 15   9  11  2   
 16   9  12  am  
 17  10  29  1   
 18  10  30  1   
 19  10  31  1   
 20  12  13  1   
 21  12  14  1   
 22  13  15  1   
 23  13  32  1   
 24  13  33  1   
 25  14  16  1   
 26  14  34  1   
 27  14  35  1   
 28  15  17  1   
 29  15  36  1   
 30  15  37  1   
 31  16  17  1   
 32  16  38  1   
 33  16  39  1   
 34  17  18  1   
 35  17  40  1   
 36  18  19  1   
 37  18  41  1   
 38  18  42  1   
 39  19  20  ar  
 40  19  21  ar  
 41  20  22  ar  
 42  20  43  1   
 43  21  23  ar  
 44  21  44  1   
 45  22  24  ar  
 46  22  45  1   
 47  23  24  ar  
 48  23  46  1   
 49  24  47  1   
@<TRIPOS>SUBSTRUCTURE
  1 ****   9 GROUP 4 **** **** 0

# MOE 2024.06 (io_trps.svl 2023.06)
