@<TRIPOS>MOLECULE
NONAME
50 52 1 0 0 
SMALL
USER_CHARGES


@<TRIPOS>ATOM
  1 CL       1.7760    -1.8970    -3.2910 Cl    1 <1>  -0.1770 
  2 C        2.1120    -1.4910    -1.6220 C.ar  1 <1>   0.1770 
  3 C        3.1710    -2.0830    -0.9440 C.ar  1 <1>  -0.1440 
  4 C        1.2830    -0.5630    -1.0210 C.ar  1 <1>  -0.1500 
  5 C        3.4080    -1.6990     0.3810 C.ar  1 <1>   0.1170 
  6 C        4.0370    -3.1270    -1.6480 C.3   1 <1>  -0.0970 
  7 C        1.5080    -0.2030     0.2940 C.ar  1 <1>  -0.1500 
  8 N        4.4580    -2.2120     1.1520 N.am  1 <1>  -0.5470 
  9 C        2.5640    -0.7700     0.9830 C.ar  1 <1>  -0.1500 
 10 C        5.7950    -2.0980     0.9440 C.2   1 <1>   0.6900 
 11 O        6.2710    -1.5840    -0.0500 O.2   1 <1>  -0.5700 
 12 N        6.6410    -2.5630     1.9020 N.am  1 <1>  -0.6600 
 13 C        7.5100    -3.7080     1.5080 C.3   1 <1>   0.1400 
 14 C        7.3740    -1.5260     2.6820 C.3   1 <1>   0.1400 
 15 C        8.7480    -3.2110     0.7280 C.3   1 <1>   0.3430 
 16 C        8.6090    -1.0290     1.8980 C.3   1 <1>   0.3430 
 17 N        9.5220    -2.1580     1.4880 N.4   1 <1>  -0.9590 
 18 C       10.6550    -1.6090     0.6790 C.3   1 <1>   0.3430 
 19 C       11.7520    -2.6480     0.4310 C.3   1 <1>  -0.0170 
 20 C       12.9080    -1.9680    -0.2750 C.ar  1 <1>  -0.1430 
 21 C       13.9930    -1.4950     0.4490 C.ar  1 <1>  -0.1500 
 22 C       12.8850    -1.8060    -1.6520 C.ar  1 <1>  -0.1500 
 23 C       15.0400    -0.8610    -0.1980 C.ar  1 <1>  -0.1500 
 24 C       13.9320    -1.1710    -2.2980 C.ar  1 <1>  -0.1500 
 25 C       15.0090    -0.6980    -1.5710 C.ar  1 <1>  -0.1500 
 26 H        0.4720    -0.1310    -1.5800 H     1 <1>   0.1500 
 27 H        3.4500    -3.7260    -2.3200 H     1 <1>   0.0800 
 28 H        4.4920    -3.7970    -0.9430 H     1 <1>   0.0800 
 29 H        4.8100    -2.6340    -2.2090 H     1 <1>   0.0800 
 30 H        0.8680     0.5170     0.7750 H     1 <1>   0.1500 
 31 H        4.2100    -2.5700     2.0710 H     1 <1>   0.3700 
 32 H        2.7390    -0.4800     2.0030 H     1 <1>   0.1500 
 33 H        6.9490    -4.3830     0.8840 H     1 <1>   0.0800 
 34 H        7.8160    -4.2500     2.3860 H     1 <1>   0.0800 
 35 H        7.6740    -1.9310     3.6330 H     1 <1>   0.0800 
 36 H        6.7190    -0.6920     2.8700 H     1 <1>   0.0800 
 37 H        8.4080    -2.7990    -0.2090 H     1 <1>   0.0800 
 38 H        9.3830    -4.0520     0.5080 H     1 <1>   0.0800 
 39 H        9.1490    -0.3200     2.5030 H     1 <1>   0.0800 
 40 H        8.2590    -0.5130     1.0180 H     1 <1>   0.0800 
 41 H        9.9010    -2.5850     2.3430 H     1 <1>   0.4500 
 42 H       11.0960    -0.7740     1.1990 H     1 <1>   0.0800 
 43 H       10.2890    -1.2460    -0.2690 H     1 <1>   0.0800 
 44 H       11.3900    -3.4480    -0.1880 H     1 <1>   0.0800 
 45 H       12.0950    -3.0580     1.3640 H     1 <1>   0.0800 
 46 H       14.0410    -1.6140     1.5170 H     1 <1>   0.1500 
 47 H       12.0600    -2.1700    -2.2390 H     1 <1>   0.1500 
 48 H       15.8820    -0.4960     0.3660 H     1 <1>   0.1500 
 49 H       13.9120    -1.0460    -3.3670 H     1 <1>   0.1500 
 50 H       15.8240    -0.2050    -2.0730 H     1 <1>   0.1500 
@<TRIPOS>BOND
  1   1   2  1   
  2   2   3  ar  
  3   2   4  ar  
  4   3   5  ar  
  5   3   6  1   
  6   4   7  ar  
  7   4  26  1   
  8   5   8  1   
  9   5   9  ar  
 10   6  27  1   
 11   6  28  1   
 12   6  29  1   
 13   7   9  ar  
 14   7  30  1   
 15   8  10  am  
 16   8  31  1   
 17   9  32  1   
 18  10  11  2   
 19  10  12  am  
 20  12  13  1   
 21  12  14  1   
 22  13  15  1   
 23  13  33  1   
 24  13  34  1   
 25  14  16  1   
 26  14  35  1   
 27  14  36  1   
 28  15  17  1   
 29  15  37  1   
 30  15  38  1   
 31  16  17  1   
 32  16  39  1   
 33  16  40  1   
 34  17  18  1   
 35  17  41  1   
 36  18  19  1   
 37  18  42  1   
 38  18  43  1   
 39  19  20  1   
 40  19  44  1   
 41  19  45  1   
 42  20  21  ar  
 43  20  22  ar  
 44  21  23  ar  
 45  21  46  1   
 46  22  24  ar  
 47  22  47  1   
 48  23  25  ar  
 49  23  48  1   
 50  24  25  ar  
 51  24  49  1   
 52  25  50  1   
@<TRIPOS>SUBSTRUCTURE
  1 ****  11 GROUP 4 **** **** 0

# MOE 2024.06 (io_trps.svl 2023.06)
