@<TRIPOS>MOLECULE
NONAME
42 43 1 0 0 
SMALL
USER_CHARGES


@<TRIPOS>ATOM
  1 O        2.5360    -1.8510     0.2720 O.2   1 <1>  -0.5700 
  2 C        1.7670    -2.2850     1.0960 C.2   1 <1>   0.6590 
  3 O        1.1300    -3.4430     0.9890 O.3   1 <1>  -0.4300 
  4 C        1.4710    -1.5170     2.3570 C.3   1 <1>  -0.1790 
  5 C        1.0960    -4.3090    -0.1330 C.3   1 <1>   0.4800 
  6 C        2.4890    -4.5690    -0.6140 C.1   1 <1>  -0.2000 
  7 C        0.2450    -3.6560    -1.2390 C.3   1 <1>  -0.1600 
  8 C        0.4450    -5.6220     0.3310 C.3   1 <1>  -0.1600 
  9 C        3.6160    -4.4980    -0.9830 C.1   1 <1>  -0.2000 
 10 C       -1.2230    -3.4600    -0.8210 C.3   1 <1>  -0.1600 
 11 C       -1.0250    -5.4410     0.7540 C.3   1 <1>  -0.1600 
 12 C        4.9640    -4.0220    -1.3670 C.3   1 <1>   0.5430 
 13 C       -1.8470    -4.7860    -0.3640 C.3   1 <1>  -0.1600 
 14 N        5.1260    -2.7450    -0.6410 N.4   1 <1>  -0.9590 
 15 C        5.9840    -1.7390    -1.2940 C.3   1 <1>   0.3430 
 16 C        5.6090    -2.8990     0.7450 C.3   1 <1>   0.3430 
 17 C        6.3350    -0.7630    -0.1770 C.3   1 <1>  -0.1600 
 18 C        6.0360    -1.4920     1.1370 C.3   1 <1>  -0.1600 
 19 H        2.0180    -0.5930     2.3640 H     1 <1>   0.0800 
 20 H        0.4200    -1.3030     2.4060 H     1 <1>   0.0800 
 21 H        1.7520    -2.1030     3.2120 H     1 <1>   0.0800 
 22 H        0.2680    -4.2910    -2.1070 H     1 <1>   0.0800 
 23 H        0.6740    -2.7130    -1.5250 H     1 <1>   0.0800 
 24 H        1.0120    -6.0350     1.1470 H     1 <1>   0.0800 
 25 H        0.4820    -6.3300    -0.4780 H     1 <1>   0.0800 
 26 H       -1.7850    -3.0660    -1.6500 H     1 <1>   0.0800 
 27 H       -1.2800    -2.7450    -0.0180 H     1 <1>   0.0800 
 28 H       -1.0730    -4.8270     1.6380 H     1 <1>   0.0800 
 29 H       -1.4500    -6.3990     1.0000 H     1 <1>   0.0800 
 30 H        4.9940    -3.8580    -2.4320 H     1 <1>   0.0800 
 31 H        5.7250    -4.7310    -1.0880 H     1 <1>   0.0800 
 32 H       -1.9070    -5.4590    -1.2030 H     1 <1>   0.0800 
 33 H       -2.8500    -4.6100    -0.0150 H     1 <1>   0.0800 
 34 H        4.1660    -2.3460    -0.5530 H     1 <1>   0.4500 
 35 H        5.4720    -1.2460    -2.1060 H     1 <1>   0.0800 
 36 H        6.8840    -2.2050    -1.6630 H     1 <1>   0.0800 
 37 H        6.4610    -3.5580     0.7690 H     1 <1>   0.0800 
 38 H        4.8350    -3.2790     1.3930 H     1 <1>   0.0800 
 39 H        5.7270     0.1220    -0.2620 H     1 <1>   0.0800 
 40 H        7.3700    -0.4750    -0.2470 H     1 <1>   0.0800 
 41 H        6.8910    -1.5200     1.7900 H     1 <1>   0.0800 
 42 H        5.2250    -1.0060     1.6540 H     1 <1>   0.0800 
@<TRIPOS>BOND
  1   1   2  2   
  2   2   3  1   
  3   2   4  1   
  4   3   5  1   
  5   4  19  1   
  6   4  20  1   
  7   4  21  1   
  8   5   6  1   
  9   5   7  1   
 10   5   8  1   
 11   6   9  3   
 12   7  10  1   
 13   7  22  1   
 14   7  23  1   
 15   8  11  1   
 16   8  24  1   
 17   8  25  1   
 18   9  12  1   
 19  10  13  1   
 20  10  26  1   
 21  10  27  1   
 22  11  13  1   
 23  11  28  1   
 24  11  29  1   
 25  12  14  1   
 26  12  30  1   
 27  12  31  1   
 28  13  32  1   
 29  13  33  1   
 30  14  15  1   
 31  14  16  1   
 32  14  34  1   
 33  15  17  1   
 34  15  35  1   
 35  15  36  1   
 36  16  18  1   
 37  16  37  1   
 38  16  38  1   
 39  17  18  1   
 40  17  39  1   
 41  17  40  1   
 42  18  41  1   
 43  18  42  1   
@<TRIPOS>SUBSTRUCTURE
  1 ****   6 GROUP 4 **** **** 0

# MOE 2024.06 (io_trps.svl 2023.06)
