@<TRIPOS>MOLECULE
NONAME
43 44 1 0 0 
SMALL
USER_CHARGES


@<TRIPOS>ATOM
  1 S        0.0240     0.0440    -0.3620 S.o2  1 <1>   1.4470 
  2 O       -0.0980     0.9880     0.7250 O.2   1 <1>  -0.6500 
  3 O       -0.3770     0.4220    -1.6990 O.2   1 <1>  -0.6500 
  4 N       -1.0590    -1.1370     0.1230 N.am  1 <1>  -0.9140 
  5 C        1.6260    -0.8030    -0.3770 C.ar  1 <1>  -0.0090 
  6 C       -2.4140    -0.7940    -0.2700 C.3   1 <1>   0.3760 
  7 C        2.8050    -0.0700    -0.3750 C.ar  1 <1>   0.0830 
  8 C        1.7230    -2.1890    -0.4190 C.ar  1 <1>  -0.1500 
  9 C       -3.4040    -1.7420     0.3870 C.2   1 <1>  -0.0400 
 10 O        2.6970     1.2830    -0.3690 O.3   1 <1>  -0.3630 
 11 C        4.0340    -0.7220    -0.3850 C.ar  1 <1>  -0.1500 
 12 C        2.9400    -2.8570    -0.4300 C.ar  1 <1>  -0.1430 
 13 O       -4.6910    -1.4680     0.2860 O.3   1 <1>  -0.2800 
 14 C       -3.2220    -2.8790     1.0960 C.2   1 <1>  -0.1500 
 15 C        3.8210     2.1330    -0.3550 C.3   1 <1>   0.0400 
 16 C        4.1130    -2.1040    -0.4100 C.ar  1 <1>  -0.1430 
 17 C        2.9360    -4.3920    -0.4700 C.3   1 <1>   0.0630 
 18 C       -5.3540    -2.4130     0.9230 C.2   1 <1>  -0.0100 
 19 C       -4.5040    -3.3190     1.4500 C.2   1 <1>  -0.1500 
 20 C        5.4960    -2.7420    -0.4190 C.3   1 <1>  -0.0970 
 21 C        2.2770    -4.9050    -1.7550 C.3   1 <1>  -0.2400 
 22 C        2.2380    -4.9720     0.7660 C.3   1 <1>  -0.2400 
 23 H       -1.0480    -1.0410     1.1360 H     1 <1>   0.4200 
 24 H       -2.5180    -0.8610    -1.3400 H     1 <1>   0.0800 
 25 H       -2.6430     0.2150     0.0340 H     1 <1>   0.0800 
 26 H        0.8160    -2.7660    -0.4460 H     1 <1>   0.1500 
 27 H        4.9450    -0.1560    -0.3760 H     1 <1>   0.1500 
 28 H       -2.3010    -3.3740     1.3500 H     1 <1>   0.1500 
 29 H        3.4690     3.1490    -0.3470 H     1 <1>   0.0800 
 30 H        4.4050     1.9570    -1.2410 H     1 <1>   0.0800 
 31 H        4.3960     1.9390     0.5330 H     1 <1>   0.0800 
 32 H        3.9410    -4.7680    -0.4640 H     1 <1>   0.0800 
 33 H       -6.4280    -2.3630     0.9530 H     1 <1>   0.1500 
 34 H       -4.7280    -4.2020     2.0220 H     1 <1>   0.1500 
 35 H        6.2710    -1.9980    -0.3990 H     1 <1>   0.0800 
 36 H        5.6240    -3.3330    -1.3080 H     1 <1>   0.0800 
 37 H        5.6170    -3.3720     0.4450 H     1 <1>   0.0800 
 38 H        1.2370    -4.6360    -1.7920 H     1 <1>   0.0800 
 39 H        2.3550    -5.9760    -1.8120 H     1 <1>   0.0800 
 40 H        2.7700    -4.4810    -2.6110 H     1 <1>   0.0800 
 41 H        1.1960    -4.7100     0.7830 H     1 <1>   0.0800 
 42 H        2.7030    -4.5920     1.6580 H     1 <1>   0.0800 
 43 H        2.3200    -6.0440     0.7690 H     1 <1>   0.0800 
@<TRIPOS>BOND
  1   1   2  2   
  2   1   3  2   
  3   1   4  am  
  4   1   5  1   
  5   4   6  1   
  6   4  23  1   
  7   5   7  ar  
  8   5   8  ar  
  9   6   9  1   
 10   6  24  1   
 11   6  25  1   
 12   7  10  1   
 13   7  11  ar  
 14   8  12  ar  
 15   8  26  1   
 16   9  13  1   
 17   9  14  2   
 18  10  15  1   
 19  11  16  ar  
 20  11  27  1   
 21  12  16  ar  
 22  12  17  1   
 23  13  18  1   
 24  14  19  1   
 25  14  28  1   
 26  15  29  1   
 27  15  30  1   
 28  15  31  1   
 29  16  20  1   
 30  17  21  1   
 31  17  22  1   
 32  17  32  1   
 33  18  19  2   
 34  18  33  1   
 35  19  34  1   
 36  20  35  1   
 37  20  36  1   
 38  20  37  1   
 39  21  38  1   
 40  21  39  1   
 41  21  40  1   
 42  22  41  1   
 43  22  42  1   
 44  22  43  1   
@<TRIPOS>SUBSTRUCTURE
  1 ****   5 GROUP 4 **** **** 0

# MOE 2024.06 (io_trps.svl 2023.06)
