@<TRIPOS>MOLECULE
NONAME
49 51 1 0 0 
SMALL
USER_CHARGES


@<TRIPOS>ATOM
  1 S        0.3500     1.9040    -0.5720 S.3   1 <1>  -0.2860 
  2 C       -1.3620     1.3870    -0.4130 C.2   1 <1>   0.2420 
  3 C        1.2250     0.3020    -0.9400 C.3   1 <1>   0.1310 
  4 N       -1.7310     0.1610    -0.5000 N.2   1 <1>  -0.3380 
  5 N       -2.3620     2.2360    -0.1890 N.pl3 1 <1>   0.0480 
  6 C        2.7300     0.4960    -1.0290 C.2   1 <1>   0.5690 
  7 N       -3.0500     0.1690    -0.3230 N.2   1 <1>  -0.3380 
  8 C       -3.4300     1.4060    -0.1340 C.2   1 <1>   0.1860 
  9 C       -2.2730     3.7100    -0.0560 C.3   1 <1>   0.0960 
 10 O        3.3580    -0.2830    -1.7020 O.2   1 <1>  -0.5700 
 11 N        3.2930     1.5380    -0.3420 N.am  1 <1>  -0.5470 
 12 C       -4.8000     1.7900     0.1030 C.2   1 <1>   0.1400 
 13 C       -2.1470     4.1140     1.4170 C.3   1 <1>  -0.2400 
 14 C        4.6250     1.9690    -0.2050 C.ar  1 <1>   0.1170 
 15 O       -5.1520     3.0510     0.3340 O.3   1 <1>  -0.2800 
 16 C       -5.9200     1.0180     0.1410 C.2   1 <1>  -0.1500 
 17 C        4.8830     3.2960     0.1420 C.ar  1 <1>  -0.1430 
 18 C        5.6990     1.1040    -0.3860 C.ar  1 <1>  -0.1500 
 19 C       -6.4550     3.1000     0.5160 C.2   1 <1>  -0.0100 
 20 C       -6.9940     1.8690     0.4090 C.2   1 <1>  -0.1500 
 21 C        6.1910     3.7270     0.2980 C.ar  1 <1>  -0.1500 
 22 C        3.7480     4.2920     0.3520 C.3   1 <1>  -0.0970 
 23 C        7.0070     1.5320    -0.2350 C.ar  1 <1>  -0.1430 
 24 C        7.2590     2.8540     0.1110 C.ar  1 <1>   0.0830 
 25 C        8.1520     0.5520    -0.4470 C.3   1 <1>  -0.0970 
 26 O        8.5620     3.2320     0.2520 O.3   1 <1>  -0.3630 
 27 C        8.9130     4.5610     0.5660 C.3   1 <1>   0.0400 
 28 H        0.8380    -0.0650    -1.8720 H     1 <1>   0.0800 
 29 H        0.9840    -0.3860    -0.1510 H     1 <1>   0.0800 
 30 H       -3.1440     4.1600    -0.4960 H     1 <1>   0.0800 
 31 H       -1.4160     4.0610    -0.6030 H     1 <1>   0.0800 
 32 H        2.6130     2.1620     0.0900 H     1 <1>   0.3700 
 33 H       -3.0090     3.7870     1.9710 H     1 <1>   0.0800 
 34 H       -2.0820     5.1850     1.4940 H     1 <1>   0.0800 
 35 H       -1.2610     3.6860     1.8510 H     1 <1>   0.0800 
 36 H       -5.9800    -0.0460    -0.0050 H     1 <1>   0.1500 
 37 H        5.5110     0.0800    -0.6470 H     1 <1>   0.1500 
 38 H       -6.9200     4.0500     0.7180 H     1 <1>   0.1500 
 39 H       -8.0230     1.5710     0.5040 H     1 <1>   0.1500 
 40 H        6.3690     4.7500     0.5650 H     1 <1>   0.1500 
 41 H        3.1280     4.3350    -0.5250 H     1 <1>   0.0800 
 42 H        4.1300     5.2800     0.5390 H     1 <1>   0.0800 
 43 H        3.1500     3.9980     1.1960 H     1 <1>   0.0800 
 44 H        7.7860    -0.4210    -0.7210 H     1 <1>   0.0800 
 45 H        8.7260     0.4630     0.4570 H     1 <1>   0.0800 
 46 H        8.7940     0.9100    -1.2310 H     1 <1>   0.0800 
 47 H        9.9850     4.6210     0.6090 H     1 <1>   0.0800 
 48 H        8.4940     4.8150     1.5230 H     1 <1>   0.0800 
 49 H        8.5410     5.2110    -0.2060 H     1 <1>   0.0800 
@<TRIPOS>BOND
  1   1   2  1   
  2   1   3  1   
  3   2   4  2   
  4   2   5  1   
  5   3   6  1   
  6   3  28  1   
  7   3  29  1   
  8   4   7  1   
  9   5   8  1   
 10   5   9  1   
 11   6  10  2   
 12   6  11  am  
 13   7   8  2   
 14   8  12  1   
 15   9  13  1   
 16   9  30  1   
 17   9  31  1   
 18  11  14  1   
 19  11  32  1   
 20  12  15  1   
 21  12  16  2   
 22  13  33  1   
 23  13  34  1   
 24  13  35  1   
 25  14  17  ar  
 26  14  18  ar  
 27  15  19  1   
 28  16  20  1   
 29  16  36  1   
 30  17  21  ar  
 31  17  22  1   
 32  18  23  ar  
 33  18  37  1   
 34  19  20  2   
 35  19  38  1   
 36  20  39  1   
 37  21  24  ar  
 38  21  40  1   
 39  22  41  1   
 40  22  42  1   
 41  22  43  1   
 42  23  24  ar  
 43  23  25  1   
 44  24  26  1   
 45  25  44  1   
 46  25  45  1   
 47  25  46  1   
 48  26  27  1   
 49  27  47  1   
 50  27  48  1   
 51  27  49  1   
@<TRIPOS>SUBSTRUCTURE
  1 ****   1 GROUP 4 **** **** 0

# MOE 2024.06 (io_trps.svl 2023.06)
