@<TRIPOS>MOLECULE
NONAME
36 36 1 0 0 
SMALL
USER_CHARGES


@<TRIPOS>ATOM
  1 O        0.3980    -0.3450    -0.0020 O.3   1 <1>  -0.3630 
  2 C       -0.8630    -0.8530    -0.0040 C.ar  1 <1>   0.0830 
  3 C        1.5200    -1.1900    -0.0090 C.3   1 <1>   0.1200 
  4 C       -1.9020     0.0640     0.0040 C.ar  1 <1>  -0.1500 
  5 C       -1.1510    -2.2160    -0.0120 C.ar  1 <1>  -0.1500 
  6 C        2.7580    -0.2910    -0.0060 C.3   1 <1>   0.3430 
  7 C       -3.2190    -0.3620     0.0030 C.ar  1 <1>  -0.1500 
  8 C       -2.4690    -2.6400    -0.0130 C.ar  1 <1>  -0.1500 
  9 N        4.0260    -1.0840    -0.0120 N.4   1 <1>  -0.9060 
 10 C       -3.5080    -1.7240    -0.0050 C.ar  1 <1>   0.0830 
 11 C        5.2230    -0.1870    -0.0080 C.3   1 <1>   0.3430 
 12 O       -4.7680    -2.2310    -0.0060 O.3   1 <1>  -0.3630 
 13 C        6.5330    -0.9800    -0.0150 C.3   1 <1>   0.1200 
 14 C       -5.8940    -1.3830     0.0010 C.3   1 <1>   0.0400 
 15 O        7.5610    -0.0520    -0.0110 O.3   1 <1>  -0.5600 
 16 C        8.8410    -0.6050    -0.0170 C.3   1 <1>   0.0400 
 17 H        1.4780    -1.7910    -0.9010 H     1 <1>   0.0800 
 18 H        1.4810    -1.8020     0.8750 H     1 <1>   0.0800 
 19 H       -1.6780     1.1150     0.0100 H     1 <1>   0.1500 
 20 H       -0.3810    -2.9620    -0.0180 H     1 <1>   0.1500 
 21 H        2.7260     0.3340     0.8730 H     1 <1>   0.0800 
 22 H        2.7240     0.3450    -0.8760 H     1 <1>   0.0800 
 23 H       -3.9990     0.3750     0.0090 H     1 <1>   0.1500 
 24 H       -2.7050    -3.6890    -0.0190 H     1 <1>   0.1500 
 25 H        4.0550    -1.6840    -0.8470 H     1 <1>   0.4500 
 26 H        4.0570    -1.6950     0.8150 H     1 <1>   0.4500 
 27 H        5.2070     0.4380     0.8700 H     1 <1>   0.0800 
 28 H        5.2040     0.4490    -0.8790 H     1 <1>   0.0800 
 29 H        6.6210    -1.5780    -0.9060 H     1 <1>   0.0800 
 30 H        6.6240    -1.5890     0.8670 H     1 <1>   0.0800 
 31 H       -6.7750    -1.9990    -0.0020 H     1 <1>   0.0800 
 32 H       -5.8750    -0.7690    -0.8820 H     1 <1>   0.0800 
 33 H       -5.8720    -0.7810     0.8920 H     1 <1>   0.0800 
 34 H        9.5550     0.2020    -0.0130 H     1 <1>   0.0800 
 35 H        8.9740    -1.1960    -0.9060 H     1 <1>   0.0800 
 36 H        8.9770    -1.2080     0.8650 H     1 <1>   0.0800 
@<TRIPOS>BOND
  1   1   2  1   
  2   1   3  1   
  3   2   4  ar  
  4   2   5  ar  
  5   3   6  1   
  6   3  17  1   
  7   3  18  1   
  8   4   7  ar  
  9   4  19  1   
 10   5   8  ar  
 11   5  20  1   
 12   6   9  1   
 13   6  21  1   
 14   6  22  1   
 15   7  10  ar  
 16   7  23  1   
 17   8  10  ar  
 18   8  24  1   
 19   9  11  1   
 20   9  25  1   
 21   9  26  1   
 22  10  12  1   
 23  11  13  1   
 24  11  27  1   
 25  11  28  1   
 26  12  14  1   
 27  13  15  1   
 28  13  29  1   
 29  13  30  1   
 30  14  31  1   
 31  14  32  1   
 32  14  33  1   
 33  15  16  1   
 34  16  34  1   
 35  16  35  1   
 36  16  36  1   
@<TRIPOS>SUBSTRUCTURE
  1 ****   3 GROUP 4 **** **** 0

# MOE 2024.06 (io_trps.svl 2023.06)
