@<TRIPOS>MOLECULE
NONAME
33 35 1 0 0 
SMALL
USER_CHARGES


@<TRIPOS>ATOM
  1 O       -1.3090     0.2860    -0.9630 O.2   1 <1>  -0.5700 
  2 C       -1.3760     1.2340    -0.2240 C.2   1 <1>   0.5700 
  3 N       -2.0330     2.3560    -0.5790 N.am  1 <1>  -0.7300 
  4 C       -2.2750     3.5220     0.2640 C.3   1 <1>   0.4000 
  5 C       -3.7500     3.8450     0.1960 C.2   1 <1>  -0.3320 
  6 C       -1.4550     4.7130    -0.2620 C.3   1 <1>  -0.1600 
  7 N       -4.7670     2.9380     0.3030 N.pl3 1 <1>   0.0330 
  8 C       -4.2650     5.0820     0.0250 C.2   1 <1>  -0.1810 
  9 C       -1.9710     6.0630     0.2850 C.3   1 <1>  -0.1600 
 10 C       -5.9530     3.6190     0.1900 C.ar  1 <1>  -0.1520 
 11 C       -5.6720     4.9700     0.0140 C.ar  1 <1>   0.0000 
 12 C       -3.4300     6.3380    -0.1320 C.3   1 <1>   0.0210 
 13 C       -7.2730     3.1630     0.2250 C.ar  1 <1>  -0.1500 
 14 C       -6.7220     5.8820    -0.1300 C.ar  1 <1>  -0.1500 
 15 C       -8.2950     4.0730     0.0830 C.ar  1 <1>  -0.1500 
 16 C       -8.0250     5.4370    -0.0950 C.ar  1 <1>  -0.1430 
 17 C       -9.1860     6.4020    -0.2480 C.3   1 <1>  -0.0970 
 18 H       -0.9090     1.1820     0.7440 H     1 <1>   0.0600 
 19 H       -2.4740     2.3910    -1.4990 H     1 <1>   0.3700 
 20 H       -2.0040     3.3070     1.2850 H     1 <1>   0.0800 
 21 H       -1.5180     4.7390    -1.3360 H     1 <1>   0.0800 
 22 H       -0.4250     4.5810     0.0140 H     1 <1>   0.0800 
 23 H       -4.6680     1.9230     0.4090 H     1 <1>   0.2700 
 24 H       -1.3440     6.8650    -0.0650 H     1 <1>   0.0800 
 25 H       -1.9170     6.0470     1.3600 H     1 <1>   0.0800 
 26 H       -3.8400     7.1280     0.4710 H     1 <1>   0.0800 
 27 H       -3.4650     6.6440    -1.1630 H     1 <1>   0.0800 
 28 H       -7.4780     2.1170     0.3610 H     1 <1>   0.1500 
 29 H       -6.4860     6.9200    -0.2650 H     1 <1>   0.1500 
 30 H       -9.3170     3.7400     0.1070 H     1 <1>   0.1500 
 31 H       -8.8330     7.4100    -0.3760 H     1 <1>   0.0800 
 32 H       -9.8090     6.3660     0.6280 H     1 <1>   0.0800 
 33 H       -9.7740     6.1330    -1.1060 H     1 <1>   0.0800 
@<TRIPOS>BOND
  1   1   2  2   
  2   2   3  am  
  3   2  18  1   
  4   3   4  1   
  5   3  19  1   
  6   4   5  1   
  7   4   6  1   
  8   4  20  1   
  9   5   7  1   
 10   5   8  2   
 11   6   9  1   
 12   6  21  1   
 13   6  22  1   
 14   7  10  1   
 15   7  23  1   
 16   8  11  1   
 17   8  12  1   
 18   9  12  1   
 19   9  24  1   
 20   9  25  1   
 21  10  11  ar  
 22  10  13  ar  
 23  11  14  ar  
 24  12  26  1   
 25  12  27  1   
 26  13  15  ar  
 27  13  28  1   
 28  14  16  ar  
 29  14  29  1   
 30  15  16  ar  
 31  15  30  1   
 32  16  17  1   
 33  17  31  1   
 34  17  32  1   
 35  17  33  1   
@<TRIPOS>SUBSTRUCTURE
  1 ****   5 GROUP 4 **** **** 0

# MOE 2024.06 (io_trps.svl 2023.06)
