@<TRIPOS>MOLECULE
NONAME
46 48 1 0 0 
SMALL
USER_CHARGES


@<TRIPOS>ATOM
  1 O       -0.6900    -6.1780     2.4670 O.2   1 <1>  -0.5700 
  2 C       -0.4360    -5.1720     1.8550 C.2   1 <1>   0.6590 
  3 O       -1.3780    -4.2680     1.5950 O.3   1 <1>  -0.4300 
  4 C        0.9630    -4.9120     1.2850 C.3   1 <1>   0.1710 
  5 C       -2.7450    -4.4890     1.8570 C.3   1 <1>   0.2000 
  6 N        0.9820    -4.2460    -0.0550 N.3   1 <1>  -0.8100 
  7 C       -3.2900    -5.4670     0.7590 C.3   1 <1>  -0.1600 
  8 C       -3.4090    -3.0790     1.8100 C.3   1 <1>  -0.1600 
  9 C        2.1060    -4.7410    -0.8680 C.3   1 <1>   0.1100 
 10 C        1.0450    -2.7810     0.0870 C.3   1 <1>   0.1100 
 11 C       -3.4720    -4.6570    -0.5280 C.3   1 <1>   0.4230 
 12 C       -3.9770    -2.6410     0.4340 C.3   1 <1>   0.4230 
 13 C        2.0480    -4.1380    -2.2740 C.3   1 <1>  -0.1600 
 14 C        0.9550    -2.1080    -1.2870 C.3   1 <1>  -0.1600 
 15 N       -4.6330    -3.8470    -0.0490 N.4   1 <1>  -0.9590 
 16 C       -2.9380    -3.6510    -1.5410 C.3   1 <1>  -0.1600 
 17 C       -2.9750    -2.3510    -0.7020 C.3   1 <1>  -0.1600 
 18 C        2.0610    -2.6060    -2.2230 C.3   1 <1>  -0.1600 
 19 C       -5.7500    -3.6160    -1.0270 C.3   1 <1>   0.2630 
 20 H        1.4400    -5.8730     1.2120 H     1 <1>   0.0800 
 21 H        1.5250    -4.3320     1.9950 H     1 <1>   0.0800 
 22 H       -2.8250    -4.9180     2.8440 H     1 <1>   0.0800 
 23 H       -4.2050    -5.9420     1.0710 H     1 <1>   0.0800 
 24 H       -2.5820    -6.2600     0.5880 H     1 <1>   0.0800 
 25 H       -2.7240    -2.3340     2.1770 H     1 <1>   0.0800 
 26 H       -4.2340    -3.0880     2.4990 H     1 <1>   0.0800 
 27 H        2.0490    -5.8140    -0.9490 H     1 <1>   0.0800 
 28 H        3.0410    -4.4840    -0.3980 H     1 <1>   0.0800 
 29 H        1.9700    -2.5000     0.5630 H     1 <1>   0.0800 
 30 H        0.2320    -2.4380     0.7030 H     1 <1>   0.0800 
 31 H       -2.4980    -4.3810    -0.1810 H     1 <1>   0.0800 
 32 H       -4.6730    -1.8270     0.5560 H     1 <1>   0.0800 
 33 H        1.1520    -4.4800    -2.7620 H     1 <1>   0.0800 
 34 H        2.8880    -4.4870    -2.8470 H     1 <1>   0.0800 
 35 H        1.0360    -1.0420    -1.1690 H     1 <1>   0.0800 
 36 H       -0.0040    -2.3210    -1.7210 H     1 <1>   0.0800 
 37 H       -5.0280    -4.3280     0.7640 H     1 <1>   0.4500 
 38 H       -3.5460    -3.6000    -2.4270 H     1 <1>   0.0800 
 39 H       -1.9320    -3.8950    -1.8470 H     1 <1>   0.0800 
 40 H       -2.0090    -2.1200    -0.2890 H     1 <1>   0.0800 
 41 H       -3.3000    -1.5170    -1.2990 H     1 <1>   0.0800 
 42 H        1.9190    -2.2030    -3.2110 H     1 <1>   0.0800 
 43 H        3.0160    -2.2690    -1.8580 H     1 <1>   0.0800 
 44 H       -6.1070    -4.5570    -1.4110 H     1 <1>   0.0800 
 45 H       -5.4180    -3.0100    -1.8530 H     1 <1>   0.0800 
 46 H       -6.5680    -3.1080    -0.5430 H     1 <1>   0.0800 
@<TRIPOS>BOND
  1   1   2  2   
  2   2   3  1   
  3   2   4  1   
  4   3   5  1   
  5   4   6  1   
  6   4  20  1   
  7   4  21  1   
  8   5   7  1   
  9   5   8  1   
 10   5  22  1   
 11   6   9  1   
 12   6  10  1   
 13   7  11  1   
 14   7  23  1   
 15   7  24  1   
 16   8  12  1   
 17   8  25  1   
 18   8  26  1   
 19   9  13  1   
 20   9  27  1   
 21   9  28  1   
 22  10  14  1   
 23  10  29  1   
 24  10  30  1   
 25  11  15  1   
 26  11  16  1   
 27  11  31  1   
 28  12  15  1   
 29  12  17  1   
 30  12  32  1   
 31  13  18  1   
 32  13  33  1   
 33  13  34  1   
 34  14  18  1   
 35  14  35  1   
 36  14  36  1   
 37  15  19  1   
 38  15  37  1   
 39  16  17  1   
 40  16  38  1   
 41  16  39  1   
 42  17  40  1   
 43  17  41  1   
 44  18  42  1   
 45  18  43  1   
 46  19  44  1   
 47  19  45  1   
 48  19  46  1   
@<TRIPOS>SUBSTRUCTURE
  1 ****   3 GROUP 4 **** **** 0

# MOE 2024.06 (io_trps.svl 2023.06)
