@<TRIPOS>MOLECULE
NONAME
39 40 1 0 0 
SMALL
USER_CHARGES


@<TRIPOS>ATOM
  1 S       -0.1290    -0.1390     0.7560 S.o2  1 <1>   1.5760 
  2 O       -0.4260     1.1900     0.2670 O.2   1 <1>  -0.6500 
  3 O       -0.3570    -0.4900     2.1410 O.2   1 <1>  -0.6500 
  4 N        1.4850    -0.4840     0.3980 N.am  1 <1>  -0.8490 
  5 N       -0.8970    -1.2800    -0.2360 N.am  1 <1>  -0.8490 
  6 C        1.8820    -1.8420     0.7940 C.3   1 <1>   0.1960 
  7 C        1.8380    -0.2050    -1.0030 C.3   1 <1>   0.1960 
  8 C       -1.7310    -2.2190     0.5220 C.3   1 <1>   0.1960 
  9 C       -1.6490    -0.6580    -1.3320 C.3   1 <1>   0.1960 
 10 C        3.3880    -2.0790     0.5800 C.3   1 <1>   0.1400 
 11 C        3.3420    -0.4010    -1.2560 C.3   1 <1>   0.1400 
 12 C       -2.2480    -3.3350    -0.3910 C.3   1 <1>  -0.1600 
 13 C       -2.1570    -1.7250    -2.3060 C.3   1 <1>  -0.1600 
 14 N        3.7810    -1.7650    -0.8290 N.am  1 <1>  -0.6600 
 15 C       -3.0180    -2.7710    -1.5890 C.3   1 <1>  -0.1600 
 16 C        4.4020    -2.6200    -1.7000 C.2   1 <1>   0.5690 
 17 O        4.6120    -2.3220    -2.8500 O.2   1 <1>  -0.5700 
 18 C        4.8490    -3.9890    -1.2450 C.3   1 <1>  -0.1790 
 19 H        1.3290    -2.5690     0.2240 H     1 <1>   0.0800 
 20 H        1.6550    -1.9920     1.8360 H     1 <1>   0.0800 
 21 H        1.5790     0.8110    -1.2450 H     1 <1>   0.0800 
 22 H        1.2900    -0.8580    -1.6610 H     1 <1>   0.0800 
 23 H       -2.5570    -1.6920     0.9710 H     1 <1>   0.0800 
 24 H       -1.1500    -2.6660     1.3120 H     1 <1>   0.0800 
 25 H       -1.0120     0.0240    -1.8710 H     1 <1>   0.0800 
 26 H       -2.4780    -0.0950    -0.9330 H     1 <1>   0.0800 
 27 H        3.6190    -3.0980     0.8300 H     1 <1>   0.0800 
 28 H        3.9390    -1.4410     1.2480 H     1 <1>   0.0800 
 29 H        3.8920     0.3370    -0.7000 H     1 <1>   0.0800 
 30 H        3.5460    -0.2450    -2.3010 H     1 <1>   0.0800 
 31 H       -2.8880    -3.9900     0.1740 H     1 <1>   0.0800 
 32 H       -1.4100    -3.9140    -0.7370 H     1 <1>   0.0800 
 33 H       -1.3110    -2.2030    -2.7680 H     1 <1>   0.0800 
 34 H       -2.7330    -1.2530    -3.0820 H     1 <1>   0.0800 
 35 H       -3.9290    -2.3110    -1.2460 H     1 <1>   0.0800 
 36 H       -3.2770    -3.5650    -2.2690 H     1 <1>   0.0800 
 37 H        3.9950    -4.5840    -0.9860 H     1 <1>   0.0800 
 38 H        5.5060    -3.8980    -0.4010 H     1 <1>   0.0800 
 39 H        5.3800    -4.4780    -2.0420 H     1 <1>   0.0800 
@<TRIPOS>BOND
  1   1   2  2   
  2   1   3  2   
  3   1   4  am  
  4   1   5  am  
  5   4   6  1   
  6   4   7  1   
  7   5   8  1   
  8   5   9  1   
  9   6  10  1   
 10   6  19  1   
 11   6  20  1   
 12   7  11  1   
 13   7  21  1   
 14   7  22  1   
 15   8  12  1   
 16   8  23  1   
 17   8  24  1   
 18   9  13  1   
 19   9  25  1   
 20   9  26  1   
 21  10  14  1   
 22  10  27  1   
 23  10  28  1   
 24  11  14  1   
 25  11  29  1   
 26  11  30  1   
 27  12  15  1   
 28  12  31  1   
 29  12  32  1   
 30  13  15  1   
 31  13  33  1   
 32  13  34  1   
 33  14  16  am  
 34  15  35  1   
 35  15  36  1   
 36  16  17  2   
 37  16  18  1   
 38  18  37  1   
 39  18  38  1   
 40  18  39  1   
@<TRIPOS>SUBSTRUCTURE
  1 ****   4 GROUP 4 **** **** 0

# MOE 2024.06 (io_trps.svl 2023.06)
