@<TRIPOS>MOLECULE
NONAME
47 48 1 0 0 
SMALL
USER_CHARGES


@<TRIPOS>ATOM
  1 O       -0.1370    -0.2290    -0.2840 O.3   1 <1>  -0.1650 
  2 C       -1.0860    -1.1730    -0.1890 C.ar  1 <1>   0.7020 
  3 C        1.1710    -0.4800    -0.0710 C.ar  1 <1>   0.3920 
  4 N       -0.7290    -2.4330    -0.2110 N.ar  1 <1>  -0.6200 
  5 N       -2.3020    -0.7160    -0.0780 N.ar  1 <1>  -0.6200 
  6 N        2.0060    -0.0680    -1.0250 N.ar  1 <1>  -0.3100 
  7 C        1.5960    -1.1020     1.0900 C.ar  1 <1>  -0.1500 
  8 C       -1.7320    -3.2590    -0.1110 C.ar  1 <1>   0.7200 
  9 C       -3.2030    -1.6580     0.0190 C.ar  1 <1>   0.7200 
 10 N        3.2980    -0.2730    -0.8900 N.ar  1 <1>  -0.3100 
 11 C        2.9470    -1.3130     1.2290 C.ar  1 <1>  -0.1500 
 12 N       -2.9910    -2.9410     0.0060 N.ar  1 <1>  -0.6200 
 13 N       -1.3800    -4.5620    -0.1360 N.pl3 1 <1>  -0.8690 
 14 N       -4.4980    -1.2960     0.1410 N.pl3 1 <1>  -0.8690 
 15 C        3.7640    -0.8840     0.2060 C.ar  1 <1>   0.3930 
 16 C       -2.2770    -5.7140    -0.2380 C.3   1 <1>   0.2890 
 17 C       -5.0330     0.0520    -0.1040 C.3   1 <1>   0.2090 
 18 O        5.0920    -1.1060     0.3450 O.3   1 <1>  -0.3630 
 19 C       -1.7720    -6.7840     0.7220 C.3   1 <1>  -0.2400 
 20 C       -2.2520    -6.2050    -1.6800 C.3   1 <1>  -0.2400 
 21 C       -6.4960     0.0720     0.3180 C.3   1 <1>  -0.2400 
 22 C        6.0340    -0.6870    -0.6210 C.3   1 <1>   0.2000 
 23 C        7.2620    -1.5800    -0.4670 C.3   1 <1>  -0.2400 
 24 C        6.3820     0.7810    -0.3640 C.3   1 <1>  -0.2400 
 25 H        0.8980    -1.4090     1.8470 H     1 <1>   0.1500 
 26 H        3.3640    -1.7940     2.0940 H     1 <1>   0.1500 
 27 H       -0.4010    -4.7330    -0.3510 H     1 <1>   0.4000 
 28 H       -5.1550    -2.0720     0.0810 H     1 <1>   0.4000 
 29 H       -3.2820    -5.4350     0.0350 H     1 <1>   0.0800 
 30 H       -4.9410     0.2920    -1.1510 H     1 <1>   0.0800 
 31 H       -4.4720     0.7740     0.4670 H     1 <1>   0.0800 
 32 H       -0.7720    -7.0840     0.4670 H     1 <1>   0.0800 
 33 H       -2.4120    -7.6460     0.6790 H     1 <1>   0.0800 
 34 H       -1.7840    -6.4030     1.7280 H     1 <1>   0.0800 
 35 H       -1.2570    -6.4900    -1.9690 H     1 <1>   0.0800 
 36 H       -2.6050    -5.4280    -2.3340 H     1 <1>   0.0800 
 37 H       -2.9000    -7.0560    -1.7870 H     1 <1>   0.0800 
 38 H       -7.0640    -0.6300    -0.2650 H     1 <1>   0.0800 
 39 H       -6.9020     1.0540     0.1610 H     1 <1>   0.0800 
 40 H       -6.5820    -0.1710     1.3630 H     1 <1>   0.0800 
 41 H        5.6170    -0.8200    -1.6060 H     1 <1>   0.0800 
 42 H        7.6790    -1.4800     0.5190 H     1 <1>   0.0800 
 43 H        8.0100    -1.3020    -1.1870 H     1 <1>   0.0800 
 44 H        6.9910    -2.6070    -0.6380 H     1 <1>   0.0800 
 45 H        6.7670     0.9070     0.6320 H     1 <1>   0.0800 
 46 H        5.5120     1.3990    -0.4910 H     1 <1>   0.0800 
 47 H        7.1280     1.1070    -1.0660 H     1 <1>   0.0800 
@<TRIPOS>BOND
  1   1   2  1   
  2   1   3  1   
  3   2   4  ar  
  4   2   5  ar  
  5   3   6  ar  
  6   3   7  ar  
  7   4   8  ar  
  8   5   9  ar  
  9   6  10  ar  
 10   7  11  ar  
 11   7  25  1   
 12   8  12  ar  
 13   8  13  1   
 14   9  12  ar  
 15   9  14  1   
 16  10  15  ar  
 17  11  15  ar  
 18  11  26  1   
 19  13  16  1   
 20  13  27  1   
 21  14  17  1   
 22  14  28  1   
 23  15  18  1   
 24  16  19  1   
 25  16  20  1   
 26  16  29  1   
 27  17  21  1   
 28  17  30  1   
 29  17  31  1   
 30  18  22  1   
 31  19  32  1   
 32  19  33  1   
 33  19  34  1   
 34  20  35  1   
 35  20  36  1   
 36  20  37  1   
 37  21  38  1   
 38  21  39  1   
 39  21  40  1   
 40  22  23  1   
 41  22  24  1   
 42  22  41  1   
 43  23  42  1   
 44  23  43  1   
 45  23  44  1   
 46  24  45  1   
 47  24  46  1   
 48  24  47  1   
@<TRIPOS>SUBSTRUCTURE
  1 ****   4 GROUP 4 **** **** 0

# MOE 2024.06 (io_trps.svl 2023.06)
