@<TRIPOS>MOLECULE
NONAME
53 56 1 0 0 
SMALL
USER_CHARGES


@<TRIPOS>ATOM
  1 O       -1.2010    -2.8570     1.3800 O.2   1 <1>  -0.5700 
  2 C       -1.1980    -2.0800     0.4530 C.2   1 <1>   0.5690 
  3 N       -0.1010    -1.9480    -0.3410 N.am  1 <1>  -0.7300 
  4 C       -2.4540    -1.2440     0.1300 C.3   1 <1>   0.0610 
  5 C        1.1880    -2.7060    -0.2670 C.3   1 <1>   0.2810 
  6 C       -2.1170     0.2690     0.1290 C.3   1 <1>  -0.1600 
  7 C       -3.5840    -1.4810     1.1680 C.3   1 <1>  -0.1600 
  8 C       -3.0040    -1.6280    -1.2680 C.3   1 <1>  -0.1600 
  9 C        1.0620    -4.2100    -0.5910 C.2   1 <1>   0.5690 
 10 C        1.8700    -2.4420     1.0810 C.3   1 <1>  -0.2400 
 11 C       -3.3600     1.1100    -0.2170 C.3   1 <1>  -0.0800 
 12 C       -4.8340    -0.6470     0.8300 C.3   1 <1>  -0.0800 
 13 C       -4.2490    -0.7920    -1.6190 C.3   1 <1>  -0.0800 
 14 O        1.7650    -4.6540    -1.4690 O.2   1 <1>  -0.5700 
 15 N        0.1650    -4.9690     0.1130 N.am  1 <1>  -0.5470 
 16 C       -4.4590     0.8450     0.8280 C.3   1 <1>  -0.1600 
 17 C       -3.8760     0.7020    -1.6100 C.3   1 <1>  -0.1600 
 18 C       -5.3430    -1.0470    -0.5660 C.3   1 <1>  -0.1600 
 19 C       -0.1710    -6.3330     0.0510 C.ar  1 <1>   0.1170 
 20 C       -1.4200    -6.7630     0.5070 C.ar  1 <1>  -0.1440 
 21 C        0.7200    -7.2820    -0.4430 C.ar  1 <1>  -0.1500 
 22 C       -1.7500    -8.1080     0.4580 C.ar  1 <1>  -0.1500 
 23 C       -2.4430    -5.7800     1.0630 C.3   1 <1>  -0.0970 
 24 C        0.3840    -8.6220    -0.4910 C.ar  1 <1>  -0.1500 
 25 C       -0.8540    -9.0370    -0.0400 C.ar  1 <1>  -0.1500 
 26 H       -0.1690    -1.3220    -1.1440 H     1 <1>   0.3700 
 27 H        1.8330    -2.2950    -1.0250 H     1 <1>   0.0800 
 28 H       -1.3430     0.4800    -0.5870 H     1 <1>   0.0800 
 29 H       -1.7480     0.5550     1.0990 H     1 <1>   0.0800 
 30 H       -3.2330    -1.2200     2.1510 H     1 <1>   0.0800 
 31 H       -3.8470    -2.5240     1.1880 H     1 <1>   0.0800 
 32 H       -3.2570    -2.6740    -1.2810 H     1 <1>   0.0800 
 33 H       -2.2530    -1.4690    -2.0210 H     1 <1>   0.0800 
 34 H        1.3140    -2.8820     1.8880 H     1 <1>   0.0800 
 35 H        1.9660    -1.3850     1.2500 H     1 <1>   0.0800 
 36 H        2.8520    -2.8780     1.0770 H     1 <1>   0.0800 
 37 H       -3.1040     2.1570    -0.2160 H     1 <1>   0.0800 
 38 H       -5.6010    -0.8280     1.5640 H     1 <1>   0.0800 
 39 H       -4.6130    -1.0700    -2.5930 H     1 <1>   0.0800 
 40 H       -0.4220    -4.4130     0.7520 H     1 <1>   0.3700 
 41 H       -5.3280     1.4380     0.6010 H     1 <1>   0.0800 
 42 H       -4.1120     1.1360     1.8040 H     1 <1>   0.0800 
 43 H       -3.1210     0.8950    -2.3520 H     1 <1>   0.0800 
 44 H       -4.7390     1.2930    -1.8640 H     1 <1>   0.0800 
 45 H       -6.2230    -0.4760    -0.8090 H     1 <1>   0.0800 
 46 H       -5.6190    -2.0870    -0.5700 H     1 <1>   0.0800 
 47 H        1.6890    -6.9790    -0.7910 H     1 <1>   0.1500 
 48 H       -2.7100    -8.4460     0.8070 H     1 <1>   0.1500 
 49 H       -2.0720    -5.3370     1.9700 H     1 <1>   0.0800 
 50 H       -3.3730    -6.2700     1.2830 H     1 <1>   0.0800 
 51 H       -2.6360    -5.0020     0.3450 H     1 <1>   0.0800 
 52 H        1.0870    -9.3380    -0.8790 H     1 <1>   0.1500 
 53 H       -1.1200   -10.0790    -0.0760 H     1 <1>   0.1500 
@<TRIPOS>BOND
  1   1   2  2   
  2   2   3  am  
  3   2   4  1   
  4   3   5  1   
  5   3  26  1   
  6   4   6  1   
  7   4   7  1   
  8   4   8  1   
  9   5   9  1   
 10   5  10  1   
 11   5  27  1   
 12   6  11  1   
 13   6  28  1   
 14   6  29  1   
 15   7  12  1   
 16   7  30  1   
 17   7  31  1   
 18   8  13  1   
 19   8  32  1   
 20   8  33  1   
 21   9  14  2   
 22   9  15  am  
 23  10  34  1   
 24  10  35  1   
 25  10  36  1   
 26  11  16  1   
 27  11  17  1   
 28  11  37  1   
 29  12  16  1   
 30  12  18  1   
 31  12  38  1   
 32  13  17  1   
 33  13  18  1   
 34  13  39  1   
 35  15  19  1   
 36  15  40  1   
 37  16  41  1   
 38  16  42  1   
 39  17  43  1   
 40  17  44  1   
 41  18  45  1   
 42  18  46  1   
 43  19  20  ar  
 44  19  21  ar  
 45  20  22  ar  
 46  20  23  1   
 47  21  24  ar  
 48  21  47  1   
 49  22  25  ar  
 50  22  48  1   
 51  23  49  1   
 52  23  50  1   
 53  23  51  1   
 54  24  25  ar  
 55  24  52  1   
 56  25  53  1   
@<TRIPOS>SUBSTRUCTURE
  1 ****   2 GROUP 4 **** **** 0

# MOE 2024.06 (io_trps.svl 2023.06)
