@<TRIPOS>MOLECULE
NONAME
45 48 1 0 0 
SMALL
USER_CHARGES


@<TRIPOS>ATOM
  1 O        1.2100    -0.9310     2.2200 O.2   1 <1>  -0.5700 
  2 C        1.0220    -1.9990     1.6520 C.2   1 <1>   0.6160 
  3 N        1.8890    -2.4220     0.6510 N.am  1 <1>  -0.4690 
  4 C       -0.0730    -2.8320     1.9990 C.2   1 <1>  -0.1360 
  5 C        1.7050    -3.6640     0.0430 C.2   1 <1>  -0.0290 
  6 C        2.8730    -1.4190     0.1310 C.3   1 <1>   0.1400 
  7 C       -0.2700    -4.0280     1.3870 C.2   1 <1>  -0.1500 
  8 C        0.6450    -4.4470     0.3930 C.2   1 <1>  -0.1500 
  9 C        2.7100    -4.1560    -1.0050 C.3   1 <1>   0.0580 
 10 C        4.0170    -2.1060    -0.6210 C.3   1 <1>  -0.0800 
 11 C        3.7580    -5.0490    -0.3050 C.3   1 <1>   0.3430 
 12 C        3.3820    -2.9780    -1.7170 C.3   1 <1>  -0.1600 
 13 C        4.8410    -2.8930     0.4240 C.3   1 <1>   0.3430 
 14 N        5.0340    -4.3430     0.0820 N.4   1 <1>  -0.9590 
 15 C        6.1280    -4.5480    -0.9090 C.3   1 <1>   0.4860 
 16 C        7.4360    -4.1210    -0.2720 C.ar  1 <1>  -0.1440 
 17 C        8.0840    -4.9060     0.6800 C.ar  1 <1>  -0.1440 
 18 C        7.9880    -2.9050    -0.6530 C.ar  1 <1>  -0.1500 
 19 C        9.2610    -4.4430     1.2490 C.ar  1 <1>  -0.1500 
 20 C        7.5640    -6.2680     1.1270 C.3   1 <1>  -0.0970 
 21 C        9.1640    -2.4570    -0.0810 C.ar  1 <1>  -0.1500 
 22 C        9.7980    -3.2260     0.8740 C.ar  1 <1>  -0.1500 
 23 H       -0.7300    -2.4620     2.7640 H     1 <1>   0.1500 
 24 H        3.2710    -0.8370     0.9460 H     1 <1>   0.0800 
 25 H        2.3520    -0.7440    -0.5260 H     1 <1>   0.0800 
 26 H       -1.1010    -4.6660     1.6370 H     1 <1>   0.1500 
 27 H        0.4650    -5.4040    -0.0660 H     1 <1>   0.1500 
 28 H        2.1810    -4.7560    -1.7250 H     1 <1>   0.0800 
 29 H        4.6370    -1.3460    -1.0650 H     1 <1>   0.0800 
 30 H        3.9970    -5.8760    -0.9540 H     1 <1>   0.0800 
 31 H        3.3000    -5.4610     0.5790 H     1 <1>   0.0800 
 32 H        2.6450    -2.4140    -2.2650 H     1 <1>   0.0800 
 33 H        4.1130    -3.3230    -2.4250 H     1 <1>   0.0800 
 34 H        4.3190    -2.8400     1.3670 H     1 <1>   0.0800 
 35 H        5.7950    -2.4130     0.5700 H     1 <1>   0.0800 
 36 H        5.3970    -4.7810     0.9390 H     1 <1>   0.4500 
 37 H        5.9500    -3.9690    -1.7980 H     1 <1>   0.0800 
 38 H        6.1920    -5.5870    -1.1860 H     1 <1>   0.0800 
 39 H        7.5140    -2.2900    -1.3990 H     1 <1>   0.1500 
 40 H        9.7770    -5.0300     1.9910 H     1 <1>   0.1500 
 41 H        6.7830    -6.1520     1.8560 H     1 <1>   0.0800 
 42 H        8.3560    -6.8400     1.5790 H     1 <1>   0.0800 
 43 H        7.1980    -6.8380     0.2920 H     1 <1>   0.0800 
 44 H        9.5900    -1.5140    -0.3780 H     1 <1>   0.1500 
 45 H       10.7150    -2.8810     1.3230 H     1 <1>   0.1500 
@<TRIPOS>BOND
  1   1   2  2   
  2   2   3  am  
  3   2   4  1   
  4   3   5  1   
  5   3   6  1   
  6   4   7  2   
  7   4  23  1   
  8   5   8  2   
  9   5   9  1   
 10   6  10  1   
 11   6  24  1   
 12   6  25  1   
 13   7   8  1   
 14   7  26  1   
 15   8  27  1   
 16   9  11  1   
 17   9  12  1   
 18   9  28  1   
 19  10  12  1   
 20  10  13  1   
 21  10  29  1   
 22  11  14  1   
 23  11  30  1   
 24  11  31  1   
 25  12  32  1   
 26  12  33  1   
 27  13  14  1   
 28  13  34  1   
 29  13  35  1   
 30  14  15  1   
 31  14  36  1   
 32  15  16  1   
 33  15  37  1   
 34  15  38  1   
 35  16  17  ar  
 36  16  18  ar  
 37  17  19  ar  
 38  17  20  1   
 39  18  21  ar  
 40  18  39  1   
 41  19  22  ar  
 42  19  40  1   
 43  20  41  1   
 44  20  42  1   
 45  20  43  1   
 46  21  22  ar  
 47  21  44  1   
 48  22  45  1   
@<TRIPOS>SUBSTRUCTURE
  1 ****  13 GROUP 4 **** **** 0

# MOE 2024.06 (io_trps.svl 2023.06)
