@<TRIPOS>MOLECULE
NONAME
29 29 1 0 0 
SMALL
USER_CHARGES


@<TRIPOS>ATOM
  1 CL      -0.3440     0.1380    -1.7360 Cl    1 <1>  -0.1770 
  2 C       -0.2070     1.7510    -1.0840 C.ar  1 <1>   0.1770 
  3 C       -1.3520     2.4700    -0.8010 C.ar  1 <1>  -0.1500 
  4 C        1.0470     2.2840    -0.8630 C.ar  1 <1>  -0.1500 
  5 C       -1.2690     3.7590    -0.2800 C.ar  1 <1>  -0.0090 
  6 C        1.1510     3.5630    -0.3520 C.ar  1 <1>  -0.1500 
  7 S       -2.7500     4.7410     0.1000 S.o2  1 <1>   1.4470 
  8 C        0.0000     4.2990    -0.0630 C.ar  1 <1>   0.0830 
  9 O       -2.7970     5.0600     1.5080 O.2   1 <1>  -0.6500 
 10 O       -2.8900     5.7950    -0.8820 O.2   1 <1>  -0.6500 
 11 N       -4.0120     3.6720    -0.1750 N.am  1 <1>  -0.9140 
 12 O        0.0610     5.5600     0.4310 O.3   1 <1>  -0.3630 
 13 C       -5.3490     4.2820    -0.0400 C.3   1 <1>   0.1700 
 14 C        1.2770     6.1940     0.7590 C.3   1 <1>   0.0400 
 15 C       -6.0920     3.7240     1.2030 C.2   1 <1>   0.9060 
 16 C       -6.0960     4.0100    -1.3490 C.3   1 <1>  -0.2400 
 17 O       -7.2090     4.1570     1.5140 O.co2 1 <1>  -0.9000 
 18 O       -5.5180     2.8270     1.8450 O.co2 1 <1>  -0.9000 
 19 H       -2.3060     2.0130    -0.9950 H     1 <1>   0.1500 
 20 H        1.9230     1.7030    -1.0920 H     1 <1>   0.1500 
 21 H        2.1310     3.9690    -0.1870 H     1 <1>   0.1500 
 22 H       -4.0350     3.0840     0.6810 H     1 <1>   0.4200 
 23 H       -5.2690     5.3460     0.0990 H     1 <1>   0.0800 
 24 H        1.0460     7.1660     1.1570 H     1 <1>   0.0800 
 25 H        1.8710     6.2950    -0.1310 H     1 <1>   0.0800 
 26 H        1.7870     5.6080     1.5040 H     1 <1>   0.0800 
 27 H       -6.2020     2.9500    -1.4970 H     1 <1>   0.0800 
 28 H       -5.5640     4.4440    -2.1750 H     1 <1>   0.0800 
 29 H       -7.0760     4.4470    -1.2950 H     1 <1>   0.0800 
@<TRIPOS>BOND
  1   1   2  1   
  2   2   3  ar  
  3   2   4  ar  
  4   3   5  ar  
  5   3  19  1   
  6   4   6  ar  
  7   4  20  1   
  8   5   7  1   
  9   5   8  ar  
 10   6   8  ar  
 11   6  21  1   
 12   7   9  2   
 13   7  10  2   
 14   7  11  am  
 15   8  12  1   
 16  11  13  1   
 17  11  22  1   
 18  12  14  1   
 19  13  15  1   
 20  13  16  1   
 21  13  23  1   
 22  14  24  1   
 23  14  25  1   
 24  14  26  1   
 25  15  17  ar  
 26  15  18  ar  
 27  16  27  1   
 28  16  28  1   
 29  16  29  1   
@<TRIPOS>SUBSTRUCTURE
  1 ****   7 GROUP 4 **** **** 0

# MOE 2024.06 (io_trps.svl 2023.06)
