@<TRIPOS>MOLECULE
NONAME
30 30 1 0 0 
SMALL
USER_CHARGES


@<TRIPOS>ATOM
  1 CL       0.0130     1.0710    -2.5970 Cl    1 <1>  -0.1770 
  2 C       -0.7720     1.9870    -1.3280 C.ar  1 <1>   0.1770 
  3 C       -0.0240     2.7960    -0.4810 C.ar  1 <1>   0.0820 
  4 C       -2.1430     1.8790    -1.2010 C.ar  1 <1>  -0.1500 
  5 O        1.3210     2.8560    -0.6630 O.3   1 <1>  -0.3630 
  6 C       -0.6940     3.5050     0.5120 C.ar  1 <1>  -0.1500 
  7 C       -2.8200     2.5850    -0.2130 C.ar  1 <1>  -0.0090 
  8 C        2.1520     3.6410     0.1610 C.3   1 <1>   0.1200 
  9 C       -2.0700     3.3940     0.6350 C.ar  1 <1>  -0.1500 
 10 S       -4.6200     2.4590    -0.0300 S.o2  1 <1>   1.4470 
 11 C        3.5890     3.4680    -0.3190 C.3   1 <1>  -0.2400 
 12 O       -5.1950     1.7420    -1.1430 O.2   1 <1>  -0.6500 
 13 O       -4.9550     2.0970     1.3280 O.2   1 <1>  -0.6500 
 14 N       -5.1390     4.0360    -0.2660 N.am  1 <1>  -0.9140 
 15 C       -6.4490     4.2870     0.2970 C.3   1 <1>   0.1960 
 16 C       -6.8800     5.6870    -0.1150 C.3   1 <1>  -0.2400 
 17 H       -2.6830     1.2400    -1.8780 H     1 <1>   0.1500 
 18 H       -0.1670     4.1450     1.1950 H     1 <1>   0.1500 
 19 H        2.0470     3.3000     1.1770 H     1 <1>   0.0800 
 20 H        1.8440     4.6690     0.0760 H     1 <1>   0.0800 
 21 H       -2.5790     3.9480     1.4080 H     1 <1>   0.1500 
 22 H        3.8810     2.4350    -0.2470 H     1 <1>   0.0800 
 23 H        4.2520     4.0550     0.2910 H     1 <1>   0.0800 
 24 H        3.6810     3.7950    -1.3390 H     1 <1>   0.0800 
 25 H       -5.2390     4.1020    -1.2770 H     1 <1>   0.4200 
 26 H       -6.4040     4.2180     1.3730 H     1 <1>   0.0800 
 27 H       -7.1570     3.5580    -0.0660 H     1 <1>   0.0800 
 28 H       -6.1750     6.4140     0.2480 H     1 <1>   0.0800 
 29 H       -7.8430     5.9060     0.3110 H     1 <1>   0.0800 
 30 H       -6.9570     5.7620    -1.1850 H     1 <1>   0.0800 
@<TRIPOS>BOND
  1   1   2  1   
  2   2   3  ar  
  3   2   4  ar  
  4   3   5  1   
  5   3   6  ar  
  6   4   7  ar  
  7   4  17  1   
  8   5   8  1   
  9   6   9  ar  
 10   6  18  1   
 11   7   9  ar  
 12   7  10  1   
 13   8  11  1   
 14   8  19  1   
 15   8  20  1   
 16   9  21  1   
 17  10  12  2   
 18  10  13  2   
 19  10  14  am  
 20  11  22  1   
 21  11  23  1   
 22  11  24  1   
 23  14  15  1   
 24  14  25  1   
 25  15  16  1   
 26  15  26  1   
 27  15  27  1   
 28  16  28  1   
 29  16  29  1   
 30  16  30  1   
@<TRIPOS>SUBSTRUCTURE
  1 ****   7 GROUP 4 **** **** 0

# MOE 2024.06 (io_trps.svl 2023.06)
