@<TRIPOS>MOLECULE
NONAME
52 56 1 0 0 
SMALL
USER_CHARGES


@<TRIPOS>ATOM
  1 S       -0.4790     0.4310    -0.8610 S.3   1 <1>  -0.2860 
  2 C       -1.6510    -0.4850     0.1300 C.2   1 <1>   0.5340 
  3 C        0.3180     1.6170     0.3290 C.3   1 <1>   0.1310 
  4 O       -2.5030    -1.2420    -0.4700 O.3   1 <1>  -0.2800 
  5 N       -1.7640    -0.4720     1.4010 N.2   1 <1>  -0.3380 
  6 C       -0.0800     3.0440    -0.0230 C.2   1 <1>   0.5690 
  7 C       -3.1990    -1.7210     0.5160 C.2   1 <1>   0.2980 
  8 N       -2.7910    -1.2860     1.6560 N.2   1 <1>  -0.3380 
  9 O        0.7340     3.6920    -0.6410 O.2   1 <1>  -0.5700 
 10 N       -1.2970     3.5760     0.3370 N.am  1 <1>  -0.6600 
 11 C       -4.3580    -2.6820     0.2260 C.3   1 <1>   0.1800 
 12 C       -1.7700     4.8670    -0.2380 C.3   1 <1>   0.1400 
 13 C       -2.3040     2.9330     1.2250 C.3   1 <1>   0.1400 
 14 C       -5.0490    -3.1480     1.5310 C.3   1 <1>  -0.1600 
 15 C       -3.8390    -3.9330    -0.5220 C.3   1 <1>  -0.1600 
 16 C       -5.4150    -1.9800    -0.6600 C.3   1 <1>  -0.1600 
 17 C       -3.0430     4.6180    -1.0560 C.3   1 <1>  -0.1600 
 18 C       -3.5720     2.6350     0.4200 C.3   1 <1>  -0.1600 
 19 C       -6.2130    -4.1080     1.2240 C.3   1 <1>  -0.0800 
 20 C       -4.9970    -4.8970    -0.8420 C.3   1 <1>  -0.0800 
 21 C       -6.5800    -2.9350    -0.9800 C.3   1 <1>  -0.0800 
 22 C       -4.1290     3.9100    -0.2290 C.3   1 <1>  -0.1600 
 23 C       -5.6670    -5.3370     0.4730 C.3   1 <1>  -0.1600 
 24 C       -7.2420    -3.3850     0.3350 C.3   1 <1>  -0.1600 
 25 C       -6.0320    -4.1700    -1.7200 C.3   1 <1>  -0.1600 
 26 H        1.3790     1.4970     0.2110 H     1 <1>   0.0800 
 27 H        0.0430     1.3550     1.3310 H     1 <1>   0.0800 
 28 H       -1.0160     5.3040    -0.8710 H     1 <1>   0.0800 
 29 H       -1.9730     5.5560     0.5630 H     1 <1>   0.0800 
 30 H       -2.5400     3.6110     2.0270 H     1 <1>   0.0800 
 31 H       -1.9230     2.0360     1.6690 H     1 <1>   0.0800 
 32 H       -5.4210    -2.2930     2.0700 H     1 <1>   0.0800 
 33 H       -4.3330    -3.6420     2.1640 H     1 <1>   0.0800 
 34 H       -3.1050    -4.4350     0.0830 H     1 <1>   0.0800 
 35 H       -3.3580    -3.6370    -1.4380 H     1 <1>   0.0800 
 36 H       -4.9610    -1.6510    -1.5780 H     1 <1>   0.0800 
 37 H       -5.7900    -1.1090    -0.1520 H     1 <1>   0.0800 
 38 H       -2.7880     4.0140    -1.9100 H     1 <1>   0.0800 
 39 H       -3.4200     5.5570    -1.4210 H     1 <1>   0.0800 
 40 H       -4.3130     2.2040     1.0710 H     1 <1>   0.0800 
 41 H       -3.3430     1.9100    -0.3410 H     1 <1>   0.0800 
 42 H       -6.6800    -4.4210     2.1420 H     1 <1>   0.0800 
 43 H       -4.6190    -5.7600    -1.3640 H     1 <1>   0.0800 
 44 H       -7.3050    -2.4320    -1.5990 H     1 <1>   0.0800 
 45 H       -4.9650     3.6630    -0.8610 H     1 <1>   0.0800 
 46 H       -4.4790     4.5770     0.5410 H     1 <1>   0.0800 
 47 H       -6.4720    -6.0190     0.2600 H     1 <1>   0.0800 
 48 H       -4.9550    -5.8560     1.0900 H     1 <1>   0.0800 
 49 H       -7.6380    -2.5300     0.8560 H     1 <1>   0.0800 
 50 H       -8.0650    -4.0450     0.1210 H     1 <1>   0.0800 
 51 H       -6.8410    -4.8390    -1.9580 H     1 <1>   0.0800 
 52 H       -5.5770    -3.8680    -2.6480 H     1 <1>   0.0800 
@<TRIPOS>BOND
  1   1   2  1   
  2   1   3  1   
  3   2   4  1   
  4   2   5  2   
  5   3   6  1   
  6   3  26  1   
  7   3  27  1   
  8   4   7  1   
  9   5   8  1   
 10   6   9  2   
 11   6  10  am  
 12   7   8  2   
 13   7  11  1   
 14  10  12  1   
 15  10  13  1   
 16  11  14  1   
 17  11  15  1   
 18  11  16  1   
 19  12  17  1   
 20  12  28  1   
 21  12  29  1   
 22  13  18  1   
 23  13  30  1   
 24  13  31  1   
 25  14  19  1   
 26  14  32  1   
 27  14  33  1   
 28  15  20  1   
 29  15  34  1   
 30  15  35  1   
 31  16  21  1   
 32  16  36  1   
 33  16  37  1   
 34  17  22  1   
 35  17  38  1   
 36  17  39  1   
 37  18  22  1   
 38  18  40  1   
 39  18  41  1   
 40  19  23  1   
 41  19  24  1   
 42  19  42  1   
 43  20  23  1   
 44  20  25  1   
 45  20  43  1   
 46  21  24  1   
 47  21  25  1   
 48  21  44  1   
 49  22  45  1   
 50  22  46  1   
 51  23  47  1   
 52  23  48  1   
 53  24  49  1   
 54  24  50  1   
 55  25  51  1   
 56  25  52  1   
@<TRIPOS>SUBSTRUCTURE
  1 ****   4 GROUP 4 **** **** 0

# MOE 2024.06 (io_trps.svl 2023.06)
