@<TRIPOS>MOLECULE
NONAME
56 57 1 0 0 
SMALL
USER_CHARGES


@<TRIPOS>ATOM
  1 O        0.1010    -0.9140    -1.2290 O.2   1 <1>  -0.5700 
  2 C       -0.0010    -2.0170    -0.7420 C.2   1 <1>   0.5690 
  3 N       -1.2120    -2.5370    -0.3620 N.am  1 <1>  -0.6600 
  4 C        1.3040    -2.7820    -0.5450 C.3   1 <1>  -0.0190 
  5 C       -1.4410    -3.9500     0.0570 C.3   1 <1>   0.1400 
  6 C       -2.4500    -1.7190    -0.5220 C.3   1 <1>   0.1400 
  7 C        2.3890    -1.7510    -0.2140 C.3   1 <1>   0.3430 
  8 C        1.6810    -3.5860    -1.8040 C.3   1 <1>  -0.1600 
  9 C       -1.4810    -4.0480     1.5800 C.3   1 <1>  -0.2400 
 10 C       -2.5900    -0.7420     0.6440 C.3   1 <1>  -0.2400 
 11 N        3.7580    -2.3690    -0.1010 N.4   1 <1>  -0.9590 
 12 C        3.0970    -4.1630    -1.6830 C.3   1 <1>  -0.1600 
 13 C        4.7510    -1.3620     0.3870 C.3   1 <1>   0.4230 
 14 C        4.1260    -3.0730    -1.3750 C.3   1 <1>   0.3430 
 15 C        5.0680    -0.2820    -0.6570 C.3   1 <1>  -0.1600 
 16 C        6.0400    -2.0500     0.8420 C.3   1 <1>  -0.1600 
 17 C        6.0660     0.7300    -0.0940 C.3   1 <1>   0.3430 
 18 C        7.0310    -1.0230     1.3920 C.3   1 <1>   0.3430 
 19 N        7.3030     0.0330     0.3680 N.4   1 <1>  -0.9590 
 20 C        8.2850     1.0390     0.8700 C.3   1 <1>   0.3430 
 21 C        9.6770     0.4190     0.9230 C.3   1 <1>  -0.2400 
 22 H        1.2050    -3.4390     0.2970 H     1 <1>   0.0800 
 23 H       -0.6640    -4.5860    -0.3270 H     1 <1>   0.0800 
 24 H       -2.3700    -4.3070    -0.3550 H     1 <1>   0.0800 
 25 H       -3.3180    -2.3550    -0.5700 H     1 <1>   0.0800 
 26 H       -2.3980    -1.1670    -1.4460 H     1 <1>   0.0800 
 27 H        2.1240    -1.2560     0.7060 H     1 <1>   0.0800 
 28 H        2.3960    -1.0070    -0.9950 H     1 <1>   0.0800 
 29 H        1.6310    -2.9400    -2.6660 H     1 <1>   0.0800 
 30 H        0.9730    -4.3820    -1.9610 H     1 <1>   0.0800 
 31 H       -0.5910    -3.6340     2.0160 H     1 <1>   0.0800 
 32 H       -1.5580    -5.0800     1.8720 H     1 <1>   0.0800 
 33 H       -2.3410    -3.5320     1.9650 H     1 <1>   0.0800 
 34 H       -2.6600    -1.2650     1.5790 H     1 <1>   0.0800 
 35 H       -3.4820    -0.1570     0.5150 H     1 <1>   0.0800 
 36 H       -1.7500    -0.0710     0.6700 H     1 <1>   0.0800 
 37 H        3.6760    -3.1020     0.6160 H     1 <1>   0.4500 
 38 H        3.3620    -4.6390    -2.6120 H     1 <1>   0.0800 
 39 H        3.1270    -4.9200    -0.9170 H     1 <1>   0.0800 
 40 H        4.3260    -0.8700     1.2490 H     1 <1>   0.0800 
 41 H        5.1000    -3.5240    -1.2880 H     1 <1>   0.0800 
 42 H        4.1470    -2.3700    -2.1920 H     1 <1>   0.0800 
 43 H        4.1730     0.2520    -0.9240 H     1 <1>   0.0800 
 44 H        5.4840    -0.7100    -1.5510 H     1 <1>   0.0800 
 45 H        6.5080    -2.5790     0.0320 H     1 <1>   0.0800 
 46 H        5.8180    -2.7550     1.6240 H     1 <1>   0.0800 
 47 H        5.6180     1.2610     0.7320 H     1 <1>   0.0800 
 48 H        6.3140     1.4520    -0.8570 H     1 <1>   0.0800 
 49 H        7.9500    -1.5220     1.6590 H     1 <1>   0.0800 
 50 H        6.6290    -0.5680     2.2840 H     1 <1>   0.0800 
 51 H        7.7530    -0.4080    -0.4490 H     1 <1>   0.4500 
 52 H        7.9980     1.3920     1.8490 H     1 <1>   0.0800 
 53 H        8.3130     1.8860     0.2030 H     1 <1>   0.0800 
 54 H        9.7360    -0.3690     1.6520 H     1 <1>   0.0800 
 55 H       10.3850     1.1770     1.2120 H     1 <1>   0.0800 
 56 H        9.9720     0.0470    -0.0420 H     1 <1>   0.0800 
@<TRIPOS>BOND
  1   1   2  2   
  2   2   3  am  
  3   2   4  1   
  4   3   5  1   
  5   3   6  1   
  6   4   7  1   
  7   4   8  1   
  8   4  22  1   
  9   5   9  1   
 10   5  23  1   
 11   5  24  1   
 12   6  10  1   
 13   6  25  1   
 14   6  26  1   
 15   7  11  1   
 16   7  27  1   
 17   7  28  1   
 18   8  12  1   
 19   8  29  1   
 20   8  30  1   
 21   9  31  1   
 22   9  32  1   
 23   9  33  1   
 24  10  34  1   
 25  10  35  1   
 26  10  36  1   
 27  11  13  1   
 28  11  14  1   
 29  11  37  1   
 30  12  14  1   
 31  12  38  1   
 32  12  39  1   
 33  13  15  1   
 34  13  16  1   
 35  13  40  1   
 36  14  41  1   
 37  14  42  1   
 38  15  17  1   
 39  15  43  1   
 40  15  44  1   
 41  16  18  1   
 42  16  45  1   
 43  16  46  1   
 44  17  19  1   
 45  17  47  1   
 46  17  48  1   
 47  18  19  1   
 48  18  49  1   
 49  18  50  1   
 50  19  20  1   
 51  19  51  1   
 52  20  21  1   
 53  20  52  1   
 54  20  53  1   
 55  21  54  1   
 56  21  55  1   
 57  21  56  1   
@<TRIPOS>SUBSTRUCTURE
  1 ****   7 GROUP 4 **** **** 0

# MOE 2024.06 (io_trps.svl 2023.06)
