@<TRIPOS>MOLECULE
NONAME
37 38 1 0 0 
SMALL
USER_CHARGES


@<TRIPOS>ATOM
  1 O       -0.4980    -4.7300     1.1440 O.2   1 <1>  -0.5700 
  2 C       -0.0200    -3.8120     0.5100 C.2   1 <1>   0.6340 
  3 O       -0.8270    -2.8080     0.1450 O.3   1 <1>  -0.4300 
  4 C        1.3780    -3.7460     0.1230 C.ar  1 <1>   0.0860 
  5 C       -2.1940    -2.7820     0.4810 C.3   1 <1>   0.2000 
  6 C        2.2640    -4.7710     0.4630 C.ar  1 <1>  -0.1500 
  7 C        1.8980    -2.6690    -0.6000 C.ar  1 <1>  -0.1500 
  8 C       -2.9660    -3.6610    -0.5080 C.3   1 <1>  -0.1600 
  9 C       -2.6650    -1.3310     0.4060 C.3   1 <1>  -0.1600 
 10 C        3.6010    -4.7340     0.1040 C.ar  1 <1>  -0.1440 
 11 C        3.2310    -2.6210    -0.9640 C.ar  1 <1>  -0.1500 
 12 C       -4.4670    -3.5380    -0.2710 C.3   1 <1>   0.3430 
 13 C       -4.1730    -1.2450     0.6230 C.3   1 <1>   0.3430 
 14 C        4.0820    -3.6520    -0.6130 C.ar  1 <1>  -0.1500 
 15 C        4.5410    -5.8620     0.4870 C.3   1 <1>  -0.0960 
 16 N       -4.8790    -2.1060    -0.3730 N.4   1 <1>  -0.9590 
 17 C       -6.3610    -1.9700    -0.2380 C.3   1 <1>   0.2630 
 18 H       -2.3080    -3.1490     1.4890 H     1 <1>   0.0800 
 19 H        1.8900    -5.6120     1.0220 H     1 <1>   0.1500 
 20 H        1.2550    -1.8560    -0.8840 H     1 <1>   0.1500 
 21 H       -2.6820    -4.6900    -0.3720 H     1 <1>   0.0800 
 22 H       -2.7350    -3.3780    -1.5190 H     1 <1>   0.0800 
 23 H       -2.4140    -0.9070    -0.5500 H     1 <1>   0.0800 
 24 H       -2.1680    -0.7590     1.1700 H     1 <1>   0.0800 
 25 H        3.6090    -1.7810    -1.5210 H     1 <1>   0.1500 
 26 H       -4.7080    -3.9200     0.7080 H     1 <1>   0.0800 
 27 H       -4.9940    -4.1290    -1.0040 H     1 <1>   0.0800 
 28 H       -4.4920    -0.2200     0.5180 H     1 <1>   0.0800 
 29 H       -4.4120    -1.5730     1.6220 H     1 <1>   0.0800 
 30 H        5.1190    -3.6090    -0.8980 H     1 <1>   0.1500 
 31 H        3.9990    -6.6890     0.9080 H     1 <1>   0.0800 
 32 H        5.2530    -5.5120     1.2140 H     1 <1>   0.0800 
 33 H        5.0720    -6.2100    -0.3810 H     1 <1>   0.0800 
 34 H       -4.6070    -1.7760    -1.3120 H     1 <1>   0.4500 
 35 H       -6.6820    -2.3090     0.7350 H     1 <1>   0.0800 
 36 H       -6.8620    -2.5590    -0.9900 H     1 <1>   0.0800 
 37 H       -6.6560    -0.9400    -0.3590 H     1 <1>   0.0800 
@<TRIPOS>BOND
  1   1   2  2   
  2   2   3  1   
  3   2   4  1   
  4   3   5  1   
  5   4   6  ar  
  6   4   7  ar  
  7   5   8  1   
  8   5   9  1   
  9   5  18  1   
 10   6  10  ar  
 11   6  19  1   
 12   7  11  ar  
 13   7  20  1   
 14   8  12  1   
 15   8  21  1   
 16   8  22  1   
 17   9  13  1   
 18   9  23  1   
 19   9  24  1   
 20  10  14  ar  
 21  10  15  1   
 22  11  14  ar  
 23  11  25  1   
 24  12  16  1   
 25  12  26  1   
 26  12  27  1   
 27  13  16  1   
 28  13  28  1   
 29  13  29  1   
 30  14  30  1   
 31  15  31  1   
 32  15  32  1   
 33  15  33  1   
 34  16  17  1   
 35  16  34  1   
 36  17  35  1   
 37  17  36  1   
 38  17  37  1   
@<TRIPOS>SUBSTRUCTURE
  1 ****   3 GROUP 4 **** **** 0

# MOE 2024.06 (io_trps.svl 2023.06)
