@<TRIPOS>MOLECULE
NONAME
55 57 1 0 0 
SMALL
USER_CHARGES


@<TRIPOS>ATOM
  1 O        0.4300     0.9120    -1.2020 O.2   1 <1>  -0.5700 
  2 C        0.3620     1.7730    -0.3450 C.2   1 <1>   0.5440 
  3 N        1.5100     2.1380     0.3340 N.am  1 <1>  -0.6600 
  4 C       -0.9220     2.3890    -0.0730 C.ar  1 <1>   0.0860 
  5 C        2.7830     1.3810     0.1730 C.3   1 <1>   0.1400 
  6 C        1.6290     3.3880     1.1370 C.3   1 <1>   0.1400 
  7 C       -1.4840     2.3780     1.2040 C.ar  1 <1>  -0.1500 
  8 C       -1.6450     3.0130    -1.0890 C.ar  1 <1>  -0.1500 
  9 C        3.8460     2.2840    -0.4590 C.3   1 <1>  -0.1600 
 10 C        2.6890     4.3000     0.5160 C.3   1 <1>  -0.1600 
 11 C       -2.7020     2.9800     1.4580 C.ar  1 <1>  -0.1500 
 12 C       -2.8650     3.6180    -0.8450 C.ar  1 <1>  -0.1500 
 13 C        4.0420     3.5790     0.3500 C.3   1 <1>  -0.0190 
 14 C       -3.4010     3.6070     0.4400 C.ar  1 <1>   0.0830 
 15 C        5.1130     4.4660    -0.2880 C.2   1 <1>   0.5690 
 16 O       -4.5830     4.1760     0.7680 O.3   1 <1>  -0.3630 
 17 O        4.7860     5.3030    -1.0950 O.2   1 <1>  -0.5700 
 18 N        6.4060     4.2490     0.0960 N.am  1 <1>  -0.5470 
 19 C       -5.3930     4.8110    -0.1960 C.3   1 <1>   0.0400 
 20 C        7.6360     4.8400    -0.2540 C.ar  1 <1>   0.1170 
 21 C        8.7940     4.3420     0.3530 C.ar  1 <1>   0.0830 
 22 C        7.7540     5.8850    -1.1640 C.ar  1 <1>  -0.1500 
 23 O        8.6390     3.3130     1.2420 O.3   1 <1>  -0.3630 
 24 C       10.0340     4.8900     0.0440 C.ar  1 <1>  -0.1500 
 25 C        8.9890     6.4290    -1.4690 C.ar  1 <1>  -0.1500 
 26 C        9.7530     2.7530     1.9050 C.3   1 <1>   0.0400 
 27 C       10.1380     5.9300    -0.8630 C.ar  1 <1>   0.0830 
 28 O       11.3890     6.4040    -1.1050 O.3   1 <1>  -0.3620 
 29 C       11.5990     7.4630    -2.0130 C.3   1 <1>   0.0400 
 30 H        2.6360     0.5110    -0.4460 H     1 <1>   0.0800 
 31 H        3.1120     1.0440     1.1400 H     1 <1>   0.0800 
 32 H        1.9070     3.1310     2.1450 H     1 <1>   0.0800 
 33 H        0.6940     3.9180     1.1720 H     1 <1>   0.0800 
 34 H       -0.9540     1.8860     2.0010 H     1 <1>   0.1500 
 35 H       -1.2330     3.0160    -2.0840 H     1 <1>   0.1500 
 36 H        3.5420     2.5260    -1.4630 H     1 <1>   0.0800 
 37 H        4.7740     1.7450    -0.5210 H     1 <1>   0.0800 
 38 H        2.8180     5.1710     1.1340 H     1 <1>   0.0800 
 39 H        2.3340     4.6340    -0.4440 H     1 <1>   0.0800 
 40 H       -3.1240     2.9660     2.4470 H     1 <1>   0.1500 
 41 H       -3.3810     4.0870    -1.6600 H     1 <1>   0.1500 
 42 H        4.3870     3.3100     1.3330 H     1 <1>   0.0800 
 43 H        6.5480     3.5000     0.7740 H     1 <1>   0.3700 
 44 H       -6.2780     5.1720     0.2980 H     1 <1>   0.0800 
 45 H       -5.6620     4.0960    -0.9520 H     1 <1>   0.0800 
 46 H       -4.8500     5.6370    -0.6200 H     1 <1>   0.0800 
 47 H        6.8820     6.2870    -1.6440 H     1 <1>   0.1500 
 48 H       10.9420     4.5330     0.4890 H     1 <1>   0.1500 
 49 H        9.0330     7.2340    -2.1770 H     1 <1>   0.1500 
 50 H        9.4000     1.9690     2.5520 H     1 <1>   0.0800 
 51 H       10.2340     3.5180     2.4890 H     1 <1>   0.0800 
 52 H       10.4280     2.3450     1.1730 H     1 <1>   0.0800 
 53 H       12.6530     7.6700    -2.0460 H     1 <1>   0.0800 
 54 H       11.0670     8.3310    -1.6660 H     1 <1>   0.0800 
 55 H       11.2550     7.1620    -2.9870 H     1 <1>   0.0800 
@<TRIPOS>BOND
  1   1   2  2   
  2   2   3  am  
  3   2   4  1   
  4   3   5  1   
  5   3   6  1   
  6   4   7  ar  
  7   4   8  ar  
  8   5   9  1   
  9   5  30  1   
 10   5  31  1   
 11   6  10  1   
 12   6  32  1   
 13   6  33  1   
 14   7  11  ar  
 15   7  34  1   
 16   8  12  ar  
 17   8  35  1   
 18   9  13  1   
 19   9  36  1   
 20   9  37  1   
 21  10  13  1   
 22  10  38  1   
 23  10  39  1   
 24  11  14  ar  
 25  11  40  1   
 26  12  14  ar  
 27  12  41  1   
 28  13  15  1   
 29  13  42  1   
 30  14  16  1   
 31  15  17  2   
 32  15  18  am  
 33  16  19  1   
 34  18  20  1   
 35  18  43  1   
 36  19  44  1   
 37  19  45  1   
 38  19  46  1   
 39  20  21  ar  
 40  20  22  ar  
 41  21  23  1   
 42  21  24  ar  
 43  22  25  ar  
 44  22  47  1   
 45  23  26  1   
 46  24  27  ar  
 47  24  48  1   
 48  25  27  ar  
 49  25  49  1   
 50  26  50  1   
 51  26  51  1   
 52  26  52  1   
 53  27  28  1   
 54  28  29  1   
 55  29  53  1   
 56  29  54  1   
 57  29  55  1   
@<TRIPOS>SUBSTRUCTURE
  1 ****  13 GROUP 4 **** **** 0

# MOE 2024.06 (io_trps.svl 2023.06)
