@<TRIPOS>MOLECULE
NONAME
40 41 1 0 0 
SMALL
USER_CHARGES


@<TRIPOS>ATOM
  1 O        0.0880    -0.0900     0.2770 O.2   1 <1>  -0.5700 
  2 C        0.6390     0.9440    -0.0500 C.2   1 <1>   0.6900 
  3 N        1.9640     0.9420    -0.4070 N.am  1 <1>  -0.6600 
  4 N       -0.0260     2.1360    -0.0370 N.am  1 <1>  -0.5470 
  5 C        2.5960     1.9500    -1.2970 C.3   1 <1>   0.1400 
  6 C        2.8470    -0.2040    -0.0690 C.3   1 <1>   0.1400 
  7 C       -1.3760     2.4590     0.1680 C.ar  1 <1>   0.1170 
  8 C        3.8540     2.5020    -0.6220 C.3   1 <1>  -0.1600 
  9 C        4.1270     0.3130     0.5990 C.3   1 <1>  -0.1600 
 10 C       -1.7210     3.7250     0.6490 C.ar  1 <1>  -0.1440 
 11 C       -2.3930     1.5540    -0.1200 C.ar  1 <1>  -0.1500 
 12 C        4.8410     1.3780    -0.2560 C.3   1 <1>  -0.0800 
 13 C       -3.0550     4.0550     0.8310 C.ar  1 <1>  -0.1500 
 14 C       -0.6540     4.7590     0.9870 C.3   1 <1>  -0.0970 
 15 C       -3.7210     1.8890     0.0650 C.ar  1 <1>  -0.1500 
 16 C        6.0690     1.9740     0.4580 C.3   1 <1>  -0.1600 
 17 C       -4.0540     3.1430     0.5410 C.ar  1 <1>  -0.1500 
 18 C        7.1810     0.9480     0.7140 C.3   1 <1>  -0.2400 
 19 H        0.6060     2.9250    -0.0370 H     1 <1>   0.3700 
 20 H        1.9160     2.7510    -1.5250 H     1 <1>   0.0800 
 21 H        2.8630     1.4720    -2.2240 H     1 <1>   0.0800 
 22 H        3.0890    -0.7390    -0.9710 H     1 <1>   0.0800 
 23 H        2.3460    -0.8840     0.5990 H     1 <1>   0.0800 
 24 H        3.5660     3.0400     0.2640 H     1 <1>   0.0800 
 25 H        4.3300     3.1980    -1.2900 H     1 <1>   0.0800 
 26 H        4.7780    -0.5250     0.7670 H     1 <1>   0.0800 
 27 H        3.8690     0.7250     1.5580 H     1 <1>   0.0800 
 28 H       -2.1470     0.5770    -0.4950 H     1 <1>   0.1500 
 29 H        5.1720     0.9130    -1.1710 H     1 <1>   0.0800 
 30 H       -3.3300     5.0270     1.2010 H     1 <1>   0.1500 
 31 H       -0.1200     5.0430     0.0980 H     1 <1>   0.0800 
 32 H        0.0370     4.3530     1.7040 H     1 <1>   0.0800 
 33 H       -1.0960     5.6420     1.4130 H     1 <1>   0.0800 
 34 H       -4.4920     1.1730    -0.1610 H     1 <1>   0.1500 
 35 H        5.7680     2.4110     1.3950 H     1 <1>   0.0800 
 36 H        6.4770     2.7630    -0.1510 H     1 <1>   0.0800 
 37 H       -5.0870     3.4070     0.6870 H     1 <1>   0.1500 
 38 H        6.8640     0.2020     1.4200 H     1 <1>   0.0800 
 39 H        8.0460     1.4430     1.1180 H     1 <1>   0.0800 
 40 H        7.4650     0.4630    -0.2030 H     1 <1>   0.0800 
@<TRIPOS>BOND
  1   1   2  2   
  2   2   3  am  
  3   2   4  am  
  4   3   5  1   
  5   3   6  1   
  6   4   7  1   
  7   4  19  1   
  8   5   8  1   
  9   5  20  1   
 10   5  21  1   
 11   6   9  1   
 12   6  22  1   
 13   6  23  1   
 14   7  10  ar  
 15   7  11  ar  
 16   8  12  1   
 17   8  24  1   
 18   8  25  1   
 19   9  12  1   
 20   9  26  1   
 21   9  27  1   
 22  10  13  ar  
 23  10  14  1   
 24  11  15  ar  
 25  11  28  1   
 26  12  16  1   
 27  12  29  1   
 28  13  17  ar  
 29  13  30  1   
 30  14  31  1   
 31  14  32  1   
 32  14  33  1   
 33  15  17  ar  
 34  15  34  1   
 35  16  18  1   
 36  16  35  1   
 37  16  36  1   
 38  17  37  1   
 39  18  38  1   
 40  18  39  1   
 41  18  40  1   
@<TRIPOS>SUBSTRUCTURE
  1 ****   4 GROUP 4 **** **** 0

# MOE 2024.06 (io_trps.svl 2023.06)
