@<TRIPOS>MOLECULE
NONAME
41 42 1 0 0 
SMALL
USER_CHARGES


@<TRIPOS>ATOM
  1 O       -9.4530    -0.8750     0.3440 O.3   1 <1>  -0.3630 
  2 C      -10.8020    -0.9420     0.1740 C.ar  1 <1>   0.0830 
  3 C       -8.6700     0.0810    -0.3220 C.3   1 <1>   0.1200 
  4 C      -11.4900    -1.9260     0.8780 C.ar  1 <1>  -0.1440 
  5 C      -11.5040    -0.0760    -0.6630 C.ar  1 <1>  -0.1500 
  6 C       -7.2230    -0.1440     0.1140 C.3   1 <1>  -0.1600 
  7 C      -12.8640    -2.0310     0.7380 C.ar  1 <1>  -0.1500 
  8 C      -10.7510    -2.8870     1.7980 C.3   1 <1>  -0.0970 
  9 C      -12.8770    -0.1870    -0.8000 C.ar  1 <1>  -0.1430 
 10 C       -6.2920     0.8650    -0.5540 C.3   1 <1>   0.3430 
 11 C      -13.5540    -1.1680    -0.0940 C.ar  1 <1>  -0.1500 
 12 C      -13.6410     0.7580    -1.7100 C.3   1 <1>  -0.0970 
 13 N       -4.8790     0.5840    -0.1800 N.4   1 <1>  -0.9590 
 14 C       -4.5600     0.8480     1.2470 C.3   1 <1>   0.3430 
 15 C       -3.9030     1.3800    -0.9640 C.3   1 <1>   0.3430 
 16 C       -3.0430     0.9750     1.2800 C.3   1 <1>  -0.1600 
 17 C       -2.6170     1.3050    -0.1540 C.3   1 <1>  -0.1600 
 18 H       -9.0190     1.0590    -0.0340 H     1 <1>   0.0800 
 19 H       -8.7890    -0.0660    -1.3820 H     1 <1>   0.0800 
 20 H      -11.0010     0.6920    -1.2150 H     1 <1>   0.1500 
 21 H       -6.9370    -1.1420    -0.1660 H     1 <1>   0.0800 
 22 H       -7.1760    -0.0410     1.1830 H     1 <1>   0.0800 
 23 H      -13.4080    -2.7870     1.2760 H     1 <1>   0.1500 
 24 H      -10.0190    -3.4380     1.2360 H     1 <1>   0.0800 
 25 H      -11.4280    -3.5850     2.2560 H     1 <1>   0.0800 
 26 H      -10.2500    -2.3350     2.5730 H     1 <1>   0.0800 
 27 H       -6.5610     1.8660    -0.2570 H     1 <1>   0.0800 
 28 H       -6.4030     0.7890    -1.6250 H     1 <1>   0.0800 
 29 H      -14.6210    -1.2640    -0.1890 H     1 <1>   0.1500 
 30 H      -13.0180     1.0900    -2.5200 H     1 <1>   0.0800 
 31 H      -13.9710     1.6140    -1.1500 H     1 <1>   0.0800 
 32 H      -14.5010     0.2640    -2.1270 H     1 <1>   0.0800 
 33 H       -4.6780    -0.4100    -0.3590 H     1 <1>   0.4500 
 34 H       -4.9080     0.0550     1.8890 H     1 <1>   0.0800 
 35 H       -5.0060     1.7810     1.5540 H     1 <1>   0.0800 
 36 H       -4.2310     2.4060    -1.0230 H     1 <1>   0.0800 
 37 H       -3.7720     0.9870    -1.9600 H     1 <1>   0.0800 
 38 H       -2.6050     0.0450     1.5980 H     1 <1>   0.0800 
 39 H       -2.7470     1.7450     1.9720 H     1 <1>   0.0800 
 40 H       -2.0830     2.2380    -0.2090 H     1 <1>   0.0800 
 41 H       -1.9840     0.5270    -0.5460 H     1 <1>   0.0800 
@<TRIPOS>BOND
  1   1   2  1   
  2   1   3  1   
  3   2   4  ar  
  4   2   5  ar  
  5   3   6  1   
  6   3  18  1   
  7   3  19  1   
  8   4   7  ar  
  9   4   8  1   
 10   5   9  ar  
 11   5  20  1   
 12   6  10  1   
 13   6  21  1   
 14   6  22  1   
 15   7  11  ar  
 16   7  23  1   
 17   8  24  1   
 18   8  25  1   
 19   8  26  1   
 20   9  11  ar  
 21   9  12  1   
 22  10  13  1   
 23  10  27  1   
 24  10  28  1   
 25  11  29  1   
 26  12  30  1   
 27  12  31  1   
 28  12  32  1   
 29  13  14  1   
 30  13  15  1   
 31  13  33  1   
 32  14  16  1   
 33  14  34  1   
 34  14  35  1   
 35  15  17  1   
 36  15  36  1   
 37  15  37  1   
 38  16  17  1   
 39  16  38  1   
 40  16  39  1   
 41  17  40  1   
 42  17  41  1   
@<TRIPOS>SUBSTRUCTURE
  1 ****   3 GROUP 4 **** **** 0

# MOE 2024.06 (io_trps.svl 2023.06)
