@<TRIPOS>MOLECULE
NONAME
32 34 1 0 0 
SMALL
USER_CHARGES


@<TRIPOS>ATOM
  1 S       -7.6970    -2.6630     0.9700 S.3   1 <1>  -0.0800 
  2 C       -6.3180    -1.5690     0.8820 C.ar  1 <1>   0.2970 
  3 C       -8.7250    -1.5350     0.0790 C.2   1 <1>  -0.1400 
  4 N       -5.1360    -1.8480     1.3880 N.ar  1 <1>  -0.5670 
  5 C       -6.6660    -0.4190     0.2210 C.ar  1 <1>   0.0000 
  6 C       -8.0310    -0.4240    -0.2350 C.2   1 <1>  -0.1500 
  7 C      -10.1510    -1.9890    -0.1770 C.3   1 <1>   0.0200 
  8 C       -4.2650    -0.8760     1.1910 C.ar  1 <1>   0.4700 
  9 C       -5.6500     0.5300     0.1040 C.ar  1 <1>   0.4100 
 10 C      -10.9580    -0.9460    -0.9540 C.3   1 <1>  -0.2400 
 11 N       -4.4400     0.2910     0.5840 N.ar  1 <1>  -0.6200 
 12 N       -5.8690     1.7530    -0.4920 N.pl3 1 <1>  -0.8380 
 13 C       -6.8120     2.7150     0.1510 C.3   1 <1>   0.2090 
 14 C       -4.7770     2.4380    -1.2480 C.3   1 <1>   0.2090 
 15 C       -6.0430     3.8050     0.9210 C.3   1 <1>   0.1200 
 16 C       -4.1270     3.5440    -0.3960 C.3   1 <1>   0.1200 
 17 O       -5.0950     4.4290     0.1000 O.3   1 <1>  -0.5600 
 18 H       -8.4080     0.4190    -0.7860 H     1 <1>   0.1500 
 19 H      -10.6310    -2.1820     0.7670 H     1 <1>   0.0800 
 20 H      -10.1290    -2.9100    -0.7330 H     1 <1>   0.0800 
 21 H       -3.2750    -1.0530     1.5780 H     1 <1>   0.1500 
 22 H      -11.0070    -0.0250    -0.4010 H     1 <1>   0.0800 
 23 H      -11.9590    -1.3030    -1.1170 H     1 <1>   0.0800 
 24 H      -10.5000    -0.7580    -1.9090 H     1 <1>   0.0800 
 25 H       -7.4620     2.1960     0.8330 H     1 <1>   0.0800 
 26 H       -7.4200     3.1760    -0.6060 H     1 <1>   0.0800 
 27 H       -5.1860     2.8740    -2.1420 H     1 <1>   0.0800 
 28 H       -4.0280     1.7240    -1.5440 H     1 <1>   0.0800 
 29 H       -5.5350     3.3750     1.7670 H     1 <1>   0.0800 
 30 H       -6.7220     4.5610     1.2720 H     1 <1>   0.0800 
 31 H       -3.4350     4.1120    -0.9910 H     1 <1>   0.0800 
 32 H       -3.5970     3.1090     0.4330 H     1 <1>   0.0800 
@<TRIPOS>BOND
  1   1   2  1   
  2   1   3  1   
  3   2   4  ar  
  4   2   5  ar  
  5   3   6  2   
  6   3   7  1   
  7   4   8  ar  
  8   5   6  1   
  9   5   9  ar  
 10   6  18  1   
 11   7  10  1   
 12   7  19  1   
 13   7  20  1   
 14   8  11  ar  
 15   8  21  1   
 16   9  11  ar  
 17   9  12  1   
 18  10  22  1   
 19  10  23  1   
 20  10  24  1   
 21  12  13  1   
 22  12  14  1   
 23  13  15  1   
 24  13  25  1   
 25  13  26  1   
 26  14  16  1   
 27  14  27  1   
 28  14  28  1   
 29  15  17  1   
 30  15  29  1   
 31  15  30  1   
 32  16  17  1   
 33  16  31  1   
 34  16  32  1   
@<TRIPOS>SUBSTRUCTURE
  1 ****   5 GROUP 4 **** **** 0

# MOE 2024.06 (io_trps.svl 2023.06)
