@<TRIPOS>MOLECULE
NONAME
44 46 1 0 0 
SMALL
USER_CHARGES


@<TRIPOS>ATOM
  1 O        0.0780    -4.1460    -1.3520 O.2   1 <1>  -0.5700 
  2 C        0.2450    -3.2280    -0.5930 C.2   1 <1>   0.6590 
  3 O       -0.5560    -2.1740    -0.5610 O.3   1 <1>  -0.4300 
  4 C        1.4120    -3.1950     0.3920 C.3   1 <1>  -0.0190 
  5 C       -1.6690    -2.0700    -1.4200 C.3   1 <1>   0.1200 
  6 C        2.5470    -2.2960    -0.1340 C.3   1 <1>  -0.1600 
  7 C        1.9600    -4.6030     0.7050 C.3   1 <1>  -0.1600 
  8 C       -2.3640    -0.7430    -1.1350 C.3   1 <1>  -0.2400 
  9 C        3.7510    -2.2850     0.8060 C.3   1 <1>   0.3430 
 10 C        3.1710    -4.5530     1.6340 C.3   1 <1>   0.3430 
 11 N        4.2170    -3.6830     1.0350 N.4   1 <1>  -0.9590 
 12 C        5.4770    -3.7090     1.8200 C.3   1 <1>   0.5240 
 13 C        6.5510    -3.0870     0.9590 C.2   1 <1>  -0.1810 
 14 C        7.0330    -3.6740    -0.2330 C.ar  1 <1>   0.0000 
 15 C        7.2030    -1.9110     1.1360 C.2   1 <1>  -0.3020 
 16 C        7.9700    -2.7850    -0.7490 C.ar  1 <1>  -0.1520 
 17 C        6.7670    -4.8670    -0.9170 C.ar  1 <1>  -0.1500 
 18 N        8.0770    -1.7160     0.1030 N.pl3 1 <1>   0.0330 
 19 C        8.6310    -3.0520    -1.9500 C.ar  1 <1>  -0.1500 
 20 C        7.4190    -5.1290    -2.0990 C.ar  1 <1>  -0.1500 
 21 C        8.3490    -4.2200    -2.6170 C.ar  1 <1>  -0.1500 
 22 H        1.0360    -2.7700     1.3070 H     1 <1>   0.0800 
 23 H       -2.3280    -2.9000    -1.2300 H     1 <1>   0.0800 
 24 H       -1.3200    -2.1120    -2.4390 H     1 <1>   0.0800 
 25 H        2.1820    -1.2890    -0.2440 H     1 <1>   0.0800 
 26 H        2.8590    -2.6310    -1.1090 H     1 <1>   0.0800 
 27 H        2.2370    -5.1040    -0.2070 H     1 <1>   0.0800 
 28 H        1.1860    -5.1910     1.1670 H     1 <1>   0.0800 
 29 H       -2.7000    -0.7100    -0.1140 H     1 <1>   0.0800 
 30 H       -3.2190    -0.6380    -1.7780 H     1 <1>   0.0800 
 31 H       -1.6940     0.0770    -1.3220 H     1 <1>   0.0800 
 32 H        3.4760    -1.8310     1.7440 H     1 <1>   0.0800 
 33 H        4.5420    -1.6990     0.3630 H     1 <1>   0.0800 
 34 H        3.5530    -5.5510     1.7760 H     1 <1>   0.0800 
 35 H        2.8740    -4.1620     2.5940 H     1 <1>   0.0800 
 36 H        4.4720    -4.0540     0.1090 H     1 <1>   0.4500 
 37 H        5.7560    -4.7230     2.0560 H     1 <1>   0.0800 
 38 H        5.3660    -3.1530     2.7360 H     1 <1>   0.0800 
 39 H        7.1110    -1.1880     1.9300 H     1 <1>   0.1500 
 40 H        6.0690    -5.5800    -0.5200 H     1 <1>   0.1500 
 41 H        8.7210    -0.9260    -0.0230 H     1 <1>   0.2700 
 42 H        9.3500    -2.3530    -2.3400 H     1 <1>   0.1500 
 43 H        7.2280    -6.0400    -2.6410 H     1 <1>   0.1500 
 44 H        8.8450    -4.4500    -3.5450 H     1 <1>   0.1500 
@<TRIPOS>BOND
  1   1   2  2   
  2   2   3  1   
  3   2   4  1   
  4   3   5  1   
  5   4   6  1   
  6   4   7  1   
  7   4  22  1   
  8   5   8  1   
  9   5  23  1   
 10   5  24  1   
 11   6   9  1   
 12   6  25  1   
 13   6  26  1   
 14   7  10  1   
 15   7  27  1   
 16   7  28  1   
 17   8  29  1   
 18   8  30  1   
 19   8  31  1   
 20   9  11  1   
 21   9  32  1   
 22   9  33  1   
 23  10  11  1   
 24  10  34  1   
 25  10  35  1   
 26  11  12  1   
 27  11  36  1   
 28  12  13  1   
 29  12  37  1   
 30  12  38  1   
 31  13  14  1   
 32  13  15  2   
 33  14  16  ar  
 34  14  17  ar  
 35  15  18  1   
 36  15  39  1   
 37  16  18  1   
 38  16  19  ar  
 39  17  20  ar  
 40  17  40  1   
 41  18  41  1   
 42  19  21  ar  
 43  19  42  1   
 44  20  21  ar  
 45  20  43  1   
 46  21  44  1   
@<TRIPOS>SUBSTRUCTURE
  1 ****  11 GROUP 4 **** **** 0

# MOE 2024.06 (io_trps.svl 2023.06)
