@<TRIPOS>MOLECULE
NONAME
48 50 1 0 0 
SMALL
USER_CHARGES


@<TRIPOS>ATOM
  1 BR       0.9650    -0.5600     3.1250 Br    1 <1>  -0.1110 
  2 C        0.2010    -1.9220     1.9890 C.ar  1 <1>   0.1110 
  3 C        0.9340    -2.4220     0.9210 C.ar  1 <1>   0.0820 
  4 C       -1.0750    -2.3570     2.2850 C.ar  1 <1>  -0.1500 
  5 O        2.1830    -1.9290     0.7110 O.3   1 <1>  -0.3630 
  6 C        0.3450    -3.3990     0.1240 C.ar  1 <1>  -0.1500 
  7 C       -1.6540    -3.3300     1.4860 C.ar  1 <1>  -0.1430 
  8 C        3.0340    -2.4450    -0.2890 C.3   1 <1>   0.0400 
  9 C       -0.9450    -3.8520     0.4040 C.ar  1 <1>   0.0820 
 10 C       -3.0550    -3.8240     1.7950 C.3   1 <1>   0.4870 
 11 O       -1.5730    -4.7970    -0.3500 O.3   1 <1>  -0.3630 
 12 N       -3.9270    -3.5280     0.6320 N.4   1 <1>  -0.9590 
 13 C       -0.8590    -5.5730    -1.2940 C.3   1 <1>   0.0400 
 14 C       -4.0760    -2.0470     0.3870 C.3   1 <1>   0.3430 
 15 C       -5.2620    -4.2160     0.7200 C.3   1 <1>   0.3430 
 16 C       -4.9390    -1.7360    -0.8530 C.3   1 <1>   0.2090 
 17 C       -6.1590    -3.9360    -0.5050 C.3   1 <1>   0.2090 
 18 N       -6.2390    -2.4730    -0.8090 N.pl3 1 <1>  -0.8380 
 19 C       -7.4000    -1.7510    -0.5380 C.ar  1 <1>   0.1000 
 20 C       -8.1040    -1.9130     0.6500 C.ar  1 <1>  -0.1500 
 21 C       -7.8720    -0.8320    -1.4700 C.ar  1 <1>  -0.1500 
 22 C       -9.2410    -1.1660     0.8810 C.ar  1 <1>   0.1770 
 23 C       -9.0130    -0.0860    -1.2310 C.ar  1 <1>  -0.1500 
 24 CL     -10.1050    -1.3820     2.3820 Cl    1 <1>  -0.1770 
 25 C       -9.7080    -0.2510    -0.0440 C.ar  1 <1>  -0.1500 
 26 H       -1.5850    -1.9320     3.1320 H     1 <1>   0.1500 
 27 H        0.8890    -3.7960    -0.7090 H     1 <1>   0.1500 
 28 H        3.9710    -1.9200    -0.2310 H     1 <1>   0.0800 
 29 H        2.5850    -2.2790    -1.2520 H     1 <1>   0.0800 
 30 H        3.1930    -3.4930    -0.1090 H     1 <1>   0.0800 
 31 H       -3.4360    -3.3450     2.6820 H     1 <1>   0.0800 
 32 H       -3.0180    -4.8880     1.9650 H     1 <1>   0.0800 
 33 H       -3.4090    -3.9190    -0.1730 H     1 <1>   0.4500 
 34 H       -0.5230    -4.9370    -2.0940 H     1 <1>   0.0800 
 35 H       -1.5200    -6.3260    -1.6840 H     1 <1>   0.0800 
 36 H       -0.0240    -6.0440    -0.8040 H     1 <1>   0.0800 
 37 H       -3.1060    -1.5960     0.2570 H     1 <1>   0.0800 
 38 H       -4.5420    -1.5850     1.2420 H     1 <1>   0.0800 
 39 H       -5.7820    -3.8750     1.5990 H     1 <1>   0.0800 
 40 H       -5.1210    -5.2810     0.8120 H     1 <1>   0.0800 
 41 H       -4.4060    -2.0120    -1.7460 H     1 <1>   0.0800 
 42 H       -5.1240    -0.6760    -0.8980 H     1 <1>   0.0800 
 43 H       -7.1480    -4.3240    -0.3280 H     1 <1>   0.0800 
 44 H       -5.7640    -4.4480    -1.3650 H     1 <1>   0.0800 
 45 H       -7.7790    -2.6060     1.3970 H     1 <1>   0.1500 
 46 H       -7.3400    -0.7100    -2.3960 H     1 <1>   0.1500 
 47 H       -9.3630     0.6190    -1.9660 H     1 <1>   0.1500 
 48 H      -10.5970     0.3170     0.1620 H     1 <1>   0.1500 
@<TRIPOS>BOND
  1   1   2  1   
  2   2   3  ar  
  3   2   4  ar  
  4   3   5  1   
  5   3   6  ar  
  6   4   7  ar  
  7   4  26  1   
  8   5   8  1   
  9   6   9  ar  
 10   6  27  1   
 11   7   9  ar  
 12   7  10  1   
 13   8  28  1   
 14   8  29  1   
 15   8  30  1   
 16   9  11  1   
 17  10  12  1   
 18  10  31  1   
 19  10  32  1   
 20  11  13  1   
 21  12  14  1   
 22  12  15  1   
 23  12  33  1   
 24  13  34  1   
 25  13  35  1   
 26  13  36  1   
 27  14  16  1   
 28  14  37  1   
 29  14  38  1   
 30  15  17  1   
 31  15  39  1   
 32  15  40  1   
 33  16  18  1   
 34  16  41  1   
 35  16  42  1   
 36  17  18  1   
 37  17  43  1   
 38  17  44  1   
 39  18  19  1   
 40  19  20  ar  
 41  19  21  ar  
 42  20  22  ar  
 43  20  45  1   
 44  21  23  ar  
 45  21  46  1   
 46  22  24  1   
 47  22  25  ar  
 48  23  25  ar  
 49  23  47  1   
 50  25  48  1   
@<TRIPOS>SUBSTRUCTURE
  1 ****  14 GROUP 4 **** **** 0

# MOE 2024.06 (io_trps.svl 2023.06)
