@<TRIPOS>MOLECULE
NONAME
43 43 1 0 0 
SMALL
USER_CHARGES


@<TRIPOS>ATOM
  1 S        0.5450     0.5700    -1.2210 S.o2  1 <1>   1.3330 
  2 O        1.7060     0.7030    -2.0710 O.2   1 <1>  -0.6500 
  3 O        0.6420    -0.1600     0.0180 O.2   1 <1>  -0.6500 
  4 N        0.0230     2.1790    -0.8640 N.am  1 <1>  -0.6930 
  5 C       -0.8060    -0.0570    -2.1950 C.3   1 <1>  -0.1350 
  6 C       -1.0860     2.4010    -0.0600 C.ar  1 <1>   0.1990 
  7 C        1.0810     3.2380    -0.8640 C.3   1 <1>   0.2570 
  8 C       -1.0550     2.1370     1.3030 C.ar  1 <1>  -0.1500 
  9 C       -2.2550     2.9020    -0.6160 C.ar  1 <1>  -0.1500 
 10 C        2.1830     3.0410     0.1850 C.2   1 <1>   0.5690 
 11 C       -2.1700     2.3600     2.0900 C.ar  1 <1>  -0.1500 
 12 C       -3.3720     3.1260     0.1680 C.ar  1 <1>  -0.1500 
 13 O        2.1770     3.7330     1.1760 O.2   1 <1>  -0.5700 
 14 N        3.1500     2.1070    -0.0290 N.am  1 <1>  -0.7300 
 15 C       -3.3360     2.8530     1.5270 C.ar  1 <1>  -0.1430 
 16 C        4.2140     1.7440     0.9240 C.3   1 <1>   0.1400 
 17 C       -4.5570     3.0980     2.3940 C.3   1 <1>  -0.0970 
 18 C        5.5350     1.6090     0.1710 C.3   1 <1>  -0.1600 
 19 C        6.6660     1.2480     1.1300 C.3   1 <1>   0.1200 
 20 O        7.8320     1.1290     0.3860 O.3   1 <1>  -0.5600 
 21 C        8.9540     0.8050     1.1410 C.3   1 <1>   0.0400 
 22 H       -0.5950    -1.0590    -2.5130 H     1 <1>   0.0800 
 23 H       -0.9550     0.5570    -3.0610 H     1 <1>   0.0800 
 24 H       -1.7070    -0.0640    -1.6140 H     1 <1>   0.0800 
 25 H        0.6200     4.1920    -0.6830 H     1 <1>   0.0800 
 26 H        1.5380     3.2790    -1.8360 H     1 <1>   0.0800 
 27 H       -0.1510     1.7560     1.7460 H     1 <1>   0.1500 
 28 H       -2.2850     3.1190    -1.6680 H     1 <1>   0.1500 
 29 H       -2.1240     2.1490     3.1440 H     1 <1>   0.1500 
 30 H       -4.2700     3.5150    -0.2800 H     1 <1>   0.1500 
 31 H        3.0580     1.4850    -0.8460 H     1 <1>   0.3700 
 32 H        3.9560     0.8110     1.3960 H     1 <1>   0.0800 
 33 H        4.2970     2.5030     1.6850 H     1 <1>   0.0800 
 34 H       -5.4570     3.0270     1.8100 H     1 <1>   0.0800 
 35 H       -4.5010     4.0790     2.8300 H     1 <1>   0.0800 
 36 H       -4.6070     2.3690     3.1830 H     1 <1>   0.0800 
 37 H        5.7690     2.5440    -0.3070 H     1 <1>   0.0800 
 38 H        5.4470     0.8380    -0.5730 H     1 <1>   0.0800 
 39 H        6.4680     0.3070     1.6150 H     1 <1>   0.0800 
 40 H        6.8020     2.0230     1.8660 H     1 <1>   0.0800 
 41 H        9.7960     0.7390     0.4750 H     1 <1>   0.0800 
 42 H        8.7970    -0.1440     1.6230 H     1 <1>   0.0800 
 43 H        9.1280     1.5790     1.8690 H     1 <1>   0.0800 
@<TRIPOS>BOND
  1   1   2  2   
  2   1   3  2   
  3   1   4  am  
  4   1   5  1   
  5   4   6  1   
  6   4   7  1   
  7   5  22  1   
  8   5  23  1   
  9   5  24  1   
 10   6   8  ar  
 11   6   9  ar  
 12   7  10  1   
 13   7  25  1   
 14   7  26  1   
 15   8  11  ar  
 16   8  27  1   
 17   9  12  ar  
 18   9  28  1   
 19  10  13  2   
 20  10  14  am  
 21  11  15  ar  
 22  11  29  1   
 23  12  15  ar  
 24  12  30  1   
 25  14  16  1   
 26  14  31  1   
 27  15  17  1   
 28  16  18  1   
 29  16  32  1   
 30  16  33  1   
 31  17  34  1   
 32  17  35  1   
 33  17  36  1   
 34  18  19  1   
 35  18  37  1   
 36  18  38  1   
 37  19  20  1   
 38  19  39  1   
 39  19  40  1   
 40  20  21  1   
 41  21  41  1   
 42  21  42  1   
 43  21  43  1   
@<TRIPOS>SUBSTRUCTURE
  1 ****  10 GROUP 4 **** **** 0

# MOE 2024.06 (io_trps.svl 2023.06)
