@<TRIPOS>MOLECULE
NONAME
49 50 1 0 0 
SMALL
USER_CHARGES


@<TRIPOS>ATOM
  1 O        0.6390     0.7550     1.3720 O.2   1 <1>  -0.5700 
  2 C        0.3300     1.5870     0.5590 C.2   1 <1>   0.6590 
  3 O       -0.9270     1.9300     0.3290 O.3   1 <1>  -0.4300 
  4 C        1.3760     2.3090    -0.2720 C.3   1 <1>  -0.0190 
  5 C       -1.9950     1.3430     1.0360 C.3   1 <1>   0.1200 
  6 C        2.7090     1.5380    -0.2010 C.3   1 <1>   0.3430 
  7 C        1.5410     3.7810     0.1560 C.3   1 <1>  -0.1600 
  8 C       -3.2930     1.9660     0.5340 C.3   1 <1>  -0.2400 
  9 N        3.9170     2.4330    -0.2800 N.4   1 <1>  -0.9590 
 10 C        2.6120     4.4890    -0.6980 C.3   1 <1>  -0.1600 
 11 C        3.7110     3.5610    -1.2340 C.3   1 <1>   0.3430 
 12 C        5.1390     1.6320    -0.5670 C.3   1 <1>   0.3430 
 13 C        6.3940     2.4360    -0.2270 C.3   1 <1>  -0.1600 
 14 C        7.6680     1.5850    -0.3350 C.3   1 <1>   0.0630 
 15 C        8.8560     2.3920     0.1790 C.ar  1 <1>  -0.1440 
 16 C        7.9240     1.0870    -1.7660 C.3   1 <1>  -0.2400 
 17 C        9.3240     3.5080    -0.5030 C.ar  1 <1>  -0.1500 
 18 C        9.4840     2.0160     1.3590 C.ar  1 <1>  -0.1500 
 19 C       10.3950     4.2350    -0.0140 C.ar  1 <1>  -0.1500 
 20 C       10.5550     2.7420     1.8490 C.ar  1 <1>  -0.1500 
 21 C       11.0110     3.8530     1.1640 C.ar  1 <1>  -0.1500 
 22 H        1.0330     2.2850    -1.2910 H     1 <1>   0.0800 
 23 H       -1.8570     1.5340     2.0880 H     1 <1>   0.0800 
 24 H       -1.9820     0.2800     0.8580 H     1 <1>   0.0800 
 25 H        2.7290     0.8180    -1.0020 H     1 <1>   0.0800 
 26 H        2.7570     0.9880     0.7260 H     1 <1>   0.0800 
 27 H        1.8300     3.8130     1.1940 H     1 <1>   0.0800 
 28 H        0.6020     4.3030     0.0690 H     1 <1>   0.0800 
 29 H       -3.2910     3.0260     0.7110 H     1 <1>   0.0800 
 30 H       -4.1270     1.5350     1.0580 H     1 <1>   0.0800 
 31 H       -3.4160     1.7750    -0.5170 H     1 <1>   0.0800 
 32 H        4.0340     2.8560     0.6520 H     1 <1>   0.4500 
 33 H        3.0610     5.2780    -0.1190 H     1 <1>   0.0800 
 34 H        2.1390     4.9610    -1.5430 H     1 <1>   0.0800 
 35 H        3.4160     3.1670    -2.1930 H     1 <1>   0.0800 
 36 H        4.6200     4.1240    -1.3660 H     1 <1>   0.0800 
 37 H        5.1570     1.3380    -1.6040 H     1 <1>   0.0800 
 38 H        5.1310     0.7380     0.0370 H     1 <1>   0.0800 
 39 H        6.3230     2.7960     0.7850 H     1 <1>   0.0800 
 40 H        6.4860     3.2810    -0.8840 H     1 <1>   0.0800 
 41 H        7.5560     0.7180     0.2950 H     1 <1>   0.0800 
 42 H        7.9540     1.9040    -2.4640 H     1 <1>   0.0800 
 43 H        7.1680     0.3890    -2.0780 H     1 <1>   0.0800 
 44 H        8.8740     0.5820    -1.8030 H     1 <1>   0.0800 
 45 H        8.8640     3.8230    -1.4210 H     1 <1>   0.1500 
 46 H        9.1480     1.1550     1.9090 H     1 <1>   0.1500 
 47 H       10.7520     5.0970    -0.5490 H     1 <1>   0.1500 
 48 H       11.0360     2.4420     2.7650 H     1 <1>   0.1500 
 49 H       11.8450     4.4170     1.5450 H     1 <1>   0.1500 
@<TRIPOS>BOND
  1   1   2  2   
  2   2   3  1   
  3   2   4  1   
  4   3   5  1   
  5   4   6  1   
  6   4   7  1   
  7   4  22  1   
  8   5   8  1   
  9   5  23  1   
 10   5  24  1   
 11   6   9  1   
 12   6  25  1   
 13   6  26  1   
 14   7  10  1   
 15   7  27  1   
 16   7  28  1   
 17   8  29  1   
 18   8  30  1   
 19   8  31  1   
 20   9  11  1   
 21   9  12  1   
 22   9  32  1   
 23  10  11  1   
 24  10  33  1   
 25  10  34  1   
 26  11  35  1   
 27  11  36  1   
 28  12  13  1   
 29  12  37  1   
 30  12  38  1   
 31  13  14  1   
 32  13  39  1   
 33  13  40  1   
 34  14  15  1   
 35  14  16  1   
 36  14  41  1   
 37  15  17  ar  
 38  15  18  ar  
 39  16  42  1   
 40  16  43  1   
 41  16  44  1   
 42  17  19  ar  
 43  17  45  1   
 44  18  20  ar  
 45  18  46  1   
 46  19  21  ar  
 47  19  47  1   
 48  20  21  ar  
 49  20  48  1   
 50  21  49  1   
@<TRIPOS>SUBSTRUCTURE
  1 ****   9 GROUP 4 **** **** 0

# MOE 2024.06 (io_trps.svl 2023.06)
