@<TRIPOS>MOLECULE
NONAME
43 44 1 0 0 
SMALL
USER_CHARGES


@<TRIPOS>ATOM
  1 CL       6.2840     1.1390    -2.8970 Cl    1 <1>  -0.1770 
  2 C        5.9620    -0.4350    -2.2210 C.ar  1 <1>   0.1770 
  3 C        5.8730    -0.5720    -0.8490 C.ar  1 <1>  -0.1500 
  4 C        5.8190    -1.5170    -3.0710 C.ar  1 <1>  -0.1500 
  5 C        5.6620    -1.8380    -0.3100 C.ar  1 <1>   0.0830 
  6 C        5.5830    -2.7700    -2.5340 C.ar  1 <1>  -0.1500 
  7 O        5.6260    -2.1060     1.0190 O.3   1 <1>  -0.3630 
  8 C        5.5050    -2.9250    -1.1590 C.ar  1 <1>  -0.1500 
  9 C        5.8310    -1.1170     2.0230 C.3   1 <1>   0.2610 
 10 C        7.2270    -0.4600     1.9480 C.2   1 <1>   0.5690 
 11 C        5.5610    -1.7760     3.3800 C.3   1 <1>  -0.2400 
 12 O        7.2490     0.7470     1.9870 O.2   1 <1>  -0.5700 
 13 N        8.4090    -1.1590     1.7850 N.am  1 <1>  -0.6600 
 14 C        8.5330    -2.6200     1.5110 C.3   1 <1>   0.1400 
 15 C        9.6740    -0.4270     1.4780 C.3   1 <1>   0.1400 
 16 C        8.8670    -2.8380     0.0190 C.3   1 <1>   0.3430 
 17 C        9.9970    -0.5900    -0.0180 C.3   1 <1>   0.3430 
 18 N       10.0670    -2.0430    -0.4330 N.4   1 <1>  -0.9590 
 19 C       10.2600    -2.1790    -1.8930 C.3   1 <1>   0.4810 
 20 C       11.6830    -1.7720    -2.1940 C.2   1 <1>  -0.2880 
 21 C       12.6860    -2.6150    -2.4610 C.2   1 <1>  -0.3000 
 22 H        5.9660     0.3100    -0.2450 H     1 <1>   0.1500 
 23 H        5.8820    -1.3730    -4.1360 H     1 <1>   0.1500 
 24 H        5.4500    -3.6200    -3.1830 H     1 <1>   0.1500 
 25 H        5.3110    -3.8970    -0.7380 H     1 <1>   0.1500 
 26 H        5.0890    -0.3540     1.8650 H     1 <1>   0.0800 
 27 H        6.2710    -2.5570     3.5780 H     1 <1>   0.0800 
 28 H        4.5650    -2.1820     3.4000 H     1 <1>   0.0800 
 29 H        5.6410    -1.0400     4.1590 H     1 <1>   0.0800 
 30 H        7.6320    -3.1470     1.7650 H     1 <1>   0.0800 
 31 H        9.3180    -3.0300     2.1220 H     1 <1>   0.0800 
 32 H       10.4760    -0.8200     2.0780 H     1 <1>   0.0800 
 33 H        9.5830     0.6200     1.7110 H     1 <1>   0.0800 
 34 H        8.0090    -2.5460    -0.5620 H     1 <1>   0.0800 
 35 H        9.0360    -3.8880    -0.1540 H     1 <1>   0.0800 
 36 H       10.9330    -0.1000    -0.2300 H     1 <1>   0.0800 
 37 H        9.2270    -0.0880    -0.5810 H     1 <1>   0.0800 
 38 H       10.9090    -2.4470    -0.0030 H     1 <1>   0.4500 
 39 H        9.5570    -1.5690    -2.4390 H     1 <1>   0.0800 
 40 H       10.1220    -3.2090    -2.1840 H     1 <1>   0.0800 
 41 H       11.8280    -0.7040    -2.1850 H     1 <1>   0.1500 
 42 H       13.6930    -2.2970    -2.6800 H     1 <1>   0.1500 
 43 H       12.6030    -3.6900    -2.4940 H     1 <1>   0.1500 
@<TRIPOS>BOND
  1   1   2  1   
  2   2   3  ar  
  3   2   4  ar  
  4   3   5  ar  
  5   3  22  1   
  6   4   6  ar  
  7   4  23  1   
  8   5   7  1   
  9   5   8  ar  
 10   6   8  ar  
 11   6  24  1   
 12   7   9  1   
 13   8  25  1   
 14   9  10  1   
 15   9  11  1   
 16   9  26  1   
 17  10  12  2   
 18  10  13  am  
 19  11  27  1   
 20  11  28  1   
 21  11  29  1   
 22  13  14  1   
 23  13  15  1   
 24  14  16  1   
 25  14  30  1   
 26  14  31  1   
 27  15  17  1   
 28  15  32  1   
 29  15  33  1   
 30  16  18  1   
 31  16  34  1   
 32  16  35  1   
 33  17  18  1   
 34  17  36  1   
 35  17  37  1   
 36  18  19  1   
 37  18  38  1   
 38  19  20  1   
 39  19  39  1   
 40  19  40  1   
 41  20  21  2   
 42  20  41  1   
 43  21  42  1   
 44  21  43  1   
@<TRIPOS>SUBSTRUCTURE
  1 ****  16 GROUP 4 **** **** 0

# MOE 2024.06 (io_trps.svl 2023.06)
