@<TRIPOS>MOLECULE
NONAME
55 57 1 0 0 
SMALL
USER_CHARGES


@<TRIPOS>ATOM
  1 O       -0.1170     0.8500     0.1440 O.2   1 <1>  -0.5700 
  2 C       -0.8890     1.7680     0.3310 C.2   1 <1>   0.6900 
  3 N       -0.4800     3.0770     0.1040 N.am  1 <1>  -0.4200 
  4 N       -2.1790     1.5060     0.7670 N.am  1 <1>  -0.4360 
  5 C       -1.3380     4.1480     0.3190 C.2   1 <1>   0.7030 
  6 C        0.9250     3.3240    -0.3510 C.3   1 <1>   0.0600 
  7 C       -3.0400     2.5750     0.9270 C.2   1 <1>   0.4260 
  8 C       -2.6170     0.1060     1.0510 C.3   1 <1>   0.0600 
  9 O       -0.9460     5.2910     0.1610 O.2   1 <1>  -0.5700 
 10 C       -2.6880     3.8680     0.7280 C.2   1 <1>   0.2770 
 11 N       -4.3490     2.5400     1.2830 N.pl3 1 <1>  -0.7000 
 12 N       -3.8360     4.6350     0.9810 N.pl3 1 <1>  -0.7640 
 13 C       -4.8060     3.7880     1.3110 C.cat 1 <1>   0.6560 
 14 C       -3.8780     6.1250     0.8700 C.3   1 <1>   0.3540 
 15 C       -6.2700     4.1300     1.6570 C.3   1 <1>   0.2540 
 16 C       -4.5270     6.5720    -0.4570 C.3   1 <1>  -0.0800 
 17 N       -7.2680     3.2940     0.9210 N.3   1 <1>  -0.8100 
 18 C       -3.7900     6.0370    -1.6970 C.3   1 <1>  -0.2400 
 19 C       -4.5800     8.1040    -0.5260 C.3   1 <1>  -0.2400 
 20 C       -7.3060     3.6070    -0.5310 C.3   1 <1>   0.1100 
 21 C       -8.6200     3.4190     1.5200 C.3   1 <1>   0.1100 
 22 C       -8.3300     2.7290    -1.2870 C.3   1 <1>   0.3430 
 23 C       -9.6660     2.5430     0.7920 C.3   1 <1>   0.3430 
 24 N       -9.7030     2.8270    -0.6840 N.4   1 <1>  -0.9590 
 25 C      -10.6600     1.9130    -1.3800 C.3   1 <1>   0.2630 
 26 H        1.5870     3.3050     0.4970 H     1 <1>   0.0800 
 27 H        1.0120     4.2790    -0.8410 H     1 <1>   0.0800 
 28 H        1.2310     2.5620    -1.0470 H     1 <1>   0.0800 
 29 H       -1.7670    -0.5170     1.2750 H     1 <1>   0.0800 
 30 H       -3.1190    -0.2990     0.1900 H     1 <1>   0.0800 
 31 H       -3.2770     0.0830     1.9000 H     1 <1>   0.0800 
 32 H       -4.9070     1.7070     1.4780 H     1 <1>   0.4500 
 33 H       -2.8830     6.5320     0.9390 H     1 <1>   0.0800 
 34 H       -4.4390     6.5280     1.6960 H     1 <1>   0.0800 
 35 H       -6.4570     5.1720     1.4650 H     1 <1>   0.0800 
 36 H       -6.3900     3.9690     2.7150 H     1 <1>   0.0800 
 37 H       -5.5400     6.2150    -0.4830 H     1 <1>   0.0800 
 38 H       -2.7610     6.3580    -1.6940 H     1 <1>   0.0800 
 39 H       -4.2510     6.4100    -2.5960 H     1 <1>   0.0800 
 40 H       -3.8160     4.9640    -1.7350 H     1 <1>   0.0800 
 41 H       -3.5870     8.5220    -0.5210 H     1 <1>   0.0800 
 42 H       -5.1250     8.5090     0.3090 H     1 <1>   0.0800 
 43 H       -5.0720     8.4240    -1.4290 H     1 <1>   0.0800 
 44 H       -6.3350     3.4400    -0.9640 H     1 <1>   0.0800 
 45 H       -7.5580     4.6440    -0.6800 H     1 <1>   0.0800 
 46 H       -8.9430     4.4470     1.4970 H     1 <1>   0.0800 
 47 H       -8.5830     3.1120     2.5520 H     1 <1>   0.0800 
 48 H       -7.9930     1.7060    -1.2520 H     1 <1>   0.0800 
 49 H       -8.3620     3.0310    -2.3210 H     1 <1>   0.0800 
 50 H      -10.6380     2.7200     1.2240 H     1 <1>   0.0800 
 51 H       -9.4170     1.5080     0.9560 H     1 <1>   0.0800 
 52 H      -10.0340     3.7950    -0.8080 H     1 <1>   0.4500 
 53 H      -10.3460     0.8870    -1.2720 H     1 <1>   0.0800 
 54 H      -10.7090     2.1490    -2.4310 H     1 <1>   0.0800 
 55 H      -11.6490     2.0160    -0.9620 H     1 <1>   0.0800 
@<TRIPOS>BOND
  1   1   2  2   
  2   2   3  am  
  3   2   4  am  
  4   3   5  am  
  5   3   6  1   
  6   4   7  1   
  7   4   8  1   
  8   5   9  2   
  9   5  10  1   
 10   6  26  1   
 11   6  27  1   
 12   6  28  1   
 13   7  10  2   
 14   7  11  1   
 15   8  29  1   
 16   8  30  1   
 17   8  31  1   
 18  10  12  1   
 19  11  13  ar  
 20  11  32  1   
 21  12  13  ar  
 22  12  14  1   
 23  13  15  1   
 24  14  16  1   
 25  14  33  1   
 26  14  34  1   
 27  15  17  1   
 28  15  35  1   
 29  15  36  1   
 30  16  18  1   
 31  16  19  1   
 32  16  37  1   
 33  17  20  1   
 34  17  21  1   
 35  18  38  1   
 36  18  39  1   
 37  18  40  1   
 38  19  41  1   
 39  19  42  1   
 40  19  43  1   
 41  20  22  1   
 42  20  44  1   
 43  20  45  1   
 44  21  23  1   
 45  21  46  1   
 46  21  47  1   
 47  22  24  1   
 48  22  48  1   
 49  22  49  1   
 50  23  24  1   
 51  23  50  1   
 52  23  51  1   
 53  24  25  1   
 54  24  52  1   
 55  25  53  1   
 56  25  54  1   
 57  25  55  1   
@<TRIPOS>SUBSTRUCTURE
  1 ****  13 GROUP 4 **** **** 0

# MOE 2024.06 (io_trps.svl 2023.06)
