@<TRIPOS>MOLECULE
NONAME
30 30 1 0 0 
SMALL
USER_CHARGES


@<TRIPOS>ATOM
  1 F        0.5790    -0.1010     0.4560 F     1 <1>  -0.1900 
  2 C        1.3370     0.9560     0.3140 C.ar  1 <1>   0.1900 
  3 C        2.7030     0.8040     0.1110 C.ar  1 <1>  -0.1440 
  4 C        0.7160     2.1880     0.3750 C.ar  1 <1>  -0.1500 
  5 C        3.4750     1.9600    -0.0430 C.ar  1 <1>   0.1170 
  6 C        3.3490    -0.5820     0.0610 C.3   1 <1>  -0.0970 
  7 C        1.4860     3.3250     0.2240 C.ar  1 <1>  -0.1500 
  8 N        4.8540     1.8520    -0.2780 N.am  1 <1>  -0.5470 
  9 C        2.8490     3.2050     0.0150 C.ar  1 <1>  -0.1500 
 10 C        5.8810     2.6910     0.0370 C.2   1 <1>   0.6900 
 11 O        5.7200     3.6830     0.7190 O.2   1 <1>  -0.5700 
 12 N        7.1110     2.3720    -0.4330 N.am  1 <1>  -0.7300 
 13 C        8.3380     3.1470    -0.1570 C.3   1 <1>   0.1400 
 14 C        9.5120     2.1810     0.0090 C.3   1 <1>  -0.1600 
 15 C       10.8140     2.9340     0.3010 C.3   1 <1>  -0.2400 
 16 H       -0.3450     2.2510     0.5370 H     1 <1>   0.1500 
 17 H        2.6580    -1.3550     0.3460 H     1 <1>   0.0800 
 18 H        4.1810    -0.6250     0.7410 H     1 <1>   0.0800 
 19 H        3.6920    -0.7910    -0.9350 H     1 <1>   0.0800 
 20 H        1.0310     4.3000     0.2680 H     1 <1>   0.1500 
 21 H        5.1590     0.9470    -0.6120 H     1 <1>   0.3700 
 22 H        3.4360     4.0980    -0.1060 H     1 <1>   0.1500 
 23 H        7.1940     1.6710    -1.1640 H     1 <1>   0.3700 
 24 H        8.2100     3.7270     0.7430 H     1 <1>   0.0800 
 25 H        8.5220     3.8230    -0.9740 H     1 <1>   0.0800 
 26 H        9.6350     1.6040    -0.8910 H     1 <1>   0.0800 
 27 H        9.3050     1.5100     0.8250 H     1 <1>   0.0800 
 28 H       11.0540     3.6030    -0.5070 H     1 <1>   0.0800 
 29 H       11.6250     2.2370     0.4190 H     1 <1>   0.0800 
 30 H       10.7220     3.5060     1.2080 H     1 <1>   0.0800 
@<TRIPOS>BOND
  1   1   2  1   
  2   2   3  ar  
  3   2   4  ar  
  4   3   5  ar  
  5   3   6  1   
  6   4   7  ar  
  7   4  16  1   
  8   5   8  1   
  9   5   9  ar  
 10   6  17  1   
 11   6  18  1   
 12   6  19  1   
 13   7   9  ar  
 14   7  20  1   
 15   8  10  am  
 16   8  21  1   
 17   9  22  1   
 18  10  11  2   
 19  10  12  am  
 20  12  13  1   
 21  12  23  1   
 22  13  14  1   
 23  13  24  1   
 24  13  25  1   
 25  14  15  1   
 26  14  26  1   
 27  14  27  1   
 28  15  28  1   
 29  15  29  1   
 30  15  30  1   
@<TRIPOS>SUBSTRUCTURE
  1 ****   8 GROUP 4 **** **** 0

# MOE 2024.06 (io_trps.svl 2023.06)
