@<TRIPOS>MOLECULE
NONAME
28 29 1 0 0 
SMALL
USER_CHARGES


@<TRIPOS>ATOM
  1 O       -3.7710     3.2210    -0.6600 O.2   1 <1>  -0.5700 
  2 C       -4.1200     4.1720     0.0110 C.2   1 <1>   0.5440 
  3 N       -3.1260     4.8770     0.6510 N.am  1 <1>  -0.6600 
  4 C       -5.5100     4.5790     0.0700 C.ar  1 <1>   0.0860 
  5 C       -1.8880     4.1490     1.0640 C.3   1 <1>   0.1400 
  6 C       -2.8820     6.2970     0.2660 C.3   1 <1>   0.1400 
  7 C       -5.9990     5.3280     1.1390 C.ar  1 <1>   0.1600 
  8 C       -6.4160     4.2500    -0.9310 C.ar  1 <1>  -0.1500 
  9 C       -0.8530     4.1920    -0.0760 C.3   1 <1>   0.3430 
 10 C       -1.8230     6.3650    -0.8570 C.3   1 <1>   0.3430 
 11 N       -7.2340     5.7830     1.2700 N.ar  1 <1>  -0.6200 
 12 C       -7.7120     4.7020    -0.8100 C.ar  1 <1>  -0.1500 
 13 N       -0.5690     5.6060    -0.5110 N.4   1 <1>  -0.9060 
 14 C       -8.0660     5.4580     0.2940 C.ar  1 <1>   0.1600 
 15 H       -2.1300     3.1220     1.2860 H     1 <1>   0.0800 
 16 H       -1.4850     4.5910     1.9580 H     1 <1>   0.0800 
 17 H       -2.5490     6.8520     1.1270 H     1 <1>   0.0800 
 18 H       -3.7960     6.7500    -0.0820 H     1 <1>   0.0800 
 19 H       -5.3230     5.5680     1.9410 H     1 <1>   0.1500 
 20 H       -6.1100     3.6560    -1.7760 H     1 <1>   0.1500 
 21 H       -1.2490     3.6270    -0.9060 H     1 <1>   0.0800 
 22 H        0.0560     3.7110     0.2470 H     1 <1>   0.0800 
 23 H       -1.5850     7.3970    -1.0620 H     1 <1>   0.0800 
 24 H       -2.2570     5.9450    -1.7500 H     1 <1>   0.0800 
 25 H       -8.4470     4.4710    -1.5610 H     1 <1>   0.1500 
 26 H        0.0580     5.5880    -1.3260 H     1 <1>   0.4500 
 27 H       -0.0710     6.0950     0.2430 H     1 <1>   0.4500 
 28 H       -9.0810     5.8100     0.3790 H     1 <1>   0.1500 
@<TRIPOS>BOND
  1   1   2  2   
  2   2   3  am  
  3   2   4  1   
  4   3   5  1   
  5   3   6  1   
  6   4   7  ar  
  7   4   8  ar  
  8   5   9  1   
  9   5  15  1   
 10   5  16  1   
 11   6  10  1   
 12   6  17  1   
 13   6  18  1   
 14   7  11  ar  
 15   7  19  1   
 16   8  12  ar  
 17   8  20  1   
 18   9  13  1   
 19   9  21  1   
 20   9  22  1   
 21  10  13  1   
 22  10  23  1   
 23  10  24  1   
 24  11  14  ar  
 25  12  14  ar  
 26  12  25  1   
 27  13  26  1   
 28  13  27  1   
 29  14  28  1   
@<TRIPOS>SUBSTRUCTURE
  1 ****   2 GROUP 4 **** **** 0

# MOE 2024.06 (io_trps.svl 2023.06)
