@<TRIPOS>MOLECULE
NONAME
34 35 1 0 0 
SMALL
USER_CHARGES


@<TRIPOS>ATOM
  1 BR       1.2430    -0.6860    -1.5670 Br    1 <1>  -0.1110 
  2 C        0.3080    -1.9980    -0.5090 C.ar  1 <1>   0.1110 
  3 C        0.7180    -2.2830     0.7800 C.ar  1 <1>   0.1900 
  4 C       -0.7800    -2.6440    -1.0670 C.ar  1 <1>  -0.1500 
  5 F        1.7460    -1.6640     1.2970 F     1 <1>  -0.1900 
  6 C        0.0490    -3.2230     1.5400 C.ar  1 <1>  -0.1500 
  7 C       -1.4680    -3.5870    -0.3090 C.ar  1 <1>  -0.1440 
  8 C       -1.0450    -3.8750     0.9880 C.ar  1 <1>  -0.1500 
  9 C       -2.6750    -4.3010    -0.8950 C.3   1 <1>   0.4870 
 10 N       -3.9090    -3.7720    -0.2520 N.4   1 <1>  -0.9590 
 11 C       -5.0590    -4.6770    -0.5200 C.3   1 <1>   0.3430 
 12 C       -4.1550    -2.3490    -0.6330 C.3   1 <1>   0.3430 
 13 C       -6.2770    -4.3360     0.3410 C.3   1 <1>  -0.1600 
 14 C       -4.8690    -1.6280     0.5090 C.3   1 <1>  -0.1600 
 15 C       -6.9850    -3.0450    -0.0940 C.3   1 <1>  -0.1600 
 16 C       -6.4010    -1.7640     0.5190 C.3   1 <1>  -0.1600 
 17 H       -1.0670    -2.4020    -2.0770 H     1 <1>   0.1500 
 18 H        0.3850    -3.4380     2.5400 H     1 <1>   0.1500 
 19 H       -1.5550    -4.6130     1.5850 H     1 <1>   0.1500 
 20 H       -2.5810    -5.3580    -0.7050 H     1 <1>   0.0800 
 21 H       -2.7150    -4.1500    -1.9620 H     1 <1>   0.0800 
 22 H       -3.7330    -3.7740     0.7590 H     1 <1>   0.4500 
 23 H       -4.7690    -5.6930    -0.3030 H     1 <1>   0.0800 
 24 H       -5.3330    -4.6280    -1.5620 H     1 <1>   0.0800 
 25 H       -4.7290    -2.2840    -1.5430 H     1 <1>   0.0800 
 26 H       -3.2120    -1.8530    -0.7950 H     1 <1>   0.0800 
 27 H       -6.0190    -4.3050     1.3850 H     1 <1>   0.0800 
 28 H       -6.9800    -5.1420     0.2190 H     1 <1>   0.0800 
 29 H       -4.6410    -0.5790     0.4310 H     1 <1>   0.0800 
 30 H       -4.4660    -1.9540     1.4520 H     1 <1>   0.0800 
 31 H       -8.0180    -3.1040     0.2070 H     1 <1>   0.0800 
 32 H       -6.9840    -2.9710    -1.1690 H     1 <1>   0.0800 
 33 H       -6.8260    -0.9270    -0.0120 H     1 <1>   0.0800 
 34 H       -6.7400    -1.6790     1.5390 H     1 <1>   0.0800 
@<TRIPOS>BOND
  1   1   2  1   
  2   2   3  ar  
  3   2   4  ar  
  4   3   5  1   
  5   3   6  ar  
  6   4   7  ar  
  7   4  17  1   
  8   6   8  ar  
  9   6  18  1   
 10   7   8  ar  
 11   7   9  1   
 12   8  19  1   
 13   9  10  1   
 14   9  20  1   
 15   9  21  1   
 16  10  11  1   
 17  10  12  1   
 18  10  22  1   
 19  11  13  1   
 20  11  23  1   
 21  11  24  1   
 22  12  14  1   
 23  12  25  1   
 24  12  26  1   
 25  13  15  1   
 26  13  27  1   
 27  13  28  1   
 28  14  16  1   
 29  14  29  1   
 30  14  30  1   
 31  15  16  1   
 32  15  31  1   
 33  15  32  1   
 34  16  33  1   
 35  16  34  1   
@<TRIPOS>SUBSTRUCTURE
  1 ****   7 GROUP 4 **** **** 0

# MOE 2024.06 (io_trps.svl 2023.06)
