@<TRIPOS>MOLECULE
NONAME
48 49 1 0 0 
SMALL
USER_CHARGES


@<TRIPOS>ATOM
  1 O        1.3480    -0.6780    -0.8020 O.3   1 <1>  -0.3630 
  2 C        1.0560    -1.8420    -0.1600 C.ar  1 <1>   0.0830 
  3 C        0.3190     0.2030    -1.2130 C.3   1 <1>   0.0400 
  4 C        2.0880    -2.7610     0.0080 C.ar  1 <1>  -0.1440 
  5 C       -0.2120    -2.1360     0.3360 C.ar  1 <1>  -0.1500 
  6 C        1.8500    -3.9580     0.6660 C.ar  1 <1>  -0.1500 
  7 C        3.4670    -2.4540    -0.5300 C.3   1 <1>   0.4870 
  8 C       -0.4410    -3.3320     0.9900 C.ar  1 <1>  -0.1500 
  9 C        0.5880    -4.2420     1.1560 C.ar  1 <1>  -0.1500 
 10 N        3.9430    -1.2520     0.1810 N.4   1 <1>  -0.9060 
 11 C        5.2070    -0.6860    -0.3030 C.3   1 <1>   0.4230 
 12 C        6.3670    -1.6020     0.1130 C.3   1 <1>  -0.1600 
 13 C        5.3170     0.7110     0.2980 C.3   1 <1>  -0.2400 
 14 C        7.7360    -1.1320    -0.4040 C.3   1 <1>  -0.0170 
 15 C        8.7830    -2.1840    -0.0830 C.ar  1 <1>  -0.1430 
 16 C        9.3910    -2.2050     1.1630 C.ar  1 <1>  -0.1500 
 17 C        9.1380    -3.1360    -1.0270 C.ar  1 <1>  -0.1500 
 18 C       10.3360    -3.1700     1.4620 C.ar  1 <1>  -0.1500 
 19 C       10.0830    -4.1020    -0.7310 C.ar  1 <1>  -0.1500 
 20 C       10.6880    -4.1250     0.5220 C.ar  1 <1>   0.0830 
 21 O       11.6210    -5.0360     0.8970 O.3   1 <1>  -0.3630 
 22 C       12.0810    -6.0240     0.0030 C.3   1 <1>   0.0400 
 23 H       -0.3800    -0.3360    -1.8290 H     1 <1>   0.0800 
 24 H        0.7610     1.0020    -1.7820 H     1 <1>   0.0800 
 25 H       -0.1710     0.6050    -0.3430 H     1 <1>   0.0800 
 26 H       -1.0340    -1.4520     0.2280 H     1 <1>   0.1500 
 27 H        2.6330    -4.6850     0.8040 H     1 <1>   0.1500 
 28 H        3.4030    -2.2630    -1.5890 H     1 <1>   0.0800 
 29 H        4.1290    -3.2870    -0.3590 H     1 <1>   0.0800 
 30 H       -1.4220    -3.5580     1.3720 H     1 <1>   0.1500 
 31 H        0.4010    -5.1730     1.6660 H     1 <1>   0.1500 
 32 H        3.9830    -1.4490     1.1840 H     1 <1>   0.4500 
 33 H        3.1790    -0.5690     0.0550 H     1 <1>   0.4500 
 34 H        5.1780    -0.6050    -1.3790 H     1 <1>   0.0800 
 35 H        6.2050    -2.5900    -0.2800 H     1 <1>   0.0800 
 36 H        6.4140    -1.6730     1.1860 H     1 <1>   0.0800 
 37 H        5.4090     0.6680     1.3700 H     1 <1>   0.0800 
 38 H        4.4590     1.3050     0.0380 H     1 <1>   0.0800 
 39 H        6.1820     1.2160    -0.0910 H     1 <1>   0.0800 
 40 H        8.0240    -0.2040     0.0590 H     1 <1>   0.0800 
 41 H        7.7030    -0.9740    -1.4680 H     1 <1>   0.0800 
 42 H        9.1370    -1.4730     1.9100 H     1 <1>   0.1500 
 43 H        8.6830    -3.1330    -2.0020 H     1 <1>   0.1500 
 44 H       10.8100    -3.1910     2.4270 H     1 <1>   0.1500 
 45 H       10.3370    -4.8250    -1.4820 H     1 <1>   0.1500 
 46 H       12.8220    -6.6140     0.5110 H     1 <1>   0.0800 
 47 H       12.5210    -5.5440    -0.8530 H     1 <1>   0.0800 
 48 H       11.2530    -6.6470    -0.2860 H     1 <1>   0.0800 
@<TRIPOS>BOND
  1   1   2  1   
  2   1   3  1   
  3   2   4  ar  
  4   2   5  ar  
  5   3  23  1   
  6   3  24  1   
  7   3  25  1   
  8   4   6  ar  
  9   4   7  1   
 10   5   8  ar  
 11   5  26  1   
 12   6   9  ar  
 13   6  27  1   
 14   7  10  1   
 15   7  28  1   
 16   7  29  1   
 17   8   9  ar  
 18   8  30  1   
 19   9  31  1   
 20  10  11  1   
 21  10  32  1   
 22  10  33  1   
 23  11  12  1   
 24  11  13  1   
 25  11  34  1   
 26  12  14  1   
 27  12  35  1   
 28  12  36  1   
 29  13  37  1   
 30  13  38  1   
 31  13  39  1   
 32  14  15  1   
 33  14  40  1   
 34  14  41  1   
 35  15  16  ar  
 36  15  17  ar  
 37  16  18  ar  
 38  16  42  1   
 39  17  19  ar  
 40  17  43  1   
 41  18  20  ar  
 42  18  44  1   
 43  19  20  ar  
 44  19  45  1   
 45  20  21  1   
 46  21  22  1   
 47  22  46  1   
 48  22  47  1   
 49  22  48  1   
@<TRIPOS>SUBSTRUCTURE
  1 ****  12 GROUP 4 **** **** 0

# MOE 2024.06 (io_trps.svl 2023.06)
