@<TRIPOS>MOLECULE
NONAME
38 39 1 0 0 
SMALL
USER_CHARGES


@<TRIPOS>ATOM
  1 O        0.2080     0.7660     1.0360 O.2   1 <1>  -0.5700 
  2 C        0.1720     1.9760     0.9090 C.2   1 <1>   0.5440 
  3 N       -1.0370     2.6330     1.0220 N.am  1 <1>  -0.6600 
  4 C        1.4100     2.6810     0.6370 C.ar  1 <1>   0.0860 
  5 C       -1.2680     4.0310     0.5620 C.3   1 <1>   0.1400 
  6 C       -2.2710     1.9300     1.4750 C.3   1 <1>   0.1400 
  7 C        2.1880     2.3490    -0.4680 C.ar  1 <1>  -0.1500 
  8 C        1.8700     3.7000     1.4730 C.ar  1 <1>  -0.1500 
  9 C       -2.3030     4.0410    -0.5680 C.3   1 <1>  -0.1600 
 10 C       -3.3070     1.9230     0.3470 C.3   1 <1>  -0.1600 
 11 C        3.3750     3.0100    -0.7280 C.ar  1 <1>   0.0820 
 12 C        3.0500     4.3740     1.2100 C.ar  1 <1>  -0.1500 
 13 C       -3.6080     3.3440    -0.1520 C.3   1 <1>  -0.0800 
 14 O        4.1040     2.6510    -1.8100 O.3   1 <1>  -0.2320 
 15 C        3.8060     4.0330     0.1030 C.ar  1 <1>  -0.1500 
 16 C       -4.5980     3.3080    -1.3210 C.3   1 <1>  -0.2400 
 17 C        5.3450     2.1770    -1.7440 C.2   1 <1>   0.6590 
 18 O        6.0890     2.2730    -2.6810 O.2   1 <1>  -0.5700 
 19 C        5.7930     1.4730    -0.4790 C.3   1 <1>  -0.1790 
 20 H       -0.3570     4.4780     0.2040 H     1 <1>   0.0800 
 21 H       -1.6270     4.6170     1.3900 H     1 <1>   0.0800 
 22 H       -2.6680     2.4420     2.3340 H     1 <1>   0.0800 
 23 H       -2.0500     0.9180     1.7680 H     1 <1>   0.0800 
 24 H        1.8590     1.5610    -1.1230 H     1 <1>   0.1500 
 25 H        1.2870     3.9600     2.3400 H     1 <1>   0.1500 
 26 H       -1.8800     3.5440    -1.4250 H     1 <1>   0.0800 
 27 H       -2.5080     5.0590    -0.8470 H     1 <1>   0.0800 
 28 H       -4.2100     1.4630     0.7060 H     1 <1>   0.0800 
 29 H       -2.9290     1.3190    -0.4590 H     1 <1>   0.0800 
 30 H        3.3790     5.1620     1.8660 H     1 <1>   0.1500 
 31 H       -4.0530     3.9040     0.6550 H     1 <1>   0.0800 
 32 H        4.7190     4.5590    -0.1140 H     1 <1>   0.1500 
 33 H       -4.1880     2.7550    -2.1480 H     1 <1>   0.0800 
 34 H       -4.8210     4.3070    -1.6530 H     1 <1>   0.0800 
 35 H       -5.5170     2.8390    -1.0160 H     1 <1>   0.0800 
 36 H        5.0470     0.7640    -0.1700 H     1 <1>   0.0800 
 37 H        5.9570     2.1880     0.3040 H     1 <1>   0.0800 
 38 H        6.7120     0.9490    -0.6670 H     1 <1>   0.0800 
@<TRIPOS>BOND
  1   1   2  2   
  2   2   3  am  
  3   2   4  1   
  4   3   5  1   
  5   3   6  1   
  6   4   7  ar  
  7   4   8  ar  
  8   5   9  1   
  9   5  20  1   
 10   5  21  1   
 11   6  10  1   
 12   6  22  1   
 13   6  23  1   
 14   7  11  ar  
 15   7  24  1   
 16   8  12  ar  
 17   8  25  1   
 18   9  13  1   
 19   9  26  1   
 20   9  27  1   
 21  10  13  1   
 22  10  28  1   
 23  10  29  1   
 24  11  14  1   
 25  11  15  ar  
 26  12  15  ar  
 27  12  30  1   
 28  13  16  1   
 29  13  31  1   
 30  14  17  1   
 31  15  32  1   
 32  16  33  1   
 33  16  34  1   
 34  16  35  1   
 35  17  18  2   
 36  17  19  1   
 37  19  36  1   
 38  19  37  1   
 39  19  38  1   
@<TRIPOS>SUBSTRUCTURE
  1 ****   4 GROUP 4 **** **** 0

# MOE 2024.06 (io_trps.svl 2023.06)
