@<TRIPOS>MOLECULE
NONAME
59 62 1 0 0 
SMALL
USER_CHARGES


@<TRIPOS>ATOM
  1 O        0.5150     1.4330    -0.9020 O.2   1 <1>  -0.5700 
  2 C        0.4940     0.4380    -0.2160 C.2   1 <1>   0.4950 
  3 C        1.6220    -0.3930     0.0500 C.2   1 <1>  -0.1240 
  4 C       -0.8520     0.0280     0.3630 C.3   1 <1>  -0.0990 
  5 C        1.5480    -1.5460     0.7590 C.2   1 <1>  -0.0380 
  6 C        2.9770     0.0730    -0.4910 C.3   1 <1>   0.3400 
  7 C       -0.7080    -0.8370     1.6260 C.3   1 <1>  -0.1600 
  8 N        2.6400    -2.3580     0.9250 N.pl3 1 <1>  -0.6000 
  9 C        0.2490    -2.0160     1.3960 C.3   1 <1>  -0.0220 
 10 C        4.0530    -1.0300    -0.4880 C.2   1 <1>  -0.1240 
 11 C        3.4500     1.2480     0.3770 C.ar  1 <1>  -0.1440 
 12 C        3.8340    -2.1460     0.2660 C.2   1 <1>  -0.0380 
 13 C        5.2020    -0.7730    -1.3210 C.2   1 <1>   0.6160 
 14 C        3.6830     2.5090    -0.1630 C.ar  1 <1>   0.0820 
 15 C        3.6490     1.0620     1.7380 C.ar  1 <1>  -0.1500 
 16 C        4.8250    -3.2810     0.4700 C.3   1 <1>  -0.1020 
 17 O        5.8160    -1.7010    -1.8150 O.2   1 <1>  -0.5700 
 18 N        5.6250     0.5030    -1.6000 N.am  1 <1>  -0.5470 
 19 O        3.5210     2.6940    -1.4920 O.3   1 <1>  -0.3620 
 20 C        4.1100     3.5540     0.6450 C.ar  1 <1>  -0.1500 
 21 C        4.0660     2.1010     2.5540 C.ar  1 <1>   0.0820 
 22 C        6.7040     1.0110    -2.2920 C.ar  1 <1>   0.4270 
 23 C        2.6800     3.7460    -1.9080 C.3   1 <1>   0.0400 
 24 C        4.2980     3.3560     2.0000 C.ar  1 <1>  -0.1500 
 25 O        4.2250     1.8140     3.8730 O.3   1 <1>  -0.3630 
 26 N        6.9750     2.2670    -1.9710 N.ar  1 <1>  -0.6200 
 27 C        7.4320     0.3000    -3.2470 C.ar  1 <1>  -0.1500 
 28 C        4.7120     2.7830     4.7730 C.3   1 <1>   0.0400 
 29 C        7.9950     2.8320    -2.5910 C.ar  1 <1>   0.1670 
 30 C        8.4930     0.8940    -3.8890 C.ar  1 <1>  -0.1500 
 31 C        8.7760     2.1980    -3.5430 C.ar  1 <1>  -0.1500 
 32 C        8.2870     4.2650    -2.1990 C.3   1 <1>  -0.0970 
 33 H       -1.3880    -0.5160    -0.3930 H     1 <1>   0.0800 
 34 H       -1.4140     0.9140     0.5970 H     1 <1>   0.0800 
 35 H        2.8240     0.3720    -1.5130 H     1 <1>   0.0800 
 36 H       -1.6720    -1.2000     1.9370 H     1 <1>   0.0800 
 37 H       -0.3120    -0.2250     2.4190 H     1 <1>   0.0800 
 38 H        2.5440    -3.2140     1.4830 H     1 <1>   0.4000 
 39 H        0.4550    -2.4840     2.3430 H     1 <1>   0.0800 
 40 H       -0.2110    -2.7460     0.7520 H     1 <1>   0.0800 
 41 H        3.4800     0.0980     2.1850 H     1 <1>   0.1500 
 42 H        4.5890    -4.0940    -0.1920 H     1 <1>   0.0800 
 43 H        4.7880    -3.6320     1.4850 H     1 <1>   0.0800 
 44 H        5.8340    -2.9650     0.2810 H     1 <1>   0.0800 
 45 H        5.1270     1.2560    -1.1240 H     1 <1>   0.3700 
 46 H        4.3080     4.5180     0.2150 H     1 <1>   0.1500 
 47 H        2.4640     3.6080    -2.9520 H     1 <1>   0.0800 
 48 H        3.1850     4.6830    -1.7590 H     1 <1>   0.0800 
 49 H        1.7670     3.7090    -1.3390 H     1 <1>   0.0800 
 50 H        4.6270     4.1810     2.6020 H     1 <1>   0.1500 
 51 H        7.1670    -0.7100    -3.4890 H     1 <1>   0.1500 
 52 H        4.7800     2.3310     5.7450 H     1 <1>   0.0800 
 53 H        4.0250     3.6100     4.8020 H     1 <1>   0.0800 
 54 H        5.6870     3.1020     4.4480 H     1 <1>   0.0800 
 55 H        9.0720     0.3660    -4.6260 H     1 <1>   0.1500 
 56 H        9.5950     2.7120    -4.0120 H     1 <1>   0.1500 
 57 H        7.4310     4.8760    -2.4180 H     1 <1>   0.0800 
 58 H        9.1370     4.6490    -2.7320 H     1 <1>   0.0800 
 59 H        8.4850     4.3130    -1.1440 H     1 <1>   0.0800 
@<TRIPOS>BOND
  1   1   2  2   
  2   2   3  1   
  3   2   4  1   
  4   3   5  2   
  5   3   6  1   
  6   4   7  1   
  7   4  33  1   
  8   4  34  1   
  9   5   8  1   
 10   5   9  1   
 11   6  10  1   
 12   6  11  1   
 13   6  35  1   
 14   7   9  1   
 15   7  36  1   
 16   7  37  1   
 17   8  12  1   
 18   8  38  1   
 19   9  39  1   
 20   9  40  1   
 21  10  12  2   
 22  10  13  1   
 23  11  14  ar  
 24  11  15  ar  
 25  12  16  1   
 26  13  17  2   
 27  13  18  am  
 28  14  19  1   
 29  14  20  ar  
 30  15  21  ar  
 31  15  41  1   
 32  16  42  1   
 33  16  43  1   
 34  16  44  1   
 35  18  22  1   
 36  18  45  1   
 37  19  23  1   
 38  20  24  ar  
 39  20  46  1   
 40  21  24  ar  
 41  21  25  1   
 42  22  26  ar  
 43  22  27  ar  
 44  23  47  1   
 45  23  48  1   
 46  23  49  1   
 47  24  50  1   
 48  25  28  1   
 49  26  29  ar  
 50  27  30  ar  
 51  27  51  1   
 52  28  52  1   
 53  28  53  1   
 54  28  54  1   
 55  29  31  ar  
 56  29  32  1   
 57  30  31  ar  
 58  30  55  1   
 59  31  56  1   
 60  32  57  1   
 61  32  58  1   
 62  32  59  1   
@<TRIPOS>SUBSTRUCTURE
  1 ****  11 GROUP 4 **** **** 0

# MOE 2024.06 (io_trps.svl 2023.06)
