@<TRIPOS>MOLECULE
NONAME
33 33 1 0 0 
SMALL
USER_CHARGES


@<TRIPOS>ATOM
  1 N        0.0030     0.1460    -0.0500 N.ar  1 <1>  -0.6200 
  2 C        1.3070     0.2250    -0.0210 C.ar  1 <1>   0.7200 
  3 C       -0.6060     1.3020    -0.0560 C.ar  1 <1>   0.7200 
  4 N        2.0030     1.3300     0.0010 N.ar  1 <1>  -0.6200 
  5 N        2.0110    -0.9660    -0.0140 N.pl3 1 <1>  -0.8380 
  6 N       -0.0220     2.4710    -0.0360 N.ar  1 <1>  -0.6200 
  7 N       -1.9890     1.2870    -0.0860 N.pl3 1 <1>  -0.8380 
  8 C        1.2830     2.4200    -0.0080 C.ar  1 <1>   0.7200 
  9 C        3.4460    -1.0340     0.3790 C.3   1 <1>   0.1290 
 10 C        1.3830    -2.2600    -0.3970 C.3   1 <1>   0.1290 
 11 C       -2.7750     0.0680     0.2510 C.3   1 <1>   0.1290 
 12 C       -2.7850     2.4890    -0.4580 C.3   1 <1>   0.1290 
 13 N        1.9620     3.6250     0.0140 N.pl3 1 <1>  -0.8380 
 14 C        1.2890     4.9050     0.3690 C.3   1 <1>   0.1290 
 15 C        3.4100     3.7240    -0.3150 C.3   1 <1>   0.1290 
 16 H        3.6950    -0.2250     1.0440 H     1 <1>   0.0800 
 17 H        4.0630    -0.9660    -0.5000 H     1 <1>   0.0800 
 18 H        3.6470    -1.9610     0.8850 H     1 <1>   0.0800 
 19 H        0.5570    -2.0960    -1.0690 H     1 <1>   0.0800 
 20 H        1.0210    -2.7590     0.4850 H     1 <1>   0.0800 
 21 H        2.1020    -2.8870    -0.8930 H     1 <1>   0.0800 
 22 H       -3.0000    -0.4750    -0.6510 H     1 <1>   0.0800 
 23 H       -3.6920     0.3440     0.7400 H     1 <1>   0.0800 
 24 H       -2.2170    -0.5710     0.9130 H     1 <1>   0.0800 
 25 H       -2.2130     3.1400    -1.0960 H     1 <1>   0.0800 
 26 H       -3.0610     3.0270     0.4320 H     1 <1>   0.0800 
 27 H       -3.6740     2.1940    -0.9870 H     1 <1>   0.0800 
 28 H        0.4390     4.7230     1.0040 H     1 <1>   0.0800 
 29 H        0.9560     5.3970    -0.5280 H     1 <1>   0.0800 
 30 H        1.9720     5.5480     0.8960 H     1 <1>   0.0800 
 31 H        3.7060     2.9210    -0.9690 H     1 <1>   0.0800 
 32 H        3.9890     3.6690     0.5900 H     1 <1>   0.0800 
 33 H        3.6130     4.6560    -0.8130 H     1 <1>   0.0800 
@<TRIPOS>BOND
  1   1   2  ar  
  2   1   3  ar  
  3   2   4  ar  
  4   2   5  1   
  5   3   6  ar  
  6   3   7  1   
  7   4   8  ar  
  8   5   9  1   
  9   5  10  1   
 10   6   8  ar  
 11   7  11  1   
 12   7  12  1   
 13   8  13  1   
 14   9  16  1   
 15   9  17  1   
 16   9  18  1   
 17  10  19  1   
 18  10  20  1   
 19  10  21  1   
 20  11  22  1   
 21  11  23  1   
 22  11  24  1   
 23  12  25  1   
 24  12  26  1   
 25  12  27  1   
 26  13  14  1   
 27  13  15  1   
 28  14  28  1   
 29  14  29  1   
 30  14  30  1   
 31  15  31  1   
 32  15  32  1   
 33  15  33  1   
@<TRIPOS>SUBSTRUCTURE
  1 ****   2 GROUP 4 **** **** 0

# MOE 2024.06 (io_trps.svl 2023.06)
