@<TRIPOS>MOLECULE
NONAME
49 51 1 0 0 
SMALL
USER_CHARGES


@<TRIPOS>ATOM
  1 O       -0.2610     0.9570     1.4010 O.2   1 <1>  -0.5700 
  2 C       -0.8020     2.0440     1.4860 C.2   1 <1>   0.5440 
  3 N       -2.1700     2.0780     1.3390 N.am  1 <1>  -0.6600 
  4 C       -0.0160     3.2540     1.6580 C.ar  1 <1>   0.0860 
  5 C       -2.7760     2.9370     0.2810 C.3   1 <1>   0.1400 
  6 C       -2.9620     0.8460     1.6270 C.3   1 <1>   0.1400 
  7 C        1.2890     3.3330     1.1750 C.ar  1 <1>  -0.1500 
  8 C       -0.5350     4.3800     2.3010 C.ar  1 <1>  -0.1500 
  9 C       -2.9780     2.1160    -1.0120 C.3   1 <1>   0.3430 
 10 C       -3.1240     0.0210     0.3380 C.3   1 <1>   0.3430 
 11 C        2.0530     4.4850     1.2930 C.ar  1 <1>   0.1170 
 12 C        0.2110     5.5360     2.4310 C.ar  1 <1>  -0.1500 
 13 N       -3.7420     0.8340    -0.7760 N.4   1 <1>  -0.9590 
 14 N        3.3610     4.4880     0.7900 N.am  1 <1>  -0.5470 
 15 C        1.4960     5.5890     1.9260 C.ar  1 <1>  -0.1500 
 16 C       -3.8240     0.0260    -2.0300 C.3   1 <1>   0.2630 
 17 C        4.1170     5.5200     0.2820 C.2   1 <1>   0.5440 
 18 O        3.6010     6.5990     0.0710 O.2   1 <1>  -0.5700 
 19 C        5.5150     5.2930    -0.0330 C.ar  1 <1>   0.0860 
 20 C        6.3020     4.4000     0.6980 C.ar  1 <1>  -0.1500 
 21 C        6.1300     5.9650    -1.0900 C.ar  1 <1>  -0.1500 
 22 C        7.6290     4.1770     0.3770 C.ar  1 <1>  -0.1500 
 23 C        7.4560     5.7460    -1.4140 C.ar  1 <1>  -0.1500 
 24 C        8.2150     4.8490    -0.6830 C.ar  1 <1>  -0.1430 
 25 C        9.6710     4.6060    -1.0390 C.3   1 <1>  -0.0970 
 26 H       -2.1350     3.7750     0.0690 H     1 <1>   0.0800 
 27 H       -3.7190     3.3230     0.6270 H     1 <1>   0.0800 
 28 H       -3.9240     1.1150     2.0240 H     1 <1>   0.0800 
 29 H       -2.4550     0.2520     2.3700 H     1 <1>   0.0800 
 30 H        1.7120     2.4710     0.6920 H     1 <1>   0.1500 
 31 H       -1.5300     4.3480     2.7090 H     1 <1>   0.1500 
 32 H       -2.0050     1.8810    -1.4120 H     1 <1>   0.0800 
 33 H       -3.4930     2.7220    -1.7380 H     1 <1>   0.0800 
 34 H       -3.7320    -0.8450     0.5450 H     1 <1>   0.0800 
 35 H       -2.1470    -0.3240     0.0390 H     1 <1>   0.0800 
 36 H       -0.2030     6.3990     2.9260 H     1 <1>   0.1500 
 37 H       -4.6960     1.0870    -0.4810 H     1 <1>   0.4500 
 38 H        3.8010     3.5720     0.7210 H     1 <1>   0.3700 
 39 H        2.0710     6.4920     2.0300 H     1 <1>   0.1500 
 40 H       -2.8360    -0.2570    -2.3570 H     1 <1>   0.0800 
 41 H       -4.2960     0.5960    -2.8140 H     1 <1>   0.0800 
 42 H       -4.4000    -0.8700    -1.8620 H     1 <1>   0.0800 
 43 H        5.8790     3.8770     1.5370 H     1 <1>   0.1500 
 44 H        5.5520     6.6690    -1.6640 H     1 <1>   0.1500 
 45 H        8.2090     3.4800     0.9570 H     1 <1>   0.1500 
 46 H        7.8950     6.2800    -2.2390 H     1 <1>   0.1500 
 47 H        9.7410     3.8160    -1.7650 H     1 <1>   0.0800 
 48 H       10.2320     4.3270    -0.1650 H     1 <1>   0.0800 
 49 H       10.1100     5.4960    -1.4520 H     1 <1>   0.0800 
@<TRIPOS>BOND
  1   1   2  2   
  2   2   3  am  
  3   2   4  1   
  4   3   5  1   
  5   3   6  1   
  6   4   7  ar  
  7   4   8  ar  
  8   5   9  1   
  9   5  26  1   
 10   5  27  1   
 11   6  10  1   
 12   6  28  1   
 13   6  29  1   
 14   7  11  ar  
 15   7  30  1   
 16   8  12  ar  
 17   8  31  1   
 18   9  13  1   
 19   9  32  1   
 20   9  33  1   
 21  10  13  1   
 22  10  34  1   
 23  10  35  1   
 24  11  14  1   
 25  11  15  ar  
 26  12  15  ar  
 27  12  36  1   
 28  13  16  1   
 29  13  37  1   
 30  14  17  am  
 31  14  38  1   
 32  15  39  1   
 33  16  40  1   
 34  16  41  1   
 35  16  42  1   
 36  17  18  2   
 37  17  19  1   
 38  19  20  ar  
 39  19  21  ar  
 40  20  22  ar  
 41  20  43  1   
 42  21  23  ar  
 43  21  44  1   
 44  22  24  ar  
 45  22  45  1   
 46  23  24  ar  
 47  23  46  1   
 48  24  25  1   
 49  25  47  1   
 50  25  48  1   
 51  25  49  1   
@<TRIPOS>SUBSTRUCTURE
  1 ****   7 GROUP 4 **** **** 0

# MOE 2024.06 (io_trps.svl 2023.06)
