@<TRIPOS>MOLECULE
NONAME
40 42 1 0 0 
SMALL
USER_CHARGES


@<TRIPOS>ATOM
  1 CL       0.9930    -1.9160     3.8190 Cl    1 <1>  -0.1770 
  2 C        1.7270    -1.8750     2.2290 C.ar  1 <1>   0.1770 
  3 C        1.0420    -2.3900     1.1340 C.ar  1 <1>   0.1170 
  4 C        2.9870    -1.3260     2.0970 C.ar  1 <1>  -0.1500 
  5 N       -0.2420    -2.9470     1.2710 N.am  1 <1>  -0.2370 
  6 C        1.6590    -2.3430    -0.1110 C.ar  1 <1>  -0.1500 
  7 C        3.5850    -1.2860     0.8490 C.ar  1 <1>  -0.1500 
  8 C       -1.4010    -2.2300     1.2930 C.2   1 <1>   0.5690 
  9 C       -0.4860    -4.2390     1.6300 C.2   1 <1>   0.5690 
 10 C        2.9290    -1.7930    -0.2710 C.ar  1 <1>  -0.1440 
 11 O       -1.4700    -1.0280     1.1860 O.2   1 <1>  -0.5700 
 12 C       -2.6110    -3.1420     1.5560 C.3   1 <1>   0.2510 
 13 O        0.3380    -5.1110     1.7170 O.2   1 <1>  -0.5700 
 14 C       -1.9410    -4.4690     1.9480 C.3   1 <1>  -0.0990 
 15 C        3.6160    -1.7420    -1.6470 C.3   1 <1>   1.1640 
 16 N       -3.5300    -3.3910     0.4040 N.3   1 <1>  -0.8100 
 17 F        4.5980    -2.6280    -1.7430 F     1 <1>  -0.3400 
 18 F        2.7900    -1.9890    -2.6570 F     1 <1>  -0.3400 
 19 F        4.1590    -0.5560    -1.8940 F     1 <1>  -0.3400 
 20 C       -4.7760    -4.0410     0.8620 C.3   1 <1>   0.1100 
 21 C       -3.8450    -2.1630    -0.3560 C.3   1 <1>   0.1100 
 22 C       -5.6360    -4.4490    -0.3360 C.3   1 <1>  -0.1600 
 23 C       -4.6950    -2.4970    -1.5870 C.3   1 <1>  -0.1600 
 24 C       -5.9810    -3.2350    -1.2040 C.3   1 <1>  -0.1600 
 25 H        3.4920    -0.9350     2.9630 H     1 <1>   0.1500 
 26 H        1.1270    -2.7470    -0.9570 H     1 <1>   0.1500 
 27 H        4.5700    -0.8570     0.7540 H     1 <1>   0.1500 
 28 H       -3.1660    -2.7340     2.3840 H     1 <1>   0.0800 
 29 H       -2.0440    -4.6560     3.0000 H     1 <1>   0.0800 
 30 H       -2.3020    -5.3080     1.3830 H     1 <1>   0.0800 
 31 H       -5.3300    -3.3640     1.4910 H     1 <1>   0.0800 
 32 H       -4.5490    -4.9230     1.4350 H     1 <1>   0.0800 
 33 H       -2.9400    -1.6980    -0.7070 H     1 <1>   0.0800 
 34 H       -4.3660    -1.4610     0.2740 H     1 <1>   0.0800 
 35 H       -6.5420    -4.9110     0.0140 H     1 <1>   0.0800 
 36 H       -5.0980    -5.1750    -0.9200 H     1 <1>   0.0800 
 37 H       -4.1100    -3.1080    -2.2520 H     1 <1>   0.0800 
 38 H       -4.9410    -1.5880    -2.1070 H     1 <1>   0.0800 
 39 H       -6.6250    -2.5710    -0.6540 H     1 <1>   0.0800 
 40 H       -6.5020    -3.5510    -2.0910 H     1 <1>   0.0800 
@<TRIPOS>BOND
  1   1   2  1   
  2   2   3  ar  
  3   2   4  ar  
  4   3   5  1   
  5   3   6  ar  
  6   4   7  ar  
  7   4  25  1   
  8   5   8  am  
  9   5   9  am  
 10   6  10  ar  
 11   6  26  1   
 12   7  10  ar  
 13   7  27  1   
 14   8  11  2   
 15   8  12  1   
 16   9  13  2   
 17   9  14  1   
 18  10  15  1   
 19  12  14  1   
 20  12  16  1   
 21  12  28  1   
 22  14  29  1   
 23  14  30  1   
 24  15  17  1   
 25  15  18  1   
 26  15  19  1   
 27  16  20  1   
 28  16  21  1   
 29  20  22  1   
 30  20  31  1   
 31  20  32  1   
 32  21  23  1   
 33  21  33  1   
 34  21  34  1   
 35  22  24  1   
 36  22  35  1   
 37  22  36  1   
 38  23  24  1   
 39  23  37  1   
 40  23  38  1   
 41  24  39  1   
 42  24  40  1   
@<TRIPOS>SUBSTRUCTURE
  1 ****   5 GROUP 4 **** **** 0

# MOE 2024.06 (io_trps.svl 2023.06)
