@<TRIPOS>MOLECULE
NONAME
45 46 1 0 0 
SMALL
USER_CHARGES


@<TRIPOS>ATOM
  1 CL       1.2360     1.7640     0.0690 Cl    1 <1>  -0.1770 
  2 C       -0.1490     2.8300    -0.0350 C.ar  1 <1>   0.1770 
  3 C       -0.0080     4.1090    -0.5570 C.ar  1 <1>   0.0830 
  4 C       -1.3660     2.3720     0.4290 C.ar  1 <1>  -0.1500 
  5 O        1.2110     4.5070    -0.9910 O.3   1 <1>  -0.3630 
  6 C       -1.1270     4.9320    -0.6120 C.ar  1 <1>  -0.1500 
  7 C       -2.4900     3.1890     0.3830 C.ar  1 <1>  -0.0090 
  8 C        1.5920     5.8720    -0.8940 C.3   1 <1>   0.1810 
  9 C       -2.3460     4.4700    -0.1430 C.ar  1 <1>  -0.1500 
 10 S       -4.0930     2.6190     1.0030 S.o2  1 <1>   1.4470 
 11 C        3.0860     6.0590    -1.1450 C.2   1 <1>   0.5690 
 12 O       -4.4910     3.4360     2.1250 O.2   1 <1>  -0.6500 
 13 O       -4.1060     1.1790     1.1030 O.2   1 <1>  -0.6500 
 14 N       -5.1240     2.9320    -0.2810 N.am  1 <1>  -0.9140 
 15 O        3.3970     6.8850    -1.9720 O.2   1 <1>  -0.5700 
 16 N        4.0390     5.3520    -0.4480 N.am  1 <1>  -0.6600 
 17 C       -6.4940     3.1470     0.1050 C.3   1 <1>   0.2760 
 18 C        3.7650     4.3240     0.6040 C.3   1 <1>   0.1400 
 19 C        5.4910     5.4750    -0.7780 C.3   1 <1>   0.1400 
 20 C       -7.3700     2.5240    -0.9740 C.3   1 <1>  -0.2400 
 21 C       -6.7450     4.6500     0.1920 C.3   1 <1>  -0.2400 
 22 C        4.7230     4.4850     1.7980 C.3   1 <1>   0.1200 
 23 C        6.3370     5.5860     0.5000 C.3   1 <1>   0.1200 
 24 O        6.0550     4.5280     1.3720 O.3   1 <1>  -0.5600 
 25 H       -1.4370     1.3750     0.8290 H     1 <1>   0.1500 
 26 H       -1.0690     5.9240    -1.0220 H     1 <1>   0.1500 
 27 H        1.3480     6.2300     0.0880 H     1 <1>   0.0800 
 28 H        1.0420     6.4270    -1.6320 H     1 <1>   0.0800 
 29 H       -3.2100     5.1140    -0.1880 H     1 <1>   0.1500 
 30 H       -5.1170     2.0480    -0.7830 H     1 <1>   0.4200 
 31 H       -6.7100     2.6740     1.0520 H     1 <1>   0.0800 
 32 H        3.8900     3.3430     0.1790 H     1 <1>   0.0800 
 33 H        2.7560     4.4020     0.9650 H     1 <1>   0.0800 
 34 H        5.6680     6.3400    -1.3930 H     1 <1>   0.0800 
 35 H        5.8010     4.6070    -1.3330 H     1 <1>   0.0800 
 36 H       -7.1650     2.9650    -1.9340 H     1 <1>   0.0800 
 37 H       -8.4060     2.6880    -0.7400 H     1 <1>   0.0800 
 38 H       -7.2060     1.4620    -1.0240 H     1 <1>   0.0800 
 39 H       -6.5220     5.1260    -0.7460 H     1 <1>   0.0800 
 40 H       -6.1400     5.0900     0.9640 H     1 <1>   0.0800 
 41 H       -7.7760     4.8350     0.4340 H     1 <1>   0.0800 
 42 H        4.6210     3.6510     2.4690 H     1 <1>   0.0800 
 43 H        4.5070     5.3910     2.3370 H     1 <1>   0.0800 
 44 H        6.1380     6.5150     1.0060 H     1 <1>   0.0800 
 45 H        7.3830     5.5410     0.2570 H     1 <1>   0.0800 
@<TRIPOS>BOND
  1   1   2  1   
  2   2   3  ar  
  3   2   4  ar  
  4   3   5  1   
  5   3   6  ar  
  6   4   7  ar  
  7   4  25  1   
  8   5   8  1   
  9   6   9  ar  
 10   6  26  1   
 11   7   9  ar  
 12   7  10  1   
 13   8  11  1   
 14   8  27  1   
 15   8  28  1   
 16   9  29  1   
 17  10  12  2   
 18  10  13  2   
 19  10  14  am  
 20  11  15  2   
 21  11  16  am  
 22  14  17  1   
 23  14  30  1   
 24  16  18  1   
 25  16  19  1   
 26  17  20  1   
 27  17  21  1   
 28  17  31  1   
 29  18  22  1   
 30  18  32  1   
 31  18  33  1   
 32  19  23  1   
 33  19  34  1   
 34  19  35  1   
 35  20  36  1   
 36  20  37  1   
 37  20  38  1   
 38  21  39  1   
 39  21  40  1   
 40  21  41  1   
 41  22  24  1   
 42  22  42  1   
 43  22  43  1   
 44  23  24  1   
 45  23  44  1   
 46  23  45  1   
@<TRIPOS>SUBSTRUCTURE
  1 ****   3 GROUP 4 **** **** 0

# MOE 2024.06 (io_trps.svl 2023.06)
