@<TRIPOS>MOLECULE
NONAME
43 43 1 0 0 
SMALL
USER_CHARGES


@<TRIPOS>ATOM
  1 O       -0.2690    -0.5740     0.2950 O.3   1 <1>  -0.3630 
  2 C       -1.4890    -1.0470    -0.0550 C.ar  1 <1>   0.0830 
  3 C        0.5540    -1.2530     1.2150 C.3   1 <1>   0.1200 
  4 C       -2.0730    -2.1800     0.5010 C.ar  1 <1>  -0.1500 
  5 C       -2.1710    -0.3410    -1.0310 C.ar  1 <1>  -0.1500 
  6 C        1.8600    -0.4750     1.3430 C.3   1 <1>  -0.2400 
  7 C       -3.3290    -2.5890     0.0860 C.ar  1 <1>  -0.1500 
  8 C       -3.4250    -0.7480    -1.4470 C.ar  1 <1>  -0.1500 
  9 C       -4.0170    -1.8690    -0.8820 C.ar  1 <1>  -0.1430 
 10 C       -5.4040    -2.2980    -1.3160 C.3   1 <1>   0.4860 
 11 N       -6.3690    -1.9000    -0.2400 N.4   1 <1>  -0.9590 
 12 C       -7.6970    -2.5950    -0.4170 C.3   1 <1>   0.3430 
 13 C       -6.4670    -0.3990    -0.1800 C.3   1 <1>   0.2630 
 14 C       -8.6810    -2.4110     0.7760 C.3   1 <1>   0.3430 
 15 N      -10.0200    -3.0930     0.6030 N.4   1 <1>  -0.9590 
 16 C      -10.9500    -2.6980     1.7160 C.3   1 <1>   0.2630 
 17 C       -9.9340    -4.5940     0.5600 C.3   1 <1>   0.2630 
 18 H        0.7380    -2.2450     0.8410 H     1 <1>   0.0800 
 19 H        0.0440    -1.2970     2.1620 H     1 <1>   0.0800 
 20 H       -1.5610    -2.7520     1.2530 H     1 <1>   0.1500 
 21 H       -1.7040     0.5280    -1.4610 H     1 <1>   0.1500 
 22 H        2.3530    -0.4220     0.3890 H     1 <1>   0.0800 
 23 H        2.5120    -0.9690     2.0400 H     1 <1>   0.0800 
 24 H        1.6630     0.5200     1.7010 H     1 <1>   0.0800 
 25 H       -3.7490    -3.4760     0.5280 H     1 <1>   0.1500 
 26 H       -3.9210    -0.1770    -2.2150 H     1 <1>   0.1500 
 27 H       -5.4090    -3.3670    -1.4550 H     1 <1>   0.0800 
 28 H       -5.6600    -1.8290    -2.2520 H     1 <1>   0.0800 
 29 H       -5.9000    -2.2060     0.6280 H     1 <1>   0.4500 
 30 H       -7.5190    -3.6490    -0.5480 H     1 <1>   0.0800 
 31 H       -8.1660    -2.2220    -1.3130 H     1 <1>   0.0800 
 32 H       -6.8670    -0.0070    -1.1010 H     1 <1>   0.0800 
 33 H       -5.4890     0.0330    -0.0250 H     1 <1>   0.0800 
 34 H       -7.0980    -0.0870     0.6360 H     1 <1>   0.0800 
 35 H       -8.8520    -1.3560     0.9130 H     1 <1>   0.0800 
 36 H       -8.2150    -2.7890     1.6710 H     1 <1>   0.0800 
 37 H      -10.4720    -2.7750    -0.2730 H     1 <1>   0.4500 
 38 H      -10.5580    -3.0170     2.6690 H     1 <1>   0.0800 
 39 H      -11.9170    -3.1540     1.5760 H     1 <1>   0.0800 
 40 H      -11.0820    -1.6280     1.7390 H     1 <1>   0.0800 
 41 H       -9.4970    -4.9740     1.4700 H     1 <1>   0.0800 
 42 H       -9.3380    -4.9220    -0.2750 H     1 <1>   0.0800 
 43 H      -10.9200    -5.0200     0.4560 H     1 <1>   0.0800 
@<TRIPOS>BOND
  1   1   2  1   
  2   1   3  1   
  3   2   4  ar  
  4   2   5  ar  
  5   3   6  1   
  6   3  18  1   
  7   3  19  1   
  8   4   7  ar  
  9   4  20  1   
 10   5   8  ar  
 11   5  21  1   
 12   6  22  1   
 13   6  23  1   
 14   6  24  1   
 15   7   9  ar  
 16   7  25  1   
 17   8   9  ar  
 18   8  26  1   
 19   9  10  1   
 20  10  11  1   
 21  10  27  1   
 22  10  28  1   
 23  11  12  1   
 24  11  13  1   
 25  11  29  1   
 26  12  14  1   
 27  12  30  1   
 28  12  31  1   
 29  13  32  1   
 30  13  33  1   
 31  13  34  1   
 32  14  15  1   
 33  14  35  1   
 34  14  36  1   
 35  15  16  1   
 36  15  17  1   
 37  15  37  1   
 38  16  38  1   
 39  16  39  1   
 40  16  40  1   
 41  17  41  1   
 42  17  42  1   
 43  17  43  1   
@<TRIPOS>SUBSTRUCTURE
  1 ****   9 GROUP 4 **** **** 0

# MOE 2024.06 (io_trps.svl 2023.06)
