@<TRIPOS>MOLECULE
NONAME
52 55 1 0 0 
SMALL
USER_CHARGES


@<TRIPOS>ATOM
  1 S       -0.2280     0.4550    -0.6160 S.o2  1 <1>   1.4470 
  2 O       -1.3790     0.1920    -1.4440 O.2   1 <1>  -0.6500 
  3 O       -0.2460     1.5370     0.3390 O.2   1 <1>  -0.6500 
  4 N        0.9960     0.8610    -1.7440 N.am  1 <1>  -0.7570 
  5 C        0.3940    -1.0820     0.1210 C.ar  1 <1>  -0.0090 
  6 C        2.2830     1.2000    -1.3530 C.ar  1 <1>   0.1990 
  7 C        1.0390    -1.0710     1.3570 C.ar  1 <1>  -0.1500 
  8 C        0.2730    -2.2970    -0.5510 C.ar  1 <1>  -0.1500 
  9 C        3.2030     0.2190    -1.0510 C.ar  1 <1>  -0.1500 
 10 C        2.6530     2.5520    -1.2650 C.ar  1 <1>  -0.1500 
 11 C        1.5500    -2.2330     1.9110 C.ar  1 <1>  -0.1500 
 12 C        0.7770    -3.4700    -0.0140 C.ar  1 <1>  -0.1500 
 13 C        4.4840     0.5820    -0.6510 C.ar  1 <1>   0.2270 
 14 C        3.9210     2.9190    -0.8740 C.ar  1 <1>  -0.1500 
 15 C        1.4110    -3.4140     1.2120 C.ar  1 <1>   0.1900 
 16 N        5.5290    -0.2130    -0.3010 N.2   1 <1>  -0.5650 
 17 C        4.8400     1.9130    -0.5640 C.ar  1 <1>  -0.1520 
 18 F        1.8960    -4.5120     1.7230 F     1 <1>  -0.1900 
 19 C        6.4820     0.6120    -0.0140 C.2   1 <1>   0.0060 
 20 N        6.1370     1.9260    -0.1500 N.pl3 1 <1>   0.0480 
 21 C        7.8580     0.1430     0.4440 C.3   1 <1>   0.5230 
 22 C        6.9220     3.1560     0.0920 C.3   1 <1>   0.0160 
 23 N        7.9330    -1.3200     0.1930 N.4   1 <1>  -0.9590 
 24 C        8.6630    -2.0740     1.2450 C.3   1 <1>   0.3430 
 25 C        8.3840    -1.6260    -1.1920 C.3   1 <1>   0.3430 
 26 C        8.5110    -3.5760     0.9990 C.3   1 <1>  -0.1600 
 27 C        8.2270    -3.1230    -1.4630 C.3   1 <1>  -0.1600 
 28 C        8.9570    -3.9730    -0.4140 C.3   1 <1>  -0.1600 
 29 H        0.5710     1.4540    -2.4490 H     1 <1>   0.4200 
 30 H        1.1440    -0.1390     1.8900 H     1 <1>   0.1500 
 31 H       -0.2230    -2.3230    -1.5090 H     1 <1>   0.1500 
 32 H        2.9550    -0.8230    -1.1210 H     1 <1>   0.1500 
 33 H        1.9210     3.3040    -1.4990 H     1 <1>   0.1500 
 34 H        2.0460    -2.2250     2.8660 H     1 <1>   0.1500 
 35 H        0.6830    -4.4080    -0.5310 H     1 <1>   0.1500 
 36 H        4.1980     3.9570    -0.8050 H     1 <1>   0.1500 
 37 H        7.9600     0.3440     1.4980 H     1 <1>   0.0800 
 38 H        8.6370     0.6590    -0.0910 H     1 <1>   0.0800 
 39 H        7.0030     3.7100    -0.8260 H     1 <1>   0.0800 
 40 H        7.9040     2.9180     0.4530 H     1 <1>   0.0800 
 41 H        6.4130     3.7610     0.8220 H     1 <1>   0.0800 
 42 H        6.9310    -1.5910     0.2180 H     1 <1>   0.4500 
 43 H        8.2670    -1.8300     2.2190 H     1 <1>   0.0800 
 44 H        9.7080    -1.8120     1.2240 H     1 <1>   0.0800 
 45 H        9.4170    -1.3440    -1.3130 H     1 <1>   0.0800 
 46 H        7.7900    -1.0710    -1.9020 H     1 <1>   0.0800 
 47 H        7.4820    -3.8570     1.1490 H     1 <1>   0.0800 
 48 H        9.0980    -4.1140     1.7230 H     1 <1>   0.0800 
 49 H        8.6170    -3.3460    -2.4400 H     1 <1>   0.0800 
 50 H        7.1800    -3.3710    -1.4720 H     1 <1>   0.0800 
 51 H        8.7490    -5.0170    -0.5830 H     1 <1>   0.0800 
 52 H       10.0210    -3.8320    -0.5110 H     1 <1>   0.0800 
@<TRIPOS>BOND
  1   1   2  2   
  2   1   3  2   
  3   1   4  am  
  4   1   5  1   
  5   4   6  1   
  6   4  29  1   
  7   5   7  ar  
  8   5   8  ar  
  9   6   9  ar  
 10   6  10  ar  
 11   7  11  ar  
 12   7  30  1   
 13   8  12  ar  
 14   8  31  1   
 15   9  13  ar  
 16   9  32  1   
 17  10  14  ar  
 18  10  33  1   
 19  11  15  ar  
 20  11  34  1   
 21  12  15  ar  
 22  12  35  1   
 23  13  16  1   
 24  13  17  ar  
 25  14  17  ar  
 26  14  36  1   
 27  15  18  1   
 28  16  19  2   
 29  17  20  1   
 30  19  20  1   
 31  19  21  1   
 32  20  22  1   
 33  21  23  1   
 34  21  37  1   
 35  21  38  1   
 36  22  39  1   
 37  22  40  1   
 38  22  41  1   
 39  23  24  1   
 40  23  25  1   
 41  23  42  1   
 42  24  26  1   
 43  24  43  1   
 44  24  44  1   
 45  25  27  1   
 46  25  45  1   
 47  25  46  1   
 48  26  28  1   
 49  26  47  1   
 50  26  48  1   
 51  27  28  1   
 52  27  49  1   
 53  27  50  1   
 54  28  51  1   
 55  28  52  1   
@<TRIPOS>SUBSTRUCTURE
  1 ****  13 GROUP 4 **** **** 0

# MOE 2024.06 (io_trps.svl 2023.06)
