@<TRIPOS>MOLECULE
NONAME
50 53 1 0 0 
SMALL
USER_CHARGES


@<TRIPOS>ATOM
  1 O       -0.1020    -0.2200    -2.0540 O.2   1 <1>  -0.5700 
  2 C       -0.4360    -1.2980    -1.6330 C.2   1 <1>   0.5690 
  3 N        0.3850    -2.2510    -1.1080 N.am  1 <1>  -0.4200 
  4 C       -1.8340    -1.8550    -1.7190 C.3   1 <1>  -0.0190 
  5 C       -0.3250    -3.3390    -0.6880 C.2   1 <1>   0.5690 
  6 C        1.8570    -2.1420    -1.0420 C.3   1 <1>   0.1400 
  7 C       -3.0840    -0.9890    -1.5300 C.3   1 <1>   0.2020 
  8 C       -1.7970    -2.9980    -0.6950 C.3   1 <1>  -0.0190 
  9 O        0.1420    -4.3990    -0.3610 O.2   1 <1>  -0.5700 
 10 C        2.2760    -1.6850     0.3590 C.3   1 <1>  -0.1600 
 11 C       -3.0440    -0.1300    -0.2610 C.ar  1 <1>  -0.1440 
 12 C       -4.2710    -1.9610    -1.5490 C.2   1 <1>  -0.2880 
 13 C       -2.8700    -4.0410    -1.0350 C.3   1 <1>   0.2020 
 14 C        3.7900    -1.5060     0.4780 C.3   1 <1>   0.1200 
 15 C       -3.6510    -0.5270     0.9240 C.ar  1 <1>  -0.1500 
 16 C       -2.3800     1.0890    -0.2910 C.ar  1 <1>  -0.1500 
 17 C       -4.1730    -3.2900    -1.3570 C.2   1 <1>  -0.2880 
 18 C       -3.0640    -5.0180     0.1240 C.ar  1 <1>  -0.1440 
 19 O        4.4120    -2.7020     0.1690 O.3   1 <1>  -0.6800 
 20 C       -3.5890     0.2720     2.0530 C.ar  1 <1>  -0.1500 
 21 C       -2.3160     1.8890     0.8360 C.ar  1 <1>  -0.1500 
 22 C       -2.3800    -6.2260     0.1250 C.ar  1 <1>  -0.1500 
 23 C       -3.9080    -4.7280     1.1890 C.ar  1 <1>  -0.1500 
 24 C       -2.9210     1.4810     2.0110 C.ar  1 <1>  -0.1500 
 25 C       -2.5390    -7.1280     1.1630 C.ar  1 <1>  -0.1500 
 26 C       -4.0680    -5.6290     2.2280 C.ar  1 <1>  -0.1500 
 27 C       -3.3850    -6.8310     2.2150 C.ar  1 <1>  -0.1500 
 28 H       -1.9000    -2.2830    -2.7040 H     1 <1>   0.0800 
 29 H        2.1990    -1.4350    -1.7790 H     1 <1>   0.0800 
 30 H        2.2920    -3.1020    -1.2680 H     1 <1>   0.0800 
 31 H       -3.1660    -0.3350    -2.3810 H     1 <1>   0.0800 
 32 H       -2.0080    -2.6100     0.2850 H     1 <1>   0.0800 
 33 H        1.9440    -2.3970     1.0940 H     1 <1>   0.0800 
 34 H        1.8080    -0.7390     0.5720 H     1 <1>   0.0800 
 35 H       -5.2080    -1.4640    -1.7380 H     1 <1>   0.1500 
 36 H       -2.5730    -4.5900    -1.9120 H     1 <1>   0.0800 
 37 H        4.0690    -1.2250     1.4790 H     1 <1>   0.0800 
 38 H        4.1450    -0.7590    -0.2120 H     1 <1>   0.0800 
 39 H       -4.1800    -1.4600     0.9850 H     1 <1>   0.1500 
 40 H       -1.9020     1.4270    -1.1950 H     1 <1>   0.1500 
 41 H       -5.0240    -3.9490    -1.4060 H     1 <1>   0.1500 
 42 H        4.1100    -3.4120     0.7700 H     1 <1>   0.4000 
 43 H       -4.0640    -0.0480     2.9650 H     1 <1>   0.1500 
 44 H       -1.7950     2.8300     0.7970 H     1 <1>   0.1500 
 45 H       -1.7070    -6.4700    -0.6800 H     1 <1>   0.1500 
 46 H       -4.4490    -3.8000     1.2200 H     1 <1>   0.1500 
 47 H       -2.8720     2.1030     2.8870 H     1 <1>   0.1500 
 48 H       -1.9990    -8.0590     1.1510 H     1 <1>   0.1500 
 49 H       -4.7260    -5.3940     3.0460 H     1 <1>   0.1500 
 50 H       -3.5090    -7.5320     3.0220 H     1 <1>   0.1500 
@<TRIPOS>BOND
  1   1   2  2   
  2   2   3  am  
  3   2   4  1   
  4   3   5  am  
  5   3   6  1   
  6   4   7  1   
  7   4   8  1   
  8   4  28  1   
  9   5   8  1   
 10   5   9  2   
 11   6  10  1   
 12   6  29  1   
 13   6  30  1   
 14   7  11  1   
 15   7  12  1   
 16   7  31  1   
 17   8  13  1   
 18   8  32  1   
 19  10  14  1   
 20  10  33  1   
 21  10  34  1   
 22  11  15  ar  
 23  11  16  ar  
 24  12  17  2   
 25  12  35  1   
 26  13  17  1   
 27  13  18  1   
 28  13  36  1   
 29  14  19  1   
 30  14  37  1   
 31  14  38  1   
 32  15  20  ar  
 33  15  39  1   
 34  16  21  ar  
 35  16  40  1   
 36  17  41  1   
 37  18  22  ar  
 38  18  23  ar  
 39  19  42  1   
 40  20  24  ar  
 41  20  43  1   
 42  21  24  ar  
 43  21  44  1   
 44  22  25  ar  
 45  22  45  1   
 46  23  26  ar  
 47  23  46  1   
 48  24  47  1   
 49  25  27  ar  
 50  25  48  1   
 51  26  27  ar  
 52  26  49  1   
 53  27  50  1   
@<TRIPOS>SUBSTRUCTURE
  1 ****   8 GROUP 4 **** **** 0

# MOE 2024.06 (io_trps.svl 2023.06)
