@<TRIPOS>MOLECULE
NONAME
32 33 1 0 0 
SMALL
USER_CHARGES


@<TRIPOS>ATOM
  1 CL      -1.4420     0.5990     1.2190 Cl    1 <1>  -0.1770 
  2 C       -0.7260     2.0240     0.5060 C.ar  1 <1>   0.1770 
  3 C       -1.4140     2.7030    -0.4840 C.ar  1 <1>  -0.1440 
  4 C        0.5120     2.4540     0.9570 C.ar  1 <1>  -0.1500 
  5 C       -0.8190     3.8380    -1.0040 C.ar  1 <1>   0.1900 
  6 C       -2.7570     2.2190    -0.9830 C.3   1 <1>   0.4860 
  7 C        1.0850     3.5940     0.4110 C.ar  1 <1>  -0.1500 
  8 F       -1.4520     4.5090    -1.9280 F     1 <1>  -0.1900 
  9 C        0.4150     4.2960    -0.5790 C.ar  1 <1>  -0.1500 
 10 N       -3.7910     2.5240     0.0410 N.4   1 <1>  -0.9590 
 11 C       -5.1000     1.8750    -0.2180 C.3   1 <1>   0.4230 
 12 C       -4.0640     3.9790     0.1680 C.3   1 <1>   0.3430 
 13 C       -6.0710     2.6770     0.6460 C.3   1 <1>  -0.1600 
 14 C       -5.1020     0.3630     0.0930 C.3   1 <1>   0.1200 
 15 C       -5.4460     4.0650     0.8020 C.3   1 <1>  -0.1600 
 16 O       -6.3540    -0.1570    -0.1990 O.3   1 <1>  -0.6800 
 17 H        1.0240     1.9030     1.7270 H     1 <1>   0.1500 
 18 H       -2.7040     1.1560    -1.1510 H     1 <1>   0.0800 
 19 H       -3.0030     2.6980    -1.9180 H     1 <1>   0.0800 
 20 H        2.0490     3.9330     0.7560 H     1 <1>   0.1500 
 21 H        0.8440     5.1830    -1.0130 H     1 <1>   0.1500 
 22 H       -3.4520     2.1880     0.9510 H     1 <1>   0.4500 
 23 H       -5.3610     2.0180    -1.2540 H     1 <1>   0.0800 
 24 H       -4.0890     4.4350    -0.8090 H     1 <1>   0.0800 
 25 H       -3.3170     4.4720     0.7710 H     1 <1>   0.0800 
 26 H       -6.1850     2.2120     1.6110 H     1 <1>   0.0800 
 27 H       -7.0400     2.7180     0.1790 H     1 <1>   0.0800 
 28 H       -4.9020     0.1820     1.1360 H     1 <1>   0.0800 
 29 H       -4.3840    -0.1580    -0.5150 H     1 <1>   0.0800 
 30 H       -6.0320     4.8200     0.3050 H     1 <1>   0.0800 
 31 H       -5.3630     4.3300     1.8420 H     1 <1>   0.0800 
 32 H       -6.4110    -1.1140     0.0150 H     1 <1>   0.4000 
@<TRIPOS>BOND
  1   1   2  1   
  2   2   3  ar  
  3   2   4  ar  
  4   3   5  ar  
  5   3   6  1   
  6   4   7  ar  
  7   4  17  1   
  8   5   8  1   
  9   5   9  ar  
 10   6  10  1   
 11   6  18  1   
 12   6  19  1   
 13   7   9  ar  
 14   7  20  1   
 15   9  21  1   
 16  10  11  1   
 17  10  12  1   
 18  10  22  1   
 19  11  13  1   
 20  11  14  1   
 21  11  23  1   
 22  12  15  1   
 23  12  24  1   
 24  12  25  1   
 25  13  15  1   
 26  13  26  1   
 27  13  27  1   
 28  14  16  1   
 29  14  28  1   
 30  14  29  1   
 31  15  30  1   
 32  15  31  1   
 33  16  32  1   
@<TRIPOS>SUBSTRUCTURE
  1 ****   6 GROUP 4 **** **** 0

# MOE 2024.06 (io_trps.svl 2023.06)
