@<TRIPOS>MOLECULE
NONAME
34 35 1 0 0 
SMALL
USER_CHARGES


@<TRIPOS>ATOM
  1 O       -1.2090     5.6190    -0.2460 O.3   1 <1>  -0.3630 
  2 C        0.1440     5.6510    -0.2040 C.ar  1 <1>   0.0830 
  3 C       -1.9910     6.6190     0.3680 C.3   1 <1>   0.0400 
  4 C        0.8150     4.6150    -0.8310 C.ar  1 <1>  -0.1500 
  5 C        0.8800     6.6490     0.4250 C.ar  1 <1>  -0.1500 
  6 C        2.1960     4.5740    -0.8340 C.ar  1 <1>  -0.1500 
  7 C        2.2610     6.6010     0.4180 C.ar  1 <1>  -0.1500 
  8 C        2.9590     5.5670    -0.2150 C.ar  1 <1>   0.0860 
  9 C        4.4030     5.5030    -0.2300 C.2   1 <1>   0.3030 
 10 N        5.0340     4.3910    -0.1170 N.2   1 <1>  -0.3180 
 11 C        5.1450     6.8310    -0.3920 C.3   1 <1>  -0.1790 
 12 N        6.4250     4.3190    -0.1080 N.pl3 1 <1>  -0.6490 
 13 C        7.1690     3.2210     0.0210 C.cat 1 <1>   1.2000 
 14 N        8.4800     3.1930     0.0200 N.pl3 1 <1>  -0.8440 
 15 N        6.6790     2.0200     0.1690 N.pl3 1 <1>  -0.8440 
 16 C        9.0100     1.8140     0.1870 C.3   1 <1>   0.1680 
 17 C        7.7200     0.9770     0.2950 C.3   1 <1>   0.1680 
 18 H       -3.0260     6.3800     0.2030 H     1 <1>   0.0800 
 19 H       -1.7600     7.5680    -0.0820 H     1 <1>   0.0800 
 20 H       -1.7810     6.6280     1.4220 H     1 <1>   0.0800 
 21 H        0.2420     3.8430    -1.3150 H     1 <1>   0.1500 
 22 H        0.3910     7.4650     0.9240 H     1 <1>   0.1500 
 23 H        2.6900     3.7570    -1.3310 H     1 <1>   0.1500 
 24 H        2.8030     7.3810     0.9230 H     1 <1>   0.1500 
 25 H        4.4910     7.5820    -0.7990 H     1 <1>   0.0800 
 26 H        5.9690     6.7340    -1.0730 H     1 <1>   0.0800 
 27 H        5.5040     7.1690     0.5640 H     1 <1>   0.0800 
 28 H        6.9450     5.1900    -0.1970 H     1 <1>   0.4500 
 29 H        9.0990     3.9940    -0.0810 H     1 <1>   0.4500 
 30 H        5.6720     1.8620     0.2020 H     1 <1>   0.4500 
 31 H        9.5950     1.5160    -0.6680 H     1 <1>   0.0800 
 32 H        9.6030     1.7300     1.0840 H     1 <1>   0.0800 
 33 H        7.6560     0.4760     1.2470 H     1 <1>   0.0800 
 34 H        7.6510     0.2590    -0.5060 H     1 <1>   0.0800 
@<TRIPOS>BOND
  1   1   2  1   
  2   1   3  1   
  3   2   4  ar  
  4   2   5  ar  
  5   3  18  1   
  6   3  19  1   
  7   3  20  1   
  8   4   6  ar  
  9   4  21  1   
 10   5   7  ar  
 11   5  22  1   
 12   6   8  ar  
 13   6  23  1   
 14   7   8  ar  
 15   7  24  1   
 16   8   9  1   
 17   9  10  2   
 18   9  11  1   
 19  10  12  1   
 20  11  25  1   
 21  11  26  1   
 22  11  27  1   
 23  12  13  ar  
 24  12  28  1   
 25  13  14  ar  
 26  13  15  ar  
 27  14  16  1   
 28  14  29  1   
 29  15  17  1   
 30  15  30  1   
 31  16  17  1   
 32  16  31  1   
 33  16  32  1   
 34  17  33  1   
 35  17  34  1   
@<TRIPOS>SUBSTRUCTURE
  1 ****   9 GROUP 4 **** **** 0

# MOE 2024.06 (io_trps.svl 2023.06)
