@<TRIPOS>MOLECULE
NONAME
36 37 1 0 0 
SMALL
USER_CHARGES


@<TRIPOS>ATOM
  1 O        0.2820    -0.3340    -0.0090 O.2   1 <1>  -0.5700 
  2 C        0.1500    -1.5370    -0.0050 C.2   1 <1>   0.5690 
  3 N        1.2280    -2.4160    -0.0010 N.am  1 <1>  -0.2980 
  4 C       -1.2670    -2.1120    -0.0050 C.3   1 <1>  -0.0990 
  5 N        2.5560    -2.0620    -0.0010 N.2   1 <1>  -0.5120 
  6 C        1.0880    -3.8860     0.0040 C.3   1 <1>   0.1400 
  7 C       -2.3900    -1.0590    -0.0100 C.3   1 <1>  -0.1600 
  8 C        3.3150    -3.0820     0.0040 C.2   1 <1>   0.3030 
  9 C        2.5300    -4.3760     0.0070 C.3   1 <1>  -0.0990 
 10 C       -3.7760    -1.7130    -0.0090 C.3   1 <1>  -0.2400 
 11 C        4.7610    -3.0760     0.0050 C.ar  1 <1>   0.0860 
 12 C        5.5280    -4.2470     0.0100 C.ar  1 <1>  -0.1500 
 13 C        5.4620    -1.8660     0.0020 C.ar  1 <1>  -0.1500 
 14 C        6.9110    -4.2140     0.0110 C.ar  1 <1>  -0.1500 
 15 C        6.8430    -1.8250     0.0030 C.ar  1 <1>  -0.1500 
 16 C        7.5810    -2.9950     0.0080 C.ar  1 <1>   0.0820 
 17 O        8.9300    -2.8720     0.0090 O.3   1 <1>  -0.3630 
 18 C        9.7740    -4.0020     0.0140 C.3   1 <1>   0.0400 
 19 H       -1.3790    -2.7270     0.8690 H     1 <1>   0.0800 
 20 H       -1.3770    -2.7320    -0.8750 H     1 <1>   0.0800 
 21 H        0.5710    -4.2100    -0.8820 H     1 <1>   0.0800 
 22 H        0.5690    -4.2040     0.8900 H     1 <1>   0.0800 
 23 H       -2.2890    -0.4330    -0.8810 H     1 <1>   0.0800 
 24 H       -2.2910    -0.4280     0.8580 H     1 <1>   0.0800 
 25 H        2.7370    -4.9550    -0.8740 H     1 <1>   0.0800 
 26 H        2.7350    -4.9490     0.8920 H     1 <1>   0.0800 
 27 H       -3.9040    -2.3270    -0.8830 H     1 <1>   0.0800 
 28 H       -4.5370    -0.9530    -0.0120 H     1 <1>   0.0800 
 29 H       -3.9060    -2.3210     0.8680 H     1 <1>   0.0800 
 30 H        5.0450    -5.2060     0.0130 H     1 <1>   0.1500 
 31 H        4.9080    -0.9420    -0.0020 H     1 <1>   0.1500 
 32 H        7.4510    -5.1420     0.0150 H     1 <1>   0.1500 
 33 H        7.3590    -0.8810     0.0010 H     1 <1>   0.1500 
 34 H       10.7920    -3.6570     0.0140 H     1 <1>   0.0800 
 35 H        9.5850    -4.5830    -0.8710 H     1 <1>   0.0800 
 36 H        9.5830    -4.5770     0.9030 H     1 <1>   0.0800 
@<TRIPOS>BOND
  1   1   2  2   
  2   2   3  am  
  3   2   4  1   
  4   3   5  1   
  5   3   6  1   
  6   4   7  1   
  7   4  19  1   
  8   4  20  1   
  9   5   8  2   
 10   6   9  1   
 11   6  21  1   
 12   6  22  1   
 13   7  10  1   
 14   7  23  1   
 15   7  24  1   
 16   8   9  1   
 17   8  11  1   
 18   9  25  1   
 19   9  26  1   
 20  10  27  1   
 21  10  28  1   
 22  10  29  1   
 23  11  12  ar  
 24  11  13  ar  
 25  12  14  ar  
 26  12  30  1   
 27  13  15  ar  
 28  13  31  1   
 29  14  16  ar  
 30  14  32  1   
 31  15  16  ar  
 32  15  33  1   
 33  16  17  1   
 34  17  18  1   
 35  18  34  1   
 36  18  35  1   
 37  18  36  1   
@<TRIPOS>SUBSTRUCTURE
  1 ****   8 GROUP 4 **** **** 0

# MOE 2024.06 (io_trps.svl 2023.06)
