@<TRIPOS>MOLECULE
NONAME
41 43 1 0 0 
SMALL
USER_CHARGES


@<TRIPOS>ATOM
  1 CL      -0.9580     0.8660     1.1580 Cl    1 <1>  -0.1770 
  2 C       -2.3760    -0.0700     0.7480 C.ar  1 <1>   0.1770 
  3 C       -3.6340     0.5000     0.8270 C.ar  1 <1>   0.1600 
  4 C       -2.2370    -1.3800     0.3460 C.ar  1 <1>  -0.1500 
  5 N       -4.7630    -0.1350     0.5350 N.ar  1 <1>  -0.6200 
  6 C       -3.4030    -2.0480     0.0410 C.ar  1 <1>  -0.1500 
  7 C       -4.6360    -1.3990     0.1490 C.ar  1 <1>   0.4270 
  8 N       -5.8500    -1.9860    -0.1350 N.am  1 <1>  -0.5470 
  9 C       -6.2210    -3.2470    -0.5030 C.2   1 <1>   0.5690 
 10 O       -5.4360    -4.1500    -0.6500 O.2   1 <1>  -0.5700 
 11 C       -7.6940    -3.5340    -0.7540 C.3   1 <1>   0.1310 
 12 S       -8.7900    -2.2900     0.0890 S.3   1 <1>  -0.2860 
 13 C      -10.4330    -2.8150    -0.4100 C.2   1 <1>   0.2430 
 14 N      -10.6500    -3.8110    -1.1930 N.2   1 <1>  -0.3380 
 15 N      -11.5430    -2.2020    -0.0020 N.pl3 1 <1>   0.0480 
 16 N      -11.9790    -3.8800    -1.3270 N.2   1 <1>  -0.3380 
 17 C      -12.4890    -2.9250    -0.6180 C.2   1 <1>   0.1020 
 18 C      -11.6850    -1.0320     0.8910 C.3   1 <1>   0.0960 
 19 C      -13.9770    -2.6400    -0.4930 C.3   1 <1>  -0.0150 
 20 C      -11.6830     0.2700     0.0790 C.3   1 <1>  -0.1600 
 21 C      -14.6980    -2.9550     0.7830 C.3   1 <1>  -0.2000 
 22 C      -14.9610    -3.7680    -0.4460 C.3   1 <1>  -0.2000 
 23 C      -11.8460     1.4910     0.9900 C.3   1 <1>  -0.2400 
 24 H       -3.7100     1.5250     1.1440 H     1 <1>   0.1500 
 25 H       -1.2700    -1.8440     0.2770 H     1 <1>   0.1500 
 26 H       -3.3520    -3.0710    -0.2790 H     1 <1>   0.1500 
 27 H       -6.6150    -1.3270     0.0070 H     1 <1>   0.3700 
 28 H       -7.9580    -4.5020    -0.3700 H     1 <1>   0.0800 
 29 H       -7.9100    -3.4910    -1.8050 H     1 <1>   0.0800 
 30 H      -10.8710    -1.0290     1.5940 H     1 <1>   0.0800 
 31 H      -12.6030    -1.1230     1.4410 H     1 <1>   0.0800 
 32 H      -14.2740    -1.7650    -1.0430 H     1 <1>   0.1000 
 33 H      -12.4910     0.2530    -0.6330 H     1 <1>   0.0800 
 34 H      -10.7550     0.3560    -0.4610 H     1 <1>   0.0800 
 35 H      -15.4640    -2.2830     1.1280 H     1 <1>   0.1000 
 36 H      -14.1610    -3.4240     1.5890 H     1 <1>   0.1000 
 37 H      -14.5840    -4.7760    -0.4990 H     1 <1>   0.1000 
 38 H      -15.8970    -3.6520    -0.9640 H     1 <1>   0.1000 
 39 H      -12.7760     1.4430     1.5280 H     1 <1>   0.0800 
 40 H      -11.8410     2.3920     0.4000 H     1 <1>   0.0800 
 41 H      -11.0370     1.5460     1.6980 H     1 <1>   0.0800 
@<TRIPOS>BOND
  1   1   2  1   
  2   2   3  ar  
  3   2   4  ar  
  4   3   5  ar  
  5   3  24  1   
  6   4   6  ar  
  7   4  25  1   
  8   5   7  ar  
  9   6   7  ar  
 10   6  26  1   
 11   7   8  1   
 12   8   9  am  
 13   8  27  1   
 14   9  10  2   
 15   9  11  1   
 16  11  12  1   
 17  11  28  1   
 18  11  29  1   
 19  12  13  1   
 20  13  14  2   
 21  13  15  1   
 22  14  16  1   
 23  15  17  1   
 24  15  18  1   
 25  16  17  2   
 26  17  19  1   
 27  18  20  1   
 28  18  30  1   
 29  18  31  1   
 30  19  21  1   
 31  19  22  1   
 32  19  32  1   
 33  20  23  1   
 34  20  33  1   
 35  20  34  1   
 36  21  22  1   
 37  21  35  1   
 38  21  36  1   
 39  22  37  1   
 40  22  38  1   
 41  23  39  1   
 42  23  40  1   
 43  23  41  1   
@<TRIPOS>SUBSTRUCTURE
  1 ****  12 GROUP 4 **** **** 0

# MOE 2024.06 (io_trps.svl 2023.06)
