@<TRIPOS>MOLECULE
NONAME
52 54 1 0 0 
SMALL
USER_CHARGES


@<TRIPOS>ATOM
  1 O       -0.3240    -0.9440    -1.1230 O.3   1 <1>  -0.3630 
  2 C       -1.2200    -1.1060    -0.0990 C.ar  1 <1>   0.0830 
  3 C       -0.5050     0.0520    -2.1040 C.3   1 <1>   0.1200 
  4 C       -0.9510    -2.0900     0.8710 C.ar  1 <1>   0.1000 
  5 C       -2.3730    -0.3330     0.0070 C.ar  1 <1>  -0.1500 
  6 C        0.6740    -0.0170    -3.0690 C.3   1 <1>  -0.2400 
  7 N        0.1800    -2.9190     0.8520 N.pl3 1 <1>  -0.8380 
  8 C       -1.8500    -2.2630     1.9140 C.ar  1 <1>  -0.1500 
  9 C       -3.2540    -0.5260     1.0580 C.ar  1 <1>  -0.1500 
 10 C        1.4700    -2.1990     1.0780 C.3   1 <1>   0.2090 
 11 C        0.2150    -3.8800    -0.2900 C.3   1 <1>   0.2090 
 12 C       -2.9920    -1.4910     2.0120 C.ar  1 <1>  -0.1500 
 13 C        2.6470    -3.1870     1.1930 C.3   1 <1>   0.3430 
 14 C        1.4010    -4.8560    -0.1610 C.3   1 <1>   0.3430 
 15 N        2.7130    -4.1370     0.0210 N.4   1 <1>  -0.9590 
 16 C        3.8590    -5.0760     0.1290 C.3   1 <1>   0.4860 
 17 C        5.1420    -4.2670     0.1200 C.ar  1 <1>  -0.1430 
 18 C        5.5030    -3.5550    -1.0140 C.ar  1 <1>  -0.1500 
 19 C        5.9600    -4.2220     1.2420 C.ar  1 <1>  -0.1500 
 20 C        6.6560    -2.7960    -1.0110 C.ar  1 <1>   0.0830 
 21 C        7.1240    -3.4670     1.2380 C.ar  1 <1>  -0.1500 
 22 O        6.9790    -2.0980    -2.1100 O.3   1 <1>  -0.5330 
 23 C        7.4830    -2.7420     0.1060 C.ar  1 <1>   0.0830 
 24 O        8.6060    -1.9740     0.0190 O.3   1 <1>  -0.3630 
 25 C        9.5500    -1.9390     1.0680 C.3   1 <1>   0.0400 
 26 H       -0.5410     1.0110    -1.6160 H     1 <1>   0.0800 
 27 H       -1.4300    -0.1410    -2.6200 H     1 <1>   0.0800 
 28 H       -2.6130     0.4250    -0.7120 H     1 <1>   0.1500 
 29 H        1.5950     0.1660    -2.5440 H     1 <1>   0.0800 
 30 H        0.5620     0.7340    -3.8310 H     1 <1>   0.0800 
 31 H        0.7110    -0.9810    -3.5430 H     1 <1>   0.0800 
 32 H       -1.6470    -3.0130     2.6560 H     1 <1>   0.1500 
 33 H       -4.1430     0.0760     1.1330 H     1 <1>   0.1500 
 34 H        1.3960    -1.6240     1.9850 H     1 <1>   0.0800 
 35 H        1.6560    -1.5120     0.2700 H     1 <1>   0.0800 
 36 H        0.2890    -3.3450    -1.2200 H     1 <1>   0.0800 
 37 H       -0.7070    -4.4370    -0.3060 H     1 <1>   0.0800 
 38 H       -3.6770    -1.6410     2.8290 H     1 <1>   0.1500 
 39 H        2.5270    -3.7450     2.1060 H     1 <1>   0.0800 
 40 H        3.5640    -2.6260     1.2640 H     1 <1>   0.0800 
 41 H        1.4390    -5.4760    -1.0410 H     1 <1>   0.0800 
 42 H        1.2170    -5.4920     0.6880 H     1 <1>   0.0800 
 43 H        2.8750    -3.5540    -0.8100 H     1 <1>   0.4500 
 44 H        3.8640    -5.7570    -0.7060 H     1 <1>   0.0800 
 45 H        3.7890    -5.6490     1.0400 H     1 <1>   0.0800 
 46 H        4.9120    -3.5720    -1.9130 H     1 <1>   0.1500 
 47 H        5.7070    -4.7740     2.1320 H     1 <1>   0.1500 
 48 H        7.7360    -3.4550     2.1210 H     1 <1>   0.1500 
 49 H        7.8280    -1.6300    -1.9630 H     1 <1>   0.4500 
 50 H       10.3620    -1.3020     0.7670 H     1 <1>   0.0800 
 51 H        9.9150    -2.9350     1.2450 H     1 <1>   0.0800 
 52 H        9.0810    -1.5370     1.9490 H     1 <1>   0.0800 
@<TRIPOS>BOND
  1   1   2  1   
  2   1   3  1   
  3   2   4  ar  
  4   2   5  ar  
  5   3   6  1   
  6   3  26  1   
  7   3  27  1   
  8   4   7  1   
  9   4   8  ar  
 10   5   9  ar  
 11   5  28  1   
 12   6  29  1   
 13   6  30  1   
 14   6  31  1   
 15   7  10  1   
 16   7  11  1   
 17   8  12  ar  
 18   8  32  1   
 19   9  12  ar  
 20   9  33  1   
 21  10  13  1   
 22  10  34  1   
 23  10  35  1   
 24  11  14  1   
 25  11  36  1   
 26  11  37  1   
 27  12  38  1   
 28  13  15  1   
 29  13  39  1   
 30  13  40  1   
 31  14  15  1   
 32  14  41  1   
 33  14  42  1   
 34  15  16  1   
 35  15  43  1   
 36  16  17  1   
 37  16  44  1   
 38  16  45  1   
 39  17  18  ar  
 40  17  19  ar  
 41  18  20  ar  
 42  18  46  1   
 43  19  21  ar  
 44  19  47  1   
 45  20  22  1   
 46  20  23  ar  
 47  21  23  ar  
 48  21  48  1   
 49  22  49  1   
 50  23  24  1   
 51  24  25  1   
 52  25  50  1   
 53  25  51  1   
 54  25  52  1   
@<TRIPOS>SUBSTRUCTURE
  1 ****  13 GROUP 4 **** **** 0

# MOE 2024.06 (io_trps.svl 2023.06)
