@<TRIPOS>MOLECULE
NONAME
29 30 1 0 0 
SMALL
USER_CHARGES


@<TRIPOS>ATOM
  1 S       -0.3890     0.2110     2.6450 S.2   1 <1>  -0.6770 
  2 P       -0.8000    -0.5630     0.9170 P.3   1 <1>   1.4760 
  3 O       -1.4940     0.4050    -0.1430 O.3   1 <1>  -0.5510 
  4 O       -1.9770    -1.6370     0.9930 O.3   1 <1>  -0.5510 
  5 N        0.4690    -1.3590     0.1060 N.am  1 <1>  -0.4330 
  6 C       -2.8350     0.1060    -0.2950 C.3   1 <1>   0.1200 
  7 C       -2.9750    -1.3770     0.0720 C.3   1 <1>   0.1200 
  8 C        0.5240    -2.7570     0.0790 C.ar  1 <1>   0.1170 
  9 C        1.5000    -0.5860    -0.3270 C.2   1 <1>   0.7800 
 10 C        0.7140    -3.4830     1.2500 C.ar  1 <1>  -0.1500 
 11 C        0.3800    -3.4440    -1.1210 C.ar  1 <1>  -0.1500 
 12 O        1.4790     0.6270    -0.3070 O.2   1 <1>  -0.5700 
 13 O        2.5820    -1.2080    -0.8050 O.3   1 <1>  -0.4300 
 14 C        0.7510    -4.8660     1.2210 C.ar  1 <1>  -0.1500 
 15 C        0.4180    -4.8260    -1.1520 C.ar  1 <1>  -0.1500 
 16 C        3.7090    -0.4870    -1.2630 C.3   1 <1>   0.0400 
 17 C        0.6020    -5.5390     0.0210 C.ar  1 <1>  -0.1500 
 18 H       -3.1380     0.3150    -1.3070 H     1 <1>   0.0800 
 19 H       -3.3970     0.7200     0.3880 H     1 <1>   0.0800 
 20 H       -3.9330    -1.6050     0.5060 H     1 <1>   0.0800 
 21 H       -2.8080    -1.9980    -0.7910 H     1 <1>   0.0800 
 22 H        0.8350    -2.9690     2.1870 H     1 <1>   0.1500 
 23 H        0.2420    -2.8930    -2.0350 H     1 <1>   0.1500 
 24 H        0.8970    -5.4190     2.1330 H     1 <1>   0.1500 
 25 H        0.3060    -5.3490    -2.0860 H     1 <1>   0.1500 
 26 H        4.4520    -1.1910    -1.5930 H     1 <1>   0.0800 
 27 H        4.0960     0.1060    -0.4510 H     1 <1>   0.0800 
 28 H        3.4100     0.1480    -2.0780 H     1 <1>   0.0800 
 29 H        0.6310    -6.6150    -0.0010 H     1 <1>   0.1500 
@<TRIPOS>BOND
  1   1   2  2   
  2   2   3  1   
  3   2   4  1   
  4   2   5  1   
  5   3   6  1   
  6   4   7  1   
  7   5   8  1   
  8   5   9  am  
  9   6   7  1   
 10   6  18  1   
 11   6  19  1   
 12   7  20  1   
 13   7  21  1   
 14   8  10  ar  
 15   8  11  ar  
 16   9  12  2   
 17   9  13  1   
 18  10  14  ar  
 19  10  22  1   
 20  11  15  ar  
 21  11  23  1   
 22  13  16  1   
 23  14  17  ar  
 24  14  24  1   
 25  15  17  ar  
 26  15  25  1   
 27  16  26  1   
 28  16  27  1   
 29  16  28  1   
 30  17  29  1   
@<TRIPOS>SUBSTRUCTURE
  1 ****   5 GROUP 4 **** **** 0

# MOE 2024.06 (io_trps.svl 2023.06)
