@<TRIPOS>MOLECULE
NONAME
40 41 1 0 0 
SMALL
USER_CHARGES


@<TRIPOS>ATOM
  1 N       -0.0850     0.1050    -0.0140 N.4   1 <1>  -0.9590 
  2 C        1.0320     0.9200    -0.6180 C.3   1 <1>   0.4230 
  3 C       -1.4070     0.7730    -0.3080 C.3   1 <1>   0.3430 
  4 C        0.1220    -0.1690     1.4560 C.3   1 <1>   0.2630 
  5 C        2.4740     0.1440    -0.6600 C.3   1 <1>  -0.0800 
  6 C        1.2720     2.3950     0.1370 C.3   1 <1>  -0.1600 
  7 C       -2.6620    -0.0770     0.0490 C.3   1 <1>   0.3430 
  8 C        2.6770     1.3800    -0.1830 C.3   1 <1>  -0.1600 
  9 C        4.0870     0.3540    -0.4900 C.3   1 <1>  -0.1600 
 10 C        2.8840     2.5930     0.3380 C.3   1 <1>  -0.0800 
 11 N       -3.9800     0.5510    -0.3440 N.4   1 <1>  -0.9590 
 12 C        4.3340     1.8380     0.2410 C.3   1 <1>  -0.1600 
 13 C       -4.2860     1.8250     0.3930 C.3   1 <1>   0.2630 
 14 C       -5.1050    -0.4200    -0.1190 C.3   1 <1>   0.2630 
 15 H       -0.0320    -0.7990    -0.5100 H     1 <1>   0.4500 
 16 H        0.7770     1.1310    -1.6450 H     1 <1>   0.0800 
 17 H       -1.4470     1.0010    -1.3610 H     1 <1>   0.0800 
 18 H       -1.4520     1.7030     0.2330 H     1 <1>   0.0800 
 19 H        0.0750     0.7450     2.0250 H     1 <1>   0.0800 
 20 H        1.0870    -0.6180     1.6250 H     1 <1>   0.0800 
 21 H       -0.6290    -0.8460     1.8280 H     1 <1>   0.0800 
 22 H        2.3180    -0.7020    -0.0100 H     1 <1>   0.0800 
 23 H        0.7840     2.4560     1.0950 H     1 <1>   0.0800 
 24 H        0.8800     3.1890    -0.4800 H     1 <1>   0.0800 
 25 H       -2.6690    -0.2600     1.1110 H     1 <1>   0.0800 
 26 H       -2.5760    -1.0290    -0.4510 H     1 <1>   0.0800 
 27 H        2.8100     1.8210    -1.2690 H     1 <1>   0.0800 
 28 H        2.5730     0.9520     0.9100 H     1 <1>   0.0800 
 29 H        4.5720     0.3340    -1.4560 H     1 <1>   0.0800 
 30 H        4.5260    -0.4340     0.1030 H     1 <1>   0.0800 
 31 H        3.0670     3.4590    -0.2860 H     1 <1>   0.0800 
 32 H       -3.9850     0.7610    -1.3580 H     1 <1>   0.4500 
 33 H        5.0410     2.4240    -0.3270 H     1 <1>   0.0800 
 34 H        4.7510     1.7040     1.2280 H     1 <1>   0.0800 
 35 H       -4.3220     1.6480     1.4560 H     1 <1>   0.0800 
 36 H       -5.2450     2.2130     0.0830 H     1 <1>   0.0800 
 37 H       -3.5400     2.5760     0.1900 H     1 <1>   0.0800 
 38 H       -5.1840    -0.6740     0.9270 H     1 <1>   0.0800 
 39 H       -4.9450    -1.3260    -0.6820 H     1 <1>   0.0800 
 40 H       -6.0420     0.0120    -0.4350 H     1 <1>   0.0800 
@<TRIPOS>BOND
  1   1   2  1   
  2   1   3  1   
  3   1   4  1   
  4   1  15  1   
  5   2   5  1   
  6   2   6  1   
  7   2  16  1   
  8   3   7  1   
  9   3  17  1   
 10   3  18  1   
 11   4  19  1   
 12   4  20  1   
 13   4  21  1   
 14   5   8  1   
 15   5   9  1   
 16   5  22  1   
 17   6  10  1   
 18   6  23  1   
 19   6  24  1   
 20   7  11  1   
 21   7  25  1   
 22   7  26  1   
 23   8  10  1   
 24   8  27  1   
 25   8  28  1   
 26   9  12  1   
 27   9  29  1   
 28   9  30  1   
 29  10  12  1   
 30  10  31  1   
 31  11  13  1   
 32  11  14  1   
 33  11  32  1   
 34  12  33  1   
 35  12  34  1   
 36  13  35  1   
 37  13  36  1   
 38  13  37  1   
 39  14  38  1   
 40  14  39  1   
 41  14  40  1   
@<TRIPOS>SUBSTRUCTURE
  1 ****   1 GROUP 4 **** **** 0

# MOE 2024.06 (io_trps.svl 2023.06)
