@<TRIPOS>MOLECULE
NONAME
47 48 1 0 0 
SMALL
USER_CHARGES


@<TRIPOS>ATOM
  1 CL      -1.0120     1.5500    -2.2940 Cl    1 <1>  -0.1770 
  2 C       -2.0720     1.6140    -0.9030 C.ar  1 <1>   0.1770 
  3 C       -1.8380     2.5260     0.1190 C.ar  1 <1>   0.0830 
  4 C       -3.1380     0.7370    -0.8590 C.ar  1 <1>  -0.1500 
  5 O       -0.7720     3.3610     0.0100 O.3   1 <1>  -0.3630 
  6 C       -2.7110     2.5350     1.2030 C.ar  1 <1>  -0.1500 
  7 C       -4.0200     0.7440     0.2160 C.ar  1 <1>  -0.0090 
  8 C       -0.4460     4.2920     1.0150 C.3   1 <1>   0.1200 
  9 C       -3.7810     1.6550     1.2420 C.ar  1 <1>  -0.1500 
 10 S       -5.4480    -0.3790     0.2610 S.o2  1 <1>   1.4470 
 11 C        0.8050     5.0450     0.5700 C.3   1 <1>  -0.2400 
 12 O       -5.8980    -0.5130     1.6290 O.2   1 <1>  -0.6500 
 13 O       -5.1470    -1.5560    -0.5230 O.2   1 <1>  -0.6500 
 14 N       -6.6650     0.4690    -0.5620 N.am  1 <1>  -0.8490 
 15 C       -7.1120     1.6960     0.1440 C.3   1 <1>   0.2570 
 16 C       -6.4120     0.6990    -1.9890 C.3   1 <1>   0.1160 
 17 C       -8.4040     2.3260    -0.3990 C.2   1 <1>   0.5690 
 18 O       -8.2900     3.3870    -0.9710 O.2   1 <1>  -0.5700 
 19 N       -9.6260     1.7140    -0.2400 N.am  1 <1>  -0.6600 
 20 C       -9.8220     0.3640     0.3640 C.3   1 <1>   0.1400 
 21 C      -10.8850     2.3560    -0.7100 C.3   1 <1>   0.1400 
 22 C      -10.7940     0.4640     1.5430 C.3   1 <1>  -0.1600 
 23 C      -11.8700     2.4730     0.4580 C.3   1 <1>  -0.1600 
 24 C      -12.1220     1.1140     1.1280 C.3   1 <1>  -0.1600 
 25 H       -3.2780     0.0420    -1.6690 H     1 <1>   0.1500 
 26 H       -2.5740     3.2170     2.0220 H     1 <1>   0.1500 
 27 H       -0.2610     3.7570     1.9300 H     1 <1>   0.0800 
 28 H       -1.2730     4.9700     1.1350 H     1 <1>   0.0800 
 29 H       -4.4430     1.6730     2.0930 H     1 <1>   0.1500 
 30 H        1.6210     4.3580     0.4350 H     1 <1>   0.0800 
 31 H        1.0830     5.7660     1.3170 H     1 <1>   0.0800 
 32 H        0.6160     5.5620    -0.3540 H     1 <1>   0.0800 
 33 H       -6.3360     2.4390     0.0970 H     1 <1>   0.0800 
 34 H       -7.2850     1.4760     1.1820 H     1 <1>   0.0800 
 35 H       -6.1440    -0.2270    -2.4710 H     1 <1>   0.0800 
 36 H       -5.6170     1.4120    -2.1270 H     1 <1>   0.0800 
 37 H       -7.3000     1.0750    -2.4690 H     1 <1>   0.0800 
 38 H       -8.8940    -0.0610     0.7020 H     1 <1>   0.0800 
 39 H      -10.2280    -0.2950    -0.3860 H     1 <1>   0.0800 
 40 H      -11.3130     1.7530    -1.4920 H     1 <1>   0.0800 
 41 H      -10.6880     3.3350    -1.1130 H     1 <1>   0.0800 
 42 H      -10.3340     1.0430     2.3250 H     1 <1>   0.0800 
 43 H      -10.9810    -0.5210     1.9330 H     1 <1>   0.0800 
 44 H      -12.8000     2.8770     0.0980 H     1 <1>   0.0800 
 45 H      -11.4700     3.1650     1.1780 H     1 <1>   0.0800 
 46 H      -12.7500     1.2450     1.9930 H     1 <1>   0.0800 
 47 H      -12.6350     0.4670     0.4380 H     1 <1>   0.0800 
@<TRIPOS>BOND
  1   1   2  1   
  2   2   3  ar  
  3   2   4  ar  
  4   3   5  1   
  5   3   6  ar  
  6   4   7  ar  
  7   4  25  1   
  8   5   8  1   
  9   6   9  ar  
 10   6  26  1   
 11   7   9  ar  
 12   7  10  1   
 13   8  11  1   
 14   8  27  1   
 15   8  28  1   
 16   9  29  1   
 17  10  12  2   
 18  10  13  2   
 19  10  14  am  
 20  11  30  1   
 21  11  31  1   
 22  11  32  1   
 23  14  15  1   
 24  14  16  1   
 25  15  17  1   
 26  15  33  1   
 27  15  34  1   
 28  16  35  1   
 29  16  36  1   
 30  16  37  1   
 31  17  18  2   
 32  17  19  am  
 33  19  20  1   
 34  19  21  1   
 35  20  22  1   
 36  20  38  1   
 37  20  39  1   
 38  21  23  1   
 39  21  40  1   
 40  21  41  1   
 41  22  24  1   
 42  22  42  1   
 43  22  43  1   
 44  23  24  1   
 45  23  44  1   
 46  23  45  1   
 47  24  46  1   
 48  24  47  1   
@<TRIPOS>SUBSTRUCTURE
  1 ****  15 GROUP 4 **** **** 0

# MOE 2024.06 (io_trps.svl 2023.06)
