@<TRIPOS>MOLECULE
NONAME
42 43 1 0 0 
SMALL
USER_CHARGES


@<TRIPOS>ATOM
  1 S        0.0340     1.7240    -1.2540 S.o2  1 <1>   1.2040 
  2 O       -0.0770     3.1240    -1.6040 O.2   1 <1>  -0.6500 
  3 O        0.7670     0.8300    -2.1220 O.2   1 <1>  -0.6500 
  4 C       -1.6150     1.0440    -0.9590 C.ar  1 <1>  -0.0090 
  5 C        0.7320     1.6530     0.3970 C.3   1 <1>  -0.0550 
  6 C       -1.8460    -0.3230    -1.0070 C.ar  1 <1>  -0.1500 
  7 C       -2.6870     1.8640    -0.6400 C.ar  1 <1>  -0.1500 
  8 C        2.1440     2.2480     0.5050 C.3   1 <1>  -0.0160 
  9 C       -3.0960    -0.8530    -0.7420 C.ar  1 <1>  -0.1500 
 10 C       -3.9380     1.3370    -0.3740 C.ar  1 <1>  -0.1500 
 11 C        3.2090     1.2190     0.1620 C.ar  1 <1>  -0.1440 
 12 C       -4.1710    -0.0320    -0.4170 C.ar  1 <1>  -0.1430 
 13 C        3.6690     1.0400    -1.1260 C.ar  1 <1>  -0.1500 
 14 C        3.7730     0.4090     1.1270 C.ar  1 <1>  -0.1500 
 15 C       -5.5860    -0.5740    -0.1140 C.3   1 <1>   0.1430 
 16 C        4.6370     0.0830    -1.3820 C.ar  1 <1>   0.1600 
 17 C        4.7400    -0.5150     0.7670 C.ar  1 <1>   0.1600 
 18 C       -6.0010    -0.1630     1.3070 C.3   1 <1>  -0.2400 
 19 C       -5.6790    -2.1070    -0.1990 C.3   1 <1>  -0.2400 
 20 C       -6.5850     0.0070    -1.1260 C.3   1 <1>  -0.2400 
 21 N        5.1860    -0.6980    -0.4650 N.ar  1 <1>  -0.6200 
 22 H        0.7490     0.6380     0.7450 H     1 <1>   0.0800 
 23 H        0.0920     2.2090     1.0530 H     1 <1>   0.0800 
 24 H       -1.0360    -0.9870    -1.2620 H     1 <1>   0.1500 
 25 H       -2.5460     2.9310    -0.6010 H     1 <1>   0.1500 
 26 H        2.3040     2.5810     1.5150 H     1 <1>   0.0800 
 27 H        2.2370     3.1100    -0.1340 H     1 <1>   0.0800 
 28 H       -3.2040    -1.9210    -0.8000 H     1 <1>   0.1500 
 29 H       -4.7370     2.0160    -0.1330 H     1 <1>   0.1500 
 30 H        3.2810     1.6270    -1.9390 H     1 <1>   0.1500 
 31 H        3.4740     0.4850     2.1560 H     1 <1>   0.1500 
 32 H        4.9760    -0.0450    -2.3950 H     1 <1>   0.1500 
 33 H        5.1700    -1.1370     1.5330 H     1 <1>   0.1500 
 34 H       -5.2880    -0.5370     2.0200 H     1 <1>   0.0800 
 35 H       -6.9690    -0.5610     1.5490 H     1 <1>   0.0800 
 36 H       -6.0470     0.9060     1.4040 H     1 <1>   0.0800 
 37 H       -5.0140    -2.5660     0.5100 H     1 <1>   0.0800 
 38 H       -5.4270    -2.4470    -1.1880 H     1 <1>   0.0800 
 39 H       -6.6780    -2.4380     0.0210 H     1 <1>   0.0800 
 40 H       -6.6360     1.0780    -1.0510 H     1 <1>   0.0800 
 41 H       -7.5710    -0.3860    -0.9550 H     1 <1>   0.0800 
 42 H       -6.2840    -0.2460    -2.1270 H     1 <1>   0.0800 
@<TRIPOS>BOND
  1   1   2  2   
  2   1   3  2   
  3   1   4  1   
  4   1   5  1   
  5   4   6  ar  
  6   4   7  ar  
  7   5   8  1   
  8   5  22  1   
  9   5  23  1   
 10   6   9  ar  
 11   6  24  1   
 12   7  10  ar  
 13   7  25  1   
 14   8  11  1   
 15   8  26  1   
 16   8  27  1   
 17   9  12  ar  
 18   9  28  1   
 19  10  12  ar  
 20  10  29  1   
 21  11  13  ar  
 22  11  14  ar  
 23  12  15  1   
 24  13  16  ar  
 25  13  30  1   
 26  14  17  ar  
 27  14  31  1   
 28  15  18  1   
 29  15  19  1   
 30  15  20  1   
 31  16  21  ar  
 32  16  32  1   
 33  17  21  ar  
 34  17  33  1   
 35  18  34  1   
 36  18  35  1   
 37  18  36  1   
 38  19  37  1   
 39  19  38  1   
 40  19  39  1   
 41  20  40  1   
 42  20  41  1   
 43  20  42  1   
@<TRIPOS>SUBSTRUCTURE
  1 ****   4 GROUP 4 **** **** 0

# MOE 2024.06 (io_trps.svl 2023.06)
