@<TRIPOS>MOLECULE
NONAME
32 32 1 0 0 
SMALL
USER_CHARGES


@<TRIPOS>ATOM
  1 F        0.5680     0.3060     0.0000 F     1 <1>  -0.1900 
  2 C        0.3520     1.5980     0.0020 C.ar  1 <1>   0.1900 
  3 C        1.4350     2.4710     0.0050 C.ar  1 <1>   0.0820 
  4 C       -0.9570     2.0380     0.0010 C.ar  1 <1>  -0.1500 
  5 O        2.6920     1.9470     0.0060 O.3   1 <1>  -0.3630 
  6 C        1.1710     3.8400     0.0080 C.ar  1 <1>  -0.1500 
  7 C       -1.2010     3.4010     0.0040 C.ar  1 <1>  -0.1500 
  8 C        3.8380     2.7580     0.0080 C.3   1 <1>   0.1200 
  9 C       -0.1400     4.2940     0.0070 C.ar  1 <1>  -0.1500 
 10 C        5.0420     1.8130     0.0080 C.3   1 <1>   0.3430 
 11 N        6.3410     2.5550     0.0100 N.4   1 <1>  -0.9060 
 12 C        7.4980     1.6080     0.0090 C.3   1 <1>   0.3430 
 13 C        8.8410     2.3430     0.0100 C.3   1 <1>   0.1200 
 14 O        9.8280     1.3720     0.0090 O.3   1 <1>  -0.5600 
 15 C       11.1310     1.8690     0.0100 C.3   1 <1>   0.0400 
 16 H       -1.7650     1.3280    -0.0010 H     1 <1>   0.1500 
 17 H        1.9590     4.5680     0.0110 H     1 <1>   0.1500 
 18 H       -2.2140     3.7660     0.0030 H     1 <1>   0.1500 
 19 H        3.8160     3.3630     0.8980 H     1 <1>   0.0800 
 20 H        3.8180     3.3660    -0.8790 H     1 <1>   0.0800 
 21 H       -0.3410     5.3520     0.0090 H     1 <1>   0.1500 
 22 H        4.9850     1.1850    -0.8670 H     1 <1>   0.0800 
 23 H        4.9840     1.1830     0.8810 H     1 <1>   0.0800 
 24 H        6.3960     3.1560     0.8420 H     1 <1>   0.4500 
 25 H        6.3970     3.1590    -0.8210 H     1 <1>   0.4500 
 26 H        7.4530     0.9790    -0.8660 H     1 <1>   0.0800 
 27 H        7.4530     0.9770     0.8820 H     1 <1>   0.0800 
 28 H        8.9560     2.9420     0.8980 H     1 <1>   0.0800 
 29 H        8.9570     2.9440    -0.8760 H     1 <1>   0.0800 
 30 H       11.8090     1.0330     0.0100 H     1 <1>   0.0800 
 31 H       11.2910     2.4590     0.8970 H     1 <1>   0.0800 
 32 H       11.2910     2.4610    -0.8740 H     1 <1>   0.0800 
@<TRIPOS>BOND
  1   1   2  1   
  2   2   3  ar  
  3   2   4  ar  
  4   3   5  1   
  5   3   6  ar  
  6   4   7  ar  
  7   4  16  1   
  8   5   8  1   
  9   6   9  ar  
 10   6  17  1   
 11   7   9  ar  
 12   7  18  1   
 13   8  10  1   
 14   8  19  1   
 15   8  20  1   
 16   9  21  1   
 17  10  11  1   
 18  10  22  1   
 19  10  23  1   
 20  11  12  1   
 21  11  24  1   
 22  11  25  1   
 23  12  13  1   
 24  12  26  1   
 25  12  27  1   
 26  13  14  1   
 27  13  28  1   
 28  13  29  1   
 29  14  15  1   
 30  15  30  1   
 31  15  31  1   
 32  15  32  1   
@<TRIPOS>SUBSTRUCTURE
  1 ****   8 GROUP 4 **** **** 0

# MOE 2024.06 (io_trps.svl 2023.06)
