@<TRIPOS>MOLECULE
NONAME
52 54 1 0 0 
SMALL
USER_CHARGES


@<TRIPOS>ATOM
  1 N        0.1860     0.1850     0.0160 N.3   1 <1>  -0.8100 
  2 C        1.3110     0.8700    -0.6810 C.3   1 <1>   0.1900 
  3 C        0.0720    -1.2680    -0.3040 C.3   1 <1>   0.1100 
  4 C       -1.1340     0.8460    -0.2010 C.3   1 <1>   0.1100 
  5 C        2.6400     0.1340    -0.4200 C.3   1 <1>  -0.1600 
  6 C        1.4340     2.3240    -0.1820 C.3   1 <1>  -0.1600 
  7 C       -1.0760    -1.9650     0.4580 C.3   1 <1>   0.3430 
  8 C       -2.2880     0.1580     0.5590 C.3   1 <1>   0.3430 
  9 C        3.8630     0.8960    -0.9240 C.3   1 <1>   0.3430 
 10 C        2.6870     3.0350    -0.6880 C.3   1 <1>   0.3430 
 11 N       -2.3960    -1.2990     0.2170 N.4   1 <1>  -0.9590 
 12 N        3.8900     2.2540    -0.3200 N.4   1 <1>  -0.9590 
 13 C       -3.4750    -1.9810     0.9760 C.3   1 <1>   0.3430 
 14 C        5.1450     2.9830    -0.6590 C.3   1 <1>   0.4860 
 15 C       -4.8340    -1.5360     0.4510 C.3   1 <1>  -0.2400 
 16 C        6.3180     2.2270    -0.0680 C.ar  1 <1>  -0.1440 
 17 C        6.5520     2.2540     1.3000 C.ar  1 <1>  -0.1500 
 18 C        7.1640     1.4960    -0.8910 C.ar  1 <1>  -0.1500 
 19 C        7.6120     1.5460     1.8390 C.ar  1 <1>  -0.1500 
 20 C        8.2230     0.7900    -0.3490 C.ar  1 <1>  -0.1500 
 21 C        8.4460     0.8130     1.0160 C.ar  1 <1>  -0.1500 
 22 H        1.1200     0.8770    -1.7430 H     1 <1>   0.0800 
 23 H        0.9730    -1.7790    -0.0180 H     1 <1>   0.0800 
 24 H       -0.0650    -1.4020    -1.3630 H     1 <1>   0.0800 
 25 H       -1.3640     0.8730    -1.2530 H     1 <1>   0.0800 
 26 H       -1.1020     1.8590     0.1550 H     1 <1>   0.0800 
 27 H        2.6450    -0.8110    -0.9310 H     1 <1>   0.0800 
 28 H        2.7560    -0.0510     0.6340 H     1 <1>   0.0800 
 29 H        1.4330     2.3400     0.8940 H     1 <1>   0.0800 
 30 H        0.5990     2.9040    -0.5270 H     1 <1>   0.0800 
 31 H       -0.8460    -1.9440     1.5100 H     1 <1>   0.0800 
 32 H       -1.1260    -2.9970     0.1500 H     1 <1>   0.0800 
 33 H       -3.2110     0.6600     0.3210 H     1 <1>   0.0800 
 34 H       -2.1140     0.2700     1.6160 H     1 <1>   0.0800 
 35 H        3.8290     0.9730    -1.9980 H     1 <1>   0.0800 
 36 H        4.7550     0.3520    -0.6510 H     1 <1>   0.0800 
 37 H        2.7370     4.0200    -0.2520 H     1 <1>   0.0800 
 38 H        2.6340     3.1420    -1.7600 H     1 <1>   0.0800 
 39 H       -2.6110    -1.3760    -0.7850 H     1 <1>   0.4500 
 40 H        3.9050     2.1240     0.7000 H     1 <1>   0.4500 
 41 H       -3.3910    -1.7570     2.0290 H     1 <1>   0.0800 
 42 H       -3.3880    -3.0490     0.8520 H     1 <1>   0.0800 
 43 H        5.1220     3.9770    -0.2450 H     1 <1>   0.0800 
 44 H        5.2580     3.0600    -1.7280 H     1 <1>   0.0800 
 45 H       -5.0090    -0.4920     0.6390 H     1 <1>   0.0800 
 46 H       -5.6040    -2.0900     0.9580 H     1 <1>   0.0800 
 47 H       -4.9240    -1.7370    -0.6020 H     1 <1>   0.0800 
 48 H        5.9240     2.8250     1.9630 H     1 <1>   0.1500 
 49 H        7.0160     1.4670    -1.9570 H     1 <1>   0.1500 
 50 H        7.7940     1.5660     2.9010 H     1 <1>   0.1500 
 51 H        8.8800     0.2230    -0.9870 H     1 <1>   0.1500 
 52 H        9.2720     0.2640     1.4360 H     1 <1>   0.1500 
@<TRIPOS>BOND
  1   1   2  1   
  2   1   3  1   
  3   1   4  1   
  4   2   5  1   
  5   2   6  1   
  6   2  22  1   
  7   3   7  1   
  8   3  23  1   
  9   3  24  1   
 10   4   8  1   
 11   4  25  1   
 12   4  26  1   
 13   5   9  1   
 14   5  27  1   
 15   5  28  1   
 16   6  10  1   
 17   6  29  1   
 18   6  30  1   
 19   7  11  1   
 20   7  31  1   
 21   7  32  1   
 22   8  11  1   
 23   8  33  1   
 24   8  34  1   
 25   9  12  1   
 26   9  35  1   
 27   9  36  1   
 28  10  12  1   
 29  10  37  1   
 30  10  38  1   
 31  11  13  1   
 32  11  39  1   
 33  12  14  1   
 34  12  40  1   
 35  13  15  1   
 36  13  41  1   
 37  13  42  1   
 38  14  16  1   
 39  14  43  1   
 40  14  44  1   
 41  15  45  1   
 42  15  46  1   
 43  15  47  1   
 44  16  17  ar  
 45  16  18  ar  
 46  17  19  ar  
 47  17  48  1   
 48  18  20  ar  
 49  18  49  1   
 50  19  21  ar  
 51  19  50  1   
 52  20  21  ar  
 53  20  51  1   
 54  21  52  1   
@<TRIPOS>SUBSTRUCTURE
  1 ****   5 GROUP 4 **** **** 0

# MOE 2024.06 (io_trps.svl 2023.06)
