@<TRIPOS>MOLECULE
NONAME
48 49 1 0 0 
SMALL
USER_CHARGES


@<TRIPOS>ATOM
  1 O       -0.8910    -0.8180     1.6320 O.2   1 <1>  -0.5700 
  2 C       -1.1570    -1.6410     0.7690 C.2   1 <1>   0.5410 
  3 C       -2.2120    -1.6050    -0.1830 C.2   1 <1>   0.0290 
  4 C       -0.4520    -2.8850     0.5700 C.2   1 <1>   0.1140 
  5 C       -2.1420    -2.7690    -0.9040 C.2   1 <1>  -0.0380 
  6 C       -3.1250    -0.5150    -0.2810 C.2   1 <1>   0.7060 
  7 N       -1.1130    -3.5360    -0.4720 N.pl3 1 <1>  -0.6000 
  8 C        0.6430    -3.3580     1.2220 C.2   1 <1>  -0.1780 
  9 C       -3.0000    -3.2530    -2.0570 C.3   1 <1>  -0.1020 
 10 O       -2.8250     0.6500    -0.1100 O.2   1 <1>  -0.5700 
 11 O       -4.3930    -0.8000    -0.6070 O.3   1 <1>  -0.4300 
 12 C        1.3110    -4.6140     1.0550 C.ar  1 <1>   0.0280 
 13 C       -5.3750     0.2130    -0.7220 C.3   1 <1>   0.0400 
 14 C        0.6140    -5.8090     0.8630 C.ar  1 <1>  -0.1500 
 15 C        2.7030    -4.6810     1.0930 C.ar  1 <1>  -0.1500 
 16 C        1.2800    -7.0080     0.6920 C.ar  1 <1>  -0.1500 
 17 C        3.3770    -5.8760     0.9240 C.ar  1 <1>  -0.1500 
 18 C        2.6640    -7.0540     0.7160 C.ar  1 <1>   0.0830 
 19 O        3.2400    -8.2650     0.5370 O.3   1 <1>  -0.3630 
 20 C        4.6550    -8.4240     0.5400 C.3   1 <1>   0.1810 
 21 C        5.0610    -9.8760     0.3150 C.2   1 <1>   0.5690 
 22 O        6.2380   -10.1420     0.2820 O.2   1 <1>  -0.5700 
 23 N        4.1000   -10.8240     0.1580 N.am  1 <1>  -0.7300 
 24 C        4.3260   -12.2550    -0.0620 C.3   1 <1>   0.2200 
 25 C        3.7060   -12.6350    -1.4010 C.3   1 <1>  -0.2400 
 26 C        3.6800   -13.0210     1.0870 C.3   1 <1>  -0.2400 
 27 H       -0.7860    -4.4270    -0.8670 H     1 <1>   0.4000 
 28 H        1.0910    -2.7160     1.9610 H     1 <1>   0.1500 
 29 H       -2.3770    -3.5200    -2.8910 H     1 <1>   0.0800 
 30 H       -3.6860    -2.4920    -2.3810 H     1 <1>   0.0800 
 31 H       -3.5650    -4.1170    -1.7550 H     1 <1>   0.0800 
 32 H       -6.3120    -0.2470    -0.9820 H     1 <1>   0.0800 
 33 H       -5.0750     0.9050    -1.4900 H     1 <1>   0.0800 
 34 H       -5.4620     0.7220     0.2220 H     1 <1>   0.0800 
 35 H       -0.4610    -5.7990     0.8650 H     1 <1>   0.1500 
 36 H        3.2620    -3.7750     1.2520 H     1 <1>   0.1500 
 37 H        0.7290    -7.9190     0.5440 H     1 <1>   0.1500 
 38 H        4.4500    -5.8690     0.9570 H     1 <1>   0.1500 
 39 H        5.0670    -7.8180    -0.2450 H     1 <1>   0.0800 
 40 H        5.0310    -8.0980     1.4930 H     1 <1>   0.0800 
 41 H        3.1240   -10.5240     0.1960 H     1 <1>   0.3700 
 42 H        5.3850   -12.4590    -0.0820 H     1 <1>   0.0800 
 43 H        2.6480   -12.4420    -1.4030 H     1 <1>   0.0800 
 44 H        3.8640   -13.6810    -1.5920 H     1 <1>   0.0800 
 45 H        4.1730   -12.0750    -2.1910 H     1 <1>   0.0800 
 46 H        2.6220   -12.8320     1.1270 H     1 <1>   0.0800 
 47 H        4.1300   -12.7280     2.0190 H     1 <1>   0.0800 
 48 H        3.8360   -14.0760     0.9560 H     1 <1>   0.0800 
@<TRIPOS>BOND
  1   1   2  2   
  2   2   3  1   
  3   2   4  1   
  4   3   5  2   
  5   3   6  1   
  6   4   7  1   
  7   4   8  2   
  8   5   7  1   
  9   5   9  1   
 10   6  10  2   
 11   6  11  1   
 12   7  27  1   
 13   8  12  1   
 14   8  28  1   
 15   9  29  1   
 16   9  30  1   
 17   9  31  1   
 18  11  13  1   
 19  12  14  ar  
 20  12  15  ar  
 21  13  32  1   
 22  13  33  1   
 23  13  34  1   
 24  14  16  ar  
 25  14  35  1   
 26  15  17  ar  
 27  15  36  1   
 28  16  18  ar  
 29  16  37  1   
 30  17  18  ar  
 31  17  38  1   
 32  18  19  1   
 33  19  20  1   
 34  20  21  1   
 35  20  39  1   
 36  20  40  1   
 37  21  22  2   
 38  21  23  am  
 39  23  24  1   
 40  23  41  1   
 41  24  25  1   
 42  24  26  1   
 43  24  42  1   
 44  25  43  1   
 45  25  44  1   
 46  25  45  1   
 47  26  46  1   
 48  26  47  1   
 49  26  48  1   
@<TRIPOS>SUBSTRUCTURE
  1 ****  14 GROUP 4 **** **** 0

# MOE 2024.06 (io_trps.svl 2023.06)
