@<TRIPOS>MOLECULE
NONAME
34 35 1 0 0 
SMALL
USER_CHARGES


@<TRIPOS>ATOM
  1 O       -0.5750     0.1880    -1.4120 O.2   1 <1>  -0.5700 
  2 C       -1.5480     0.8580    -1.1330 C.2   1 <1>   0.7060 
  3 O       -2.7250     0.2510    -0.9890 O.3   1 <1>  -0.2330 
  4 C       -1.4930     2.2700    -0.9440 C.2   1 <1>  -0.1360 
  5 C       -3.8660     0.9150    -0.6650 C.ar  1 <1>   0.0820 
  6 C       -2.5880     2.9920    -0.6190 C.2   1 <1>  -0.1670 
  7 C       -5.0490     0.1920    -0.5310 C.ar  1 <1>   0.0830 
  8 C       -3.8410     2.3040    -0.4630 C.ar  1 <1>   0.0280 
  9 C       -2.5060     4.5000    -0.4210 C.3   1 <1>  -0.1020 
 10 O       -5.0270    -1.1480    -0.7600 O.3   1 <1>  -0.3630 
 11 C       -6.2360     0.8380    -0.1920 C.ar  1 <1>   0.0830 
 12 C       -5.0430     2.9310    -0.1210 C.ar  1 <1>  -0.1500 
 13 C       -5.0470    -1.9660     0.3840 C.3   1 <1>   0.1200 
 14 O       -7.3710     0.0970    -0.0750 O.3   1 <1>  -0.3630 
 15 C       -6.2170     2.2170     0.0140 C.ar  1 <1>  -0.1500 
 16 C       -4.9150    -3.4160    -0.0720 C.3   1 <1>  -0.2400 
 17 C       -8.6370     0.6870     0.1020 C.3   1 <1>   0.1200 
 18 C       -9.6780    -0.4280     0.0990 C.3   1 <1>  -0.2400 
 19 H       -0.5230     2.7100    -1.0780 H     1 <1>   0.1500 
 20 H       -3.1520     5.0000    -1.1200 H     1 <1>   0.0800 
 21 H       -1.5030     4.8530    -0.5780 H     1 <1>   0.0800 
 22 H       -2.8020     4.7590     0.5800 H     1 <1>   0.0800 
 23 H       -5.0650     3.9920     0.0430 H     1 <1>   0.1500 
 24 H       -5.9770    -1.8100     0.9030 H     1 <1>   0.0800 
 25 H       -4.2220    -1.6860     1.0160 H     1 <1>   0.0800 
 26 H       -7.1100     2.7490     0.2800 H     1 <1>   0.1500 
 27 H       -5.7380    -3.6750    -0.7140 H     1 <1>   0.0800 
 28 H       -4.9240    -4.0680     0.7820 H     1 <1>   0.0800 
 29 H       -3.9890    -3.5510    -0.6010 H     1 <1>   0.0800 
 30 H       -8.8110     1.3710    -0.7110 H     1 <1>   0.0800 
 31 H       -8.6430     1.2100     1.0420 H     1 <1>   0.0800 
 32 H       -9.6480    -0.9570    -0.8360 H     1 <1>   0.0800 
 33 H      -10.6600    -0.0120     0.2280 H     1 <1>   0.0800 
 34 H       -9.4860    -1.1140     0.9050 H     1 <1>   0.0800 
@<TRIPOS>BOND
  1   1   2  2   
  2   2   3  1   
  3   2   4  1   
  4   3   5  1   
  5   4   6  2   
  6   4  19  1   
  7   5   7  ar  
  8   5   8  ar  
  9   6   8  1   
 10   6   9  1   
 11   7  10  1   
 12   7  11  ar  
 13   8  12  ar  
 14   9  20  1   
 15   9  21  1   
 16   9  22  1   
 17  10  13  1   
 18  11  14  1   
 19  11  15  ar  
 20  12  15  ar  
 21  12  23  1   
 22  13  16  1   
 23  13  24  1   
 24  13  25  1   
 25  14  17  1   
 26  15  26  1   
 27  16  27  1   
 28  16  28  1   
 29  16  29  1   
 30  17  18  1   
 31  17  30  1   
 32  17  31  1   
 33  18  32  1   
 34  18  33  1   
 35  18  34  1   
@<TRIPOS>SUBSTRUCTURE
  1 ****   5 GROUP 4 **** **** 0

# MOE 2024.06 (io_trps.svl 2023.06)
