@<TRIPOS>MOLECULE
NONAME
38 39 1 0 0 
SMALL
USER_CHARGES


@<TRIPOS>ATOM
  1 O       -0.0660     1.0010     2.0140 O.2   1 <1>  -0.5700 
  2 C        0.0190     1.7150     1.0310 C.2   1 <1>   0.5440 
  3 N        1.2460     1.8740     0.4150 N.am  1 <1>  -0.6600 
  4 C       -1.1730     2.3730     0.5290 C.ar  1 <1>   0.0860 
  5 C        1.3880     2.5660    -0.8960 C.3   1 <1>   0.1400 
  6 C        2.4590     1.2300     0.9990 C.3   1 <1>   0.1400 
  7 C       -2.0590     1.7430    -0.3530 C.ar  1 <1>  -0.1440 
  8 C       -1.4530     3.6810     0.9190 C.ar  1 <1>  -0.1500 
  9 C        1.7860     4.0310    -0.6880 C.3   1 <1>  -0.1600 
 10 C        3.7780     1.9590     0.7010 C.3   1 <1>  -0.1600 
 11 C       -3.1670     2.4230    -0.8290 C.ar  1 <1>  -0.1500 
 12 C       -1.8140     0.3050    -0.7900 C.3   1 <1>  -0.0970 
 13 C       -2.5590     4.3630     0.4430 C.ar  1 <1>  -0.1430 
 14 C        3.2630     4.2440    -0.3270 C.3   1 <1>  -0.1600 
 15 C        3.7280     3.4800     0.9210 C.3   1 <1>  -0.1600 
 16 C       -3.4160     3.7260    -0.4370 C.ar  1 <1>  -0.1500 
 17 C       -2.8400     5.7890     0.8800 C.3   1 <1>  -0.0970 
 18 H        0.4530     2.5310    -1.4270 H     1 <1>   0.0800 
 19 H        2.1160     2.0600    -1.5050 H     1 <1>   0.0800 
 20 H        2.5190     0.2170     0.6410 H     1 <1>   0.0800 
 21 H        2.3420     1.1860     2.0690 H     1 <1>   0.0800 
 22 H       -0.7830     4.1580     1.6110 H     1 <1>   0.1500 
 23 H        1.1600     4.4660     0.0710 H     1 <1>   0.0800 
 24 H        1.5890     4.5620    -1.6020 H     1 <1>   0.0800 
 25 H        4.1030     1.7340    -0.2990 H     1 <1>   0.0800 
 26 H        4.5190     1.5460     1.3620 H     1 <1>   0.0800 
 27 H       -3.8490     1.9420    -1.5080 H     1 <1>   0.1500 
 28 H       -0.8740     0.2290    -1.3060 H     1 <1>   0.0800 
 29 H       -2.5930    -0.0400    -1.4450 H     1 <1>   0.0800 
 30 H       -1.7860    -0.3380     0.0720 H     1 <1>   0.0800 
 31 H        3.4180     5.2960    -0.1580 H     1 <1>   0.0800 
 32 H        3.8790     3.9640    -1.1640 H     1 <1>   0.0800 
 33 H        4.7220     3.8170     1.1610 H     1 <1>   0.0800 
 34 H        3.0970     3.7150     1.7620 H     1 <1>   0.0800 
 35 H       -4.2820     4.2400    -0.8160 H     1 <1>   0.1500 
 36 H       -1.9700     6.2270     1.3350 H     1 <1>   0.0800 
 37 H       -3.6450     5.7980     1.5920 H     1 <1>   0.0800 
 38 H       -3.1180     6.3880     0.0320 H     1 <1>   0.0800 
@<TRIPOS>BOND
  1   1   2  2   
  2   2   3  am  
  3   2   4  1   
  4   3   5  1   
  5   3   6  1   
  6   4   7  ar  
  7   4   8  ar  
  8   5   9  1   
  9   5  18  1   
 10   5  19  1   
 11   6  10  1   
 12   6  20  1   
 13   6  21  1   
 14   7  11  ar  
 15   7  12  1   
 16   8  13  ar  
 17   8  22  1   
 18   9  14  1   
 19   9  23  1   
 20   9  24  1   
 21  10  15  1   
 22  10  25  1   
 23  10  26  1   
 24  11  16  ar  
 25  11  27  1   
 26  12  28  1   
 27  12  29  1   
 28  12  30  1   
 29  13  16  ar  
 30  13  17  1   
 31  14  15  1   
 32  14  31  1   
 33  14  32  1   
 34  15  33  1   
 35  15  34  1   
 36  16  35  1   
 37  17  36  1   
 38  17  37  1   
 39  17  38  1   
@<TRIPOS>SUBSTRUCTURE
  1 ****   4 GROUP 4 **** **** 0

# MOE 2024.06 (io_trps.svl 2023.06)
