@<TRIPOS>MOLECULE
NONAME
61 65 1 0 0 
SMALL
USER_CHARGES


@<TRIPOS>ATOM
  1 N       -0.2970    -0.6020     0.2350 N.4   1 <1>  -0.9590 
  2 C        0.8330     0.3930     0.3780 C.3   1 <1>   0.4230 
  3 C       -1.6360     0.0290    -0.1080 C.3   1 <1>   0.3430 
  4 C       -0.4230    -1.4750     1.4720 C.3   1 <1>   0.3430 
  5 C        0.7450     1.4920    -0.7050 C.3   1 <1>  -0.1600 
  6 C        2.1730    -0.3720     0.3350 C.3   1 <1>  -0.1600 
  7 C       -2.8170    -0.9790    -0.1550 C.3   1 <1>   0.3430 
  8 C       -1.6200    -2.4700     1.4340 C.3   1 <1>   0.3430 
  9 C        1.8860     2.5250    -0.7200 C.3   1 <1>  -0.1600 
 10 C        3.3440     0.4640     0.8740 C.3   1 <1>  -0.1600 
 11 N       -2.9390    -1.8210     1.0910 N.4   1 <1>  -0.9590 
 12 C        3.2050     1.9570    -1.2570 C.3   1 <1>  -0.1600 
 13 C        4.0820     1.2800    -0.1950 C.3   1 <1>  -0.1600 
 14 C       -4.0270    -2.8680     1.0880 C.3   1 <1>   0.4230 
 15 C       -4.2360    -3.6720    -0.2220 C.3   1 <1>  -0.0800 
 16 C       -5.3810    -2.3230     1.5880 C.3   1 <1>  -0.0800 
 17 C       -5.0380    -2.9080    -1.3080 C.3   1 <1>  -0.1600 
 18 C       -5.0800    -4.9070     0.1710 C.3   1 <1>  -0.1600 
 19 C       -6.1440    -1.5350     0.4990 C.3   1 <1>  -0.1600 
 20 C       -6.2310    -3.5510     1.9780 C.3   1 <1>  -0.1600 
 21 C       -6.3820    -2.4250    -0.7370 C.3   1 <1>  -0.0800 
 22 C       -6.4430    -4.4600     0.7490 C.3   1 <1>  -0.0800 
 23 C       -7.2040    -3.6580    -0.3200 C.3   1 <1>  -0.1600 
 24 H       -0.0100    -1.1930    -0.5600 H     1 <1>   0.4500 
 25 H        0.7540     0.8750     1.3400 H     1 <1>   0.0800 
 26 H       -1.5700     0.5120    -1.0710 H     1 <1>   0.0800 
 27 H       -1.8670     0.7930     0.6160 H     1 <1>   0.0800 
 28 H       -0.5320    -0.8450     2.3400 H     1 <1>   0.0800 
 29 H        0.4780    -2.0490     1.6120 H     1 <1>   0.0800 
 30 H       -0.1470     2.0700    -0.5460 H     1 <1>   0.0800 
 31 H        0.6860     1.0410    -1.6800 H     1 <1>   0.0800 
 32 H        2.3920    -0.7070    -0.6640 H     1 <1>   0.0800 
 33 H        2.1320    -1.2410     0.9620 H     1 <1>   0.0800 
 34 H       -2.6660    -1.6250    -1.0050 H     1 <1>   0.0800 
 35 H       -3.7300    -0.4350    -0.3230 H     1 <1>   0.0800 
 36 H       -1.6960    -2.9550     2.3950 H     1 <1>   0.0800 
 37 H       -1.4020    -3.2380     0.7090 H     1 <1>   0.0800 
 38 H        2.0310     2.9660     0.2530 H     1 <1>   0.0800 
 39 H        1.5920     3.3240    -1.3800 H     1 <1>   0.0800 
 40 H        4.0670    -0.1950     1.3270 H     1 <1>   0.0800 
 41 H        3.0010     1.1230     1.6550 H     1 <1>   0.0800 
 42 H       -3.2040    -1.1970     1.8670 H     1 <1>   0.4500 
 43 H        3.7790     2.7640    -1.6820 H     1 <1>   0.0800 
 44 H        3.0090     1.2690    -2.0620 H     1 <1>   0.0800 
 45 H        4.7850     0.6400    -0.7030 H     1 <1>   0.0800 
 46 H        4.6630     2.0360     0.3070 H     1 <1>   0.0800 
 47 H       -3.7370    -3.5980     1.8270 H     1 <1>   0.0800 
 48 H       -3.2960    -4.0140    -0.6160 H     1 <1>   0.0800 
 49 H       -5.2450    -1.7140     2.4640 H     1 <1>   0.0800 
 50 H       -5.2320    -3.5710    -2.1360 H     1 <1>   0.0800 
 51 H       -4.5050    -2.0770    -1.7210 H     1 <1>   0.0800 
 52 H       -4.5590    -5.5050     0.8980 H     1 <1>   0.0800 
 53 H       -5.2460    -5.5310    -0.6910 H     1 <1>   0.0800 
 54 H       -5.6210    -0.6420     0.2200 H     1 <1>   0.0800 
 55 H       -7.0980    -1.2230     0.8910 H     1 <1>   0.0800 
 56 H       -7.1870    -3.2320     2.3580 H     1 <1>   0.0800 
 57 H       -5.7500    -4.1110     2.7630 H     1 <1>   0.0800 
 58 H       -6.9250    -1.8750    -1.4880 H     1 <1>   0.0800 
 59 H       -7.0220    -5.3240     1.0300 H     1 <1>   0.0800 
 60 H       -7.3930    -4.2810    -1.1780 H     1 <1>   0.0800 
 61 H       -8.1610    -3.3480     0.0650 H     1 <1>   0.0800 
@<TRIPOS>BOND
  1   1   2  1   
  2   1   3  1   
  3   1   4  1   
  4   1  24  1   
  5   2   5  1   
  6   2   6  1   
  7   2  25  1   
  8   3   7  1   
  9   3  26  1   
 10   3  27  1   
 11   4   8  1   
 12   4  28  1   
 13   4  29  1   
 14   5   9  1   
 15   5  30  1   
 16   5  31  1   
 17   6  10  1   
 18   6  32  1   
 19   6  33  1   
 20   7  11  1   
 21   7  34  1   
 22   7  35  1   
 23   8  11  1   
 24   8  36  1   
 25   8  37  1   
 26   9  12  1   
 27   9  38  1   
 28   9  39  1   
 29  10  13  1   
 30  10  40  1   
 31  10  41  1   
 32  11  14  1   
 33  11  42  1   
 34  12  13  1   
 35  12  43  1   
 36  12  44  1   
 37  13  45  1   
 38  13  46  1   
 39  14  15  1   
 40  14  16  1   
 41  14  47  1   
 42  15  17  1   
 43  15  18  1   
 44  15  48  1   
 45  16  19  1   
 46  16  20  1   
 47  16  49  1   
 48  17  21  1   
 49  17  50  1   
 50  17  51  1   
 51  18  22  1   
 52  18  52  1   
 53  18  53  1   
 54  19  21  1   
 55  19  54  1   
 56  19  55  1   
 57  20  22  1   
 58  20  56  1   
 59  20  57  1   
 60  21  23  1   
 61  21  58  1   
 62  22  23  1   
 63  22  59  1   
 64  23  60  1   
 65  23  61  1   
@<TRIPOS>SUBSTRUCTURE
  1 ****   7 GROUP 4 **** **** 0

# MOE 2024.06 (io_trps.svl 2023.06)
