@<TRIPOS>MOLECULE
NONAME
52 53 1 0 0 
SMALL
USER_CHARGES


@<TRIPOS>ATOM
  1 O        0.1240    -0.8570     1.8720 O.2   1 <1>  -0.5700 
  2 C        0.6350    -1.5950     1.0530 C.2   1 <1>   0.5440 
  3 N       -0.2010    -2.3340     0.2570 N.am  1 <1>  -0.7300 
  4 C        2.0770    -1.6690     0.9040 C.ar  1 <1>   0.0860 
  5 C       -1.6650    -2.3230     0.3920 C.3   1 <1>   0.2200 
  6 C        2.7180    -2.8140     0.4220 C.ar  1 <1>  -0.1500 
  7 C        2.8870    -0.5840     1.2440 C.ar  1 <1>  -0.1500 
  8 C       -2.2400    -3.6510    -0.0870 C.3   1 <1>  -0.1600 
  9 C       -2.2360    -1.1850    -0.4480 C.3   1 <1>  -0.1600 
 10 C        4.0930    -2.8700     0.2710 C.ar  1 <1>  -0.1500 
 11 C        4.2600    -0.6310     1.0960 C.ar  1 <1>  -0.1500 
 12 C       -3.7740    -3.6710     0.0000 C.3   1 <1>   0.5030 
 13 C       -3.7660    -1.1250    -0.3660 C.3   1 <1>   0.5030 
 14 C        4.8770    -1.7700     0.6070 C.ar  1 <1>   0.0820 
 15 N       -4.3640    -2.4540    -0.5850 N.4   1 <1>  -0.9060 
 16 C       -4.2670    -3.8510     1.4380 C.3   1 <1>  -0.2400 
 17 C       -4.3150    -4.8300    -0.8350 C.3   1 <1>  -0.2400 
 18 C       -4.3020    -0.2430    -1.4920 C.3   1 <1>  -0.2400 
 19 C       -4.2500    -0.5430     0.9650 C.3   1 <1>  -0.2400 
 20 O        6.2230    -1.7350     0.4910 O.3   1 <1>  -0.3620 
 21 C        6.9600    -2.8460     0.0390 C.3   1 <1>   0.2580 
 22 C        8.4290    -2.4700     0.0440 C.2   1 <1>  -0.2880 
 23 C        9.3950    -3.1170     0.7040 C.2   1 <1>  -0.3000 
 24 H        0.1960    -2.8360    -0.5370 H     1 <1>   0.3700 
 25 H       -1.9080    -2.1720     1.4310 H     1 <1>   0.0800 
 26 H        2.1360    -3.6810     0.1690 H     1 <1>   0.1500 
 27 H        2.4270     0.3100     1.6310 H     1 <1>   0.1500 
 28 H       -1.8400    -4.4480     0.5140 H     1 <1>   0.0800 
 29 H       -1.9340    -3.8220    -1.1040 H     1 <1>   0.0800 
 30 H       -1.9290    -1.3110    -1.4710 H     1 <1>   0.0800 
 31 H       -1.8270    -0.2510    -0.1000 H     1 <1>   0.0800 
 32 H        4.5360    -3.7730    -0.1050 H     1 <1>   0.1500 
 33 H        4.8660     0.2170     1.3630 H     1 <1>   0.1500 
 34 H       -5.3420    -2.4070    -0.2940 H     1 <1>   0.4500 
 35 H       -4.3750    -2.5960    -1.5960 H     1 <1>   0.4500 
 36 H       -3.8230    -3.1510     2.1170 H     1 <1>   0.0800 
 37 H       -3.9950    -4.8310     1.7930 H     1 <1>   0.0800 
 38 H       -5.3380    -3.7720     1.4970 H     1 <1>   0.0800 
 39 H       -4.0220    -4.7430    -1.8660 H     1 <1>   0.0800 
 40 H       -5.3880    -4.8840    -0.7770 H     1 <1>   0.0800 
 41 H       -3.9230    -5.7620    -0.4650 H     1 <1>   0.0800 
 42 H       -4.0130    -0.6190    -2.4580 H     1 <1>   0.0800 
 43 H       -3.8990     0.7510    -1.3990 H     1 <1>   0.0800 
 44 H       -5.3740    -0.1640    -1.4490 H     1 <1>   0.0800 
 45 H       -3.8030    -1.0230     1.8120 H     1 <1>   0.0800 
 46 H       -5.3210    -0.5940     1.0500 H     1 <1>   0.0800 
 47 H       -3.9680     0.4940     1.0270 H     1 <1>   0.0800 
 48 H        6.6380    -3.0860    -0.9590 H     1 <1>   0.0800 
 49 H        6.7740    -3.6730     0.7010 H     1 <1>   0.0800 
 50 H        8.6210    -1.5960    -0.5550 H     1 <1>   0.1500 
 51 H       10.4300    -2.8220     0.6890 H     1 <1>   0.1500 
 52 H        9.2370    -3.9900     1.3140 H     1 <1>   0.1500 
@<TRIPOS>BOND
  1   1   2  2   
  2   2   3  am  
  3   2   4  1   
  4   3   5  1   
  5   3  24  1   
  6   4   6  ar  
  7   4   7  ar  
  8   5   8  1   
  9   5   9  1   
 10   5  25  1   
 11   6  10  ar  
 12   6  26  1   
 13   7  11  ar  
 14   7  27  1   
 15   8  12  1   
 16   8  28  1   
 17   8  29  1   
 18   9  13  1   
 19   9  30  1   
 20   9  31  1   
 21  10  14  ar  
 22  10  32  1   
 23  11  14  ar  
 24  11  33  1   
 25  12  15  1   
 26  12  16  1   
 27  12  17  1   
 28  13  15  1   
 29  13  18  1   
 30  13  19  1   
 31  14  20  1   
 32  15  34  1   
 33  15  35  1   
 34  16  36  1   
 35  16  37  1   
 36  16  38  1   
 37  17  39  1   
 38  17  40  1   
 39  17  41  1   
 40  18  42  1   
 41  18  43  1   
 42  18  44  1   
 43  19  45  1   
 44  19  46  1   
 45  19  47  1   
 46  20  21  1   
 47  21  22  1   
 48  21  48  1   
 49  21  49  1   
 50  22  23  2   
 51  22  50  1   
 52  23  51  1   
 53  23  52  1   
@<TRIPOS>SUBSTRUCTURE
  1 ****   2 GROUP 4 **** **** 0

# MOE 2024.06 (io_trps.svl 2023.06)
