@<TRIPOS>MOLECULE
NONAME
43 45 1 0 0 
SMALL
USER_CHARGES


@<TRIPOS>ATOM
  1 O       -2.0210     0.1800    -0.4630 O.2   1 <1>  -0.5700 
  2 C       -2.3280     1.3310    -0.2060 C.2   1 <1>   0.7150 
  3 N       -3.3980     1.5440     0.6420 N.am  1 <1>  -0.6600 
  4 C       -1.5740     2.4340    -0.7670 C.2   1 <1>   0.0550 
  5 C       -4.0310     0.3920     1.3580 C.3   1 <1>   0.1400 
  6 C       -4.1270     2.8490     0.7140 C.3   1 <1>   0.1400 
  7 O       -1.1730     2.4160    -2.0350 O.3   1 <1>  -0.2800 
  8 C       -1.1490     3.6030    -0.2040 C.2   1 <1>  -0.1500 
  9 C       -4.8890     0.8460     2.5480 C.3   1 <1>   0.1400 
 10 C       -5.6380     2.6620     0.9340 C.3   1 <1>   0.1400 
 11 C       -0.5160     3.5240    -2.2930 C.2   1 <1>  -0.0100 
 12 C       -0.4650     4.3070    -1.1950 C.2   1 <1>  -0.1500 
 13 N       -5.9430     1.8330     2.1450 N.am  1 <1>  -0.6600 
 14 C       -7.1470     1.8610     2.8070 C.2   1 <1>   0.5690 
 15 O       -7.3470     1.1560     3.7690 O.2   1 <1>  -0.5700 
 16 C       -8.2830     2.7880     2.3810 C.3   1 <1>   0.0440 
 17 C       -8.7160     2.6130     0.9270 C.ar  1 <1>  -0.1440 
 18 C       -8.8710     3.7170     0.1020 C.ar  1 <1>  -0.1500 
 19 C       -8.9520     1.3470     0.4140 C.ar  1 <1>  -0.1500 
 20 C       -9.2420     3.5540    -1.2210 C.ar  1 <1>  -0.1500 
 21 C       -9.3230     1.1860    -0.9090 C.ar  1 <1>  -0.1500 
 22 C       -9.4660     2.2880    -1.7360 C.ar  1 <1>  -0.1440 
 23 C       -9.8730     2.1110    -3.1870 C.3   1 <1>  -0.0970 
 24 H       -3.2620    -0.2740     1.7130 H     1 <1>   0.0800 
 25 H       -4.6470    -0.1570     0.6670 H     1 <1>   0.0800 
 26 H       -3.9820     3.4000    -0.1990 H     1 <1>   0.0800 
 27 H       -3.7270     3.4310     1.5250 H     1 <1>   0.0800 
 28 H       -1.2910     3.9350     0.8080 H     1 <1>   0.1500 
 29 H       -4.2550     1.2950     3.2930 H     1 <1>   0.0800 
 30 H       -5.3500    -0.0200     2.9910 H     1 <1>   0.0800 
 31 H       -6.0600     2.1840     0.0660 H     1 <1>   0.0800 
 32 H       -6.0920     3.6320     1.0320 H     1 <1>   0.0800 
 33 H       -0.1150     3.6750    -3.2800 H     1 <1>   0.1500 
 34 H        0.0000     5.2710    -1.0810 H     1 <1>   0.1500 
 35 H       -7.9730     3.7990     2.5620 H     1 <1>   0.0800 
 36 H       -9.1330     2.5970     3.0100 H     1 <1>   0.0800 
 37 H       -8.7050     4.7100     0.4810 H     1 <1>   0.1500 
 38 H       -8.8450     0.4790     1.0420 H     1 <1>   0.1500 
 39 H       -9.3580     4.4190    -1.8510 H     1 <1>   0.1500 
 40 H       -9.5000     0.1960    -1.2920 H     1 <1>   0.1500 
 41 H       -9.4430     2.8860    -3.7960 H     1 <1>   0.0800 
 42 H      -10.9440     2.1550    -3.2720 H     1 <1>   0.0800 
 43 H       -9.5340     1.1610    -3.5590 H     1 <1>   0.0800 
@<TRIPOS>BOND
  1   1   2  2   
  2   2   3  am  
  3   2   4  1   
  4   3   5  1   
  5   3   6  1   
  6   4   7  1   
  7   4   8  2   
  8   5   9  1   
  9   5  24  1   
 10   5  25  1   
 11   6  10  1   
 12   6  26  1   
 13   6  27  1   
 14   7  11  1   
 15   8  12  1   
 16   8  28  1   
 17   9  13  1   
 18   9  29  1   
 19   9  30  1   
 20  10  13  1   
 21  10  31  1   
 22  10  32  1   
 23  11  12  2   
 24  11  33  1   
 25  12  34  1   
 26  13  14  am  
 27  14  15  2   
 28  14  16  1   
 29  16  17  1   
 30  16  35  1   
 31  16  36  1   
 32  17  18  ar  
 33  17  19  ar  
 34  18  20  ar  
 35  18  37  1   
 36  19  21  ar  
 37  19  38  1   
 38  20  22  ar  
 39  20  39  1   
 40  21  22  ar  
 41  21  40  1   
 42  22  23  1   
 43  23  41  1   
 44  23  42  1   
 45  23  43  1   
@<TRIPOS>SUBSTRUCTURE
  1 ****  10 GROUP 4 **** **** 0

# MOE 2024.06 (io_trps.svl 2023.06)
