@<TRIPOS>MOLECULE
NONAME
54 58 1 0 0 
SMALL
USER_CHARGES


@<TRIPOS>ATOM
  1 O        1.0220     2.5830    -0.1410 O.2   1 <1>  -0.5700 
  2 C        0.4800     2.3860     0.9270 C.2   1 <1>   0.6900 
  3 N        1.1460     1.8420     1.9780 N.am  1 <1>  -0.5470 
  4 N       -0.8250     2.6960     1.1270 N.am  1 <1>  -0.7300 
  5 C        2.4480     1.4400     2.1700 C.ar  1 <1>   0.4270 
  6 C       -1.7880     3.2820     0.1790 C.3   1 <1>   0.3000 
  7 N        2.6140     0.8150     3.3270 N.ar  1 <1>  -0.6200 
  8 C        3.4880     1.6650     1.2670 C.ar  1 <1>  -0.1500 
  9 C       -3.1330     3.4030     0.9160 C.3   1 <1>  -0.1600 
 10 C       -1.9770     2.3750    -1.0520 C.3   1 <1>  -0.1600 
 11 C       -1.3330     4.6830    -0.2670 C.3   1 <1>  -0.1600 
 12 C        3.8410     0.3960     3.5910 C.ar  1 <1>   0.1600 
 13 C        4.7590     1.2230     1.5560 C.ar  1 <1>  -0.1500 
 14 C       -4.2240     4.0050     0.0010 C.3   1 <1>   0.1430 
 15 C       -3.0260     2.9860    -2.0000 C.3   1 <1>  -0.0800 
 16 C       -2.3840     5.2940    -1.2110 C.3   1 <1>  -0.0800 
 17 C        4.9310     0.5690     2.7570 C.ar  1 <1>  -0.1500 
 18 C       -5.5660     4.0620     0.7650 C.ar  1 <1>  -0.1430 
 19 C       -4.3680     3.1130    -1.2550 C.3   1 <1>  -0.1600 
 20 C       -3.7280     5.3970    -0.4670 C.3   1 <1>  -0.1600 
 21 C       -2.5570     4.3850    -2.4410 C.3   1 <1>  -0.1600 
 22 C       -6.2430     5.2520     1.0200 C.ar  1 <1>  -0.1500 
 23 C       -6.1420     2.8850     1.2320 C.ar  1 <1>  -0.1500 
 24 C       -7.4420     5.2610     1.7120 C.ar  1 <1>  -0.1500 
 25 C       -7.3410     2.8910     1.9230 C.ar  1 <1>  -0.1500 
 26 C       -8.0010     4.0810     2.1670 C.ar  1 <1>  -0.1430 
 27 C       -9.3150     4.0920     2.9260 C.3   1 <1>  -0.0970 
 28 H        0.5800     1.6080     2.7810 H     1 <1>   0.3700 
 29 H       -1.2030     2.5880     2.0620 H     1 <1>   0.3700 
 30 H        3.3080     2.1820     0.3460 H     1 <1>   0.1500 
 31 H       -3.0210     4.0330     1.7810 H     1 <1>   0.0800 
 32 H       -3.4350     2.4280     1.2490 H     1 <1>   0.0800 
 33 H       -2.2930     1.3950    -0.7410 H     1 <1>   0.0800 
 34 H       -1.0480     2.2730    -1.5830 H     1 <1>   0.0800 
 35 H       -0.3940     4.6190    -0.7860 H     1 <1>   0.0800 
 36 H       -1.2000     5.3170     0.5910 H     1 <1>   0.0800 
 37 H        3.9880    -0.1160     4.5270 H     1 <1>   0.1500 
 38 H        5.5780     1.3820     0.8760 H     1 <1>   0.1500 
 39 H       -3.1470     2.3550    -2.8640 H     1 <1>   0.0800 
 40 H       -2.0640     6.2730    -1.5250 H     1 <1>   0.0800 
 41 H        5.8990     0.1980     3.0440 H     1 <1>   0.1500 
 42 H       -5.1100     3.5360    -1.9100 H     1 <1>   0.0800 
 43 H       -4.7050     2.1300    -0.9840 H     1 <1>   0.0800 
 44 H       -3.6050     6.0450     0.3830 H     1 <1>   0.0800 
 45 H       -4.4570     5.8400    -1.1220 H     1 <1>   0.0800 
 46 H       -1.6210     4.3050    -2.9680 H     1 <1>   0.0800 
 47 H       -3.2760     4.8150    -3.1160 H     1 <1>   0.0800 
 48 H       -5.8620     6.1990     0.6900 H     1 <1>   0.1500 
 49 H       -5.6620     1.9380     1.0640 H     1 <1>   0.1500 
 50 H       -7.9400     6.1970     1.8940 H     1 <1>   0.1500 
 51 H       -7.7580     1.9620     2.2710 H     1 <1>   0.1500 
 52 H       -9.1250     4.1770     3.9810 H     1 <1>   0.0800 
 53 H       -9.8610     3.1840     2.7430 H     1 <1>   0.0800 
 54 H       -9.9230     4.9220     2.6140 H     1 <1>   0.0800 
@<TRIPOS>BOND
  1   1   2  2   
  2   2   3  am  
  3   2   4  am  
  4   3   5  1   
  5   3  28  1   
  6   4   6  1   
  7   4  29  1   
  8   5   7  ar  
  9   5   8  ar  
 10   6   9  1   
 11   6  10  1   
 12   6  11  1   
 13   7  12  ar  
 14   8  13  ar  
 15   8  30  1   
 16   9  14  1   
 17   9  31  1   
 18   9  32  1   
 19  10  15  1   
 20  10  33  1   
 21  10  34  1   
 22  11  16  1   
 23  11  35  1   
 24  11  36  1   
 25  12  17  ar  
 26  12  37  1   
 27  13  17  ar  
 28  13  38  1   
 29  14  18  1   
 30  14  19  1   
 31  14  20  1   
 32  15  19  1   
 33  15  21  1   
 34  15  39  1   
 35  16  20  1   
 36  16  21  1   
 37  16  40  1   
 38  17  41  1   
 39  18  22  ar  
 40  18  23  ar  
 41  19  42  1   
 42  19  43  1   
 43  20  44  1   
 44  20  45  1   
 45  21  46  1   
 46  21  47  1   
 47  22  24  ar  
 48  22  48  1   
 49  23  25  ar  
 50  23  49  1   
 51  24  26  ar  
 52  24  50  1   
 53  25  26  ar  
 54  25  51  1   
 55  26  27  1   
 56  27  52  1   
 57  27  53  1   
 58  27  54  1   
@<TRIPOS>SUBSTRUCTURE
  1 ****   6 GROUP 4 **** **** 0

# MOE 2024.06 (io_trps.svl 2023.06)
