@<TRIPOS>MOLECULE
NONAME
49 51 1 0 0 
SMALL
USER_CHARGES


@<TRIPOS>ATOM
  1 CL      -2.4850    -1.3000     2.7340 Cl    1 <1>  -0.1770 
  2 C       -2.9900     0.0200     1.7090 C.ar  1 <1>   0.1770 
  3 C       -4.1750    -0.0810     1.0130 C.ar  1 <1>  -0.1500 
  4 C       -2.1930     1.1450     1.6150 C.ar  1 <1>  -0.1500 
  5 C       -4.5910     0.9620     0.1940 C.ar  1 <1>   0.1000 
  6 C       -2.6000     2.1890     0.8010 C.ar  1 <1>  -0.1500 
  7 N       -5.7900     0.8640    -0.5080 N.pl3 1 <1>  -0.8380 
  8 C       -3.7900     2.1030     0.0930 C.ar  1 <1>  -0.1430 
  9 C       -7.0670     1.0670     0.2410 C.3   1 <1>   0.2090 
 10 C       -5.8720    -0.0910    -1.6580 C.3   1 <1>   0.2090 
 11 C       -4.2180     3.2620    -0.7970 C.3   1 <1>  -0.0970 
 12 C       -7.7530    -0.2650     0.5960 C.3   1 <1>   0.1400 
 13 C       -6.5890    -1.4050    -1.2940 C.3   1 <1>   0.1400 
 14 N       -7.8910    -1.1460    -0.6060 N.am  1 <1>  -0.6600 
 15 C       -9.0710    -1.7170    -1.0340 C.2   1 <1>   0.5440 
 16 O       -9.0220    -2.6390    -1.8270 O.2   1 <1>  -0.5700 
 17 C      -10.3630    -1.2630    -0.5590 C.ar  1 <1>   0.0860 
 18 C      -10.7350     0.0780    -0.6350 C.ar  1 <1>  -0.1500 
 19 C      -11.2780    -2.1620    -0.0170 C.ar  1 <1>  -0.1500 
 20 C      -11.9570     0.5190    -0.1620 C.ar  1 <1>   0.0830 
 21 C      -12.5130    -1.7350     0.4560 C.ar  1 <1>   0.0830 
 22 O      -12.2080     1.8470    -0.2690 O.3   1 <1>  -0.3630 
 23 C      -12.8490    -0.3940     0.3880 C.ar  1 <1>  -0.1500 
 24 O      -13.4400    -2.5670     0.9950 O.3   1 <1>  -0.3620 
 25 C      -13.4550     2.3860     0.1110 C.3   1 <1>   0.0400 
 26 C      -13.2470    -3.9640     1.0140 C.3   1 <1>   0.0400 
 27 H       -4.7720    -0.9650     1.1070 H     1 <1>   0.1500 
 28 H       -1.2730     1.2000     2.1680 H     1 <1>   0.1500 
 29 H       -1.9840     3.0670     0.7230 H     1 <1>   0.1500 
 30 H       -7.7330     1.6590    -0.3620 H     1 <1>   0.0800 
 31 H       -6.8670     1.6170     1.1440 H     1 <1>   0.0800 
 32 H       -4.8800    -0.3130    -2.0100 H     1 <1>   0.0800 
 33 H       -6.4050     0.3830    -2.4630 H     1 <1>   0.0800 
 34 H       -4.3390     2.9150    -1.8080 H     1 <1>   0.0800 
 35 H       -3.4920     4.0530    -0.7880 H     1 <1>   0.0800 
 36 H       -5.1590     3.6520    -0.4550 H     1 <1>   0.0800 
 37 H       -8.7080    -0.0660     1.0440 H     1 <1>   0.0800 
 38 H       -7.1550    -0.7740     1.3310 H     1 <1>   0.0800 
 39 H       -5.9580    -1.9870    -0.6460 H     1 <1>   0.0800 
 40 H       -6.7440    -1.9750    -2.1930 H     1 <1>   0.0800 
 41 H      -10.0610     0.7900    -1.0730 H     1 <1>   0.1500 
 42 H      -10.9930    -3.1970     0.0190 H     1 <1>   0.1500 
 43 H      -13.8070    -0.0960     0.7660 H     1 <1>   0.1500 
 44 H      -13.4390     3.4420    -0.0890 H     1 <1>   0.0800 
 45 H      -13.6050     2.2150     1.1620 H     1 <1>   0.0800 
 46 H      -14.2300     1.9170    -0.4700 H     1 <1>   0.0800 
 47 H      -14.1220    -4.4170     1.4450 H     1 <1>   0.0800 
 48 H      -12.3850    -4.1910     1.6170 H     1 <1>   0.0800 
 49 H      -13.1140    -4.3130     0.0050 H     1 <1>   0.0800 
@<TRIPOS>BOND
  1   1   2  1   
  2   2   3  ar  
  3   2   4  ar  
  4   3   5  ar  
  5   3  27  1   
  6   4   6  ar  
  7   4  28  1   
  8   5   7  1   
  9   5   8  ar  
 10   6   8  ar  
 11   6  29  1   
 12   7   9  1   
 13   7  10  1   
 14   8  11  1   
 15   9  12  1   
 16   9  30  1   
 17   9  31  1   
 18  10  13  1   
 19  10  32  1   
 20  10  33  1   
 21  11  34  1   
 22  11  35  1   
 23  11  36  1   
 24  12  14  1   
 25  12  37  1   
 26  12  38  1   
 27  13  14  1   
 28  13  39  1   
 29  13  40  1   
 30  14  15  am  
 31  15  16  2   
 32  15  17  1   
 33  17  18  ar  
 34  17  19  ar  
 35  18  20  ar  
 36  18  41  1   
 37  19  21  ar  
 38  19  42  1   
 39  20  22  1   
 40  20  23  ar  
 41  21  23  ar  
 42  21  24  1   
 43  22  25  1   
 44  23  43  1   
 45  24  26  1   
 46  25  44  1   
 47  25  45  1   
 48  25  46  1   
 49  26  47  1   
 50  26  48  1   
 51  26  49  1   
@<TRIPOS>SUBSTRUCTURE
  1 ****  12 GROUP 4 **** **** 0

# MOE 2024.06 (io_trps.svl 2023.06)
