@<TRIPOS>MOLECULE
NONAME
39 40 1 0 0 
SMALL
USER_CHARGES


@<TRIPOS>ATOM
  1 BR      -0.0960     0.2540     1.1450 Br    1 <1>  -0.1110 
  2 C        1.7830     0.1270     0.7210 C.ar  1 <1>   0.1110 
  3 C        2.4440     1.2100     0.1620 C.ar  1 <1>  -0.1440 
  4 C        2.4220    -1.0670     0.9960 C.ar  1 <1>  -0.1500 
  5 C        3.7930     1.0670    -0.1220 C.ar  1 <1>  -0.1500 
  6 C        1.7220     2.5170    -0.1330 C.3   1 <1>  -0.0960 
  7 C        3.7680    -1.1860     0.7020 C.ar  1 <1>  -0.1500 
  8 C        4.4720    -0.1210     0.1420 C.ar  1 <1>   0.1170 
  9 N        5.8350    -0.1970    -0.1840 N.am  1 <1>  -0.5470 
 10 C        6.8280    -1.0170     0.2820 C.2   1 <1>   0.5690 
 11 O        6.6560    -1.8460     1.1410 O.2   1 <1>  -0.5700 
 12 C        8.2230    -0.8380    -0.3190 C.3   1 <1>  -0.0190 
 13 C        9.0000    -2.1670    -0.4180 C.3   1 <1>  -0.1600 
 14 C        9.0410     0.1880     0.4870 C.3   1 <1>  -0.1600 
 15 C       10.4040    -1.9600    -0.9920 C.3   1 <1>   0.1400 
 16 C       10.4480     0.3720    -0.0910 C.3   1 <1>   0.1400 
 17 N       11.1300    -0.9480    -0.1750 N.am  1 <1>  -0.6600 
 18 C       12.3120    -1.1700     0.4850 C.2   1 <1>   0.5690 
 19 O       12.8750    -0.3020     1.1080 O.2   1 <1>  -0.5700 
 20 C       12.9690    -2.5300     0.4580 C.3   1 <1>  -0.1790 
 21 H        1.8760    -1.8850     1.4300 H     1 <1>   0.1500 
 22 H        4.3310     1.8910    -0.5530 H     1 <1>   0.1500 
 23 H        1.3180     2.9260     0.7760 H     1 <1>   0.0800 
 24 H        0.9170     2.3440    -0.8240 H     1 <1>   0.0800 
 25 H        2.3910     3.2400    -0.5630 H     1 <1>   0.0800 
 26 H        4.2660    -2.1150     0.9090 H     1 <1>   0.1500 
 27 H        6.1420     0.5110    -0.8470 H     1 <1>   0.3700 
 28 H        8.1040    -0.4600    -1.3190 H     1 <1>   0.0800 
 29 H        8.4580    -2.8570    -1.0390 H     1 <1>   0.0800 
 30 H        9.0910    -2.6120     0.5590 H     1 <1>   0.0800 
 31 H        9.1300    -0.1420     1.5090 H     1 <1>   0.0800 
 32 H        8.5370     1.1370     0.4960 H     1 <1>   0.0800 
 33 H       10.3360    -1.6040    -2.0060 H     1 <1>   0.0800 
 34 H       10.9240    -2.9000    -1.0080 H     1 <1>   0.0800 
 35 H       11.0040     1.0510     0.5340 H     1 <1>   0.0800 
 36 H       10.3920     0.8010    -1.0770 H     1 <1>   0.0800 
 37 H       13.2330    -2.7890    -0.5490 H     1 <1>   0.0800 
 38 H       12.3010    -3.2650     0.8650 H     1 <1>   0.0800 
 39 H       13.8630    -2.5120     1.0540 H     1 <1>   0.0800 
@<TRIPOS>BOND
  1   1   2  1   
  2   2   3  ar  
  3   2   4  ar  
  4   3   5  ar  
  5   3   6  1   
  6   4   7  ar  
  7   4  21  1   
  8   5   8  ar  
  9   5  22  1   
 10   6  23  1   
 11   6  24  1   
 12   6  25  1   
 13   7   8  ar  
 14   7  26  1   
 15   8   9  1   
 16   9  10  am  
 17   9  27  1   
 18  10  11  2   
 19  10  12  1   
 20  12  13  1   
 21  12  14  1   
 22  12  28  1   
 23  13  15  1   
 24  13  29  1   
 25  13  30  1   
 26  14  16  1   
 27  14  31  1   
 28  14  32  1   
 29  15  17  1   
 30  15  33  1   
 31  15  34  1   
 32  16  17  1   
 33  16  35  1   
 34  16  36  1   
 35  17  18  am  
 36  18  19  2   
 37  18  20  1   
 38  20  37  1   
 39  20  38  1   
 40  20  39  1   
@<TRIPOS>SUBSTRUCTURE
  1 ****  10 GROUP 4 **** **** 0

# MOE 2024.06 (io_trps.svl 2023.06)
