@<TRIPOS>MOLECULE
NONAME
50 53 1 0 0 
SMALL
USER_CHARGES


@<TRIPOS>ATOM
  1 F       -1.9230    -2.2470    -1.0320 F     1 <1>  -0.3400 
  2 C       -1.3930    -3.2810    -1.6720 C.3   1 <1>   1.1580 
  3 F       -0.5000    -2.7650    -2.5080 F     1 <1>  -0.3400 
  4 F       -2.3440    -3.7970    -2.4410 F     1 <1>  -0.3400 
  5 C       -0.7530    -4.2940    -0.7500 C.2   1 <1>  -0.1690 
  6 N       -1.6000    -4.8960     0.1480 N.pl3 1 <1>   0.6010 
  7 C        0.5600    -4.6580    -0.7250 C.2   1 <1>  -0.1360 
  8 N       -2.9170    -4.7210     0.3330 N.2   1 <1>  -0.7070 
  9 C       -1.0900    -5.8240     1.0170 C.2   1 <1>  -0.0260 
 10 C        1.0420    -5.6400     0.2000 C.2   1 <1>   0.3490 
 11 C       -3.2600    -5.5440     1.3210 C.2   1 <1>   0.2030 
 12 N        0.2310    -6.2000     1.0520 N.2   1 <1>  -0.5760 
 13 C       -2.1370    -6.2400     1.7670 C.2   1 <1>  -0.1500 
 14 C        2.4460    -5.9980     0.1870 C.ar  1 <1>   0.0860 
 15 C       -4.5870    -5.7450     1.9180 C.2   1 <1>   0.7160 
 16 C        3.1450    -6.2020    -1.0040 C.ar  1 <1>  -0.1500 
 17 C        3.1550    -6.1510     1.3780 C.ar  1 <1>  -0.1500 
 18 O       -4.6500    -6.3600     2.9720 O.2   1 <1>  -0.5700 
 19 N       -5.7860    -5.3050     1.3680 N.am  1 <1>  -0.6600 
 20 C        4.4900    -6.5240    -1.0040 C.ar  1 <1>  -0.1500 
 21 C        4.4990    -6.4740     1.3830 C.ar  1 <1>  -0.1500 
 22 C       -5.9260    -4.6280     0.0520 C.3   1 <1>   0.1400 
 23 C       -7.0930    -5.6070     2.0120 C.3   1 <1>   0.1400 
 24 C        5.1770    -6.6610     0.1900 C.ar  1 <1>  -0.1430 
 25 C       -5.8710    -5.6320    -1.1070 C.3   1 <1>  -0.1600 
 26 C       -7.7140    -6.8840     1.4320 C.3   1 <1>  -0.1600 
 27 C        6.6530    -7.0130     0.1930 C.3   1 <1>  -0.0970 
 28 C       -6.5690    -6.9840    -0.8640 C.3   1 <1>  -0.1600 
 29 C       -7.9010    -6.8960    -0.0980 C.3   1 <1>  -0.1600 
 30 H        1.2810    -4.2170    -1.3910 H     1 <1>   0.1500 
 31 H       -2.1170    -6.9680     2.5580 H     1 <1>   0.1500 
 32 H        2.6330    -6.1170    -1.9450 H     1 <1>   0.1500 
 33 H        2.6380    -6.0140     2.3120 H     1 <1>   0.1500 
 34 H        5.0030    -6.6720    -1.9390 H     1 <1>   0.1500 
 35 H        5.0160    -6.5800     2.3210 H     1 <1>   0.1500 
 36 H       -5.1730    -3.8700    -0.0690 H     1 <1>   0.0800 
 37 H       -6.8730    -4.1190     0.0180 H     1 <1>   0.0800 
 38 H       -7.7650    -4.7790     1.8700 H     1 <1>   0.0800 
 39 H       -6.9620    -5.7280     3.0740 H     1 <1>   0.0800 
 40 H       -4.8420    -5.8170    -1.3560 H     1 <1>   0.0800 
 41 H       -6.3140    -5.1600    -1.9650 H     1 <1>   0.0800 
 42 H       -8.6760    -7.0160     1.8920 H     1 <1>   0.0800 
 43 H       -7.1090    -7.7240     1.7300 H     1 <1>   0.0800 
 44 H        7.2420    -6.1140     0.1820 H     1 <1>   0.0800 
 45 H        6.9020    -7.6020    -0.6710 H     1 <1>   0.0800 
 46 H        6.9020    -7.5810     1.0720 H     1 <1>   0.0800 
 47 H       -5.8980    -7.6360    -0.3290 H     1 <1>   0.0800 
 48 H       -6.7470    -7.4410    -1.8220 H     1 <1>   0.0800 
 49 H       -8.4650    -6.0380    -0.4200 H     1 <1>   0.0800 
 50 H       -8.4800    -7.7690    -0.3450 H     1 <1>   0.0800 
@<TRIPOS>BOND
  1   1   2  1   
  2   2   3  1   
  3   2   4  1   
  4   2   5  1   
  5   5   6  1   
  6   5   7  2   
  7   6   8  1   
  8   6   9  1   
  9   7  10  1   
 10   7  30  1   
 11   8  11  2   
 12   9  12  1   
 13   9  13  2   
 14  10  12  2   
 15  10  14  1   
 16  11  13  1   
 17  11  15  1   
 18  13  31  1   
 19  14  16  ar  
 20  14  17  ar  
 21  15  18  2   
 22  15  19  am  
 23  16  20  ar  
 24  16  32  1   
 25  17  21  ar  
 26  17  33  1   
 27  19  22  1   
 28  19  23  1   
 29  20  24  ar  
 30  20  34  1   
 31  21  24  ar  
 32  21  35  1   
 33  22  25  1   
 34  22  36  1   
 35  22  37  1   
 36  23  26  1   
 37  23  38  1   
 38  23  39  1   
 39  24  27  1   
 40  25  28  1   
 41  25  40  1   
 42  25  41  1   
 43  26  29  1   
 44  26  42  1   
 45  26  43  1   
 46  27  44  1   
 47  27  45  1   
 48  27  46  1   
 49  28  29  1   
 50  28  47  1   
 51  28  48  1   
 52  29  49  1   
 53  29  50  1   
@<TRIPOS>SUBSTRUCTURE
  1 ****   6 GROUP 4 **** **** 0

# MOE 2024.06 (io_trps.svl 2023.06)
