@<TRIPOS>MOLECULE
NONAME
42 44 1 0 0 
SMALL
USER_CHARGES


@<TRIPOS>ATOM
  1 O        0.3940     0.1380    -0.0710 O.2   1 <1>  -0.5700 
  2 C        0.9890     1.1600    -0.3850 C.2   1 <1>   0.7060 
  3 O        0.2590     2.1250    -0.9510 O.3   1 <1>  -0.2320 
  4 C        2.3840     1.3690    -0.1660 C.2   1 <1>   0.1230 
  5 C        0.7820     3.3150    -1.3050 C.ar  1 <1>   0.0830 
  6 N        3.1230     0.2830     0.3900 N.am  1 <1>  -0.2290 
  7 C        2.9670     2.5670    -0.5000 C.2   1 <1>   0.0720 
  8 C        2.1390     3.5860    -1.0920 C.ar  1 <1>   0.0280 
  9 C       -0.0610     4.2560    -1.8780 C.ar  1 <1>  -0.1500 
 10 C        2.9090    -0.0050     1.7190 C.2   1 <1>   0.5690 
 11 C        3.8370    -0.5290    -0.4680 C.2   1 <1>   0.5690 
 12 N        4.3160     2.8530    -0.2970 N.pl3 1 <1>  -0.8380 
 13 C        2.6070     4.8480    -1.4740 C.ar  1 <1>  -0.1500 
 14 C        0.4310     5.4920    -2.2480 C.ar  1 <1>  -0.1500 
 15 O        2.9390     0.8450     2.5740 O.2   1 <1>  -0.5700 
 16 C        2.5650    -1.4170     2.1460 C.3   1 <1>  -0.1790 
 17 O        3.6260    -0.5490    -1.6560 O.2   1 <1>  -0.5700 
 18 C        4.9340    -1.4380     0.0480 C.3   1 <1>  -0.1790 
 19 C        5.3180     2.4330    -1.3260 C.3   1 <1>   0.2090 
 20 C        4.8330     3.0560     1.0930 C.3   1 <1>   0.2090 
 21 C        1.7700     5.7860    -2.0430 C.ar  1 <1>  -0.1500 
 22 C        6.6620     2.0070    -0.7070 C.3   1 <1>   0.1200 
 23 C        5.9050     2.0240     1.5240 C.3   1 <1>   0.1200 
 24 O        6.4560     1.2780     0.4680 O.3   1 <1>  -0.5600 
 25 H       -1.0980     4.0150    -2.0290 H     1 <1>   0.1500 
 26 H        3.6430     5.0900    -1.3180 H     1 <1>   0.1500 
 27 H       -0.2200     6.2250    -2.6930 H     1 <1>   0.1500 
 28 H        3.4440    -1.9190     2.5050 H     1 <1>   0.0800 
 29 H        2.1350    -1.9670     1.3290 H     1 <1>   0.0800 
 30 H        1.8440    -1.3770     2.9420 H     1 <1>   0.0800 
 31 H        5.3340    -1.0780     0.9780 H     1 <1>   0.0800 
 32 H        5.7330    -1.4640    -0.6690 H     1 <1>   0.0800 
 33 H        4.5540    -2.4340     0.1750 H     1 <1>   0.0800 
 34 H        5.4860     3.2490    -2.0070 H     1 <1>   0.0800 
 35 H        4.9210     1.6160    -1.9010 H     1 <1>   0.0800 
 36 H        4.0180     3.0370     1.7950 H     1 <1>   0.0800 
 37 H        5.2660     4.0390     1.1490 H     1 <1>   0.0800 
 38 H        2.1540     6.7500    -2.3290 H     1 <1>   0.1500 
 39 H        7.2630     2.8690    -0.4760 H     1 <1>   0.0800 
 40 H        7.2040     1.3850    -1.3960 H     1 <1>   0.0800 
 41 H        5.4730     1.3250     2.2170 H     1 <1>   0.0800 
 42 H        6.7080     2.5300     2.0290 H     1 <1>   0.0800 
@<TRIPOS>BOND
  1   1   2  2   
  2   2   3  1   
  3   2   4  1   
  4   3   5  1   
  5   4   6  1   
  6   4   7  2   
  7   5   8  ar  
  8   5   9  ar  
  9   6  10  am  
 10   6  11  am  
 11   7   8  1   
 12   7  12  1   
 13   8  13  ar  
 14   9  14  ar  
 15   9  25  1   
 16  10  15  2   
 17  10  16  1   
 18  11  17  2   
 19  11  18  1   
 20  12  19  1   
 21  12  20  1   
 22  13  21  ar  
 23  13  26  1   
 24  14  21  ar  
 25  14  27  1   
 26  16  28  1   
 27  16  29  1   
 28  16  30  1   
 29  18  31  1   
 30  18  32  1   
 31  18  33  1   
 32  19  22  1   
 33  19  34  1   
 34  19  35  1   
 35  20  23  1   
 36  20  36  1   
 37  20  37  1   
 38  21  38  1   
 39  22  24  1   
 40  22  39  1   
 41  22  40  1   
 42  23  24  1   
 43  23  41  1   
 44  23  42  1   
@<TRIPOS>SUBSTRUCTURE
  1 ****   7 GROUP 4 **** **** 0

# MOE 2024.06 (io_trps.svl 2023.06)
