@<TRIPOS>MOLECULE
NONAME
44 47 1 0 0 
SMALL
USER_CHARGES


@<TRIPOS>ATOM
  1 S       -0.1870    -0.1450     0.2720 S.3   1 <1>  -0.0800 
  2 C       -0.1210     1.5490    -0.2070 C.2   1 <1>   0.4420 
  3 C        1.5140    -0.2630    -0.0570 C.2   1 <1>  -0.1400 
  4 N        1.0450     1.9540    -0.5620 N.2   1 <1>  -0.5650 
  5 N       -1.2970     2.2750    -0.1610 N.am  1 <1>  -0.1840 
  6 C        1.9620     0.9260    -0.4690 C.2   1 <1>   0.0460 
  7 C        2.2900    -1.5480     0.1220 C.3   1 <1>   0.0200 
  8 C       -1.5970     3.0160     0.9710 C.2   1 <1>   0.5690 
  9 C       -2.0800     2.3640    -1.2960 C.2   1 <1>   0.5690 
 10 C        3.4160     1.1560    -0.8260 C.3   1 <1>   0.0210 
 11 C        3.6620    -1.3920    -0.5640 C.3   1 <1>  -0.1600 
 12 O       -0.9750     2.8980     2.0000 O.2   1 <1>  -0.5700 
 13 C       -2.8100     3.9850     0.9250 C.3   1 <1>   0.0610 
 14 O       -1.8880     1.7160    -2.2940 O.2   1 <1>  -0.5700 
 15 C       -3.2820     3.3090    -1.2680 C.3   1 <1>  -0.0190 
 16 C        4.2960    -0.0050    -0.3100 C.3   1 <1>  -0.1600 
 17 C       -2.9210     4.5960    -0.5000 C.3   1 <1>   0.0000 
 18 C       -4.0780     3.1080     1.0320 C.3   1 <1>  -0.1600 
 19 C       -2.7670     5.0380     2.0570 C.3   1 <1>  -0.2400 
 20 C       -4.3800     2.6540    -0.4070 C.3   1 <1>  -0.1600 
 21 C       -4.0540     5.6440    -0.6520 C.3   1 <1>  -0.2400 
 22 C       -1.6350     5.2940    -1.0110 C.3   1 <1>  -0.2400 
 23 H        1.7510    -2.3710    -0.3130 H     1 <1>   0.0800 
 24 H        2.4170    -1.7330     1.1740 H     1 <1>   0.0800 
 25 H        3.7490     2.0830    -0.3950 H     1 <1>   0.0800 
 26 H        3.4940     1.2340    -1.8960 H     1 <1>   0.0800 
 27 H        3.5330    -1.5200    -1.6250 H     1 <1>   0.0800 
 28 H        4.3240    -2.1670    -0.2190 H     1 <1>   0.0800 
 29 H       -3.6170     3.5050    -2.2720 H     1 <1>   0.0800 
 30 H        4.4380     0.1180     0.7500 H     1 <1>   0.0800 
 31 H        5.2630     0.0470    -0.7780 H     1 <1>   0.0800 
 32 H       -4.9080     3.6790     1.4110 H     1 <1>   0.0800 
 33 H       -3.9220     2.2690     1.6890 H     1 <1>   0.0800 
 34 H       -3.6360     5.6690     2.0470 H     1 <1>   0.0800 
 35 H       -2.7250     4.5490     3.0150 H     1 <1>   0.0800 
 36 H       -1.8900     5.6530     1.9600 H     1 <1>   0.0800 
 37 H       -4.3690     1.5800    -0.4980 H     1 <1>   0.0800 
 38 H       -5.3510     3.0080    -0.7100 H     1 <1>   0.0800 
 39 H       -4.9980     5.3030    -0.2710 H     1 <1>   0.0800 
 40 H       -4.1910     5.8920    -1.6900 H     1 <1>   0.0800 
 41 H       -3.8020     6.5520    -0.1320 H     1 <1>   0.0800 
 42 H       -0.7510     4.6860    -0.9530 H     1 <1>   0.0800 
 43 H       -1.4440     6.1840    -0.4370 H     1 <1>   0.0800 
 44 H       -1.7580     5.5850    -2.0390 H     1 <1>   0.0800 
@<TRIPOS>BOND
  1   1   2  1   
  2   1   3  1   
  3   2   4  2   
  4   2   5  1   
  5   3   6  2   
  6   3   7  1   
  7   4   6  1   
  8   5   8  am  
  9   5   9  am  
 10   6  10  1   
 11   7  11  1   
 12   7  23  1   
 13   7  24  1   
 14   8  12  2   
 15   8  13  1   
 16   9  14  2   
 17   9  15  1   
 18  10  16  1   
 19  10  25  1   
 20  10  26  1   
 21  11  16  1   
 22  11  27  1   
 23  11  28  1   
 24  13  17  1   
 25  13  18  1   
 26  13  19  1   
 27  15  17  1   
 28  15  20  1   
 29  15  29  1   
 30  16  30  1   
 31  16  31  1   
 32  17  21  1   
 33  17  22  1   
 34  18  20  1   
 35  18  32  1   
 36  18  33  1   
 37  19  34  1   
 38  19  35  1   
 39  19  36  1   
 40  20  37  1   
 41  20  38  1   
 42  21  39  1   
 43  21  40  1   
 44  21  41  1   
 45  22  42  1   
 46  22  43  1   
 47  22  44  1   
@<TRIPOS>SUBSTRUCTURE
  1 ****   5 GROUP 4 **** **** 0

# MOE 2024.06 (io_trps.svl 2023.06)
