@<TRIPOS>MOLECULE
NONAME
43 47 1 0 0 
SMALL
USER_CHARGES


@<TRIPOS>ATOM
  1 CL       0.1690     2.4920     1.9310 Cl    1 <1>  -0.1770 
  2 C       -0.8840     2.0090     0.6220 C.ar  1 <1>   0.1770 
  3 C       -0.3590     1.5610    -0.5790 C.ar  1 <1>   0.1770 
  4 C       -2.2520     2.0830     0.8120 C.ar  1 <1>  -0.1500 
  5 CL       1.3710     1.4670    -0.8220 Cl    1 <1>  -0.1770 
  6 C       -1.1990     1.1810    -1.6100 C.ar  1 <1>  -0.1500 
  7 C       -3.1030     1.7010    -0.2230 C.ar  1 <1>   0.0830 
  8 C       -2.5710     1.2530    -1.4260 C.ar  1 <1>  -0.1500 
  9 O       -4.4560     1.7380    -0.1340 O.3   1 <1>  -0.3630 
 10 C       -5.1050     2.1930     1.0480 C.3   1 <1>   0.1810 
 11 C       -6.6180     2.1430     0.9000 C.2   1 <1>   0.5690 
 12 O       -7.3030     2.5460     1.8150 O.2   1 <1>  -0.5700 
 13 N       -7.1630     1.6570    -0.2450 N.am  1 <1>  -0.4300 
 14 N       -8.5970     1.5420    -0.4800 N.am  1 <1>  -0.1200 
 15 C       -9.3760     0.4850    -0.0440 C.2   1 <1>   0.5690 
 16 C       -9.4000     2.6090    -0.8340 C.2   1 <1>   0.5690 
 17 O       -9.0200    -0.5310     0.5040 O.2   1 <1>  -0.5700 
 18 C      -10.7890     0.7940    -0.4550 C.3   1 <1>  -0.0190 
 19 O       -9.0900     3.6070    -1.4400 O.2   1 <1>  -0.5700 
 20 C      -10.7590     2.3190    -0.2650 C.3   1 <1>  -0.0190 
 21 C      -12.2440     0.4360    -0.0630 C.3   1 <1>   0.1530 
 22 C      -12.2410     2.7180    -0.3780 C.3   1 <1>   0.1530 
 23 C      -12.9930     0.7460    -1.3550 C.2   1 <1>  -0.2880 
 24 C      -12.7160     1.6950     0.6650 C.3   1 <1>  -0.1900 
 25 C      -12.9400     2.0660    -1.5640 C.2   1 <1>  -0.2880 
 26 C      -12.7110     1.8740     2.1480 C.3   1 <1>  -0.2000 
 27 C      -14.0180     1.7840     1.3900 C.3   1 <1>  -0.2000 
 28 H       -2.6150     2.4350     1.7580 H     1 <1>   0.1500 
 29 H       -0.7840     0.8350    -2.5400 H     1 <1>   0.1500 
 30 H       -3.2360     0.9600    -2.2200 H     1 <1>   0.1500 
 31 H       -4.8010     3.2070     1.2360 H     1 <1>   0.0800 
 32 H       -4.8100     1.5610     1.8660 H     1 <1>   0.0800 
 33 H       -6.5370     1.3560    -0.9990 H     1 <1>   0.3700 
 34 H      -10.7260     0.5680    -1.5090 H     1 <1>   0.0800 
 35 H      -10.5440     2.5400     0.7710 H     1 <1>   0.0800 
 36 H      -12.4420    -0.5170     0.3970 H     1 <1>   0.0800 
 37 H      -12.5020     3.7370    -0.1480 H     1 <1>   0.0800 
 38 H      -13.4210    -0.0480    -1.9440 H     1 <1>   0.1500 
 39 H      -13.3060     2.6690    -2.3770 H     1 <1>   0.1500 
 40 H      -12.4340     2.8250     2.5690 H     1 <1>   0.1000 
 41 H      -12.4250     1.0470     2.7760 H     1 <1>   0.1000 
 42 H      -14.6170     0.8960     1.4900 H     1 <1>   0.1000 
 43 H      -14.6140     2.6730     1.2770 H     1 <1>   0.1000 
@<TRIPOS>BOND
  1   1   2  1   
  2   2   3  ar  
  3   2   4  ar  
  4   3   5  1   
  5   3   6  ar  
  6   4   7  ar  
  7   4  28  1   
  8   6   8  ar  
  9   6  29  1   
 10   7   8  ar  
 11   7   9  1   
 12   8  30  1   
 13   9  10  1   
 14  10  11  1   
 15  10  31  1   
 16  10  32  1   
 17  11  12  2   
 18  11  13  am  
 19  13  14  1   
 20  13  33  1   
 21  14  15  am  
 22  14  16  am  
 23  15  17  2   
 24  15  18  1   
 25  16  19  2   
 26  16  20  1   
 27  18  20  1   
 28  18  21  1   
 29  18  34  1   
 30  20  22  1   
 31  20  35  1   
 32  21  23  1   
 33  21  24  1   
 34  21  36  1   
 35  22  24  1   
 36  22  25  1   
 37  22  37  1   
 38  23  25  2   
 39  23  38  1   
 40  24  26  1   
 41  24  27  1   
 42  25  39  1   
 43  26  27  1   
 44  26  40  1   
 45  26  41  1   
 46  27  42  1   
 47  27  43  1   
@<TRIPOS>SUBSTRUCTURE
  1 ****  13 GROUP 4 **** **** 0

# MOE 2024.06 (io_trps.svl 2023.06)
