@<TRIPOS>MOLECULE
NONAME
33 34 1 0 0 
SMALL
USER_CHARGES


@<TRIPOS>ATOM
  1 O       -0.1490     0.6870    -1.5160 O.3   1 <1>  -0.2170 
  2 N        0.8750     1.5100    -1.4180 N.2   1 <1>  -0.5130 
  3 C       -1.2900     1.1220    -0.8070 C.3   1 <1>   0.5600 
  4 C        0.5960     2.4840    -0.6540 C.2   1 <1>   0.3030 
  5 O       -2.1810     1.5100    -1.7850 O.3   1 <1>  -0.6800 
  6 C       -1.8870    -0.0410     0.0690 C.3   1 <1>   0.0000 
  7 C       -0.7950     2.3720    -0.0870 C.3   1 <1>  -0.0990 
  8 C        1.4640     3.5930    -0.3100 C.ar  1 <1>   0.0860 
  9 C       -3.1110     0.4400     0.8760 C.3   1 <1>  -0.2400 
 10 C       -2.3440    -1.2250    -0.8130 C.3   1 <1>  -0.2400 
 11 C       -0.8480    -0.5950     1.0690 C.3   1 <1>  -0.2400 
 12 C        2.7550     3.6700    -0.8390 C.ar  1 <1>  -0.1500 
 13 C        1.0720     4.6240     0.5500 C.ar  1 <1>  -0.1500 
 14 C        3.6100     4.7110    -0.5300 C.ar  1 <1>  -0.1500 
 15 C        1.9220     5.6700     0.8640 C.ar  1 <1>  -0.1500 
 16 C        3.1950     5.7150     0.3240 C.ar  1 <1>  -0.1500 
 17 H       -2.1410     0.8240    -2.4750 H     1 <1>   0.4000 
 18 H       -0.7500     2.2380     0.9740 H     1 <1>   0.0800 
 19 H       -1.3980     3.2280    -0.3250 H     1 <1>   0.0800 
 20 H       -2.8420     1.2230     1.5610 H     1 <1>   0.0800 
 21 H       -3.5330    -0.3700     1.4450 H     1 <1>   0.0800 
 22 H       -3.8730     0.8180     0.2160 H     1 <1>   0.0800 
 23 H       -3.1320    -0.9270    -1.4820 H     1 <1>   0.0800 
 24 H       -2.7150    -2.0310    -0.2060 H     1 <1>   0.0800 
 25 H       -1.5220    -1.6000    -1.3990 H     1 <1>   0.0800 
 26 H       -0.5350     0.1530     1.7730 H     1 <1>   0.0800 
 27 H        0.0250    -0.9500     0.5470 H     1 <1>   0.0800 
 28 H       -1.2590    -1.4190     1.6260 H     1 <1>   0.0800 
 29 H        3.0920     2.8950    -1.5060 H     1 <1>   0.1500 
 30 H        0.0910     4.6220     0.9860 H     1 <1>   0.1500 
 31 H        4.5980     4.7400    -0.9550 H     1 <1>   0.1500 
 32 H        1.5960     6.4510     1.5280 H     1 <1>   0.1500 
 33 H        3.8580     6.5280     0.5670 H     1 <1>   0.1500 
@<TRIPOS>BOND
  1   1   2  1   
  2   1   3  1   
  3   2   4  2   
  4   3   5  1   
  5   3   6  1   
  6   3   7  1   
  7   4   7  1   
  8   4   8  1   
  9   5  17  1   
 10   6   9  1   
 11   6  10  1   
 12   6  11  1   
 13   7  18  1   
 14   7  19  1   
 15   8  12  ar  
 16   8  13  ar  
 17   9  20  1   
 18   9  21  1   
 19   9  22  1   
 20  10  23  1   
 21  10  24  1   
 22  10  25  1   
 23  11  26  1   
 24  11  27  1   
 25  11  28  1   
 26  12  14  ar  
 27  12  29  1   
 28  13  15  ar  
 29  13  30  1   
 30  14  16  ar  
 31  14  31  1   
 32  15  16  ar  
 33  15  32  1   
 34  16  33  1   
@<TRIPOS>SUBSTRUCTURE
  1 ****   4 GROUP 4 **** **** 0

# MOE 2024.06 (io_trps.svl 2023.06)
