@<TRIPOS>MOLECULE
Structure2614
29 30 1 0 0 
SMALL
USER_CHARGES


@<TRIPOS>ATOM
  1 BR      -1.4900    -0.3710    -1.4970 Br    1 <1>  -0.1110 
  2 C       -0.7090    -1.9590    -0.7230 C.ar  1 <1>   0.1110 
  3 C       -1.3720    -2.6520     0.2890 C.ar  1 <1>   0.0820 
  4 C        0.5230    -2.3630    -1.2010 C.ar  1 <1>  -0.1500 
  5 O       -2.5790    -2.2670     0.7660 O.3   1 <1>  -0.3630 
  6 C       -0.7610    -3.7650     0.8510 C.ar  1 <1>  -0.1500 
  7 C        1.1000    -3.4840    -0.6340 C.ar  1 <1>   0.1770 
  8 C       -3.7040    -2.4500    -0.0590 C.3   1 <1>   0.2000 
  9 C        0.4760    -4.1850     0.3850 C.ar  1 <1>  -0.1500 
 10 CL       2.6540    -4.0270    -1.2150 Cl    1 <1>  -0.1770 
 11 C       -4.6950    -1.3320     0.2700 C.3   1 <1>  -0.1600 
 12 C       -4.3010    -3.8290     0.2340 C.3   1 <1>  -0.1600 
 13 C       -6.0250    -1.5500    -0.4450 C.3   1 <1>   0.3430 
 14 C       -5.6410    -4.0070    -0.4760 C.3   1 <1>   0.3430 
 15 N       -6.5600    -2.8970    -0.0990 N.4   1 <1>  -0.9060 
 16 H        1.0230    -1.8220    -1.9830 H     1 <1>   0.1500 
 17 H       -1.2490    -4.2950     1.6500 H     1 <1>   0.1500 
 18 H       -3.4010    -2.3850    -1.0910 H     1 <1>   0.0800 
 19 H        0.9600    -5.0480     0.8080 H     1 <1>   0.1500 
 20 H       -4.2810    -0.3890    -0.0410 H     1 <1>   0.0800 
 21 H       -4.8620    -1.2870     1.3330 H     1 <1>   0.0800 
 22 H       -4.4370    -3.9540     1.2940 H     1 <1>   0.0800 
 23 H       -3.6220    -4.5900    -0.1090 H     1 <1>   0.0800 
 24 H       -5.8760    -1.4770    -1.5110 H     1 <1>   0.0800 
 25 H       -6.7250    -0.7840    -0.1480 H     1 <1>   0.0800 
 26 H       -6.0730    -4.9560    -0.2010 H     1 <1>   0.0800 
 27 H       -5.4850    -4.0040    -1.5440 H     1 <1>   0.0800 
 28 H       -7.4730    -3.0320    -0.5540 H     1 <1>   0.4500 
 29 H       -6.7290    -2.9340     0.9150 H     1 <1>   0.4500 
@<TRIPOS>BOND
  1   1   2  1   
  2   2   3  ar  
  3   2   4  ar  
  4   3   5  1   
  5   3   6  ar  
  6   4   7  ar  
  7   4  16  1   
  8   5   8  1   
  9   6   9  ar  
 10   6  17  1   
 11   7   9  ar  
 12   7  10  1   
 13   8  11  1   
 14   8  12  1   
 15   8  18  1   
 16   9  19  1   
 17  11  13  1   
 18  11  20  1   
 19  11  21  1   
 20  12  14  1   
 21  12  22  1   
 22  12  23  1   
 23  13  15  1   
 24  13  24  1   
 25  13  25  1   
 26  14  15  1   
 27  14  26  1   
 28  14  27  1   
 29  15  28  1   
 30  15  29  1   
@<TRIPOS>SUBSTRUCTURE
  1 ****   3 GROUP 4 **** **** 0

# MOE 2024.06 (io_trps.svl 2023.06)
