@<TRIPOS>MOLECULE
NONAME
50 50 1 0 0 
SMALL
USER_CHARGES


@<TRIPOS>ATOM
  1 S        0.3340     0.3100     1.4210 S.o2  1 <1>   1.3330 
  2 O        1.4790     0.1200     2.2820 O.2   1 <1>  -0.6500 
  3 O        0.3100    -0.2920     0.1120 O.2   1 <1>  -0.6500 
  4 N        0.1560     2.0190     1.2280 N.am  1 <1>  -0.6930 
  5 C       -1.1380    -0.1230     2.3210 C.3   1 <1>  -0.1350 
  6 C       -0.8320     2.5390     0.3990 C.ar  1 <1>   0.1990 
  7 C        1.3900     2.8460     1.4110 C.3   1 <1>   0.2570 
  8 C       -0.7390     2.4380    -0.9830 C.ar  1 <1>  -0.1500 
  9 C       -1.9330     3.1800     0.9520 C.ar  1 <1>  -0.1500 
 10 C        2.4900     2.5860     0.3750 C.2   1 <1>   0.5690 
 11 C       -1.7260     2.9580    -1.8010 C.ar  1 <1>  -0.1500 
 12 C       -2.9240     3.7010     0.1400 C.ar  1 <1>  -0.1500 
 13 O        2.6810     3.4060    -0.4930 O.2   1 <1>  -0.5700 
 14 N        3.2440     1.4570     0.4610 N.am  1 <1>  -0.7300 
 15 C       -2.8300     3.5940    -1.2380 C.ar  1 <1>   0.0830 
 16 C        4.2310     1.0140    -0.5530 C.3   1 <1>   0.1400 
 17 O       -3.8480     4.1320    -1.9630 O.3   1 <1>  -0.3630 
 18 C        5.5220     1.8180    -0.4190 C.3   1 <1>   0.0700 
 19 C       -3.8220     4.1020    -3.3730 C.3   1 <1>   0.0400 
 20 S        6.7430     1.1220    -1.5750 S.3   1 <1>  -0.4600 
 21 C        8.1480     2.2700    -1.5800 C.3   1 <1>   0.2300 
 22 C        9.2290     1.5920    -2.4200 C.3   1 <1>  -0.2400 
 23 C        7.6950     3.5790    -2.2280 C.3   1 <1>  -0.2400 
 24 C        8.6230     2.4710    -0.1390 C.3   1 <1>  -0.2400 
 25 H       -1.1420    -1.1740     2.5340 H     1 <1>   0.0800 
 26 H       -2.0090     0.1130     1.7420 H     1 <1>   0.0800 
 27 H       -1.1800     0.4160     3.2470 H     1 <1>   0.0800 
 28 H        1.7930     2.6690     2.3910 H     1 <1>   0.0800 
 29 H        1.1220     3.8860     1.3550 H     1 <1>   0.0800 
 30 H        0.1150     1.9470    -1.4180 H     1 <1>   0.1500 
 31 H       -2.0090     3.2720     2.0200 H     1 <1>   0.1500 
 32 H       -1.6170     2.8580    -2.8640 H     1 <1>   0.1500 
 33 H       -3.7770     4.1970     0.5670 H     1 <1>   0.1500 
 34 H        2.9880     0.7510     1.1680 H     1 <1>   0.3700 
 35 H        3.8200     1.1580    -1.5380 H     1 <1>   0.0800 
 36 H        4.4350    -0.0340    -0.4150 H     1 <1>   0.0800 
 37 H        5.9310     1.7320     0.5710 H     1 <1>   0.0800 
 38 H        5.3590     2.8460    -0.6840 H     1 <1>   0.0800 
 39 H       -4.7110     4.5880    -3.7330 H     1 <1>   0.0800 
 40 H       -3.8080     3.0770    -3.7000 H     1 <1>   0.0800 
 41 H       -2.9510     4.6300    -3.7180 H     1 <1>   0.0800 
 42 H        8.8680     1.4130    -3.4170 H     1 <1>   0.0800 
 43 H        9.5050     0.6500    -1.9810 H     1 <1>   0.0800 
 44 H       10.1040     2.2130    -2.4780 H     1 <1>   0.0800 
 45 H        6.9560     4.0730    -1.6270 H     1 <1>   0.0800 
 46 H        7.2760     3.3850    -3.2000 H     1 <1>   0.0800 
 47 H        8.5320     4.2430    -2.3430 H     1 <1>   0.0800 
 48 H        7.8870     2.9960     0.4400 H     1 <1>   0.0800 
 49 H        9.5280     3.0510    -0.1290 H     1 <1>   0.0800 
 50 H        8.8210     1.5210     0.3230 H     1 <1>   0.0800 
@<TRIPOS>BOND
  1   1   2  2   
  2   1   3  2   
  3   1   4  am  
  4   1   5  1   
  5   4   6  1   
  6   4   7  1   
  7   5  25  1   
  8   5  26  1   
  9   5  27  1   
 10   6   8  ar  
 11   6   9  ar  
 12   7  10  1   
 13   7  28  1   
 14   7  29  1   
 15   8  11  ar  
 16   8  30  1   
 17   9  12  ar  
 18   9  31  1   
 19  10  13  2   
 20  10  14  am  
 21  11  15  ar  
 22  11  32  1   
 23  12  15  ar  
 24  12  33  1   
 25  14  16  1   
 26  14  34  1   
 27  15  17  1   
 28  16  18  1   
 29  16  35  1   
 30  16  36  1   
 31  17  19  1   
 32  18  20  1   
 33  18  37  1   
 34  18  38  1   
 35  19  39  1   
 36  19  40  1   
 37  19  41  1   
 38  20  21  1   
 39  21  22  1   
 40  21  23  1   
 41  21  24  1   
 42  22  42  1   
 43  22  43  1   
 44  22  44  1   
 45  23  45  1   
 46  23  46  1   
 47  23  47  1   
 48  24  48  1   
 49  24  49  1   
 50  24  50  1   
@<TRIPOS>SUBSTRUCTURE
  1 ****  10 GROUP 4 **** **** 0

# MOE 2024.06 (io_trps.svl 2023.06)
