@<TRIPOS>MOLECULE
NONAME
36 36 1 0 0 
SMALL
USER_CHARGES


@<TRIPOS>ATOM
  1 O       -0.2310    -0.3660    -0.6090 O.2   1 <1>  -0.5700 
  2 C       -0.8330    -1.3210    -0.1560 C.2   1 <1>   0.5440 
  3 N       -0.1400    -2.3550     0.4180 N.am  1 <1>  -0.7300 
  4 C       -2.2830    -1.3560    -0.2030 C.ar  1 <1>   0.0860 
  5 C        1.3080    -2.5440     0.5620 C.3   1 <1>   0.3000 
  6 C       -3.0280    -0.1770    -0.1780 C.ar  1 <1>  -0.1500 
  7 C       -2.9910    -2.5560    -0.2750 C.ar  1 <1>  -0.1500 
  8 C        1.5000    -3.8940     1.2490 C.3   1 <1>  -0.2400 
  9 C        1.9710    -2.5740    -0.8150 C.3   1 <1>  -0.2400 
 10 C        1.8900    -1.4370     1.4410 C.3   1 <1>  -0.2400 
 11 C       -4.4190    -0.1690    -0.2100 C.ar  1 <1>   0.0830 
 12 C       -4.3710    -2.5700    -0.3010 C.ar  1 <1>  -0.1500 
 13 O       -5.1100     1.0090    -0.1890 O.3   1 <1>  -0.3630 
 14 C       -5.1050    -1.3970    -0.2650 C.ar  1 <1>   0.0830 
 15 C       -4.4710     2.2620    -0.3050 C.3   1 <1>   0.0400 
 16 O       -6.4540    -1.5860    -0.2930 O.3   1 <1>  -0.3620 
 17 C       -7.4000    -0.5440    -0.2350 C.3   1 <1>   0.0400 
 18 H       -0.6790    -3.0720     0.8960 H     1 <1>   0.3700 
 19 H       -2.4700     0.7380    -0.1300 H     1 <1>   0.1500 
 20 H       -2.4580    -3.4890    -0.3200 H     1 <1>   0.1500 
 21 H        2.5480    -4.0940     1.3820 H     1 <1>   0.0800 
 22 H        1.0830    -4.6850     0.6510 H     1 <1>   0.0800 
 23 H        1.0340    -3.8970     2.2180 H     1 <1>   0.0800 
 24 H        1.5150    -3.3240    -1.4360 H     1 <1>   0.0800 
 25 H        3.0170    -2.7990    -0.7180 H     1 <1>   0.0800 
 26 H        1.8830    -1.6190    -1.3010 H     1 <1>   0.0800 
 27 H        1.3840    -1.4010     2.3880 H     1 <1>   0.0800 
 28 H        1.7950    -0.4810     0.9590 H     1 <1>   0.0800 
 29 H        2.9350    -1.6140     1.6170 H     1 <1>   0.0800 
 30 H       -4.8990    -3.5060    -0.3540 H     1 <1>   0.1500 
 31 H       -5.2300     3.0230    -0.3430 H     1 <1>   0.0800 
 32 H       -3.8930     2.2780    -1.2130 H     1 <1>   0.0800 
 33 H       -3.8440     2.4170     0.5550 H     1 <1>   0.0800 
 34 H       -8.3820    -0.9810    -0.2510 H     1 <1>   0.0800 
 35 H       -7.2690     0.0930    -1.0920 H     1 <1>   0.0800 
 36 H       -7.2580     0.0060     0.6780 H     1 <1>   0.0800 
@<TRIPOS>BOND
  1   1   2  2   
  2   2   3  am  
  3   2   4  1   
  4   3   5  1   
  5   3  18  1   
  6   4   6  ar  
  7   4   7  ar  
  8   5   8  1   
  9   5   9  1   
 10   5  10  1   
 11   6  11  ar  
 12   6  19  1   
 13   7  12  ar  
 14   7  20  1   
 15   8  21  1   
 16   8  22  1   
 17   8  23  1   
 18   9  24  1   
 19   9  25  1   
 20   9  26  1   
 21  10  27  1   
 22  10  28  1   
 23  10  29  1   
 24  11  13  1   
 25  11  14  ar  
 26  12  14  ar  
 27  12  30  1   
 28  13  15  1   
 29  14  16  1   
 30  15  31  1   
 31  15  32  1   
 32  15  33  1   
 33  16  17  1   
 34  17  34  1   
 35  17  35  1   
 36  17  36  1   
@<TRIPOS>SUBSTRUCTURE
  1 ****   4 GROUP 4 **** **** 0

# MOE 2024.06 (io_trps.svl 2023.06)
