@<TRIPOS>MOLECULE
NONAME
41 43 1 0 0 
SMALL
USER_CHARGES


@<TRIPOS>ATOM
  1 O        1.8380    -0.0890    -2.1890 O.2   1 <1>  -0.5700 
  2 C        2.2070     0.4990    -1.2040 C.2   1 <1>   0.5690 
  3 N        1.7250     1.7320    -0.9380 N.am  1 <1>  -0.7300 
  4 C        3.2300    -0.1490    -0.2960 C.3   1 <1>   0.0420 
  5 C        2.2130     2.6140     0.1110 C.3   1 <1>   0.5800 
  6 C        2.5560    -1.3150     0.3860 C.2   1 <1>   0.6590 
  7 C        3.8490     0.8510     0.7050 C.3   1 <1>   0.0630 
  8 O        3.2230     3.4020    -0.4780 O.3   1 <1>  -0.3630 
  9 C        2.7870     1.8010     1.2730 C.3   1 <1>  -0.1600 
 10 C        1.0890     3.5400     0.5470 C.3   1 <1>  -0.2400 
 11 O        1.7180    -1.1700     1.2400 O.2   1 <1>  -0.5700 
 12 O        2.9680    -2.5200     0.0130 O.3   1 <1>  -0.4300 
 13 C        4.8740     1.7080    -0.0230 C.ar  1 <1>  -0.1430 
 14 C        4.4940     2.9270    -0.5830 C.ar  1 <1>   0.0830 
 15 C        2.4090    -3.6930     0.5560 C.3   1 <1>   0.1200 
 16 C        6.1880     1.2870    -0.1470 C.ar  1 <1>  -0.1500 
 17 C        5.4210     3.7020    -1.2590 C.ar  1 <1>  -0.1500 
 18 C        3.1040    -4.8890    -0.0870 C.3   1 <1>  -0.2400 
 19 C        7.1200     2.0600    -0.8220 C.ar  1 <1>   0.0830 
 20 C        6.7310     3.2740    -1.3810 C.ar  1 <1>  -0.1500 
 21 O        8.3820     1.5640    -0.8940 O.3   1 <1>  -0.3620 
 22 C        9.3990     2.2590    -1.5800 C.3   1 <1>   0.0400 
 23 H        1.1620     2.1800    -1.6570 H     1 <1>   0.3700 
 24 H        4.0120    -0.5450    -0.9160 H     1 <1>   0.0800 
 25 H        4.3300     0.3190     1.5090 H     1 <1>   0.0800 
 26 H        2.0010     1.2640     1.7710 H     1 <1>   0.0800 
 27 H        3.2290     2.4680     1.9910 H     1 <1>   0.0800 
 28 H        1.4460     4.2130     1.3050 H     1 <1>   0.0800 
 29 H        0.2780     2.9660     0.9570 H     1 <1>   0.0800 
 30 H        0.7300     4.1120    -0.2890 H     1 <1>   0.0800 
 31 H        1.3540    -3.6970     0.3400 H     1 <1>   0.0800 
 32 H        2.5610    -3.6830     1.6220 H     1 <1>   0.0800 
 33 H        6.5100     0.3530     0.2760 H     1 <1>   0.1500 
 34 H        5.1100     4.6390    -1.6850 H     1 <1>   0.1500 
 35 H        2.9530    -4.8750    -1.1510 H     1 <1>   0.0800 
 36 H        2.6940    -5.8010     0.3060 H     1 <1>   0.0800 
 37 H        4.1580    -4.8650     0.1280 H     1 <1>   0.0800 
 38 H        7.4270     3.8950    -1.9110 H     1 <1>   0.1500 
 39 H       10.3020     1.6800    -1.5150 H     1 <1>   0.0800 
 40 H        9.5450     3.2170    -1.1120 H     1 <1>   0.0800 
 41 H        9.1110     2.3720    -2.6100 H     1 <1>   0.0800 
@<TRIPOS>BOND
  1   1   2  2   
  2   2   3  am  
  3   2   4  1   
  4   3   5  1   
  5   3  23  1   
  6   4   6  1   
  7   4   7  1   
  8   4  24  1   
  9   5   8  1   
 10   5   9  1   
 11   5  10  1   
 12   6  11  2   
 13   6  12  1   
 14   7   9  1   
 15   7  13  1   
 16   7  25  1   
 17   8  14  1   
 18   9  26  1   
 19   9  27  1   
 20  10  28  1   
 21  10  29  1   
 22  10  30  1   
 23  12  15  1   
 24  13  14  ar  
 25  13  16  ar  
 26  14  17  ar  
 27  15  18  1   
 28  15  31  1   
 29  15  32  1   
 30  16  19  ar  
 31  16  33  1   
 32  17  20  ar  
 33  17  34  1   
 34  18  35  1   
 35  18  36  1   
 36  18  37  1   
 37  19  20  ar  
 38  19  21  1   
 39  20  38  1   
 40  21  22  1   
 41  22  39  1   
 42  22  40  1   
 43  22  41  1   
@<TRIPOS>SUBSTRUCTURE
  1 ****   7 GROUP 4 **** **** 0

# MOE 2024.06 (io_trps.svl 2023.06)
