@<TRIPOS>MOLECULE
NONAME
43 45 1 0 0 
SMALL
USER_CHARGES


@<TRIPOS>ATOM
  1 CL       0.6520     0.2370     2.0090 Cl    1 <1>  -0.1770 
  2 C        1.9460     0.4000     0.8480 C.ar  1 <1>   0.1770 
  3 C        1.9180     1.4340    -0.0770 C.ar  1 <1>  -0.1440 
  4 C        2.9730    -0.5230     0.8710 C.ar  1 <1>  -0.1500 
  5 C        2.9580     1.5360    -0.9910 C.ar  1 <1>  -0.1500 
  6 C        0.7810     2.4340    -0.0920 C.3   1 <1>   0.4870 
  7 C        4.0000    -0.4150    -0.0490 C.ar  1 <1>  -0.1500 
  8 C        3.9910     0.6130    -0.9760 C.ar  1 <1>  -0.1500 
  9 N       -0.1290     2.0970    -1.2260 N.4   1 <1>  -0.9590 
 10 C       -1.0270     3.2500    -1.5930 C.3   1 <1>   0.3430 
 11 C       -0.9470     0.8580    -0.9450 C.3   1 <1>   0.3430 
 12 C       -2.1790     3.4620    -0.5870 C.3   1 <1>   0.1960 
 13 C       -2.1000     1.1110     0.0550 C.3   1 <1>   0.1960 
 14 N       -2.9640     2.2310    -0.3670 N.am  1 <1>  -0.8490 
 15 S       -4.2200     2.5300     0.7390 S.o2  1 <1>   1.4470 
 16 O       -3.5810     2.5150     2.0360 O.2   1 <1>  -0.6500 
 17 O       -4.8730     3.7300     0.2730 O.2   1 <1>  -0.6500 
 18 C       -5.3260     1.1040     0.5360 C.ar  1 <1>  -0.0090 
 19 C       -5.9540     0.8680    -0.6850 C.ar  1 <1>  -0.1500 
 20 C       -5.5640     0.2180     1.5890 C.ar  1 <1>  -0.1500 
 21 C       -6.7840    -0.2280    -0.8320 C.ar  1 <1>   0.1900 
 22 C       -6.4000    -0.8820     1.4440 C.ar  1 <1>  -0.1500 
 23 F       -7.3540    -0.4320    -1.9910 F     1 <1>  -0.1900 
 24 C       -7.0070    -1.0960     0.2220 C.ar  1 <1>   0.1900 
 25 F       -7.7920    -2.1320     0.0770 F     1 <1>  -0.1900 
 26 H        2.9730    -1.3150     1.6000 H     1 <1>   0.1500 
 27 H        2.9880     2.3310    -1.7190 H     1 <1>   0.1500 
 28 H        1.1930     3.4210    -0.2290 H     1 <1>   0.0800 
 29 H        0.2460     2.4210     0.8440 H     1 <1>   0.0800 
 30 H        4.8090    -1.1290    -0.0420 H     1 <1>   0.1500 
 31 H        4.7990     0.6940    -1.6860 H     1 <1>   0.1500 
 32 H        0.4840     1.8870    -2.0250 H     1 <1>   0.4500 
 33 H       -1.4690     3.0620    -2.5590 H     1 <1>   0.0800 
 34 H       -0.4520     4.1580    -1.6720 H     1 <1>   0.0800 
 35 H       -0.3120     0.0730    -0.5670 H     1 <1>   0.0800 
 36 H       -1.3820     0.5050    -1.8660 H     1 <1>   0.0800 
 37 H       -2.8240     4.2320    -0.9790 H     1 <1>   0.0800 
 38 H       -1.7860     3.8190     0.3510 H     1 <1>   0.0800 
 39 H       -1.6860     1.3070     1.0300 H     1 <1>   0.0800 
 40 H       -2.6890     0.2120     0.1300 H     1 <1>   0.0800 
 41 H       -5.8030     1.5340    -1.5170 H     1 <1>   0.1500 
 42 H       -5.0920     0.3920     2.5440 H     1 <1>   0.1500 
 43 H       -6.5800    -1.5590     2.2610 H     1 <1>   0.1500 
@<TRIPOS>BOND
  1   1   2  1   
  2   2   3  ar  
  3   2   4  ar  
  4   3   5  ar  
  5   3   6  1   
  6   4   7  ar  
  7   4  26  1   
  8   5   8  ar  
  9   5  27  1   
 10   6   9  1   
 11   6  28  1   
 12   6  29  1   
 13   7   8  ar  
 14   7  30  1   
 15   8  31  1   
 16   9  10  1   
 17   9  11  1   
 18   9  32  1   
 19  10  12  1   
 20  10  33  1   
 21  10  34  1   
 22  11  13  1   
 23  11  35  1   
 24  11  36  1   
 25  12  14  1   
 26  12  37  1   
 27  12  38  1   
 28  13  14  1   
 29  13  39  1   
 30  13  40  1   
 31  14  15  am  
 32  15  16  2   
 33  15  17  2   
 34  15  18  1   
 35  18  19  ar  
 36  18  20  ar  
 37  19  21  ar  
 38  19  41  1   
 39  20  22  ar  
 40  20  42  1   
 41  21  23  1   
 42  21  24  ar  
 43  22  24  ar  
 44  22  43  1   
 45  24  25  1   
@<TRIPOS>SUBSTRUCTURE
  1 ****  13 GROUP 4 **** **** 0

# MOE 2024.06 (io_trps.svl 2023.06)
