@<TRIPOS>MOLECULE
NONAME
47 49 1 0 0 
SMALL
USER_CHARGES


@<TRIPOS>ATOM
  1 S       -1.2360    -0.4320    -0.4450 S.3   1 <1>  -0.3320 
  2 C        0.3340     0.4180    -0.6670 C.ar  1 <1>   0.1020 
  3 C       -0.9760    -1.5500     1.0020 C.3   1 <1>  -0.0100 
  4 C        0.3720     1.7890    -0.9510 C.ar  1 <1>   0.0860 
  5 C        1.4880    -0.3430    -0.5720 C.ar  1 <1>  -0.1500 
  6 C       -0.7950     2.6480    -1.0020 C.2   1 <1>   0.5440 
  7 C        1.6340     2.3470    -1.1670 C.ar  1 <1>  -0.1500 
  8 C        2.7220     0.2480    -0.7750 C.ar  1 <1>  -0.1500 
  9 O       -0.8950     3.4840    -1.8790 O.2   1 <1>  -0.5700 
 10 N       -1.7660     2.5580    -0.0300 N.am  1 <1>  -0.5470 
 11 C        2.7920     1.5950    -1.0790 C.ar  1 <1>  -0.1500 
 12 C       -2.8610     3.3710     0.2980 C.ar  1 <1>   0.1170 
 13 C       -3.9450     2.8170     0.9990 C.ar  1 <1>   0.0860 
 14 C       -2.8910     4.7240    -0.0330 C.ar  1 <1>  -0.1500 
 15 C       -3.9730     1.4130     1.3490 C.2   1 <1>   0.5440 
 16 C       -5.0100     3.6470     1.3520 C.ar  1 <1>  -0.1500 
 17 C       -3.9600     5.5250     0.3160 C.ar  1 <1>  -0.1500 
 18 O       -3.0830     0.9540     2.0460 O.2   1 <1>  -0.5700 
 19 N       -4.9800     0.5780     0.9080 N.am  1 <1>  -0.6600 
 20 C       -5.0250     4.9860     1.0140 C.ar  1 <1>  -0.1500 
 21 C       -5.8660     0.9090    -0.2460 C.3   1 <1>   0.1400 
 22 C       -5.1540    -0.8030     1.4410 C.3   1 <1>   0.1400 
 23 C       -5.6520    -0.1070    -1.3720 C.3   1 <1>  -0.1600 
 24 C       -4.9500    -1.8300     0.3210 C.3   1 <1>  -0.1600 
 25 C       -5.8570    -1.5470    -0.8830 C.3   1 <1>  -0.1600 
 26 H       -1.9450    -1.8050     1.3930 H     1 <1>   0.0800 
 27 H       -0.4050    -1.0110     1.7370 H     1 <1>   0.0800 
 28 H       -0.4550    -2.4260     0.6620 H     1 <1>   0.0800 
 29 H        1.4300    -1.3930    -0.3570 H     1 <1>   0.1500 
 30 H        1.7000     3.3950    -1.4060 H     1 <1>   0.1500 
 31 H        3.6220    -0.3390    -0.7040 H     1 <1>   0.1500 
 32 H       -1.7340     1.6800     0.5060 H     1 <1>   0.3700 
 33 H        3.7490     2.0590    -1.2470 H     1 <1>   0.1500 
 34 H       -2.0660     5.1600    -0.5660 H     1 <1>   0.1500 
 35 H       -5.8360     3.2260     1.8990 H     1 <1>   0.1500 
 36 H       -3.9610     6.5670     0.0470 H     1 <1>   0.1500 
 37 H       -5.8570     5.6100     1.2930 H     1 <1>   0.1500 
 38 H       -5.6590     1.8940    -0.6240 H     1 <1>   0.0800 
 39 H       -6.8910     0.8820     0.0810 H     1 <1>   0.0800 
 40 H       -6.1480    -0.8960     1.8420 H     1 <1>   0.0800 
 41 H       -4.4570    -0.9940     2.2390 H     1 <1>   0.0800 
 42 H       -4.6520     0.0070    -1.7550 H     1 <1>   0.0800 
 43 H       -6.3350     0.1030    -2.1760 H     1 <1>   0.0800 
 44 H       -5.1480    -2.8150     0.7020 H     1 <1>   0.0800 
 45 H       -3.9210    -1.7990     0.0090 H     1 <1>   0.0800 
 46 H       -5.6310    -2.2360    -1.6780 H     1 <1>   0.0800 
 47 H       -6.8860    -1.6870    -0.5990 H     1 <1>   0.0800 
@<TRIPOS>BOND
  1   1   2  1   
  2   1   3  1   
  3   2   4  ar  
  4   2   5  ar  
  5   3  26  1   
  6   3  27  1   
  7   3  28  1   
  8   4   6  1   
  9   4   7  ar  
 10   5   8  ar  
 11   5  29  1   
 12   6   9  2   
 13   6  10  am  
 14   7  11  ar  
 15   7  30  1   
 16   8  11  ar  
 17   8  31  1   
 18  10  12  1   
 19  10  32  1   
 20  11  33  1   
 21  12  13  ar  
 22  12  14  ar  
 23  13  15  1   
 24  13  16  ar  
 25  14  17  ar  
 26  14  34  1   
 27  15  18  2   
 28  15  19  am  
 29  16  20  ar  
 30  16  35  1   
 31  17  20  ar  
 32  17  36  1   
 33  19  21  1   
 34  19  22  1   
 35  20  37  1   
 36  21  23  1   
 37  21  38  1   
 38  21  39  1   
 39  22  24  1   
 40  22  40  1   
 41  22  41  1   
 42  23  25  1   
 43  23  42  1   
 44  23  43  1   
 45  24  25  1   
 46  24  44  1   
 47  24  45  1   
 48  25  46  1   
 49  25  47  1   
@<TRIPOS>SUBSTRUCTURE
  1 ****  10 GROUP 4 **** **** 0

# MOE 2024.06 (io_trps.svl 2023.06)
