@<TRIPOS>MOLECULE
NONAME
46 47 1 0 0 
SMALL
USER_CHARGES


@<TRIPOS>ATOM
  1 O       -0.3200    -3.1120     1.1060 O.3   1 <1>  -0.5600 
  2 C       -0.4460    -2.1940     0.0520 C.3   1 <1>   0.1200 
  3 C       -0.6060    -4.4380     0.7570 C.3   1 <1>   0.1200 
  4 C       -1.8080    -2.3230    -0.6720 C.3   1 <1>   0.3430 
  5 C       -2.0820    -4.5870     0.3230 C.3   1 <1>   0.3430 
  6 N       -2.7270    -3.2590     0.0540 N.4   1 <1>  -0.9590 
  7 C       -4.1140    -3.3380    -0.5010 C.3   1 <1>   0.3430 
  8 C       -4.9130    -2.0600    -0.1660 C.3   1 <1>   0.2000 
  9 O       -4.5430    -1.6120     1.1020 O.3   1 <1>  -0.6800 
 10 C       -6.4290    -2.2870    -0.1900 C.3   1 <1>   0.1200 
 11 O       -7.0620    -1.1160     0.2790 O.3   1 <1>  -0.3630 
 12 C       -8.4130    -1.0310     0.3670 C.ar  1 <1>   0.0820 
 13 C       -9.2780    -2.0740     0.0460 C.ar  1 <1>  -0.1500 
 14 C       -8.9360     0.1750     0.8020 C.ar  1 <1>  -0.1500 
 15 C      -10.6450    -1.8990     0.1650 C.ar  1 <1>  -0.1500 
 16 C      -10.3040     0.3460     0.9190 C.ar  1 <1>  -0.1500 
 17 C      -11.1670    -0.6920     0.6020 C.ar  1 <1>  -0.1430 
 18 C      -12.6700    -0.5050     0.7300 C.3   1 <1>  -0.0170 
 19 C      -13.2590     0.0220    -0.5830 C.3   1 <1>  -0.1600 
 20 C      -14.7750     0.2200    -0.4820 C.3   1 <1>  -0.2400 
 21 H        0.3660    -2.3480    -0.6370 H     1 <1>   0.0800 
 22 H       -0.3460    -1.2080     0.4720 H     1 <1>   0.0800 
 23 H       -0.4050    -5.0580     1.6140 H     1 <1>   0.0800 
 24 H        0.0590    -4.7340    -0.0360 H     1 <1>   0.0800 
 25 H       -1.6380    -2.6820    -1.6730 H     1 <1>   0.0800 
 26 H       -2.2560    -1.3460    -0.7450 H     1 <1>   0.0800 
 27 H       -2.6220    -5.0970     1.1030 H     1 <1>   0.0800 
 28 H       -2.1220    -5.2060    -0.5580 H     1 <1>   0.0800 
 29 H       -2.8530    -2.8050     0.9830 H     1 <1>   0.4500 
 30 H       -4.6240    -4.1740    -0.0530 H     1 <1>   0.0800 
 31 H       -4.0910    -3.4960    -1.5670 H     1 <1>   0.0800 
 32 H       -4.6680    -1.2840    -0.8710 H     1 <1>   0.0800 
 33 H       -5.2160    -0.9600     1.4110 H     1 <1>   0.4000 
 34 H       -6.7030    -3.1030     0.4570 H     1 <1>   0.0800 
 35 H       -6.7730    -2.4790    -1.1920 H     1 <1>   0.0800 
 36 H       -8.9170    -3.0250    -0.2940 H     1 <1>   0.1500 
 37 H       -8.2700     0.9820     1.0480 H     1 <1>   0.1500 
 38 H      -11.3090    -2.7090    -0.0850 H     1 <1>   0.1500 
 39 H      -10.6950     1.2890     1.2570 H     1 <1>   0.1500 
 40 H      -12.8800     0.1880     1.5270 H     1 <1>   0.0800 
 41 H      -13.1290    -1.4440     0.9850 H     1 <1>   0.0800 
 42 H      -13.0430    -0.6750    -1.3750 H     1 <1>   0.0800 
 43 H      -12.7920     0.9590    -0.8320 H     1 <1>   0.0800 
 44 H      -15.2630    -0.7120    -0.2560 H     1 <1>   0.0800 
 45 H      -15.1600     0.5900    -1.4160 H     1 <1>   0.0800 
 46 H      -15.0110     0.9320     0.2900 H     1 <1>   0.0800 
@<TRIPOS>BOND
  1   1   2  1   
  2   1   3  1   
  3   2   4  1   
  4   2  21  1   
  5   2  22  1   
  6   3   5  1   
  7   3  23  1   
  8   3  24  1   
  9   4   6  1   
 10   4  25  1   
 11   4  26  1   
 12   5   6  1   
 13   5  27  1   
 14   5  28  1   
 15   6   7  1   
 16   6  29  1   
 17   7   8  1   
 18   7  30  1   
 19   7  31  1   
 20   8   9  1   
 21   8  10  1   
 22   8  32  1   
 23   9  33  1   
 24  10  11  1   
 25  10  34  1   
 26  10  35  1   
 27  11  12  1   
 28  12  13  ar  
 29  12  14  ar  
 30  13  15  ar  
 31  13  36  1   
 32  14  16  ar  
 33  14  37  1   
 34  15  17  ar  
 35  15  38  1   
 36  16  17  ar  
 37  16  39  1   
 38  17  18  1   
 39  18  19  1   
 40  18  40  1   
 41  18  41  1   
 42  19  20  1   
 43  19  42  1   
 44  19  43  1   
 45  20  44  1   
 46  20  45  1   
 47  20  46  1   
@<TRIPOS>SUBSTRUCTURE
  1 ****  10 GROUP 4 **** **** 0

# MOE 2024.06 (io_trps.svl 2023.06)
