@<TRIPOS>MOLECULE
NONAME
43 45 1 0 0 
SMALL
USER_CHARGES


@<TRIPOS>ATOM
  1 CL      -0.2950    -1.2780    -0.4380 Cl    1 <1>  -0.1770 
  2 C        1.3790    -1.6130    -0.0780 C.ar  1 <1>   0.1770 
  3 C        1.7360    -2.6110     0.8180 C.ar  1 <1>  -0.0090 
  4 C        2.3290    -0.8570    -0.7400 C.ar  1 <1>  -0.1500 
  5 S        0.4990    -3.6400     1.6380 S.o2  1 <1>   1.4470 
  6 C        3.0920    -2.8310     1.0290 C.ar  1 <1>  -0.1500 
  7 C        3.6670    -1.1140    -0.5180 C.ar  1 <1>   0.1770 
  8 O       -0.5320    -2.8300     2.2420 O.2   1 <1>  -0.6500 
  9 O        1.1420    -4.6590     2.4330 O.2   1 <1>  -0.6500 
 10 N       -0.2670    -4.4960     0.3590 N.am  1 <1>  -0.7300 
 11 C        4.0810    -2.1080     0.3630 C.ar  1 <1>   0.0860 
 12 CL       4.8370    -0.1720    -1.4050 Cl    1 <1>  -0.1770 
 13 C        0.4310    -5.1870    -0.5460 C.2   1 <1>   0.7450 
 14 C       -1.6260    -5.0080     0.5430 C.3   1 <1>   0.1960 
 15 C        5.4730    -2.4220     0.5740 C.2   1 <1>   0.5440 
 16 O        1.5950    -5.0290    -0.8130 O.2   1 <1>  -0.5700 
 17 C       -0.4340    -6.2190    -1.2170 C.3   1 <1>  -0.0990 
 18 C       -1.8400    -5.9290    -0.6640 C.3   1 <1>  -0.1600 
 19 O        6.1620    -1.6530     1.2150 O.2   1 <1>  -0.5700 
 20 N        6.0130    -3.5990     0.0990 N.am  1 <1>  -0.6600 
 21 C        7.3710    -4.0600     0.4980 C.3   1 <1>   0.1400 
 22 C        5.2910    -4.5510    -0.7940 C.3   1 <1>   0.1400 
 23 C        7.2570    -5.4110     1.2140 C.3   1 <1>  -0.1600 
 24 C        5.1450    -5.9010    -0.0860 C.3   1 <1>  -0.1600 
 25 C        6.5080    -6.4490     0.3640 C.3   1 <1>  -0.1600 
 26 H        2.0310    -0.0860    -1.4270 H     1 <1>   0.1500 
 27 H        3.4030    -3.6010     1.7160 H     1 <1>   0.1500 
 28 H       -2.3380    -4.1990     0.5640 H     1 <1>   0.0800 
 29 H       -1.6790    -5.5620     1.4670 H     1 <1>   0.0800 
 30 H       -0.0960    -7.1970    -0.9280 H     1 <1>   0.0800 
 31 H       -0.3910    -6.1130    -2.2850 H     1 <1>   0.0800 
 32 H       -2.4220    -5.4050    -1.4030 H     1 <1>   0.0800 
 33 H       -2.3620    -6.8270    -0.3860 H     1 <1>   0.0800 
 34 H        7.8420    -3.3450     1.1510 H     1 <1>   0.0800 
 35 H        7.9810    -4.1580    -0.3830 H     1 <1>   0.0800 
 36 H        5.8620    -4.6770    -1.6990 H     1 <1>   0.0800 
 37 H        4.3200    -4.1790    -1.0690 H     1 <1>   0.0800 
 38 H        6.7390    -5.2630     2.1450 H     1 <1>   0.0800 
 39 H        8.2430    -5.7750     1.4430 H     1 <1>   0.0800 
 40 H        4.6750    -6.6020    -0.7540 H     1 <1>   0.0800 
 41 H        4.4990    -5.7810     0.7660 H     1 <1>   0.0800 
 42 H        6.3670    -7.3520     0.9320 H     1 <1>   0.0800 
 43 H        7.0980    -6.6900    -0.5040 H     1 <1>   0.0800 
@<TRIPOS>BOND
  1   1   2  1   
  2   2   3  ar  
  3   2   4  ar  
  4   3   5  1   
  5   3   6  ar  
  6   4   7  ar  
  7   4  26  1   
  8   5   8  2   
  9   5   9  2   
 10   5  10  am  
 11   6  11  ar  
 12   6  27  1   
 13   7  11  ar  
 14   7  12  1   
 15  10  13  am  
 16  10  14  1   
 17  11  15  1   
 18  13  16  2   
 19  13  17  1   
 20  14  18  1   
 21  14  28  1   
 22  14  29  1   
 23  15  19  2   
 24  15  20  am  
 25  17  18  1   
 26  17  30  1   
 27  17  31  1   
 28  18  32  1   
 29  18  33  1   
 30  20  21  1   
 31  20  22  1   
 32  21  23  1   
 33  21  34  1   
 34  21  35  1   
 35  22  24  1   
 36  22  36  1   
 37  22  37  1   
 38  23  25  1   
 39  23  38  1   
 40  23  39  1   
 41  24  25  1   
 42  24  40  1   
 43  24  41  1   
 44  25  42  1   
 45  25  43  1   
@<TRIPOS>SUBSTRUCTURE
  1 ****   6 GROUP 4 **** **** 0

# MOE 2024.06 (io_trps.svl 2023.06)
