@<TRIPOS>MOLECULE
NONAME
43 45 1 0 0 
SMALL
USER_CHARGES


@<TRIPOS>ATOM
  1 S        0.7070     1.5180    -0.0090 S.3   1 <1>  -0.4600 
  2 C        1.3390     2.9070    -1.0210 C.3   1 <1>   0.2110 
  3 C       -0.9990     1.3030    -0.5880 C.3   1 <1>   0.2140 
  4 C        2.8680     2.8430    -1.1460 C.2   1 <1>   0.5690 
  5 C        0.8500     4.2010    -0.3580 C.3   1 <1>  -0.2400 
  6 C       -1.5950     0.1060     0.1310 C.ar  1 <1>  -0.1440 
  7 O        3.4010     3.4310    -2.0580 O.2   1 <1>  -0.5700 
  8 N        3.5800     2.1330    -0.2350 N.am  1 <1>  -0.7300 
  9 C       -1.4770    -1.1650    -0.4100 C.ar  1 <1>  -0.1500 
 10 C       -2.2650     0.2740     1.3340 C.ar  1 <1>  -0.1500 
 11 C        5.0360     1.9220    -0.2360 C.3   1 <1>   0.2200 
 12 C       -2.0290    -2.2560     0.2390 C.ar  1 <1>  -0.1500 
 13 C       -2.8170    -0.8160     1.9840 C.ar  1 <1>  -0.1500 
 14 C        5.4190     0.4440    -0.4660 C.3   1 <1>  -0.0800 
 15 C        5.6350     2.2210     1.1480 C.3   1 <1>  -0.1600 
 16 C       -2.7000    -2.0820     1.4370 C.ar  1 <1>  -0.1500 
 17 C        6.8000     0.4050     0.1730 C.3   1 <1>  -0.1600 
 18 C        4.6450    -0.4890     0.4880 C.3   1 <1>  -0.1600 
 19 C        6.3210     0.8970     1.5300 C.3   1 <1>  -0.0800 
 20 C        5.2330    -0.1370     1.8660 C.3   1 <1>  -0.1600 
 21 H        0.9120     2.8000    -2.0020 H     1 <1>   0.0800 
 22 H       -0.9650     1.1470    -1.6510 H     1 <1>   0.0800 
 23 H       -1.5370     2.2060    -0.3640 H     1 <1>   0.0800 
 24 H        1.2430     4.2740     0.6400 H     1 <1>   0.0800 
 25 H       -0.2230     4.2280    -0.3200 H     1 <1>   0.0800 
 26 H        1.1960     5.0480    -0.9240 H     1 <1>   0.0800 
 27 H        3.0600     1.5900     0.4600 H     1 <1>   0.3700 
 28 H       -0.9520    -1.3110    -1.3380 H     1 <1>   0.1500 
 29 H       -2.3560     1.2530     1.7700 H     1 <1>   0.1500 
 30 H        5.5030     2.5450    -0.9820 H     1 <1>   0.0800 
 31 H       -1.9340    -3.2390    -0.1860 H     1 <1>   0.1500 
 32 H       -3.3360    -0.6800     2.9170 H     1 <1>   0.1500 
 33 H        5.3940     0.1500    -1.5000 H     1 <1>   0.0800 
 34 H        4.8940     2.5150     1.8700 H     1 <1>   0.0800 
 35 H        6.3700     3.0000     1.0570 H     1 <1>   0.0800 
 36 H       -3.1290    -2.9290     1.9420 H     1 <1>   0.1500 
 37 H        7.4980     1.0800    -0.2940 H     1 <1>   0.0800 
 38 H        7.2160    -0.5880     0.2120 H     1 <1>   0.0800 
 39 H        4.8640    -1.5150     0.2490 H     1 <1>   0.0800 
 40 H        3.5790    -0.3530     0.4480 H     1 <1>   0.0800 
 41 H        7.0840     0.9970     2.2830 H     1 <1>   0.0800 
 42 H        5.6710    -1.0110     2.3170 H     1 <1>   0.0800 
 43 H        4.4880     0.2670     2.5310 H     1 <1>   0.0800 
@<TRIPOS>BOND
  1   1   2  1   
  2   1   3  1   
  3   2   4  1   
  4   2   5  1   
  5   2  21  1   
  6   3   6  1   
  7   3  22  1   
  8   3  23  1   
  9   4   7  2   
 10   4   8  am  
 11   5  24  1   
 12   5  25  1   
 13   5  26  1   
 14   6   9  ar  
 15   6  10  ar  
 16   8  11  1   
 17   8  27  1   
 18   9  12  ar  
 19   9  28  1   
 20  10  13  ar  
 21  10  29  1   
 22  11  14  1   
 23  11  15  1   
 24  11  30  1   
 25  12  16  ar  
 26  12  31  1   
 27  13  16  ar  
 28  13  32  1   
 29  14  17  1   
 30  14  18  1   
 31  14  33  1   
 32  15  19  1   
 33  15  34  1   
 34  15  35  1   
 35  16  36  1   
 36  17  19  1   
 37  17  37  1   
 38  17  38  1   
 39  18  20  1   
 40  18  39  1   
 41  18  40  1   
 42  19  20  1   
 43  19  41  1   
 44  20  42  1   
 45  20  43  1   
@<TRIPOS>SUBSTRUCTURE
  1 ****   1 GROUP 4 **** **** 0

# MOE 2024.06 (io_trps.svl 2023.06)
