@<TRIPOS>MOLECULE
NONAME
21 21 1 0 0 
SMALL
USER_CHARGES


@<TRIPOS>ATOM
  1 N       -2.7520     2.5930     0.0480 N.ar  1 <1>  -0.2100 
  2 C       -1.5830     3.2650    -0.1160 C.ar  1 <1>   0.2180 
  3 C       -3.9190     3.2750     0.1250 C.ar  1 <1>   0.2110 
  4 C       -2.7870     1.1050     0.1490 C.3   1 <1>   0.2480 
  5 C       -1.5870     4.6460    -0.2060 C.ar  1 <1>  -0.1500 
  6 C       -0.2540     2.5210    -0.2050 C.3   1 <1>  -0.0960 
  7 C       -3.9590     4.6550     0.0390 C.ar  1 <1>  -0.1430 
  8 C       -2.7750     5.3520    -0.1290 C.ar  1 <1>  -0.1500 
  9 C       -5.2700     5.4230     0.1240 C.3   1 <1>  -0.0970 
 10 H       -4.8380     2.7290     0.2560 H     1 <1>   0.1500 
 11 H       -2.2040     0.7830     0.9950 H     1 <1>   0.0800 
 12 H       -2.3850     0.6690    -0.7490 H     1 <1>   0.0800 
 13 H       -3.7960     0.7540     0.2760 H     1 <1>   0.0800 
 14 H       -0.6670     5.1900    -0.3370 H     1 <1>   0.1500 
 15 H       -0.2520     1.8500    -1.0460 H     1 <1>   0.0800 
 16 H       -0.0720     1.9640     0.6960 H     1 <1>   0.0800 
 17 H        0.5600     3.2110    -0.3350 H     1 <1>   0.0800 
 18 H       -2.7730     6.4290    -0.2000 H     1 <1>   0.1500 
 19 H       -6.1070     4.7600     0.2540 H     1 <1>   0.0800 
 20 H       -5.4240     5.9910    -0.7760 H     1 <1>   0.0800 
 21 H       -5.2440     6.1040     0.9570 H     1 <1>   0.0800 
@<TRIPOS>BOND
  1   1   2  ar  
  2   1   3  ar  
  3   1   4  1   
  4   2   5  ar  
  5   2   6  1   
  6   3   7  ar  
  7   3  10  1   
  8   4  11  1   
  9   4  12  1   
 10   4  13  1   
 11   5   8  ar  
 12   5  14  1   
 13   6  15  1   
 14   6  16  1   
 15   6  17  1   
 16   7   8  ar  
 17   7   9  1   
 18   8  18  1   
 19   9  19  1   
 20   9  20  1   
 21   9  21  1   
@<TRIPOS>SUBSTRUCTURE
  1 ****   1 GROUP 4 **** **** 0

# MOE 2024.06 (io_trps.svl 2023.06)
