@<TRIPOS>MOLECULE
NONAME
35 35 1 0 0 
SMALL
USER_CHARGES


@<TRIPOS>ATOM
  1 BR      -0.0510    -0.2920    -0.4820 Br    1 <1>  -0.1110 
  2 C        1.7330    -1.0020    -0.3360 C.ar  1 <1>   0.1110 
  3 C        1.8960    -2.3640    -0.1640 C.ar  1 <1>  -0.1500 
  4 C        2.8040    -0.1310    -0.4060 C.ar  1 <1>  -0.1500 
  5 C        3.1820    -2.8650    -0.0600 C.ar  1 <1>  -0.1500 
  6 C        4.0870    -0.6430    -0.3010 C.ar  1 <1>  -0.1500 
  7 C        4.2780    -2.0150    -0.1270 C.ar  1 <1>   0.0830 
  8 O        5.4990    -2.5970    -0.0150 O.3   1 <1>  -0.3630 
  9 C        6.6830    -1.8390    -0.0680 C.3   1 <1>   0.1200 
 10 C        7.8540    -2.8110     0.0900 C.3   1 <1>  -0.1600 
 11 C        9.2100    -2.0900     0.0500 C.3   1 <1>  -0.1600 
 12 C       10.3520    -3.0910     0.2100 C.3   1 <1>   0.3430 
 13 N       11.6420    -2.3670     0.1680 N.4   1 <1>  -0.9060 
 14 C       12.8110    -3.2500     0.2990 C.3   1 <1>   0.4810 
 15 C       14.0140    -2.3610     0.1200 C.2   1 <1>  -0.2880 
 16 C       14.8140    -2.3520    -0.9520 C.2   1 <1>  -0.3000 
 17 H        1.0390    -3.0120    -0.1130 H     1 <1>   0.1500 
 18 H        2.6340     0.9220    -0.5410 H     1 <1>   0.1500 
 19 H        3.3440    -3.9200     0.0750 H     1 <1>   0.1500 
 20 H        4.9150     0.0370    -0.3560 H     1 <1>   0.1500 
 21 H        6.6610    -1.1230     0.7360 H     1 <1>   0.0800 
 22 H        6.7200    -1.3370    -1.0190 H     1 <1>   0.0800 
 23 H        7.8030    -3.5360    -0.7050 H     1 <1>   0.0800 
 24 H        7.7430    -3.3260     1.0300 H     1 <1>   0.0800 
 25 H        9.2430    -1.3670     0.8480 H     1 <1>   0.0800 
 26 H        9.3040    -1.5770    -0.8920 H     1 <1>   0.0800 
 27 H       10.3090    -3.8180    -0.5860 H     1 <1>   0.0800 
 28 H       10.2480    -3.6100     1.1510 H     1 <1>   0.0800 
 29 H       11.6830    -1.6590     0.9090 H     1 <1>   0.4500 
 30 H       11.7440    -1.8630    -0.7210 H     1 <1>   0.4500 
 31 H       12.7960    -4.0050    -0.4730 H     1 <1>   0.0800 
 32 H       12.8330    -3.7320     1.2640 H     1 <1>   0.0800 
 33 H       14.1870    -1.7110     0.9630 H     1 <1>   0.1500 
 34 H       15.6730    -1.7060    -1.0510 H     1 <1>   0.1500 
 35 H       14.6990    -2.9790    -1.8210 H     1 <1>   0.1500 
@<TRIPOS>BOND
  1   1   2  1   
  2   2   3  ar  
  3   2   4  ar  
  4   3   5  ar  
  5   3  17  1   
  6   4   6  ar  
  7   4  18  1   
  8   5   7  ar  
  9   5  19  1   
 10   6   7  ar  
 11   6  20  1   
 12   7   8  1   
 13   8   9  1   
 14   9  10  1   
 15   9  21  1   
 16   9  22  1   
 17  10  11  1   
 18  10  23  1   
 19  10  24  1   
 20  11  12  1   
 21  11  25  1   
 22  11  26  1   
 23  12  13  1   
 24  12  27  1   
 25  12  28  1   
 26  13  14  1   
 27  13  29  1   
 28  13  30  1   
 29  14  15  1   
 30  14  31  1   
 31  14  32  1   
 32  15  16  2   
 33  15  33  1   
 34  16  34  1   
 35  16  35  1   
@<TRIPOS>SUBSTRUCTURE
  1 ****   9 GROUP 4 **** **** 0

# MOE 2024.06 (io_trps.svl 2023.06)
