@<TRIPOS>MOLECULE
NONAME
49 50 1 0 0 
SMALL
USER_CHARGES


@<TRIPOS>ATOM
  1 O       -1.2320    -0.9860     0.2910 O.2   1 <1>  -0.5700 
  2 C       -0.3020    -1.5540     0.8370 C.2   1 <1>   0.6340 
  3 O        0.1030    -1.0940     2.0260 O.3   1 <1>  -0.4300 
  4 C        0.3970    -2.6930     0.2770 C.ar  1 <1>   0.0860 
  5 C       -0.5220     0.0060     2.6590 C.3   1 <1>   0.0400 
  6 C       -0.1740    -3.5160    -0.7170 C.ar  1 <1>   0.1170 
  7 C        1.6850    -3.0080     0.7240 C.ar  1 <1>  -0.1500 
  8 N       -1.4660    -3.2490    -1.1960 N.am  1 <1>  -0.5470 
  9 C        0.5510    -4.5910    -1.2220 C.ar  1 <1>  -0.1500 
 10 C        2.3970    -4.0740     0.2150 C.ar  1 <1>   0.0830 
 11 C       -2.4540    -4.0720    -1.6600 C.2   1 <1>   0.5690 
 12 C        1.8170    -4.8890    -0.7590 C.ar  1 <1>   0.0830 
 13 O        3.6490    -4.2810     0.6980 O.3   1 <1>  -0.3630 
 14 O       -2.3180    -5.2610    -1.8000 O.2   1 <1>  -0.5700 
 15 C       -3.7960    -3.4500    -2.0070 C.3   1 <1>  -0.0990 
 16 O        2.4440    -5.9680    -1.2740 O.3   1 <1>  -0.3630 
 17 C        4.7090    -4.1100    -0.2190 C.3   1 <1>   0.0400 
 18 C       -4.3230    -2.4290    -0.9740 C.3   1 <1>  -0.0800 
 19 C        2.6040    -7.0730    -0.4130 C.3   1 <1>   0.0400 
 20 C       -4.4510    -3.0490     0.4310 C.3   1 <1>  -0.1600 
 21 C       -5.6780    -1.8630    -1.4310 C.3   1 <1>  -0.1600 
 22 C       -4.9950    -2.0300     1.4400 C.3   1 <1>  -0.1600 
 23 C       -6.2270    -0.8430    -0.4240 C.3   1 <1>  -0.1600 
 24 C       -6.3390    -1.4540     0.9780 C.3   1 <1>  -0.1600 
 25 H       -0.0280     0.1860     3.5970 H     1 <1>   0.0800 
 26 H       -1.5590    -0.2310     2.8250 H     1 <1>   0.0800 
 27 H       -0.4350     0.8700     2.0230 H     1 <1>   0.0800 
 28 H        2.1520    -2.4060     1.4830 H     1 <1>   0.1500 
 29 H       -1.7840    -2.2920    -0.9950 H     1 <1>   0.3700 
 30 H        0.1290    -5.2180    -1.9850 H     1 <1>   0.1500 
 31 H       -4.5130    -4.2450    -2.1140 H     1 <1>   0.0800 
 32 H       -3.6980    -2.9740    -2.9640 H     1 <1>   0.0800 
 33 H        5.6350    -4.1810     0.3220 H     1 <1>   0.0800 
 34 H        4.6210    -3.1400    -0.6750 H     1 <1>   0.0800 
 35 H        4.6640    -4.8800    -0.9670 H     1 <1>   0.0800 
 36 H       -3.6320    -1.6050    -0.9180 H     1 <1>   0.0800 
 37 H        3.0610    -7.8710    -0.9690 H     1 <1>   0.0800 
 38 H        1.6350    -7.3780    -0.0580 H     1 <1>   0.0800 
 39 H        3.2330    -6.7920     0.4130 H     1 <1>   0.0800 
 40 H       -3.4940    -3.3970     0.7780 H     1 <1>   0.0800 
 41 H       -5.1130    -3.8980     0.3920 H     1 <1>   0.0800 
 42 H       -6.3880    -2.6660    -1.5400 H     1 <1>   0.0800 
 43 H       -5.5700    -1.3850    -2.3900 H     1 <1>   0.0800 
 44 H       -4.2830    -1.2300     1.5540 H     1 <1>   0.0800 
 45 H       -5.1160    -2.5030     2.4000 H     1 <1>   0.0800 
 46 H       -7.1950    -0.5020    -0.7460 H     1 <1>   0.0800 
 47 H       -5.5710     0.0110    -0.3880 H     1 <1>   0.0800 
 48 H       -6.6680    -0.7020     1.6750 H     1 <1>   0.0800 
 49 H       -7.0770    -2.2390     0.9670 H     1 <1>   0.0800 
@<TRIPOS>BOND
  1   1   2  2   
  2   2   3  1   
  3   2   4  1   
  4   3   5  1   
  5   4   6  ar  
  6   4   7  ar  
  7   5  25  1   
  8   5  26  1   
  9   5  27  1   
 10   6   8  1   
 11   6   9  ar  
 12   7  10  ar  
 13   7  28  1   
 14   8  11  am  
 15   8  29  1   
 16   9  12  ar  
 17   9  30  1   
 18  10  12  ar  
 19  10  13  1   
 20  11  14  2   
 21  11  15  1   
 22  12  16  1   
 23  13  17  1   
 24  15  18  1   
 25  15  31  1   
 26  15  32  1   
 27  16  19  1   
 28  17  33  1   
 29  17  34  1   
 30  17  35  1   
 31  18  20  1   
 32  18  21  1   
 33  18  36  1   
 34  19  37  1   
 35  19  38  1   
 36  19  39  1   
 37  20  22  1   
 38  20  40  1   
 39  20  41  1   
 40  21  23  1   
 41  21  42  1   
 42  21  43  1   
 43  22  24  1   
 44  22  44  1   
 45  22  45  1   
 46  23  24  1   
 47  23  46  1   
 48  23  47  1   
 49  24  48  1   
 50  24  49  1   
@<TRIPOS>SUBSTRUCTURE
  1 ****   6 GROUP 4 **** **** 0

# MOE 2024.06 (io_trps.svl 2023.06)
