@<TRIPOS>MOLECULE
NONAME
37 37 1 0 0 
SMALL
USER_CHARGES


@<TRIPOS>ATOM
  1 S        0.1210     0.2220     1.1480 S.3   1 <1>  -0.3710 
  2 C        1.8530     0.1540     0.7460 C.2   1 <1>   0.6410 
  3 C       -0.6820     1.3510    -0.0950 C.3   1 <1>   0.1310 
  4 N        2.5990    -0.5770     1.4790 N.2   1 <1>  -0.6610 
  5 N        2.2700     0.8890    -0.3190 N.pl3 1 <1>  -0.5500 
  6 C       -2.1790     1.4890     0.1450 C.2   1 <1>   0.5690 
  7 C        3.9220    -0.6140     1.1490 C.2   1 <1>   0.7670 
  8 C        3.5830     0.8930    -0.6970 C.2   1 <1>  -0.0380 
  9 O       -2.8170     2.1970    -0.5880 O.2   1 <1>  -0.5700 
 10 N       -2.7860     0.8370     1.1560 N.am  1 <1>  -0.8000 
 11 O        4.6500    -1.3030     1.8490 O.2   1 <1>  -0.5700 
 12 C        4.4370     0.1250     0.0310 C.2   1 <1>  -0.1240 
 13 C        3.9180     1.7730    -1.8920 C.3   1 <1>  -0.1020 
 14 C        5.9320     0.0090    -0.2820 C.3   1 <1>  -0.0220 
 15 C        6.7300     1.0710     0.4890 C.3   1 <1>  -0.1600 
 16 C        8.2520     0.9650     0.2860 C.3   1 <1>  -0.0800 
 17 C        8.9660     1.9470     1.2220 C.3   1 <1>  -0.2400 
 18 C        8.6680     1.2520    -1.1640 C.3   1 <1>  -0.2400 
 19 H       -0.5110     0.9330    -1.0700 H     1 <1>   0.0800 
 20 H       -0.2130     2.3130    -0.0090 H     1 <1>   0.0800 
 21 H        1.5850     1.4400    -0.8290 H     1 <1>   0.4000 
 22 H       -3.7900     0.9380     1.3060 H     1 <1>   0.3700 
 23 H       -2.2750     0.2270     1.8000 H     1 <1>   0.3700 
 24 H        3.4920     1.3550    -2.7860 H     1 <1>   0.0800 
 25 H        4.9770     1.8750    -2.0350 H     1 <1>   0.0800 
 26 H        3.5160     2.7600    -1.7450 H     1 <1>   0.0800 
 27 H        6.0930     0.1100    -1.3380 H     1 <1>   0.0800 
 28 H        6.2880    -0.9720    -0.0140 H     1 <1>   0.0800 
 29 H        6.5150     0.9510     1.5370 H     1 <1>   0.0800 
 30 H        6.3940     2.0520     0.2000 H     1 <1>   0.0800 
 31 H        8.5690    -0.0320     0.5460 H     1 <1>   0.0800 
 32 H        8.6810     2.9610     0.9990 H     1 <1>   0.0800 
 33 H       10.0330     1.8590     1.1150 H     1 <1>   0.0800 
 34 H        8.7130     1.7370     2.2460 H     1 <1>   0.0800 
 35 H        8.3130     2.2180    -1.4770 H     1 <1>   0.0800 
 36 H        8.2800     0.5050    -1.8310 H     1 <1>   0.0800 
 37 H        9.7410     1.2400    -1.2500 H     1 <1>   0.0800 
@<TRIPOS>BOND
  1   1   2  1   
  2   1   3  1   
  3   2   4  2   
  4   2   5  1   
  5   3   6  1   
  6   3  19  1   
  7   3  20  1   
  8   4   7  1   
  9   5   8  1   
 10   5  21  1   
 11   6   9  2   
 12   6  10  am  
 13   7  11  2   
 14   7  12  1   
 15   8  12  2   
 16   8  13  1   
 17  10  22  1   
 18  10  23  1   
 19  12  14  1   
 20  13  24  1   
 21  13  25  1   
 22  13  26  1   
 23  14  15  1   
 24  14  27  1   
 25  14  28  1   
 26  15  16  1   
 27  15  29  1   
 28  15  30  1   
 29  16  17  1   
 30  16  18  1   
 31  16  31  1   
 32  17  32  1   
 33  17  33  1   
 34  17  34  1   
 35  18  35  1   
 36  18  36  1   
 37  18  37  1   
@<TRIPOS>SUBSTRUCTURE
  1 ****   8 GROUP 4 **** **** 0

# MOE 2024.06 (io_trps.svl 2023.06)
