@<TRIPOS>MOLECULE
NONAME
40 42 1 0 0 
SMALL
USER_CHARGES


@<TRIPOS>ATOM
  1 S        0.1740    -0.3060    -0.9740 S.3   1 <1>  -0.0800 
  2 C        1.5150     0.4810    -0.1240 C.2   1 <1>   0.1040 
  3 C       -0.8730     1.0440    -0.6140 C.2   1 <1>  -0.1400 
  4 N        2.7350    -0.1690     0.0070 N.am  1 <1>  -0.4940 
  5 C        1.1350     1.7050     0.3690 C.2   1 <1>  -0.0860 
  6 C       -0.2440     1.9800     0.0740 C.2   1 <1>  -0.1810 
  7 C       -2.3090     1.2940    -0.9410 C.3   1 <1>   0.0200 
  8 C        3.3010    -1.2360    -0.6580 C.2   1 <1>   0.5440 
  9 C        1.9680     2.6230     1.1000 C.2   1 <1>   0.7160 
 10 C       -1.1740     3.1250     0.3800 C.3   1 <1>   0.0210 
 11 C       -2.5090     2.6890    -0.2930 C.3   1 <1>  -0.1600 
 12 O        2.8190    -1.6160    -1.7050 O.2   1 <1>  -0.5700 
 13 C        4.4780    -1.9030    -0.1300 C.ar  1 <1>   0.0860 
 14 O        1.5230     3.2110     2.0720 O.2   1 <1>  -0.5700 
 15 N        3.2830     2.8600     0.7330 N.am  1 <1>  -0.6600 
 16 C        5.4310    -1.2890     0.6890 C.ar  1 <1>   0.1900 
 17 C        4.7210    -3.2460    -0.4360 C.ar  1 <1>  -0.1500 
 18 C        4.2390     3.5250     1.6610 C.3   1 <1>   0.0600 
 19 C        3.7500     2.7790    -0.6810 C.3   1 <1>   0.0600 
 20 F        5.3010    -0.0310     1.0120 F     1 <1>  -0.1900 
 21 C        6.5420    -1.9450     1.1870 C.ar  1 <1>  -0.1500 
 22 C        5.8270    -3.9220     0.0500 C.ar  1 <1>  -0.1500 
 23 C        6.7410    -3.2740     0.8650 C.ar  1 <1>  -0.1500 
 24 H        3.3590     0.2610     0.6940 H     1 <1>   0.3700 
 25 H       -2.9360     0.5470    -0.4860 H     1 <1>   0.0800 
 26 H       -2.4590     1.3190    -2.0050 H     1 <1>   0.0800 
 27 H       -0.7990     4.0400    -0.0440 H     1 <1>   0.0800 
 28 H       -1.2880     3.2360     1.4440 H     1 <1>   0.0800 
 29 H       -3.2920     2.6440     0.4430 H     1 <1>   0.0800 
 30 H       -2.7860     3.4040    -1.0470 H     1 <1>   0.0800 
 31 H        4.0220    -3.7680    -1.0710 H     1 <1>   0.1500 
 32 H        3.9080     3.4190     2.6810 H     1 <1>   0.0800 
 33 H        4.3040     4.5720     1.4260 H     1 <1>   0.0800 
 34 H        5.2120     3.0760     1.5680 H     1 <1>   0.0800 
 35 H        2.9430     2.5100    -1.3410 H     1 <1>   0.0800 
 36 H        4.5290     2.0420    -0.7670 H     1 <1>   0.0800 
 37 H        4.1360     3.7340    -0.9920 H     1 <1>   0.0800 
 38 H        7.2410    -1.4220     1.8160 H     1 <1>   0.1500 
 39 H        5.9790    -4.9570    -0.2070 H     1 <1>   0.1500 
 40 H        7.6010    -3.8040     1.2420 H     1 <1>   0.1500 
@<TRIPOS>BOND
  1   1   2  1   
  2   1   3  1   
  3   2   4  1   
  4   2   5  2   
  5   3   6  2   
  6   3   7  1   
  7   4   8  am  
  8   4  24  1   
  9   5   6  1   
 10   5   9  1   
 11   6  10  1   
 12   7  11  1   
 13   7  25  1   
 14   7  26  1   
 15   8  12  2   
 16   8  13  1   
 17   9  14  2   
 18   9  15  am  
 19  10  11  1   
 20  10  27  1   
 21  10  28  1   
 22  11  29  1   
 23  11  30  1   
 24  13  16  ar  
 25  13  17  ar  
 26  15  18  1   
 27  15  19  1   
 28  16  20  1   
 29  16  21  ar  
 30  17  22  ar  
 31  17  31  1   
 32  18  32  1   
 33  18  33  1   
 34  18  34  1   
 35  19  35  1   
 36  19  36  1   
 37  19  37  1   
 38  21  23  ar  
 39  21  38  1   
 40  22  23  ar  
 41  22  39  1   
 42  23  40  1   
@<TRIPOS>SUBSTRUCTURE
  1 ****   4 GROUP 4 **** **** 0

# MOE 2024.06 (io_trps.svl 2023.06)
