@<TRIPOS>MOLECULE
NONAME
30 30 1 0 0 
SMALL
USER_CHARGES


@<TRIPOS>ATOM
  1 O       -2.8900     2.5450     1.1090 O.2   1 <1>  -0.5700 
  2 C       -3.3360     2.8370     0.0270 C.2   1 <1>   0.6590 
  3 O       -2.7010     3.6120    -0.8360 O.3   1 <1>  -0.4300 
  4 C       -4.6920     2.3130    -0.4130 C.3   1 <1>  -0.0190 
  5 C       -1.4280     4.1690    -0.5820 C.3   1 <1>   0.1200 
  6 C       -4.9240     0.8910     0.1300 C.3   1 <1>   0.4230 
  7 C       -5.8400     3.2860    -0.0370 C.3   1 <1>  -0.1600 
  8 C       -0.3560     3.1520    -0.9710 C.3   1 <1>  -0.2400 
  9 N       -5.0090     0.9050     1.6070 N.4   1 <1>  -0.8530 
 10 C       -6.2260     0.2940    -0.4330 C.3   1 <1>  -0.1600 
 11 C       -7.2200     2.6070     0.0720 C.3   1 <1>  -0.1600 
 12 C       -7.3120     1.3360    -0.7810 C.3   1 <1>  -0.1600 
 13 H       -4.6620     2.2360    -1.4860 H     1 <1>   0.0800 
 14 H       -1.3340     5.0580    -1.1820 H     1 <1>   0.0800 
 15 H       -1.3560     4.4390     0.4590 H     1 <1>   0.0800 
 16 H       -4.0950     0.2650    -0.1640 H     1 <1>   0.0800 
 17 H       -5.6230     3.7820     0.8950 H     1 <1>   0.0800 
 18 H       -5.8850     4.0540    -0.7920 H     1 <1>   0.0800 
 19 H       -0.4530     2.8850    -2.0080 H     1 <1>   0.0800 
 20 H       -0.4300     2.2710    -0.3580 H     1 <1>   0.0800 
 21 H        0.6180     3.5830    -0.8220 H     1 <1>   0.0800 
 22 H       -5.8340     1.4300     1.9070 H     1 <1>   0.4500 
 23 H       -4.1680     1.3930     1.9660 H     1 <1>   0.4500 
 24 H       -5.0370    -0.0390     2.0010 H     1 <1>   0.4500 
 25 H       -5.9870    -0.2320    -1.3420 H     1 <1>   0.0800 
 26 H       -6.6260    -0.4390     0.2450 H     1 <1>   0.0800 
 27 H       -7.4340     2.3620     1.0970 H     1 <1>   0.0800 
 28 H       -7.9810     3.3040    -0.2430 H     1 <1>   0.0800 
 29 H       -7.2100     1.6180    -1.8170 H     1 <1>   0.0800 
 30 H       -8.2890     0.8930    -0.6740 H     1 <1>   0.0800 
@<TRIPOS>BOND
  1   1   2  2   
  2   2   3  1   
  3   2   4  1   
  4   3   5  1   
  5   4   6  1   
  6   4   7  1   
  7   4  13  1   
  8   5   8  1   
  9   5  14  1   
 10   5  15  1   
 11   6   9  1   
 12   6  10  1   
 13   6  16  1   
 14   7  11  1   
 15   7  17  1   
 16   7  18  1   
 17   8  19  1   
 18   8  20  1   
 19   8  21  1   
 20   9  22  1   
 21   9  23  1   
 22   9  24  1   
 23  10  12  1   
 24  10  25  1   
 25  10  26  1   
 26  11  12  1   
 27  11  27  1   
 28  11  28  1   
 29  12  29  1   
 30  12  30  1   
@<TRIPOS>SUBSTRUCTURE
  1 ****   4 GROUP 4 **** **** 0

# MOE 2024.06 (io_trps.svl 2023.06)
