@<TRIPOS>MOLECULE
NONAME
39 40 1 0 0 
SMALL
USER_CHARGES


@<TRIPOS>ATOM
  1 F       -1.8230     0.3580    -2.2270 F     1 <1>  -0.1900 
  2 C       -2.3760     0.9010    -1.1770 C.ar  1 <1>   0.1900 
  3 C       -3.6030     0.4230    -0.7570 C.ar  1 <1>  -0.1500 
  4 C       -1.7210     1.9290    -0.5310 C.ar  1 <1>  -0.1500 
  5 C       -4.2040     1.0030     0.3520 C.ar  1 <1>  -0.1440 
  6 C       -2.3190     2.4980     0.5810 C.ar  1 <1>  -0.1500 
  7 C       -3.5520     2.0360     1.0190 C.ar  1 <1>  -0.1500 
  8 C       -5.5610     0.5200     0.8270 C.3   1 <1>   0.4870 
  9 N       -6.5940     0.9870    -0.1380 N.4   1 <1>  -0.9590 
 10 C       -6.6620     2.4960    -0.1860 C.3   1 <1>   0.3430 
 11 C       -7.9400     0.3730     0.1500 C.3   1 <1>   0.3430 
 12 C       -7.7340     2.9960    -1.1700 C.3   1 <1>   0.1400 
 13 C       -9.0270     0.8640    -0.8270 C.3   1 <1>   0.1400 
 14 N       -9.0470     2.3550    -0.8700 N.am  1 <1>  -0.6600 
 15 C      -10.1400     3.1030    -0.5120 C.2   1 <1>   0.7800 
 16 O      -10.0880     4.3110    -0.4110 O.2   1 <1>  -0.5700 
 17 O      -11.2710     2.4550    -0.2440 O.3   1 <1>  -0.4300 
 18 C      -12.4390     3.1590     0.1160 C.3   1 <1>   0.1200 
 19 C      -13.5500     2.1430     0.3580 C.3   1 <1>  -0.2400 
 20 H       -4.0530    -0.3890    -1.3000 H     1 <1>   0.1500 
 21 H       -0.7650     2.2710    -0.8890 H     1 <1>   0.1500 
 22 H       -1.8210     3.2970     1.1040 H     1 <1>   0.1500 
 23 H       -3.9900     2.4950     1.8900 H     1 <1>   0.1500 
 24 H       -5.7670     0.9070     1.8120 H     1 <1>   0.0800 
 25 H       -5.5570    -0.5570     0.8770 H     1 <1>   0.0800 
 26 H       -6.2880     0.6780    -1.0690 H     1 <1>   0.4500 
 27 H       -5.7050     2.8990    -0.4790 H     1 <1>   0.0800 
 28 H       -6.8950     2.8820     0.7920 H     1 <1>   0.0800 
 29 H       -8.2480     0.6310     1.1500 H     1 <1>   0.0800 
 30 H       -7.8760    -0.7010     0.0910 H     1 <1>   0.0800 
 31 H       -7.4450     2.7610    -2.1800 H     1 <1>   0.0800 
 32 H       -7.8070     4.0680    -1.0970 H     1 <1>   0.0800 
 33 H       -9.9810     0.4750    -0.5150 H     1 <1>   0.0800 
 34 H       -8.8320     0.4840    -1.8150 H     1 <1>   0.0800 
 35 H      -12.6960     3.8290    -0.6880 H     1 <1>   0.0800 
 36 H      -12.2350     3.7280     1.0080 H     1 <1>   0.0800 
 37 H      -13.7380     1.5780    -0.5380 H     1 <1>   0.0800 
 38 H      -14.4540     2.6550     0.6330 H     1 <1>   0.0800 
 39 H      -13.2790     1.4760     1.1560 H     1 <1>   0.0800 
@<TRIPOS>BOND
  1   1   2  1   
  2   2   3  ar  
  3   2   4  ar  
  4   3   5  ar  
  5   3  20  1   
  6   4   6  ar  
  7   4  21  1   
  8   5   7  ar  
  9   5   8  1   
 10   6   7  ar  
 11   6  22  1   
 12   7  23  1   
 13   8   9  1   
 14   8  24  1   
 15   8  25  1   
 16   9  10  1   
 17   9  11  1   
 18   9  26  1   
 19  10  12  1   
 20  10  27  1   
 21  10  28  1   
 22  11  13  1   
 23  11  29  1   
 24  11  30  1   
 25  12  14  1   
 26  12  31  1   
 27  12  32  1   
 28  13  14  1   
 29  13  33  1   
 30  13  34  1   
 31  14  15  am  
 32  15  16  2   
 33  15  17  1   
 34  17  18  1   
 35  18  19  1   
 36  18  35  1   
 37  18  36  1   
 38  19  37  1   
 39  19  38  1   
 40  19  39  1   
@<TRIPOS>SUBSTRUCTURE
  1 ****  10 GROUP 4 **** **** 0

# MOE 2024.06 (io_trps.svl 2023.06)
