@<TRIPOS>MOLECULE
NONAME
42 44 1 0 0 
SMALL
USER_CHARGES


@<TRIPOS>ATOM
  1 O        0.2830    -0.3640    -0.6700 O.2   1 <1>  -0.5700 
  2 C       -0.6510    -1.0760    -0.4140 C.2   1 <1>   0.6590 
  3 O       -0.7180    -2.3660    -0.6940 O.3   1 <1>  -0.4300 
  4 C       -1.9530    -0.6970     0.2880 C.3   1 <1>   0.0610 
  5 C       -1.9790    -2.8550    -0.2350 C.3   1 <1>   0.3410 
  6 C       -2.9010    -1.6360    -0.4840 C.3   1 <1>   0.0000 
  7 C       -1.8310    -1.3670     1.6750 C.3   1 <1>  -0.1600 
  8 C       -2.3070     0.8000     0.3330 C.3   1 <1>  -0.2400 
  9 C       -2.4080    -4.1750    -0.9070 C.2   1 <1>   0.6590 
 10 C       -1.8300    -2.8720     1.3110 C.3   1 <1>  -0.1600 
 11 C       -4.3400    -1.7470     0.0910 C.3   1 <1>  -0.2400 
 12 C       -3.0680    -1.2800    -1.9870 C.3   1 <1>  -0.2400 
 13 O       -1.9950    -4.5140    -1.9880 O.2   1 <1>  -0.5700 
 14 O       -3.2950    -4.8930    -0.2160 O.3   1 <1>  -0.2330 
 15 C       -3.8240    -6.1090    -0.5190 C.ar  1 <1>   0.0820 
 16 C       -3.1270    -7.0890    -1.2160 C.ar  1 <1>  -0.1500 
 17 C       -5.1140    -6.3670    -0.0800 C.ar  1 <1>  -0.1500 
 18 C       -3.7260    -8.3090    -1.4760 C.ar  1 <1>  -0.1500 
 19 C       -5.7130    -7.5880    -0.3390 C.ar  1 <1>  -0.1500 
 20 C       -5.0170    -8.5680    -1.0430 C.ar  1 <1>   0.0820 
 21 O       -5.5270    -9.7910    -1.3400 O.3   1 <1>  -0.3630 
 22 C       -6.8360   -10.1500    -0.9580 C.3   1 <1>   0.0400 
 23 H       -2.6600    -1.1150     2.3130 H     1 <1>   0.0800 
 24 H       -0.9150    -1.0790     2.1650 H     1 <1>   0.0800 
 25 H       -1.5560     1.3350     0.8880 H     1 <1>   0.0800 
 26 H       -3.2600     0.9530     0.8060 H     1 <1>   0.0800 
 27 H       -2.3400     1.2080    -0.6610 H     1 <1>   0.0800 
 28 H       -0.9160    -3.3620     1.6010 H     1 <1>   0.0800 
 29 H       -2.6550    -3.3720     1.7860 H     1 <1>   0.0800 
 30 H       -4.3760    -2.0080     1.1320 H     1 <1>   0.0800 
 31 H       -4.8970    -2.4930    -0.4470 H     1 <1>   0.0800 
 32 H       -4.8540    -0.8080    -0.0240 H     1 <1>   0.0800 
 33 H       -2.1320    -1.1950    -2.5110 H     1 <1>   0.0800 
 34 H       -3.5900    -0.3450    -2.0970 H     1 <1>   0.0800 
 35 H       -3.6420    -2.0390    -2.4890 H     1 <1>   0.0800 
 36 H       -2.1210    -6.9180    -1.5570 H     1 <1>   0.1500 
 37 H       -5.6500    -5.6110     0.4650 H     1 <1>   0.1500 
 38 H       -3.1950    -9.0710    -2.0170 H     1 <1>   0.1500 
 39 H       -6.7130    -7.7580     0.0110 H     1 <1>   0.1500 
 40 H       -7.0210   -11.1520    -1.3030 H     1 <1>   0.0800 
 41 H       -7.5330    -9.4710    -1.4170 H     1 <1>   0.0800 
 42 H       -6.9090   -10.1140     0.1150 H     1 <1>   0.0800 
@<TRIPOS>BOND
  1   1   2  2   
  2   2   3  1   
  3   2   4  1   
  4   3   5  1   
  5   4   6  1   
  6   4   7  1   
  7   4   8  1   
  8   5   6  1   
  9   5   9  1   
 10   5  10  1   
 11   6  11  1   
 12   6  12  1   
 13   7  10  1   
 14   7  23  1   
 15   7  24  1   
 16   8  25  1   
 17   8  26  1   
 18   8  27  1   
 19   9  13  2   
 20   9  14  1   
 21  10  28  1   
 22  10  29  1   
 23  11  30  1   
 24  11  31  1   
 25  11  32  1   
 26  12  33  1   
 27  12  34  1   
 28  12  35  1   
 29  14  15  1   
 30  15  16  ar  
 31  15  17  ar  
 32  16  18  ar  
 33  16  36  1   
 34  17  19  ar  
 35  17  37  1   
 36  18  20  ar  
 37  18  38  1   
 38  19  20  ar  
 39  19  39  1   
 40  20  21  1   
 41  21  22  1   
 42  22  40  1   
 43  22  41  1   
 44  22  42  1   
@<TRIPOS>SUBSTRUCTURE
  1 ****  14 GROUP 4 **** **** 0

# MOE 2024.06 (io_trps.svl 2023.06)
