@<TRIPOS>MOLECULE
NONAME
44 44 1 0 0 
SMALL
USER_CHARGES


@<TRIPOS>ATOM
  1 O        0.7400    -0.3450     1.1450 O.2   1 <1>  -0.5700 
  2 C        0.4560    -1.5170     0.9800 C.2   1 <1>   0.5440 
  3 N       -0.6780    -1.9470     1.6020 N.am  1 <1>  -0.4300 
  4 C        1.3250    -2.3820     0.1990 C.ar  1 <1>   0.0860 
  5 N       -1.2710    -3.2950     1.6240 N.am  1 <1>  -0.4300 
  6 C        2.7090    -2.3080     0.3630 C.ar  1 <1>  -0.1500 
  7 C        0.8430    -3.3010    -0.7340 C.ar  1 <1>  -0.1500 
  8 C       -2.3200    -3.7530     0.8970 C.2   1 <1>   0.5690 
  9 C        3.5760    -3.1190    -0.3490 C.ar  1 <1>  -0.1430 
 10 C        1.6970    -4.1190    -1.4490 C.ar  1 <1>  -0.1500 
 11 O       -2.6790    -4.9020     1.0010 O.2   1 <1>  -0.5700 
 12 C       -3.0660    -2.8330    -0.0570 C.3   1 <1>  -0.0990 
 13 C        3.0630    -4.0300    -1.2560 C.ar  1 <1>  -0.1500 
 14 C        5.0770    -3.0190    -0.1450 C.3   1 <1>  -0.0970 
 15 C       -4.1430    -2.0100     0.6660 C.3   1 <1>  -0.1600 
 16 C       -4.8750    -1.0760    -0.3050 C.3   1 <1>  -0.1600 
 17 C       -5.9450    -0.2540     0.4240 C.3   1 <1>  -0.1600 
 18 C       -6.6760     0.6840    -0.5440 C.3   1 <1>  -0.1600 
 19 C       -7.7440     1.5070     0.1850 C.3   1 <1>  -0.1600 
 20 C       -8.4730     2.4430    -0.7810 C.3   1 <1>  -0.2400 
 21 H       -1.1360    -1.2300     2.1770 H     1 <1>   0.3700 
 22 H       -0.8530    -3.9770     2.2690 H     1 <1>   0.3700 
 23 H        3.1020    -1.5950     1.0670 H     1 <1>   0.1500 
 24 H       -0.2130    -3.3780    -0.9080 H     1 <1>   0.1500 
 25 H        1.3020    -4.8250    -2.1590 H     1 <1>   0.1500 
 26 H       -3.5270    -3.4380    -0.8170 H     1 <1>   0.0800 
 27 H       -2.3660    -2.1760    -0.5400 H     1 <1>   0.0800 
 28 H        3.7250    -4.6700    -1.8140 H     1 <1>   0.1500 
 29 H        5.3310    -2.1280     0.4020 H     1 <1>   0.0800 
 30 H        5.5780    -2.9860    -1.0960 H     1 <1>   0.0800 
 31 H        5.4290    -3.8730     0.4050 H     1 <1>   0.0800 
 32 H       -3.6850    -1.4270     1.4460 H     1 <1>   0.0800 
 33 H       -4.8510    -2.6810     1.1240 H     1 <1>   0.0800 
 34 H       -5.3410    -1.6580    -1.0820 H     1 <1>   0.0800 
 35 H       -4.1660    -0.4080    -0.7660 H     1 <1>   0.0800 
 36 H       -5.4820     0.3280     1.2030 H     1 <1>   0.0800 
 37 H       -6.6580    -0.9190     0.8810 H     1 <1>   0.0800 
 38 H       -7.1410     0.1040    -1.3230 H     1 <1>   0.0800 
 39 H       -5.9650     1.3510    -1.0030 H     1 <1>   0.0800 
 40 H       -7.2830     2.0900     0.9640 H     1 <1>   0.0800 
 41 H       -8.4590     0.8450     0.6440 H     1 <1>   0.0800 
 42 H       -7.7800     3.1300    -1.2360 H     1 <1>   0.0800 
 43 H       -9.2180     3.0110    -0.2510 H     1 <1>   0.0800 
 44 H       -8.9610     1.8790    -1.5560 H     1 <1>   0.0800 
@<TRIPOS>BOND
  1   1   2  2   
  2   2   3  am  
  3   2   4  1   
  4   3   5  1   
  5   3  21  1   
  6   4   6  ar  
  7   4   7  ar  
  8   5   8  am  
  9   5  22  1   
 10   6   9  ar  
 11   6  23  1   
 12   7  10  ar  
 13   7  24  1   
 14   8  11  2   
 15   8  12  1   
 16   9  13  ar  
 17   9  14  1   
 18  10  13  ar  
 19  10  25  1   
 20  12  15  1   
 21  12  26  1   
 22  12  27  1   
 23  13  28  1   
 24  14  29  1   
 25  14  30  1   
 26  14  31  1   
 27  15  16  1   
 28  15  32  1   
 29  15  33  1   
 30  16  17  1   
 31  16  34  1   
 32  16  35  1   
 33  17  18  1   
 34  17  36  1   
 35  17  37  1   
 36  18  19  1   
 37  18  38  1   
 38  18  39  1   
 39  19  20  1   
 40  19  40  1   
 41  19  41  1   
 42  20  42  1   
 43  20  43  1   
 44  20  44  1   
@<TRIPOS>SUBSTRUCTURE
  1 ****   3 GROUP 4 **** **** 0

# MOE 2024.06 (io_trps.svl 2023.06)
