@<TRIPOS>MOLECULE
NONAME
51 53 1 0 0 
SMALL
USER_CHARGES


@<TRIPOS>ATOM
  1 O       -2.1040    -0.3880    -1.8390 O.3   1 <1>  -0.3630 
  2 C       -2.4280    -0.9160    -0.6330 C.ar  1 <1>   0.0830 
  3 C       -1.7440     0.9750    -1.8760 C.3   1 <1>   0.1200 
  4 C       -1.5800    -1.8320    -0.0070 C.ar  1 <1>   0.0830 
  5 C       -3.6270    -0.5550    -0.0400 C.ar  1 <1>  -0.1500 
  6 C       -0.2970     1.1310    -1.4070 C.3   1 <1>  -0.2400 
  7 O       -0.4120    -2.1610    -0.6310 O.3   1 <1>  -0.3620 
  8 C       -1.9560    -2.3640     1.2230 C.ar  1 <1>  -0.1500 
  9 C       -4.0010    -1.0930     1.1810 C.ar  1 <1>  -0.1440 
 10 C        0.4950    -3.0800    -0.0670 C.3   1 <1>   0.0400 
 11 C       -3.1560    -1.9950     1.8100 C.ar  1 <1>  -0.1500 
 12 C       -5.3320    -0.7020     1.8120 C.3   1 <1>   0.2530 
 13 N       -6.4650    -0.9400     0.8800 N.3   1 <1>  -0.8100 
 14 C       -7.7870    -0.5360     1.4220 C.3   1 <1>   0.1900 
 15 C       -6.4970    -2.3580     0.4430 C.3   1 <1>   0.1100 
 16 C       -8.9470    -0.8190     0.4100 C.3   1 <1>   0.4230 
 17 C       -7.7840     0.9460     1.8270 C.3   1 <1>  -0.2400 
 18 C       -7.5680    -2.5950    -0.6340 C.3   1 <1>   0.3430 
 19 N       -8.9460    -2.1970    -0.1750 N.4   1 <1>  -0.9590 
 20 C       -8.9890     0.0850    -0.8230 C.3   1 <1>  -0.1600 
 21 C       -9.8780    -2.1380    -1.3280 C.3   1 <1>   0.3430 
 22 C       -9.7480    -0.7200    -1.8830 C.3   1 <1>  -0.1600 
 23 H       -2.4190     1.5390    -1.2560 H     1 <1>   0.0800 
 24 H       -1.8420     1.3050    -2.8950 H     1 <1>   0.0800 
 25 H       -4.2760     0.1390    -0.5430 H     1 <1>   0.1500 
 26 H       -0.2030     0.8330    -0.3780 H     1 <1>   0.0800 
 27 H        0.0060     2.1580    -1.4940 H     1 <1>   0.0800 
 28 H        0.3520     0.5260    -2.0130 H     1 <1>   0.0800 
 29 H       -1.3300    -3.0650     1.7400 H     1 <1>   0.1500 
 30 H        1.3280    -3.1790    -0.7390 H     1 <1>   0.0800 
 31 H        0.0030    -4.0290     0.0470 H     1 <1>   0.0800 
 32 H        0.8330    -2.7000     0.8800 H     1 <1>   0.0800 
 33 H       -3.4250    -2.4190     2.7620 H     1 <1>   0.1500 
 34 H       -5.2670     0.3430     2.0570 H     1 <1>   0.0800 
 35 H       -5.4860    -1.2530     2.7240 H     1 <1>   0.0800 
 36 H       -7.9870    -1.1150     2.3080 H     1 <1>   0.0800 
 37 H       -6.6720    -3.0040     1.2860 H     1 <1>   0.0800 
 38 H       -5.5500    -2.6330     0.0110 H     1 <1>   0.0800 
 39 H       -9.8770    -0.6780     0.9350 H     1 <1>   0.0800 
 40 H       -7.3850     1.5580     1.0370 H     1 <1>   0.0800 
 41 H       -7.2040     1.1000     2.7190 H     1 <1>   0.0800 
 42 H       -8.7840     1.2770     2.0450 H     1 <1>   0.0800 
 43 H       -7.5620    -3.6340    -0.9180 H     1 <1>   0.0800 
 44 H       -7.2940    -2.0150    -1.5000 H     1 <1>   0.0800 
 45 H       -9.2690    -2.8680     0.5320 H     1 <1>   0.4500 
 46 H       -7.9860     0.2900    -1.1590 H     1 <1>   0.0800 
 47 H       -9.4740     1.0200    -0.6040 H     1 <1>   0.0800 
 48 H      -10.8890    -2.2940    -0.9870 H     1 <1>   0.0800 
 49 H       -9.6400    -2.8800    -2.0740 H     1 <1>   0.0800 
 50 H       -9.2080    -0.7280    -2.8130 H     1 <1>   0.0800 
 51 H      -10.7270    -0.3080    -2.0610 H     1 <1>   0.0800 
@<TRIPOS>BOND
  1   1   2  1   
  2   1   3  1   
  3   2   4  ar  
  4   2   5  ar  
  5   3   6  1   
  6   3  23  1   
  7   3  24  1   
  8   4   7  1   
  9   4   8  ar  
 10   5   9  ar  
 11   5  25  1   
 12   6  26  1   
 13   6  27  1   
 14   6  28  1   
 15   7  10  1   
 16   8  11  ar  
 17   8  29  1   
 18   9  11  ar  
 19   9  12  1   
 20  10  30  1   
 21  10  31  1   
 22  10  32  1   
 23  11  33  1   
 24  12  13  1   
 25  12  34  1   
 26  12  35  1   
 27  13  14  1   
 28  13  15  1   
 29  14  16  1   
 30  14  17  1   
 31  14  36  1   
 32  15  18  1   
 33  15  37  1   
 34  15  38  1   
 35  16  19  1   
 36  16  20  1   
 37  16  39  1   
 38  17  40  1   
 39  17  41  1   
 40  17  42  1   
 41  18  19  1   
 42  18  43  1   
 43  18  44  1   
 44  19  21  1   
 45  19  45  1   
 46  20  22  1   
 47  20  46  1   
 48  20  47  1   
 49  21  22  1   
 50  21  48  1   
 51  21  49  1   
 52  22  50  1   
 53  22  51  1   
@<TRIPOS>SUBSTRUCTURE
  1 ****   5 GROUP 4 **** **** 0

# MOE 2024.06 (io_trps.svl 2023.06)
