@<TRIPOS>MOLECULE
NONAME
55 59 1 0 0 
SMALL
USER_CHARGES


@<TRIPOS>ATOM
  1 S       -0.1830    -0.3290    -1.9000 S.3   1 <1>  -0.2860 
  2 C       -1.0630     0.6370    -0.6800 C.2   1 <1>   0.5340 
  3 C        1.4490    -0.6870    -1.0890 C.3   1 <1>   0.1310 
  4 O       -2.1430     1.2460    -1.0260 O.3   1 <1>  -0.2800 
  5 N       -0.7240     0.8170     0.5380 N.2   1 <1>  -0.3380 
  6 C        2.3200     0.5600    -1.0860 C.2   1 <1>   0.5690 
  7 C       -2.4820     1.8610     0.0670 C.2   1 <1>   0.2980 
  8 N       -1.6590     1.6320     1.0290 N.2   1 <1>  -0.3380 
  9 O        3.2470     0.6220    -1.8560 O.2   1 <1>  -0.5700 
 10 N        2.0330     1.5640    -0.2180 N.am  1 <1>  -0.7300 
 11 C       -3.7390     2.7400     0.0820 C.3   1 <1>   0.1800 
 12 C        2.6720     2.8840    -0.1840 C.3   1 <1>   0.2200 
 13 C       -3.9640     3.3790     1.4750 C.3   1 <1>  -0.1600 
 14 C       -4.9850     1.8930    -0.2710 C.3   1 <1>  -0.1600 
 15 C       -3.6020     3.8770    -0.9580 C.3   1 <1>  -0.1600 
 16 C        3.2200     3.1310     1.2240 C.3   1 <1>  -0.1600 
 17 C        1.6230     3.9340    -0.5650 C.3   1 <1>  -0.1600 
 18 C       -5.2280     4.2600     1.4760 C.3   1 <1>  -0.0800 
 19 C       -6.2540     2.7670    -0.2810 C.3   1 <1>  -0.0800 
 20 C       -4.8640     4.7600    -0.9710 C.3   1 <1>  -0.0800 
 21 C        3.7870     4.5520     1.3590 C.3   1 <1>  -0.1600 
 22 C        2.1860     5.3570    -0.4330 C.3   1 <1>  -0.1600 
 23 C       -6.4470     3.3930     1.1120 C.3   1 <1>  -0.1600 
 24 C       -5.0660     5.3750     0.4260 C.3   1 <1>  -0.1600 
 25 C       -6.0860     3.8900    -1.3220 C.3   1 <1>  -0.1600 
 26 C        2.7380     5.6050     0.9770 C.3   1 <1>  -0.1600 
 27 H        1.9190    -1.4670    -1.6580 H     1 <1>   0.0800 
 28 H        1.2540    -1.0270    -0.0890 H     1 <1>   0.0800 
 29 H        1.2160     1.4810     0.3980 H     1 <1>   0.3700 
 30 H        3.4840     2.9160    -0.8940 H     1 <1>   0.0800 
 31 H       -3.1100     3.9770     1.7430 H     1 <1>   0.0800 
 32 H       -4.0650     2.6070     2.2170 H     1 <1>   0.0800 
 33 H       -5.0970     1.0990     0.4460 H     1 <1>   0.0800 
 34 H       -4.8560     1.4410    -1.2390 H     1 <1>   0.0800 
 35 H       -3.4500     3.4580    -1.9380 H     1 <1>   0.0800 
 36 H       -2.7410     4.4780    -0.7240 H     1 <1>   0.0800 
 37 H        3.9970     2.4160     1.4320 H     1 <1>   0.0800 
 38 H        2.4320     2.9990     1.9450 H     1 <1>   0.0800 
 39 H        0.7660     3.8360     0.0790 H     1 <1>   0.0800 
 40 H        1.3090     3.7690    -1.5800 H     1 <1>   0.0800 
 41 H       -5.3680     4.6960     2.4510 H     1 <1>   0.0800 
 42 H       -7.1100     2.1640    -0.5310 H     1 <1>   0.0800 
 43 H       -4.7540     5.5440    -1.7010 H     1 <1>   0.0800 
 44 H        4.6450     4.6550     0.7170 H     1 <1>   0.0800 
 45 H        4.1120     4.7160     2.3720 H     1 <1>   0.0800 
 46 H        1.4120     6.0730    -0.6500 H     1 <1>   0.0800 
 47 H        2.9750     5.4960    -1.1540 H     1 <1>   0.0800 
 48 H       -7.3380     3.9980     1.1190 H     1 <1>   0.0800 
 49 H       -6.5760     2.6170     1.8470 H     1 <1>   0.0800 
 50 H       -4.2230     5.9950     0.6780 H     1 <1>   0.0800 
 51 H       -5.9410     6.0020     0.4240 H     1 <1>   0.0800 
 52 H       -6.9720     4.5000    -1.3440 H     1 <1>   0.0800 
 53 H       -5.9610     3.4630    -2.3030 H     1 <1>   0.0800 
 54 H        3.1790     6.5860     1.0240 H     1 <1>   0.0800 
 55 H        1.9280     5.5740     1.6870 H     1 <1>   0.0800 
@<TRIPOS>BOND
  1   1   2  1   
  2   1   3  1   
  3   2   4  1   
  4   2   5  2   
  5   3   6  1   
  6   3  27  1   
  7   3  28  1   
  8   4   7  1   
  9   5   8  1   
 10   6   9  2   
 11   6  10  am  
 12   7   8  2   
 13   7  11  1   
 14  10  12  1   
 15  10  29  1   
 16  11  13  1   
 17  11  14  1   
 18  11  15  1   
 19  12  16  1   
 20  12  17  1   
 21  12  30  1   
 22  13  18  1   
 23  13  31  1   
 24  13  32  1   
 25  14  19  1   
 26  14  33  1   
 27  14  34  1   
 28  15  20  1   
 29  15  35  1   
 30  15  36  1   
 31  16  21  1   
 32  16  37  1   
 33  16  38  1   
 34  17  22  1   
 35  17  39  1   
 36  17  40  1   
 37  18  23  1   
 38  18  24  1   
 39  18  41  1   
 40  19  23  1   
 41  19  25  1   
 42  19  42  1   
 43  20  24  1   
 44  20  25  1   
 45  20  43  1   
 46  21  26  1   
 47  21  44  1   
 48  21  45  1   
 49  22  26  1   
 50  22  46  1   
 51  22  47  1   
 52  23  48  1   
 53  23  49  1   
 54  24  50  1   
 55  24  51  1   
 56  25  52  1   
 57  25  53  1   
 58  26  54  1   
 59  26  55  1   
@<TRIPOS>SUBSTRUCTURE
  1 ****   7 GROUP 4 **** **** 0

# MOE 2024.06 (io_trps.svl 2023.06)
