@<TRIPOS>MOLECULE
NONAME
38 38 1 0 0 
SMALL
USER_CHARGES


@<TRIPOS>ATOM
  1 S       -0.0140     0.0780    -0.9310 S.o2  1 <1>   1.3330 
  2 O       -0.7120     1.2850    -1.2890 O.2   1 <1>  -0.6500 
  3 O        0.7980    -0.6390    -1.8800 O.2   1 <1>  -0.6500 
  4 N       -1.2630    -0.9760    -0.4080 N.am  1 <1>  -0.7570 
  5 C        0.8990     0.3630     0.5700 C.3   1 <1>  -0.1350 
  6 C       -1.2520    -2.3580    -0.2650 C.ar  1 <1>   0.1990 
  7 C       -2.4620    -3.0230    -0.1540 C.ar  1 <1>  -0.1500 
  8 C       -0.0810    -3.1010    -0.2190 C.ar  1 <1>  -0.1500 
  9 C       -2.5370    -4.4060    -0.0020 C.ar  1 <1>   0.0860 
 10 C       -0.0900    -4.4860    -0.0640 C.ar  1 <1>   0.0860 
 11 C       -3.8100    -5.0970     0.1120 C.2   1 <1>   0.6340 
 12 C       -1.3330    -5.1070     0.0390 C.ar  1 <1>  -0.1500 
 13 C        1.1400    -5.2570    -0.0100 C.2   1 <1>   0.6340 
 14 O       -3.9050    -6.2970     0.2560 O.2   1 <1>  -0.5700 
 15 O       -4.9250    -4.3640     0.0570 O.3   1 <1>  -0.4300 
 16 O        1.1630    -6.4690     0.0230 O.2   1 <1>  -0.5700 
 17 O        2.2960    -4.5890     0.0120 O.3   1 <1>  -0.4300 
 18 C       -6.2020    -4.9520     0.1570 C.3   1 <1>   0.1200 
 19 C        3.5370    -5.2560     0.0450 C.3   1 <1>   0.1200 
 20 C       -7.2430    -3.8410     0.0560 C.3   1 <1>  -0.2400 
 21 C        4.6390    -4.2020     0.0510 C.3   1 <1>  -0.2400 
 22 H       -2.1580    -0.5100    -0.5430 H     1 <1>   0.4200 
 23 H        0.2570     0.7790     1.3210 H     1 <1>   0.0800 
 24 H        1.7000     1.0520     0.3850 H     1 <1>   0.0800 
 25 H        1.3130    -0.5550     0.9360 H     1 <1>   0.0800 
 26 H       -3.3700    -2.4490    -0.1890 H     1 <1>   0.1500 
 27 H        0.8650    -2.6020    -0.3120 H     1 <1>   0.1500 
 28 H       -1.3640    -6.1790     0.1560 H     1 <1>   0.1500 
 29 H       -6.2710    -5.4620     1.1040 H     1 <1>   0.0800 
 30 H       -6.3150    -5.6630    -0.6450 H     1 <1>   0.0800 
 31 H        3.6090    -5.8860    -0.8260 H     1 <1>   0.0800 
 32 H        3.5750    -5.8630     0.9350 H     1 <1>   0.0800 
 33 H       -7.1120    -3.1350     0.8560 H     1 <1>   0.0800 
 34 H       -8.2290    -4.2620     0.1290 H     1 <1>   0.0800 
 35 H       -7.1560    -3.3360    -0.8900 H     1 <1>   0.0800 
 36 H        4.5780    -3.5970    -0.8360 H     1 <1>   0.0800 
 37 H        5.6000    -4.6830     0.0710 H     1 <1>   0.0800 
 38 H        4.5510    -3.5770     0.9220 H     1 <1>   0.0800 
@<TRIPOS>BOND
  1   1   2  2   
  2   1   3  2   
  3   1   4  am  
  4   1   5  1   
  5   4   6  1   
  6   4  22  1   
  7   5  23  1   
  8   5  24  1   
  9   5  25  1   
 10   6   7  ar  
 11   6   8  ar  
 12   7   9  ar  
 13   7  26  1   
 14   8  10  ar  
 15   8  27  1   
 16   9  11  1   
 17   9  12  ar  
 18  10  12  ar  
 19  10  13  1   
 20  11  14  2   
 21  11  15  1   
 22  12  28  1   
 23  13  16  2   
 24  13  17  1   
 25  15  18  1   
 26  17  19  1   
 27  18  20  1   
 28  18  29  1   
 29  18  30  1   
 30  19  21  1   
 31  19  31  1   
 32  19  32  1   
 33  20  33  1   
 34  20  34  1   
 35  20  35  1   
 36  21  36  1   
 37  21  37  1   
 38  21  38  1   
@<TRIPOS>SUBSTRUCTURE
  1 ****   8 GROUP 4 **** **** 0

# MOE 2024.06 (io_trps.svl 2023.06)
