@<TRIPOS>MOLECULE
NONAME
40 42 1 0 0 
SMALL
USER_CHARGES


@<TRIPOS>ATOM
  1 O       -1.1660     1.1700    -2.1760 O.2   1 <1>  -0.5700 
  2 C       -1.4950     1.5800    -1.0900 C.2   1 <1>   0.5690 
  3 N       -0.7810     2.3880    -0.2560 N.am  1 <1>  -0.0840 
  4 C       -2.8100     1.2030    -0.4410 C.3   1 <1>  -0.0990 
  5 O        0.4220     3.0100    -0.6190 O.3   1 <1>  -0.3160 
  6 C       -1.4110     2.5980     0.9340 C.2   1 <1>   0.5690 
  7 C       -2.7530     1.8960     0.9380 C.3   1 <1>  -0.0990 
  8 C        1.5150     2.1990    -0.2560 C.3   1 <1>   0.1200 
  9 O       -0.9980     3.2140     1.8860 O.2   1 <1>  -0.5700 
 10 C        2.7990     2.9150    -0.6690 C.3   1 <1>  -0.1600 
 11 C        4.0240     2.0820    -0.3000 C.3   1 <1>   0.1200 
 12 O        5.1740     2.7880    -0.7030 O.3   1 <1>  -0.3630 
 13 C        6.4160     2.2810    -0.5020 C.ar  1 <1>   0.0820 
 14 C        6.6600     1.0500     0.1090 C.ar  1 <1>  -0.1500 
 15 C        7.4830     3.0550    -0.9410 C.ar  1 <1>  -0.1500 
 16 C        7.9670     0.6270     0.2640 C.ar  1 <1>  -0.1440 
 17 C        8.7880     2.6200    -0.7800 C.ar  1 <1>  -0.1500 
 18 C        9.0150     1.3990    -0.1730 C.ar  1 <1>  -0.1440 
 19 C        8.4570    -0.6550     0.8910 C.3   1 <1>  -0.0170 
 20 C       10.3400     0.7340     0.1040 C.3   1 <1>  -0.0170 
 21 C        9.9440    -0.7000     0.4980 C.3   1 <1>  -0.1600 
 22 H       -2.8770     0.1340    -0.3450 H     1 <1>   0.0800 
 23 H       -3.6280     1.5700    -1.0350 H     1 <1>   0.0800 
 24 H       -2.7910     1.1830     1.7420 H     1 <1>   0.0800 
 25 H       -3.5420     2.6180     1.0500 H     1 <1>   0.0800 
 26 H        1.4240     1.2550    -0.7680 H     1 <1>   0.0800 
 27 H        1.4890     2.0490     0.8110 H     1 <1>   0.0800 
 28 H        2.8520     3.8640    -0.1640 H     1 <1>   0.0800 
 29 H        2.7880     3.0740    -1.7330 H     1 <1>   0.0800 
 30 H        4.0120     1.1360    -0.8150 H     1 <1>   0.0800 
 31 H        4.0780     1.9310     0.7640 H     1 <1>   0.0800 
 32 H        5.8650     0.4240     0.4610 H     1 <1>   0.1500 
 33 H        7.2800     4.0000    -1.4100 H     1 <1>   0.1500 
 34 H        9.6110     3.2220    -1.1210 H     1 <1>   0.1500 
 35 H        7.9230    -1.5090     0.5150 H     1 <1>   0.0800 
 36 H        8.3480    -0.5940     1.9590 H     1 <1>   0.0800 
 37 H       10.8260     1.2340     0.9230 H     1 <1>   0.0800 
 38 H       10.9760     0.7450    -0.7630 H     1 <1>   0.0800 
 39 H       10.0540    -1.3360    -0.3630 H     1 <1>   0.0800 
 40 H       10.5570    -1.0790     1.2960 H     1 <1>   0.0800 
@<TRIPOS>BOND
  1   1   2  2   
  2   2   3  am  
  3   2   4  1   
  4   3   5  1   
  5   3   6  am  
  6   4   7  1   
  7   4  22  1   
  8   4  23  1   
  9   5   8  1   
 10   6   7  1   
 11   6   9  2   
 12   7  24  1   
 13   7  25  1   
 14   8  10  1   
 15   8  26  1   
 16   8  27  1   
 17  10  11  1   
 18  10  28  1   
 19  10  29  1   
 20  11  12  1   
 21  11  30  1   
 22  11  31  1   
 23  12  13  1   
 24  13  14  ar  
 25  13  15  ar  
 26  14  16  ar  
 27  14  32  1   
 28  15  17  ar  
 29  15  33  1   
 30  16  18  ar  
 31  16  19  1   
 32  17  18  ar  
 33  17  34  1   
 34  18  20  1   
 35  19  21  1   
 36  19  35  1   
 37  19  36  1   
 38  20  21  1   
 39  20  37  1   
 40  20  38  1   
 41  21  39  1   
 42  21  40  1   
@<TRIPOS>SUBSTRUCTURE
  1 ****  11 GROUP 4 **** **** 0

# MOE 2024.06 (io_trps.svl 2023.06)
