@<TRIPOS>MOLECULE
NONAME
30 31 1 0 0 
SMALL
USER_CHARGES


@<TRIPOS>ATOM
  1 S       -0.1560     0.0160    -0.8200 S.3   1 <1>  -0.3320 
  2 C        1.3610     0.8920    -0.3960 C.ar  1 <1>   0.1020 
  3 C       -1.4940     0.7440     0.2260 C.3   1 <1>   0.0700 
  4 C        1.3910     1.9030     0.5520 C.ar  1 <1>  -0.1500 
  5 C        2.5120     0.5110    -1.0630 C.ar  1 <1>  -0.1500 
  6 C       -2.7950     0.0230    -0.1090 C.3   1 <1>   0.1200 
  7 C        2.5920     2.5350     0.8310 C.ar  1 <1>  -0.1500 
  8 C        3.7090     1.1470    -0.7800 C.ar  1 <1>  -0.1500 
  9 O       -3.8210     0.5750     0.6870 O.3   1 <1>  -0.3160 
 10 C        3.7480     2.1580     0.1660 C.ar  1 <1>  -0.1500 
 11 N       -5.0390    -0.0630     0.4080 N.am  1 <1>  -0.0850 
 12 C       -5.4990    -1.1470     1.0950 C.2   1 <1>   0.5690 
 13 C       -5.9300     0.3850    -0.5210 C.2   1 <1>   0.5690 
 14 O       -4.9190    -1.7780     1.9440 O.2   1 <1>  -0.5700 
 15 C       -6.8920    -1.5030     0.6220 C.3   1 <1>  -0.0990 
 16 O       -5.7840     1.2950    -1.3000 O.2   1 <1>  -0.5700 
 17 C       -7.1860    -0.4600    -0.4790 C.3   1 <1>  -0.0990 
 18 H       -1.5560     1.7900    -0.0140 H     1 <1>   0.0800 
 19 H       -1.2180     0.5910     1.2540 H     1 <1>   0.0800 
 20 H        0.5070     2.2070     1.0760 H     1 <1>   0.1500 
 21 H        2.4680    -0.2750    -1.7950 H     1 <1>   0.1500 
 22 H       -2.7100    -1.0260     0.1160 H     1 <1>   0.0800 
 23 H       -3.0470     0.1680    -1.1460 H     1 <1>   0.0800 
 24 H        2.6280     3.3210     1.5650 H     1 <1>   0.1500 
 25 H        4.6080     0.8550    -1.2960 H     1 <1>   0.1500 
 26 H        4.6790     2.6520     0.3850 H     1 <1>   0.1500 
 27 H       -7.5870    -1.4220     1.4390 H     1 <1>   0.0800 
 28 H       -6.9010    -2.5050     0.2310 H     1 <1>   0.0800 
 29 H       -7.3460    -0.9260    -1.4350 H     1 <1>   0.0800 
 30 H       -8.0310     0.1550    -0.2260 H     1 <1>   0.0800 
@<TRIPOS>BOND
  1   1   2  1   
  2   1   3  1   
  3   2   4  ar  
  4   2   5  ar  
  5   3   6  1   
  6   3  18  1   
  7   3  19  1   
  8   4   7  ar  
  9   4  20  1   
 10   5   8  ar  
 11   5  21  1   
 12   6   9  1   
 13   6  22  1   
 14   6  23  1   
 15   7  10  ar  
 16   7  24  1   
 17   8  10  ar  
 18   8  25  1   
 19   9  11  1   
 20  10  26  1   
 21  11  12  am  
 22  11  13  am  
 23  12  14  2   
 24  12  15  1   
 25  13  16  2   
 26  13  17  1   
 27  15  17  1   
 28  15  27  1   
 29  15  28  1   
 30  17  29  1   
 31  17  30  1   
@<TRIPOS>SUBSTRUCTURE
  1 ****   3 GROUP 4 **** **** 0

# MOE 2024.06 (io_trps.svl 2023.06)
