@<TRIPOS>MOLECULE
NONAME
43 44 1 0 0 
SMALL
USER_CHARGES


@<TRIPOS>ATOM
  1 O       -0.5400     0.3350     0.4870 O.2   1 <1>  -0.5700 
  2 C       -0.5640     1.5480     0.3960 C.2   1 <1>   0.7800 
  3 O        0.5680     2.2150     0.1690 O.3   1 <1>  -0.4300 
  4 N       -1.7190     2.2720     0.5110 N.am  1 <1>  -0.6600 
  5 C        1.7960     1.5350     0.0440 C.3   1 <1>   0.1200 
  6 C       -1.7930     3.7530     0.3300 C.3   1 <1>   0.1400 
  7 C       -3.0420     1.6200     0.7380 C.3   1 <1>   0.1400 
  8 C        2.8870     2.5690    -0.2110 C.3   1 <1>  -0.2400 
  9 C       -2.7730     4.1070    -0.7980 C.3   1 <1>   0.1400 
 10 C       -4.0380     1.9860    -0.3760 C.3   1 <1>   0.1400 
 11 N       -4.1080     3.4690    -0.5690 N.am  1 <1>  -0.6600 
 12 C       -5.2290     4.2230    -0.2900 C.2   1 <1>   0.5440 
 13 O       -5.0830     5.3910     0.0200 O.2   1 <1>  -0.5700 
 14 C       -6.5680     3.6660    -0.3400 C.ar  1 <1>   0.0860 
 15 C       -7.4900     3.9280     0.6740 C.ar  1 <1>  -0.1500 
 16 C       -6.9920     2.8620    -1.3990 C.ar  1 <1>  -0.1500 
 17 C       -8.7700     3.4050     0.6470 C.ar  1 <1>  -0.1500 
 18 C       -8.2690     2.3320    -1.4340 C.ar  1 <1>  -0.1500 
 19 C       -9.1680     2.5950    -0.4130 C.ar  1 <1>   0.0820 
 20 O      -10.3950     2.0410    -0.5240 O.3   1 <1>  -0.3630 
 21 C      -11.4170     2.3070     0.4110 C.3   1 <1>   0.3200 
 22 C      -12.6460     1.5750    -0.0070 C.1   1 <1>  -0.2000 
 23 C      -13.6270     0.9900    -0.3410 C.1   1 <1>  -0.1770 
 24 H        1.7200     0.8420    -0.7770 H     1 <1>   0.0800 
 25 H        1.9800     0.9950     0.9580 H     1 <1>   0.0800 
 26 H       -0.8260     4.1620     0.1000 H     1 <1>   0.0800 
 27 H       -2.1330     4.2050     1.2450 H     1 <1>   0.0800 
 28 H       -3.4350     1.9470     1.6850 H     1 <1>   0.0800 
 29 H       -2.9350     0.5490     0.7800 H     1 <1>   0.0800 
 30 H        2.6830     3.1060    -1.1200 H     1 <1>   0.0800 
 31 H        3.8370     2.0770    -0.3090 H     1 <1>   0.0800 
 32 H        2.9420     3.2590     0.6120 H     1 <1>   0.0800 
 33 H       -2.3730     3.7610    -1.7350 H     1 <1>   0.0800 
 34 H       -2.8690     5.1770    -0.8620 H     1 <1>   0.0800 
 35 H       -5.0020     1.5880    -0.1180 H     1 <1>   0.0800 
 36 H       -3.7230     1.5240    -1.2960 H     1 <1>   0.0800 
 37 H       -7.1870     4.5610     1.4910 H     1 <1>   0.1500 
 38 H       -6.3100     2.6580    -2.2060 H     1 <1>   0.1500 
 39 H       -9.4360     3.6390     1.4560 H     1 <1>   0.1500 
 40 H       -8.5820     1.7120    -2.2560 H     1 <1>   0.1500 
 41 H      -11.5990     3.3670     0.4250 H     1 <1>   0.0800 
 42 H      -11.0920     1.9670     1.3780 H     1 <1>   0.0800 
 43 H      -14.5100     0.4590    -0.6500 H     1 <1>   0.1770 
@<TRIPOS>BOND
  1   1   2  2   
  2   2   3  1   
  3   2   4  am  
  4   3   5  1   
  5   4   6  1   
  6   4   7  1   
  7   5   8  1   
  8   5  24  1   
  9   5  25  1   
 10   6   9  1   
 11   6  26  1   
 12   6  27  1   
 13   7  10  1   
 14   7  28  1   
 15   7  29  1   
 16   8  30  1   
 17   8  31  1   
 18   8  32  1   
 19   9  11  1   
 20   9  33  1   
 21   9  34  1   
 22  10  11  1   
 23  10  35  1   
 24  10  36  1   
 25  11  12  am  
 26  12  13  2   
 27  12  14  1   
 28  14  15  ar  
 29  14  16  ar  
 30  15  17  ar  
 31  15  37  1   
 32  16  18  ar  
 33  16  38  1   
 34  17  19  ar  
 35  17  39  1   
 36  18  19  ar  
 37  18  40  1   
 38  19  20  1   
 39  20  21  1   
 40  21  22  1   
 41  21  41  1   
 42  21  42  1   
 43  22  23  3   
 44  23  43  1   
@<TRIPOS>SUBSTRUCTURE
  1 ****  10 GROUP 4 **** **** 0

# MOE 2024.06 (io_trps.svl 2023.06)
