@<TRIPOS>MOLECULE
NONAME
28 29 1 0 0 
SMALL
USER_CHARGES


@<TRIPOS>ATOM
  1 O       -0.5860    -0.3800     0.4290 O.3   1 <1>  -0.8290 
  2 C       -1.7140    -0.8140     0.0970 C.ar  1 <1>   0.1390 
  3 N       -1.7850    -1.8730    -0.7410 N.ar  1 <1>  -0.3100 
  4 C       -2.8500    -0.1960     0.5980 C.ar  1 <1>  -0.1500 
  5 N       -2.9550    -2.3390    -1.0950 N.ar  1 <1>  -0.3100 
  6 C       -4.0900    -0.6710     0.2360 C.ar  1 <1>   0.0860 
  7 C       -4.0570    -1.7720    -0.6280 C.ar  1 <1>   0.1660 
  8 C       -5.3240    -0.0790     0.7100 C.2   1 <1>   0.3030 
  9 C       -5.3510    -2.4020    -1.1130 C.3   1 <1>  -0.0160 
 10 N       -5.3430     0.9510     1.4850 N.2   1 <1>  -0.5030 
 11 C       -6.6310    -0.7200     0.2210 C.3   1 <1>  -0.0990 
 12 C       -6.5080    -2.2150    -0.1180 C.3   1 <1>   0.0000 
 13 N       -6.5050     1.5400     1.8920 N.pl3 1 <1>  -0.5690 
 14 C       -7.8180    -2.7060    -0.7560 C.3   1 <1>  -0.2400 
 15 C       -6.2580    -3.0360     1.1620 C.3   1 <1>  -0.2400 
 16 H       -2.7210     0.6400     1.2570 H     1 <1>   0.1500 
 17 H       -5.5990    -1.9520    -2.0570 H     1 <1>   0.0800 
 18 H       -5.1910    -3.4520    -1.2850 H     1 <1>   0.0800 
 19 H       -7.3990    -0.6150     0.9640 H     1 <1>   0.0800 
 20 H       -6.9440    -0.1770    -0.6530 H     1 <1>   0.0800 
 21 H       -7.4240     1.2730     1.5250 H     1 <1>   0.3110 
 22 H       -6.4820     2.3850     2.4770 H     1 <1>   0.3110 
 23 H       -7.7460    -3.7500    -1.0070 H     1 <1>   0.0800 
 24 H       -8.0350    -2.1570    -1.6550 H     1 <1>   0.0800 
 25 H       -8.6410    -2.5790    -0.0740 H     1 <1>   0.0800 
 26 H       -5.3480    -2.7350     1.6530 H     1 <1>   0.0800 
 27 H       -6.1740    -4.0830     0.9290 H     1 <1>   0.0800 
 28 H       -7.0670    -2.9090     1.8590 H     1 <1>   0.0800 
@<TRIPOS>BOND
  1   1   2  1   
  2   2   3  ar  
  3   2   4  ar  
  4   3   5  ar  
  5   4   6  ar  
  6   4  16  1   
  7   5   7  ar  
  8   6   7  ar  
  9   6   8  1   
 10   7   9  1   
 11   8  10  2   
 12   8  11  1   
 13   9  12  1   
 14   9  17  1   
 15   9  18  1   
 16  10  13  1   
 17  11  12  1   
 18  11  19  1   
 19  11  20  1   
 20  12  14  1   
 21  12  15  1   
 22  13  21  1   
 23  13  22  1   
 24  14  23  1   
 25  14  24  1   
 26  14  25  1   
 27  15  26  1   
 28  15  27  1   
 29  15  28  1   
@<TRIPOS>SUBSTRUCTURE
  1 ****   6 GROUP 4 **** **** 0

# MOE 2024.06 (io_trps.svl 2023.06)
