@<TRIPOS>MOLECULE
NONAME
48 50 1 0 0 
SMALL
USER_CHARGES


@<TRIPOS>ATOM
  1 CL       0.5650    -0.2330     1.5760 Cl    1 <1>  -0.1770 
  2 C        1.9120     0.6860     0.9360 C.ar  1 <1>   0.1770 
  3 C        1.6830     1.7630     0.0860 C.ar  1 <1>   0.0830 
  4 C        3.1890     0.3100     1.3000 C.ar  1 <1>  -0.1500 
  5 O        0.3940     2.0780    -0.2300 O.3   1 <1>  -0.3630 
  6 C        2.7830     2.4680    -0.3970 C.ar  1 <1>  -0.1500 
  7 C        4.2870     1.0110     0.8180 C.ar  1 <1>   0.1990 
  8 C        0.0920     3.1720    -1.0680 C.3   1 <1>   0.0400 
  9 C        4.0640     2.0910    -0.0320 C.ar  1 <1>  -0.1500 
 10 N        5.5830     0.6470     1.1810 N.am  1 <1>  -0.6930 
 11 S        6.2640    -0.8950     0.7860 S.o2  1 <1>   1.3330 
 12 C        6.5040     1.6740     1.7640 C.3   1 <1>   0.2570 
 13 O        7.5630    -0.9490     1.4180 O.2   1 <1>  -0.6500 
 14 O        5.2760    -1.9080     1.0590 O.2   1 <1>  -0.6500 
 15 C        6.4840    -0.7580    -0.9750 C.3   1 <1>  -0.1350 
 16 C        7.5510     2.2090     0.7810 C.2   1 <1>   0.5690 
 17 O        7.3290     3.2480     0.2050 O.2   1 <1>  -0.5700 
 18 N        8.6970     1.5090     0.5730 N.am  1 <1>  -0.7300 
 19 C        9.8230     1.9420    -0.2780 C.3   1 <1>   0.2200 
 20 C       10.1170     0.9710    -1.4410 C.3   1 <1>  -0.0800 
 21 C       11.1430     1.9480     0.5080 C.3   1 <1>  -0.1600 
 22 C       11.5660     1.3270    -1.7390 C.3   1 <1>  -0.1600 
 23 C       10.2870    -0.4770    -0.9380 C.3   1 <1>  -0.1600 
 24 C       12.0580     1.0380    -0.3300 C.3   1 <1>  -0.0800 
 25 C       11.6000    -0.4170    -0.1400 C.3   1 <1>  -0.1600 
 26 H        3.3270    -0.5260     1.9610 H     1 <1>   0.1500 
 27 H        2.6640     3.3080    -1.0560 H     1 <1>   0.1500 
 28 H       -0.9770     3.2300    -1.1670 H     1 <1>   0.0800 
 29 H        0.5400     3.0080    -2.0320 H     1 <1>   0.0800 
 30 H        0.4660     4.0730    -0.6150 H     1 <1>   0.0800 
 31 H        4.9020     2.6440    -0.4170 H     1 <1>   0.1500 
 32 H        7.0090     1.2520     2.6140 H     1 <1>   0.0800 
 33 H        5.9230     2.5060     2.1190 H     1 <1>   0.0800 
 34 H        7.1130     0.0770    -1.2130 H     1 <1>   0.0800 
 35 H        5.5350    -0.6210    -1.4550 H     1 <1>   0.0800 
 36 H        6.9360    -1.6510    -1.3590 H     1 <1>   0.0800 
 37 H        8.8130     0.5860     1.0150 H     1 <1>   0.3700 
 38 H        9.6330     2.9280    -0.6710 H     1 <1>   0.0800 
 39 H        9.4500     1.0840    -2.2770 H     1 <1>   0.0800 
 40 H       11.0320     1.5890     1.5160 H     1 <1>   0.0800 
 41 H       11.5410     2.9470     0.5300 H     1 <1>   0.0800 
 42 H       11.6960     2.3590    -2.0230 H     1 <1>   0.0800 
 43 H       12.0140     0.6830    -2.4780 H     1 <1>   0.0800 
 44 H       10.3990    -1.1450    -1.7750 H     1 <1>   0.0800 
 45 H        9.4680    -0.8200    -0.3360 H     1 <1>   0.0800 
 46 H       13.1100     1.1950    -0.1640 H     1 <1>   0.0800 
 47 H       12.3220    -1.0960    -0.5610 H     1 <1>   0.0800 
 48 H       11.4530    -0.6600     0.8980 H     1 <1>   0.0800 
@<TRIPOS>BOND
  1   1   2  1   
  2   2   3  ar  
  3   2   4  ar  
  4   3   5  1   
  5   3   6  ar  
  6   4   7  ar  
  7   4  26  1   
  8   5   8  1   
  9   6   9  ar  
 10   6  27  1   
 11   7   9  ar  
 12   7  10  1   
 13   8  28  1   
 14   8  29  1   
 15   8  30  1   
 16   9  31  1   
 17  10  11  am  
 18  10  12  1   
 19  11  13  2   
 20  11  14  2   
 21  11  15  1   
 22  12  16  1   
 23  12  32  1   
 24  12  33  1   
 25  15  34  1   
 26  15  35  1   
 27  15  36  1   
 28  16  17  2   
 29  16  18  am  
 30  18  19  1   
 31  18  37  1   
 32  19  20  1   
 33  19  21  1   
 34  19  38  1   
 35  20  22  1   
 36  20  23  1   
 37  20  39  1   
 38  21  24  1   
 39  21  40  1   
 40  21  41  1   
 41  22  24  1   
 42  22  42  1   
 43  22  43  1   
 44  23  25  1   
 45  23  44  1   
 46  23  45  1   
 47  24  25  1   
 48  24  46  1   
 49  25  47  1   
 50  25  48  1   
@<TRIPOS>SUBSTRUCTURE
  1 ****  10 GROUP 4 **** **** 0

# MOE 2024.06 (io_trps.svl 2023.06)
