@<TRIPOS>MOLECULE
NONAME
42 43 1 0 0 
SMALL
USER_CHARGES


@<TRIPOS>ATOM
  1 S       -0.1430    -0.1090    -0.0450 S.o2  1 <1>   1.4470 
  2 O        0.3660     0.6310    -1.1810 O.2   1 <1>  -0.6500 
  3 O       -0.3140     0.5930     1.2090 O.2   1 <1>  -0.6500 
  4 N       -1.7110    -0.6080    -0.4670 N.am  1 <1>  -0.8490 
  5 C        0.8070    -1.6410     0.1370 C.ar  1 <1>  -0.0090 
  6 C       -2.4230     0.4950    -1.1670 C.3   1 <1>   0.2570 
  7 C       -2.4650    -1.1520     0.6730 C.3   1 <1>   0.1160 
  8 C        2.0490    -1.6240     0.7620 C.ar  1 <1>   0.0830 
  9 C        0.3570    -2.8590    -0.3630 C.ar  1 <1>  -0.1500 
 10 C       -3.9330     0.3250    -1.3840 C.2   1 <1>   0.5690 
 11 O        2.5500    -0.4690     1.2430 O.3   1 <1>  -0.3630 
 12 C        2.7960    -2.7820     0.9210 C.ar  1 <1>  -0.1500 
 13 C        1.0930    -4.0240    -0.2180 C.ar  1 <1>   0.0830 
 14 O       -4.3330    -0.2190    -2.3870 O.2   1 <1>  -0.5700 
 15 N       -4.7860     0.8080    -0.4340 N.am  1 <1>  -0.5790 
 16 C        3.4610     0.2110     0.4080 C.3   1 <1>   0.0400 
 17 C        2.3220    -3.9850     0.4330 C.ar  1 <1>  -0.1500 
 18 O        0.5480    -5.1540    -0.7350 O.3   1 <1>  -0.3630 
 19 C       -6.2510     0.7160    -0.4770 C.3   1 <1>   0.0490 
 20 C        1.2290    -6.3880    -0.6730 C.3   1 <1>   0.0400 
 21 C       -7.0420     1.8340     0.1150 C.3   1 <1>  -0.2000 
 22 C       -6.9770     0.5060     0.8100 C.3   1 <1>  -0.2000 
 23 H       -1.9750     0.6280    -2.1370 H     1 <1>   0.0800 
 24 H       -2.2730     1.4110    -0.6230 H     1 <1>   0.0800 
 25 H       -1.8880    -1.9140     1.1700 H     1 <1>   0.0800 
 26 H       -3.3830    -1.6020     0.3340 H     1 <1>   0.0800 
 27 H       -2.6890    -0.3760     1.3860 H     1 <1>   0.0800 
 28 H       -0.5830    -2.9170    -0.8820 H     1 <1>   0.1500 
 29 H        3.7430    -2.7340     1.4270 H     1 <1>   0.1500 
 30 H       -4.4120     1.2720     0.3930 H     1 <1>   0.3700 
 31 H        3.7440     1.1270     0.8960 H     1 <1>   0.0800 
 32 H        2.9830     0.4300    -0.5310 H     1 <1>   0.0800 
 33 H        4.3270    -0.4080     0.2540 H     1 <1>   0.0800 
 34 H        2.9150    -4.8690     0.5680 H     1 <1>   0.1500 
 35 H       -6.6250     0.2330    -1.3680 H     1 <1>   0.1000 
 36 H        0.6180    -7.1310    -1.1540 H     1 <1>   0.0800 
 37 H        1.3810    -6.6530     0.3580 H     1 <1>   0.0800 
 38 H        2.1670    -6.2970    -1.1910 H     1 <1>   0.0800 
 39 H       -7.9670     2.1150    -0.3560 H     1 <1>   0.1000 
 40 H       -6.5220     2.6740     0.5400 H     1 <1>   0.1000 
 41 H       -6.4140     0.4210     1.7220 H     1 <1>   0.1000 
 42 H       -7.8590    -0.1100     0.8080 H     1 <1>   0.1000 
@<TRIPOS>BOND
  1   1   2  2   
  2   1   3  2   
  3   1   4  am  
  4   1   5  1   
  5   4   6  1   
  6   4   7  1   
  7   5   8  ar  
  8   5   9  ar  
  9   6  10  1   
 10   6  23  1   
 11   6  24  1   
 12   7  25  1   
 13   7  26  1   
 14   7  27  1   
 15   8  11  1   
 16   8  12  ar  
 17   9  13  ar  
 18   9  28  1   
 19  10  14  2   
 20  10  15  am  
 21  11  16  1   
 22  12  17  ar  
 23  12  29  1   
 24  13  17  ar  
 25  13  18  1   
 26  15  19  1   
 27  15  30  1   
 28  16  31  1   
 29  16  32  1   
 30  16  33  1   
 31  17  34  1   
 32  18  20  1   
 33  19  21  1   
 34  19  22  1   
 35  19  35  1   
 36  20  36  1   
 37  20  37  1   
 38  20  38  1   
 39  21  22  1   
 40  21  39  1   
 41  21  40  1   
 42  22  41  1   
 43  22  42  1   
@<TRIPOS>SUBSTRUCTURE
  1 ****   4 GROUP 4 **** **** 0

# MOE 2024.06 (io_trps.svl 2023.06)
