@<TRIPOS>MOLECULE
NONAME
56 59 1 0 0 
SMALL
USER_CHARGES


@<TRIPOS>ATOM
  1 O        1.6110     1.0560    -1.5460 O.2   1 <1>  -0.5700 
  2 C        1.8040     0.7740    -0.3800 C.2   1 <1>   0.5440 
  3 N        1.3710     1.6370     0.5960 N.am  1 <1>  -0.4940 
  4 C        2.5460    -0.4120    -0.0070 C.ar  1 <1>   0.0860 
  5 C        0.4830     2.7210     0.4600 C.2   1 <1>  -0.0880 
  6 C        2.0050    -1.4300     0.7900 C.ar  1 <1>  -0.1430 
  7 C        3.8620    -0.5540    -0.4460 C.ar  1 <1>  -0.1500 
  8 N       -0.8270     2.6310     0.0780 N.pl3 1 <1>   0.5930 
  9 C        0.7440     4.0360     0.7300 C.2   1 <1>  -0.0860 
 10 C        2.7810    -2.5220     1.1470 C.ar  1 <1>  -0.1500 
 11 C        0.5560    -1.3800     1.2630 C.3   1 <1>  -0.0960 
 12 C        4.6300    -1.6460    -0.0900 C.ar  1 <1>  -0.1500 
 13 N       -1.4170     3.8570     0.1480 N.2   1 <1>  -0.7070 
 14 C       -1.5800     1.4440    -0.1290 C.ar  1 <1>  -0.0230 
 15 C        1.9460     4.7050     1.1310 C.2   1 <1>   0.7160 
 16 C       -0.4850     4.6650     0.5280 C.2   1 <1>   0.1390 
 17 C        4.0890    -2.6320     0.7130 C.ar  1 <1>  -0.1500 
 18 C       -2.3990     0.9480     0.8810 C.ar  1 <1>  -0.1500 
 19 C       -1.5140     0.7520    -1.3340 C.ar  1 <1>  -0.1500 
 20 O        1.8900     5.5250     2.0310 O.2   1 <1>  -0.5700 
 21 N        3.1640     4.4530     0.5280 N.am  1 <1>  -0.6600 
 22 C       -3.1210    -0.2180     0.6970 C.ar  1 <1>  -0.1500 
 23 C       -2.2350    -0.4140    -1.5200 C.ar  1 <1>  -0.1500 
 24 C        3.2850     3.8870    -0.8470 C.3   1 <1>   0.1400 
 25 C        4.4460     4.9340     1.1140 C.3   1 <1>   0.1400 
 26 C       -3.0380    -0.9010    -0.5040 C.ar  1 <1>  -0.1500 
 27 C        3.9310     4.9160    -1.7800 C.3   1 <1>  -0.1600 
 28 C        5.0830     5.9750     0.1900 C.3   1 <1>  -0.1600 
 29 C        5.2730     5.4250    -1.2320 C.3   1 <1>  -0.0800 
 30 C        5.8600     6.4990    -2.1530 C.3   1 <1>  -0.2400 
 31 H        1.8430     1.5350     1.4980 H     1 <1>   0.3700 
 32 H        4.2840     0.2070    -1.0790 H     1 <1>   0.1500 
 33 H        2.3700    -3.3030     1.7640 H     1 <1>   0.1500 
 34 H        0.4290    -0.6230     2.0150 H     1 <1>   0.0800 
 35 H        0.2520    -2.3240     1.6790 H     1 <1>   0.0800 
 36 H       -0.0960    -1.1620     0.4360 H     1 <1>   0.0800 
 37 H        5.6450    -1.7320    -0.4390 H     1 <1>   0.1500 
 38 H       -0.6360     5.7230     0.6790 H     1 <1>   0.1500 
 39 H        4.6820    -3.4850     0.9950 H     1 <1>   0.1500 
 40 H       -2.4720     1.4830     1.8130 H     1 <1>   0.1500 
 41 H       -0.8930     1.1280    -2.1300 H     1 <1>   0.1500 
 42 H       -3.7510    -0.5910     1.4860 H     1 <1>   0.1500 
 43 H       -2.1710    -0.9400    -2.4570 H     1 <1>   0.1500 
 44 H        2.3220     3.6200    -1.2460 H     1 <1>   0.0800 
 45 H        3.8890     2.9970    -0.8100 H     1 <1>   0.0800 
 46 H        5.1110     4.0970     1.2320 H     1 <1>   0.0800 
 47 H        4.2830     5.3660     2.0870 H     1 <1>   0.0800 
 48 H       -3.6000    -1.8080    -0.6500 H     1 <1>   0.1500 
 49 H        3.2500     5.7400    -1.9050 H     1 <1>   0.0800 
 50 H        4.0790     4.4660    -2.7450 H     1 <1>   0.0800 
 51 H        6.0340     6.2690     0.5970 H     1 <1>   0.0800 
 52 H        4.4520     6.8470     0.1680 H     1 <1>   0.0800 
 53 H        5.9630     4.5970    -1.1910 H     1 <1>   0.0800 
 54 H        5.1990     7.3460    -2.2190 H     1 <1>   0.0800 
 55 H        6.0100     6.1030    -3.1420 H     1 <1>   0.0800 
 56 H        6.8100     6.8350    -1.7770 H     1 <1>   0.0800 
@<TRIPOS>BOND
  1   1   2  2   
  2   2   3  am  
  3   2   4  1   
  4   3   5  1   
  5   3  31  1   
  6   4   6  ar  
  7   4   7  ar  
  8   5   8  1   
  9   5   9  2   
 10   6  10  ar  
 11   6  11  1   
 12   7  12  ar  
 13   7  32  1   
 14   8  13  1   
 15   8  14  1   
 16   9  15  1   
 17   9  16  1   
 18  10  17  ar  
 19  10  33  1   
 20  11  34  1   
 21  11  35  1   
 22  11  36  1   
 23  12  17  ar  
 24  12  37  1   
 25  13  16  2   
 26  14  18  ar  
 27  14  19  ar  
 28  15  20  2   
 29  15  21  am  
 30  16  38  1   
 31  17  39  1   
 32  18  22  ar  
 33  18  40  1   
 34  19  23  ar  
 35  19  41  1   
 36  21  24  1   
 37  21  25  1   
 38  22  26  ar  
 39  22  42  1   
 40  23  26  ar  
 41  23  43  1   
 42  24  27  1   
 43  24  44  1   
 44  24  45  1   
 45  25  28  1   
 46  25  46  1   
 47  25  47  1   
 48  26  48  1   
 49  27  29  1   
 50  27  49  1   
 51  27  50  1   
 52  28  29  1   
 53  28  51  1   
 54  28  52  1   
 55  29  30  1   
 56  29  53  1   
 57  30  54  1   
 58  30  55  1   
 59  30  56  1   
@<TRIPOS>SUBSTRUCTURE
  1 ****   3 GROUP 4 **** **** 0

# MOE 2024.06 (io_trps.svl 2023.06)
