@<TRIPOS>MOLECULE
NONAME
42 43 1 0 0 
SMALL
USER_CHARGES


@<TRIPOS>ATOM
  1 S       -0.0300     0.1470    -1.4580 S.3   1 <1>  -0.0800 
  2 C        0.9250     1.0380    -0.2870 C.2   1 <1>   0.1040 
  3 C       -1.4720     1.0750    -1.0900 C.2   1 <1>  -0.1400 
  4 N        2.2820     0.7710    -0.1590 N.am  1 <1>  -0.4940 
  5 C        0.1550     1.9750     0.3460 C.2   1 <1>  -0.0860 
  6 C       -1.2110     1.9880    -0.1330 C.2   1 <1>  -0.1810 
  7 C       -2.7050     0.6960    -1.8890 C.3   1 <1>  -0.0600 
  8 C        3.0550    -0.2990    -0.5520 C.2   1 <1>   0.5440 
  9 C        0.6540     2.8340     1.3870 C.2   1 <1>   0.7160 
 10 C       -2.2300     2.9670     0.4330 C.3   1 <1>  -0.0590 
 11 O        2.5490    -1.3640    -0.8380 O.2   1 <1>  -0.5700 
 12 C        4.4940    -0.1240    -0.5630 C.ar  1 <1>   0.0860 
 13 O        0.3630     4.0080     1.4860 O.2   1 <1>  -0.5700 
 14 N        1.4930     2.3530     2.3310 N.am  1 <1>  -0.8000 
 15 C        5.2980    -0.6930     0.4330 C.ar  1 <1>  -0.1430 
 16 C        5.1130     0.6470    -1.5570 C.ar  1 <1>  -0.1430 
 17 C        6.6650    -0.4770     0.4390 C.ar  1 <1>  -0.1500 
 18 C        4.6860    -1.5640     1.5240 C.3   1 <1>  -0.0970 
 19 C        6.4810     0.8540    -1.5320 C.ar  1 <1>  -0.1500 
 20 C        4.3000     1.2640    -2.6910 C.3   1 <1>  -0.0970 
 21 C        7.2640     0.2970    -0.5370 C.ar  1 <1>  -0.1430 
 22 C        8.7640     0.5310    -0.5200 C.3   1 <1>  -0.0970 
 23 H        2.8290     1.5180     0.2690 H     1 <1>   0.3700 
 24 H       -2.5060     0.8170    -2.9380 H     1 <1>   0.0800 
 25 H       -3.5450     1.3100    -1.6260 H     1 <1>   0.0800 
 26 H       -2.9550    -0.3320    -1.7010 H     1 <1>   0.0800 
 27 H       -3.2110     2.7880     0.0370 H     1 <1>   0.0800 
 28 H       -1.9460     3.9740     0.1870 H     1 <1>   0.0800 
 29 H       -2.2770     2.8740     1.5030 H     1 <1>   0.0800 
 30 H        1.7200     2.9600     3.1170 H     1 <1>   0.3700 
 31 H        1.5740     1.3480     2.4870 H     1 <1>   0.3700 
 32 H        7.2750    -0.9160     1.2090 H     1 <1>   0.1500 
 33 H        3.9460    -1.0110     2.0730 H     1 <1>   0.0800 
 34 H        5.4350    -1.9080     2.2140 H     1 <1>   0.0800 
 35 H        4.2160    -2.4260     1.0820 H     1 <1>   0.0800 
 36 H        6.9480     1.4510    -2.2950 H     1 <1>   0.1500 
 37 H        3.7060     2.0810    -2.3230 H     1 <1>   0.0800 
 38 H        3.6470     0.5270    -3.1250 H     1 <1>   0.0800 
 39 H        4.9430     1.6340    -3.4690 H     1 <1>   0.0800 
 40 H        9.2700    -0.3030    -0.0670 H     1 <1>   0.0800 
 41 H        8.9880     1.4200     0.0420 H     1 <1>   0.0800 
 42 H        9.1380     0.6480    -1.5210 H     1 <1>   0.0800 
@<TRIPOS>BOND
  1   1   2  1   
  2   1   3  1   
  3   2   4  1   
  4   2   5  2   
  5   3   6  2   
  6   3   7  1   
  7   4   8  am  
  8   4  23  1   
  9   5   6  1   
 10   5   9  1   
 11   6  10  1   
 12   7  24  1   
 13   7  25  1   
 14   7  26  1   
 15   8  11  2   
 16   8  12  1   
 17   9  13  2   
 18   9  14  am  
 19  10  27  1   
 20  10  28  1   
 21  10  29  1   
 22  12  15  ar  
 23  12  16  ar  
 24  14  30  1   
 25  14  31  1   
 26  15  17  ar  
 27  15  18  1   
 28  16  19  ar  
 29  16  20  1   
 30  17  21  ar  
 31  17  32  1   
 32  18  33  1   
 33  18  34  1   
 34  18  35  1   
 35  19  21  ar  
 36  19  36  1   
 37  20  37  1   
 38  20  38  1   
 39  20  39  1   
 40  21  22  1   
 41  22  40  1   
 42  22  41  1   
 43  22  42  1   
@<TRIPOS>SUBSTRUCTURE
  1 ****   4 GROUP 4 **** **** 0

# MOE 2024.06 (io_trps.svl 2023.06)
