@<TRIPOS>MOLECULE
NONAME
51 52 1 0 0 
SMALL
USER_CHARGES


@<TRIPOS>ATOM
  1 S       -0.1990     0.0350    -0.1980 S.o2  1 <1>   1.4470 
  2 O        0.2840     0.7850    -1.3380 O.2   1 <1>  -0.6500 
  3 O       -0.4630     0.7450     1.0370 O.2   1 <1>  -0.6500 
  4 N       -1.7230    -0.5630    -0.6540 N.am  1 <1>  -0.8490 
  5 C        0.8200    -1.4480     0.0380 C.ar  1 <1>  -0.0090 
  6 C       -2.4850     0.4950    -1.3740 C.3   1 <1>   0.2570 
  7 C       -2.4620    -1.1650     0.4670 C.3   1 <1>   0.1160 
  8 C        1.9910    -1.3890     0.7900 C.ar  1 <1>   0.0830 
  9 C        0.4790    -2.6630    -0.5460 C.ar  1 <1>  -0.1500 
 10 C       -3.9890     0.2630    -1.5750 C.2   1 <1>   0.5690 
 11 O        2.3300    -0.1860     1.3220 O.3   1 <1>  -0.3630 
 12 C        2.7740    -2.5280     0.9720 C.ar  1 <1>  -0.1500 
 13 C        1.2490    -3.7990    -0.3710 C.ar  1 <1>   0.0830 
 14 O       -4.3700    -0.2590    -2.5950 O.2   1 <1>  -0.5700 
 15 N       -4.8360     0.6860    -0.5790 N.am  1 <1>  -0.5470 
 16 C        3.5050     0.0010     2.0800 C.3   1 <1>   0.0400 
 17 C        2.4040    -3.7290     0.3980 C.ar  1 <1>  -0.1500 
 18 O        0.8100    -4.9320    -0.9770 O.3   1 <1>  -0.3630 
 19 C       -6.2260     0.5700    -0.4260 C.ar  1 <1>   0.1170 
 20 C        1.5510    -6.1300    -0.9120 C.3   1 <1>   0.0400 
 21 C       -6.8590     1.3830     0.5080 C.ar  1 <1>  -0.1500 
 22 C       -7.0040    -0.3310    -1.1450 C.ar  1 <1>  -0.1500 
 23 C       -8.2240     1.3020     0.7160 C.ar  1 <1>  -0.1500 
 24 C       -8.3700    -0.4130    -0.9400 C.ar  1 <1>  -0.1500 
 25 C       -8.9900     0.4030    -0.0080 C.ar  1 <1>  -0.1430 
 26 C      -10.4900     0.3110     0.2170 C.3   1 <1>  -0.0170 
 27 C      -10.8070    -0.7130     1.3090 C.3   1 <1>  -0.2400 
 28 H       -2.0470     0.6220    -2.3490 H     1 <1>   0.0800 
 29 H       -2.3680     1.4290    -0.8530 H     1 <1>   0.0800 
 30 H       -1.8480    -1.8970     0.9650 H     1 <1>   0.0800 
 31 H       -3.3440    -1.6670     0.1070 H     1 <1>   0.0800 
 32 H       -2.7470    -0.4150     1.1850 H     1 <1>   0.0800 
 33 H       -0.4020    -2.7400    -1.1580 H     1 <1>   0.1500 
 34 H        3.6750    -2.4990     1.5550 H     1 <1>   0.1500 
 35 H       -4.3790     1.1810     0.1850 H     1 <1>   0.3700 
 36 H        3.5480     1.0340     2.3770 H     1 <1>   0.0800 
 37 H        4.3580    -0.2380     1.4690 H     1 <1>   0.0800 
 38 H        3.4630    -0.6270     2.9520 H     1 <1>   0.0800 
 39 H        3.0240    -4.5920     0.5550 H     1 <1>   0.1500 
 40 H        1.0270    -6.8770    -1.4800 H     1 <1>   0.0800 
 41 H        1.6280    -6.4390     0.1150 H     1 <1>   0.0800 
 42 H        2.5240    -5.9630    -1.3410 H     1 <1>   0.0800 
 43 H       -6.2850     2.0890     1.0790 H     1 <1>   0.1500 
 44 H       -6.5510    -0.9810    -1.8710 H     1 <1>   0.1500 
 45 H       -8.6910     1.9410     1.4450 H     1 <1>   0.1500 
 46 H       -8.9490    -1.1180    -1.5100 H     1 <1>   0.1500 
 47 H      -10.9780     0.0250    -0.6980 H     1 <1>   0.0800 
 48 H      -10.8750     1.2750     0.5030 H     1 <1>   0.0800 
 49 H      -10.4390    -1.6830     1.0250 H     1 <1>   0.0800 
 50 H      -11.8690    -0.7750     1.4630 H     1 <1>   0.0800 
 51 H      -10.3390    -0.4250     2.2340 H     1 <1>   0.0800 
@<TRIPOS>BOND
  1   1   2  2   
  2   1   3  2   
  3   1   4  am  
  4   1   5  1   
  5   4   6  1   
  6   4   7  1   
  7   5   8  ar  
  8   5   9  ar  
  9   6  10  1   
 10   6  28  1   
 11   6  29  1   
 12   7  30  1   
 13   7  31  1   
 14   7  32  1   
 15   8  11  1   
 16   8  12  ar  
 17   9  13  ar  
 18   9  33  1   
 19  10  14  2   
 20  10  15  am  
 21  11  16  1   
 22  12  17  ar  
 23  12  34  1   
 24  13  17  ar  
 25  13  18  1   
 26  15  19  1   
 27  15  35  1   
 28  16  36  1   
 29  16  37  1   
 30  16  38  1   
 31  17  39  1   
 32  18  20  1   
 33  19  21  ar  
 34  19  22  ar  
 35  20  40  1   
 36  20  41  1   
 37  20  42  1   
 38  21  23  ar  
 39  21  43  1   
 40  22  24  ar  
 41  22  44  1   
 42  23  25  ar  
 43  23  45  1   
 44  24  25  ar  
 45  24  46  1   
 46  25  26  1   
 47  26  27  1   
 48  26  47  1   
 49  26  48  1   
 50  27  49  1   
 51  27  50  1   
 52  27  51  1   
@<TRIPOS>SUBSTRUCTURE
  1 ****   7 GROUP 4 **** **** 0

# MOE 2024.06 (io_trps.svl 2023.06)
