@<TRIPOS>MOLECULE
Structure915
20 21 1 0 0 
SMALL
USER_CHARGES


@<TRIPOS>ATOM
  1 CL      -0.1750     0.0170     0.3940 Cl    1 <1>  -0.1770 
  2 C       -1.6510     0.9100     0.2150 C.ar  1 <1>   0.7970 
  3 N       -2.7630     0.1910     0.2040 N.ar  1 <1>  -0.6200 
  4 N       -1.5230     2.2230     0.1080 N.ar  1 <1>  -0.6200 
  5 C       -3.8720     0.8730     0.0670 C.ar  1 <1>   0.1660 
  6 C       -2.6490     2.8820    -0.0270 C.ar  1 <1>   0.1600 
  7 C       -3.8720     2.2480    -0.0530 C.ar  1 <1>  -0.1440 
  8 C       -5.1580     0.0660     0.0670 C.3   1 <1>  -0.0160 
  9 C       -5.1510     3.0450    -0.2180 C.3   1 <1>   0.4870 
 10 C       -6.3610     0.8960    -0.3820 C.3   1 <1>   0.3430 
 11 N       -6.3210     2.2490     0.2480 N.4   1 <1>  -0.9060 
 12 H       -2.5760     3.9550    -0.1190 H     1 <1>   0.1500 
 13 H       -5.3290    -0.3180     1.0570 H     1 <1>   0.0800 
 14 H       -5.0500    -0.7790    -0.5900 H     1 <1>   0.0800 
 15 H       -5.2740     3.2990    -1.2590 H     1 <1>   0.0800 
 16 H       -5.0830     3.9620     0.3460 H     1 <1>   0.0800 
 17 H       -7.2710     0.3820    -0.1130 H     1 <1>   0.0800 
 18 H       -6.3380     0.9980    -1.4560 H     1 <1>   0.0800 
 19 H       -7.1910     2.7600     0.0490 H     1 <1>   0.4500 
 20 H       -6.2610     2.1430     1.2700 H     1 <1>   0.4500 
@<TRIPOS>BOND
  1   1   2  1   
  2   2   3  ar  
  3   2   4  ar  
  4   3   5  ar  
  5   4   6  ar  
  6   5   7  ar  
  7   5   8  1   
  8   6   7  ar  
  9   6  12  1   
 10   7   9  1   
 11   8  10  1   
 12   8  13  1   
 13   8  14  1   
 14   9  11  1   
 15   9  15  1   
 16   9  16  1   
 17  10  11  1   
 18  10  17  1   
 19  10  18  1   
 20  11  19  1   
 21  11  20  1   
@<TRIPOS>SUBSTRUCTURE
  1 ****   5 GROUP 4 **** **** 0

# MOE 2024.06 (io_trps.svl 2023.06)
