@<TRIPOS>MOLECULE
NONAME
35 36 1 0 0 
SMALL
USER_CHARGES


@<TRIPOS>ATOM
  1 S       -0.5240     0.3410     0.5330 S.3   1 <1>  -0.0800 
  2 C        1.0140     0.3620    -0.2740 C.2   1 <1>   0.4420 
  3 C       -0.9050    -1.0710    -0.3930 C.2   1 <1>   0.1980 
  4 N        1.1350    -0.6040    -1.1090 N.2   1 <1>  -0.3380 
  5 N        1.9690     1.3230    -0.0230 N.am  1 <1>  -0.4940 
  6 N        0.0400    -1.4190    -1.1710 N.2   1 <1>  -0.3380 
  7 C       -2.2540    -1.7300    -0.1780 C.3   1 <1>   0.3000 
  8 C        2.0040     2.3660     0.8550 C.2   1 <1>   0.5690 
  9 O       -3.2920    -0.8190    -0.4770 O.3   1 <1>  -0.3630 
 10 O        1.1230     2.6170     1.6350 O.2   1 <1>  -0.5700 
 11 C        3.2410     3.2470     0.8460 C.3   1 <1>  -0.0990 
 12 C       -4.5960    -1.1760    -0.3500 C.ar  1 <1>   0.0820 
 13 C        3.3980     4.0500    -0.4570 C.3   1 <1>  -0.2400 
 14 C       -5.5350    -0.1940    -0.6180 C.ar  1 <1>  -0.1500 
 15 C       -5.0230    -2.4480     0.0260 C.ar  1 <1>  -0.1500 
 16 C       -6.8870    -0.4710    -0.5120 C.ar  1 <1>  -0.1500 
 17 C       -6.3760    -2.7240     0.1310 C.ar  1 <1>  -0.1500 
 18 C       -7.3170    -1.7330    -0.1380 C.ar  1 <1>   0.0820 
 19 O       -8.6600    -1.9210    -0.0580 O.3   1 <1>  -0.3630 
 20 C       -9.2020    -3.1690     0.3120 C.3   1 <1>   0.0400 
 21 H        2.7890     1.2210    -0.6130 H     1 <1>   0.3700 
 22 H       -2.3540    -2.0350     0.8480 H     1 <1>   0.0800 
 23 H       -2.3500    -2.5790    -0.8310 H     1 <1>   0.0800 
 24 H        4.1090     2.6330     1.0040 H     1 <1>   0.0800 
 25 H        3.1750     3.9330     1.6720 H     1 <1>   0.0800 
 26 H        3.5130     3.3960    -1.3030 H     1 <1>   0.0800 
 27 H        4.2640     4.6850    -0.3950 H     1 <1>   0.0800 
 28 H        2.5310     4.6690    -0.6140 H     1 <1>   0.0800 
 29 H       -5.2030     0.7870    -0.9080 H     1 <1>   0.1500 
 30 H       -4.3260    -3.2360     0.2390 H     1 <1>   0.1500 
 31 H       -7.6160     0.2910    -0.7200 H     1 <1>   0.1500 
 32 H       -6.6800    -3.7110     0.4220 H     1 <1>   0.1500 
 33 H      -10.2740    -3.0810     0.3060 H     1 <1>   0.0800 
 34 H       -8.8620    -3.4190     1.3010 H     1 <1>   0.0800 
 35 H       -8.8930    -3.9100    -0.4040 H     1 <1>   0.0800 
@<TRIPOS>BOND
  1   1   2  1   
  2   1   3  1   
  3   2   4  2   
  4   2   5  1   
  5   3   6  2   
  6   3   7  1   
  7   4   6  1   
  8   5   8  am  
  9   5  21  1   
 10   7   9  1   
 11   7  22  1   
 12   7  23  1   
 13   8  10  2   
 14   8  11  1   
 15   9  12  1   
 16  11  13  1   
 17  11  24  1   
 18  11  25  1   
 19  12  14  ar  
 20  12  15  ar  
 21  13  26  1   
 22  13  27  1   
 23  13  28  1   
 24  14  16  ar  
 25  14  29  1   
 26  15  17  ar  
 27  15  30  1   
 28  16  18  ar  
 29  16  31  1   
 30  17  18  ar  
 31  17  32  1   
 32  18  19  1   
 33  19  20  1   
 34  20  33  1   
 35  20  34  1   
 36  20  35  1   
@<TRIPOS>SUBSTRUCTURE
  1 ****   9 GROUP 4 **** **** 0

# MOE 2024.06 (io_trps.svl 2023.06)
