@<TRIPOS>MOLECULE
NONAME
32 32 1 0 0 
SMALL
USER_CHARGES


@<TRIPOS>ATOM
  1 CL      -0.2500    -0.7060    -0.2030 Cl    1 <1>  -0.1770 
  2 C       -1.3960     0.6260    -0.1100 C.ar  1 <1>   0.1770 
  3 C       -2.7430     0.2950    -0.1320 C.ar  1 <1>   0.1770 
  4 C       -1.0150     1.9740    -0.0180 C.ar  1 <1>   0.0820 
  5 CL      -3.2500    -1.3760    -0.2470 Cl    1 <1>  -0.1770 
  6 C       -3.7250     1.2650    -0.0650 C.ar  1 <1>  -0.1500 
  7 O        0.2490     2.4870     0.0170 O.3   1 <1>  -0.3630 
  8 C       -2.0140     2.9380     0.0500 C.ar  1 <1>  -0.1500 
  9 C       -3.3560     2.5950     0.0270 C.ar  1 <1>  -0.1500 
 10 C        1.4240     1.7200    -0.0370 C.3   1 <1>   0.1200 
 11 C        2.6070     2.6850     0.0280 C.3   1 <1>  -0.1600 
 12 C        3.9240     1.9200    -0.0260 C.3   1 <1>   0.3430 
 13 N        5.0480     2.8860     0.0400 N.4   1 <1>  -0.9060 
 14 C        6.3750     2.2010    -0.0090 C.3   1 <1>   0.3430 
 15 C        7.5390     3.1980     0.0590 C.3   1 <1>   0.1200 
 16 O        8.7110     2.4690     0.0080 O.3   1 <1>  -0.6800 
 17 H       -4.7630     0.9810    -0.0840 H     1 <1>   0.1500 
 18 H       -1.7340     3.9740     0.1210 H     1 <1>   0.1500 
 19 H       -4.1100     3.3630     0.0800 H     1 <1>   0.1500 
 20 H        1.4250     1.1720    -0.9640 H     1 <1>   0.0800 
 21 H        1.4270     1.0500     0.8060 H     1 <1>   0.0800 
 22 H        2.5420     3.2400     0.9480 H     1 <1>   0.0800 
 23 H        2.5400     3.3610    -0.8070 H     1 <1>   0.0800 
 24 H        3.9770     1.3530    -0.9420 H     1 <1>   0.0800 
 25 H        3.9790     1.2320     0.8040 H     1 <1>   0.0800 
 26 H        4.9710     3.4340     0.9070 H     1 <1>   0.4500 
 27 H        4.9690     3.5480    -0.7440 H     1 <1>   0.4500 
 28 H        6.4600     1.6380    -0.9240 H     1 <1>   0.0800 
 29 H        6.4620     1.5180     0.8210 H     1 <1>   0.0800 
 30 H        7.5300     3.7490     0.9840 H     1 <1>   0.0800 
 31 H        7.5280     3.8710    -0.7820 H     1 <1>   0.0800 
 32 H        9.5060     3.0450     0.0470 H     1 <1>   0.4000 
@<TRIPOS>BOND
  1   1   2  1   
  2   2   3  ar  
  3   2   4  ar  
  4   3   5  1   
  5   3   6  ar  
  6   4   7  1   
  7   4   8  ar  
  8   6   9  ar  
  9   6  17  1   
 10   7  10  1   
 11   8   9  ar  
 12   8  18  1   
 13   9  19  1   
 14  10  11  1   
 15  10  20  1   
 16  10  21  1   
 17  11  12  1   
 18  11  22  1   
 19  11  23  1   
 20  12  13  1   
 21  12  24  1   
 22  12  25  1   
 23  13  14  1   
 24  13  26  1   
 25  13  27  1   
 26  14  15  1   
 27  14  28  1   
 28  14  29  1   
 29  15  16  1   
 30  15  30  1   
 31  15  31  1   
 32  16  32  1   
@<TRIPOS>SUBSTRUCTURE
  1 ****  10 GROUP 4 **** **** 0

# MOE 2024.06 (io_trps.svl 2023.06)
