@<TRIPOS>MOLECULE
NONAME
42 43 1 0 0 
SMALL
USER_CHARGES


@<TRIPOS>ATOM
  1 CL       0.3180    -0.0580     1.4540 Cl    1 <1>  -0.1770 
  2 C        0.5680     1.4840     0.6750 C.ar  1 <1>   0.1770 
  3 C        1.8580     1.9450     0.4920 C.ar  1 <1>  -0.1500 
  4 C       -0.5300     2.2130     0.2580 C.ar  1 <1>  -0.1500 
  5 C        2.0530     3.1750    -0.1300 C.ar  1 <1>   0.0830 
  6 C       -0.3340     3.4360    -0.3600 C.ar  1 <1>  -0.1500 
  7 O        3.2740     3.7180    -0.3580 O.3   1 <1>  -0.3630 
  8 C        0.9540     3.9100    -0.5510 C.ar  1 <1>  -0.1500 
  9 C        4.4570     3.0530     0.0300 C.3   1 <1>   0.1200 
 10 C        5.6410     3.9280    -0.3700 C.3   1 <1>   0.1200 
 11 O        6.8240     3.2870     0.0070 O.3   1 <1>  -0.5600 
 12 C        7.9790     3.9910    -0.3070 C.3   1 <1>   0.1200 
 13 C        9.1730     3.1440     0.1550 C.3   1 <1>   0.3430 
 14 N       10.4970     3.7640    -0.1790 N.4   1 <1>  -0.9590 
 15 C       11.5910     2.7710     0.0350 C.3   1 <1>   0.3430 
 16 C       10.7480     5.0190     0.5960 C.3   1 <1>   0.3430 
 17 C       12.9210     3.3580    -0.4390 C.3   1 <1>  -0.1600 
 18 C       12.0600     5.6560     0.1340 C.3   1 <1>  -0.1600 
 19 C       13.2400     4.6840     0.2620 C.3   1 <1>  -0.1600 
 20 H        2.6720     1.3380     0.8350 H     1 <1>   0.1500 
 21 H       -1.5210     1.8260     0.4150 H     1 <1>   0.1500 
 22 H       -1.1770     4.0170    -0.6920 H     1 <1>   0.1500 
 23 H        1.1140     4.8600    -1.0300 H     1 <1>   0.1500 
 24 H        4.4980     2.1070    -0.4820 H     1 <1>   0.0800 
 25 H        4.4340     2.9140     1.0960 H     1 <1>   0.0800 
 26 H        5.5830     4.8760     0.1350 H     1 <1>   0.0800 
 27 H        5.6480     4.0690    -1.4380 H     1 <1>   0.0800 
 28 H        7.9480     4.9350     0.2090 H     1 <1>   0.0800 
 29 H        8.0060     4.1390    -1.3730 H     1 <1>   0.0800 
 30 H        9.0990     2.1830    -0.3260 H     1 <1>   0.0800 
 31 H        9.1010     2.9940     1.2200 H     1 <1>   0.0800 
 32 H       10.5090     4.0060    -1.1780 H     1 <1>   0.4500 
 33 H       11.3830     1.8660    -0.5140 H     1 <1>   0.0800 
 34 H       11.6600     2.5240     1.0830 H     1 <1>   0.0800 
 35 H       10.8100     4.7920     1.6480 H     1 <1>   0.0800 
 36 H        9.9420     5.7190     0.4470 H     1 <1>   0.0800 
 37 H       12.8900     3.5030    -1.5050 H     1 <1>   0.0800 
 38 H       13.7090     2.6520    -0.2360 H     1 <1>   0.0800 
 39 H       12.2550     6.5310     0.7310 H     1 <1>   0.0800 
 40 H       11.9610     5.9820    -0.8870 H     1 <1>   0.0800 
 41 H       14.1250     5.1230    -0.1680 H     1 <1>   0.0800 
 42 H       13.4410     4.4990     1.3050 H     1 <1>   0.0800 
@<TRIPOS>BOND
  1   1   2  1   
  2   2   3  ar  
  3   2   4  ar  
  4   3   5  ar  
  5   3  20  1   
  6   4   6  ar  
  7   4  21  1   
  8   5   7  1   
  9   5   8  ar  
 10   6   8  ar  
 11   6  22  1   
 12   7   9  1   
 13   8  23  1   
 14   9  10  1   
 15   9  24  1   
 16   9  25  1   
 17  10  11  1   
 18  10  26  1   
 19  10  27  1   
 20  11  12  1   
 21  12  13  1   
 22  12  28  1   
 23  12  29  1   
 24  13  14  1   
 25  13  30  1   
 26  13  31  1   
 27  14  15  1   
 28  14  16  1   
 29  14  32  1   
 30  15  17  1   
 31  15  33  1   
 32  15  34  1   
 33  16  18  1   
 34  16  35  1   
 35  16  36  1   
 36  17  19  1   
 37  17  37  1   
 38  17  38  1   
 39  18  19  1   
 40  18  39  1   
 41  18  40  1   
 42  19  41  1   
 43  19  42  1   
@<TRIPOS>SUBSTRUCTURE
  1 ****  10 GROUP 4 **** **** 0

# MOE 2024.06 (io_trps.svl 2023.06)
