@<TRIPOS>MOLECULE
NONAME
38 39 1 0 0 
SMALL
USER_CHARGES


@<TRIPOS>ATOM
  1 CL       1.8230     2.1020     0.5820 Cl    1 <1>  -0.1770 
  2 C        3.0390     0.9520     0.0610 C.ar  1 <1>   0.1770 
  3 C        4.3860     1.3020     0.0600 C.ar  1 <1>   0.0820 
  4 C        2.6190    -0.3020    -0.3410 C.ar  1 <1>  -0.1500 
  5 O        4.7410     2.5450     0.4890 O.3   1 <1>  -0.3630 
  6 C        5.3200     0.3670    -0.3760 C.ar  1 <1>  -0.1500 
  7 C        3.5640    -1.2320    -0.7410 C.ar  1 <1>   0.0830 
  8 C        6.0680     2.8150     0.8960 C.3   1 <1>   0.0400 
  9 C        4.9240    -0.9060    -0.7590 C.ar  1 <1>   0.1990 
 10 O        3.1750    -2.4750    -1.1290 O.3   1 <1>  -0.3630 
 11 N        5.8640    -1.8540    -1.1450 N.am  1 <1>  -0.7570 
 12 C        2.6820    -3.3090    -0.1020 C.3   1 <1>   0.0400 
 13 S        6.8690    -2.6400    -0.0010 S.o2  1 <1>   1.5010 
 14 O        6.0020    -3.0060     1.0940 O.2   1 <1>  -0.6500 
 15 O        7.5580    -3.6490    -0.7680 O.2   1 <1>  -0.6500 
 16 C        7.9900    -1.3250     0.4840 C.2   1 <1>  -0.0630 
 17 C        7.8510    -0.5840     1.6500 C.2   1 <1>   0.1390 
 18 C        9.0610    -0.7610    -0.1300 C.2   1 <1>  -0.3020 
 19 N        8.7350     0.3610     1.7530 N.2   1 <1>  -0.7070 
 20 N        9.4960     0.2440     0.6520 N.pl3 1 <1>   0.3140 
 21 C       10.6400     1.1400     0.3880 C.3   1 <1>   0.0960 
 22 C       10.2310     2.3060    -0.5200 C.3   1 <1>  -0.2400 
 23 H        1.5730    -0.5450    -0.3400 H     1 <1>   0.1500 
 24 H        6.3600     0.6190    -0.4290 H     1 <1>   0.1500 
 25 H        6.0870     3.7930     1.3420 H     1 <1>   0.0800 
 26 H        6.7120     2.7970     0.0350 H     1 <1>   0.0800 
 27 H        6.3740     2.0800     1.6190 H     1 <1>   0.0800 
 28 H        5.4650    -2.5850    -1.7290 H     1 <1>   0.4200 
 29 H        2.4980    -4.2830    -0.5180 H     1 <1>   0.0800 
 30 H        1.7670    -2.8960     0.2820 H     1 <1>   0.0800 
 31 H        3.4200    -3.3790     0.6790 H     1 <1>   0.0800 
 32 H        7.0860    -0.7650     2.3900 H     1 <1>   0.1500 
 33 H        9.5160    -1.0190    -1.0690 H     1 <1>   0.1500 
 34 H       11.4250     0.5670    -0.0700 H     1 <1>   0.0800 
 35 H       10.9960     1.5160     1.3310 H     1 <1>   0.0800 
 36 H        9.8800     1.9400    -1.4690 H     1 <1>   0.0800 
 37 H       11.0770     2.9470    -0.6920 H     1 <1>   0.0800 
 38 H        9.4550     2.8850    -0.0500 H     1 <1>   0.0800 
@<TRIPOS>BOND
  1   1   2  1   
  2   2   3  ar  
  3   2   4  ar  
  4   3   5  1   
  5   3   6  ar  
  6   4   7  ar  
  7   4  23  1   
  8   5   8  1   
  9   6   9  ar  
 10   6  24  1   
 11   7   9  ar  
 12   7  10  1   
 13   8  25  1   
 14   8  26  1   
 15   8  27  1   
 16   9  11  1   
 17  10  12  1   
 18  11  13  am  
 19  11  28  1   
 20  12  29  1   
 21  12  30  1   
 22  12  31  1   
 23  13  14  2   
 24  13  15  2   
 25  13  16  1   
 26  16  17  1   
 27  16  18  2   
 28  17  19  2   
 29  17  32  1   
 30  18  20  1   
 31  18  33  1   
 32  19  20  1   
 33  20  21  1   
 34  21  22  1   
 35  21  34  1   
 36  21  35  1   
 37  22  36  1   
 38  22  37  1   
 39  22  38  1   
@<TRIPOS>SUBSTRUCTURE
  1 ****   6 GROUP 4 **** **** 0

# MOE 2024.06 (io_trps.svl 2023.06)
