@<TRIPOS>MOLECULE
NONAME
36 37 1 0 0 
SMALL
USER_CHARGES


@<TRIPOS>ATOM
  1 BR      -4.0450     2.9980    -3.3590 Br    1 <1>  -0.0580 
  2 C       -4.3090     1.8880    -1.8120 C.2   1 <1>   0.1980 
  3 O       -5.2870     1.0200    -1.8380 O.3   1 <1>  -0.2800 
  4 C       -3.6140     1.8670    -0.6600 C.2   1 <1>  -0.1500 
  5 C       -5.2730     0.3750    -0.6690 C.2   1 <1>   0.0550 
  6 C       -4.2470     0.8730     0.0910 C.2   1 <1>  -0.1500 
  7 C       -6.2450    -0.6560    -0.3810 C.2   1 <1>   0.7150 
  8 O       -7.0130    -1.0790    -1.2270 O.2   1 <1>  -0.5700 
  9 N       -6.3430    -1.1720     0.8820 N.am  1 <1>  -0.7300 
 10 C       -7.3880    -2.1600     1.3080 C.3   1 <1>   0.2010 
 11 C       -8.7710    -1.5320     1.4910 C.2   1 <1>   0.5690 
 12 O       -9.2770    -1.5380     2.5880 O.2   1 <1>  -0.5700 
 13 N       -9.3760    -0.9780     0.4100 N.am  1 <1>  -0.7300 
 14 C      -10.6680    -0.2830     0.3950 C.3   1 <1>   0.2200 
 15 C      -11.5800    -0.9590    -0.6330 C.3   1 <1>  -0.1600 
 16 C      -10.4270     1.1890     0.0420 C.3   1 <1>  -0.1600 
 17 C      -12.9080    -0.2030    -0.7810 C.3   1 <1>  -0.1600 
 18 C      -11.7530     1.9500    -0.1050 C.3   1 <1>  -0.1600 
 19 C      -12.6700     1.2720    -1.1320 C.3   1 <1>  -0.1600 
 20 H       -2.7690     2.4650    -0.3700 H     1 <1>   0.1500 
 21 H       -3.9520     0.5750     1.0810 H     1 <1>   0.1500 
 22 H       -5.8830    -0.6750     1.6440 H     1 <1>   0.3700 
 23 H       -7.0890    -2.6160     2.2340 H     1 <1>   0.0800 
 24 H       -7.4660    -2.9360     0.5670 H     1 <1>   0.0800 
 25 H       -8.8500    -0.9590    -0.4760 H     1 <1>   0.3700 
 26 H      -11.1250    -0.3440     1.3700 H     1 <1>   0.0800 
 27 H      -11.7780    -1.9690    -0.3210 H     1 <1>   0.0800 
 28 H      -11.0850    -0.9870    -1.5880 H     1 <1>   0.0800 
 29 H       -9.8830     1.2510    -0.8850 H     1 <1>   0.0800 
 30 H       -9.8370     1.6470     0.8160 H     1 <1>   0.0800 
 31 H      -13.4570    -0.2640     0.1440 H     1 <1>   0.0800 
 32 H      -13.5030    -0.6650    -1.5490 H     1 <1>   0.0800 
 33 H      -11.5560     2.9630    -0.4090 H     1 <1>   0.0800 
 34 H      -12.2510     1.9830     0.8500 H     1 <1>   0.0800 
 35 H      -13.6120     1.7910    -1.1720 H     1 <1>   0.0800 
 36 H      -12.2180     1.3370    -2.1080 H     1 <1>   0.0800 
@<TRIPOS>BOND
  1   1   2  1   
  2   2   3  1   
  3   2   4  2   
  4   3   5  1   
  5   4   6  1   
  6   4  20  1   
  7   5   6  2   
  8   5   7  1   
  9   6  21  1   
 10   7   8  2   
 11   7   9  am  
 12   9  10  1   
 13   9  22  1   
 14  10  11  1   
 15  10  23  1   
 16  10  24  1   
 17  11  12  2   
 18  11  13  am  
 19  13  14  1   
 20  13  25  1   
 21  14  15  1   
 22  14  16  1   
 23  14  26  1   
 24  15  17  1   
 25  15  27  1   
 26  15  28  1   
 27  16  18  1   
 28  16  29  1   
 29  16  30  1   
 30  17  19  1   
 31  17  31  1   
 32  17  32  1   
 33  18  19  1   
 34  18  33  1   
 35  18  34  1   
 36  19  35  1   
 37  19  36  1   
@<TRIPOS>SUBSTRUCTURE
  1 ****   8 GROUP 4 **** **** 0

# MOE 2024.06 (io_trps.svl 2023.06)
