@<TRIPOS>MOLECULE
NONAME
31 31 1 0 0 
SMALL
USER_CHARGES


@<TRIPOS>ATOM
  1 CL       0.5020     0.1860     0.5300 Cl    1 <1>  -0.1770 
  2 C        2.0810     0.9100     0.4010 C.ar  1 <1>   0.1770 
  3 C        2.3560     1.7640    -0.6490 C.ar  1 <1>  -0.1500 
  4 C        3.0420     0.6260     1.3520 C.ar  1 <1>  -0.1500 
  5 C        3.6120     2.3370    -0.7490 C.ar  1 <1>  -0.1500 
  6 C        4.2950     1.2030     1.2420 C.ar  1 <1>  -0.1500 
  7 C        4.6150     2.0660     0.1880 C.ar  1 <1>   0.0860 
  8 C        5.9420     2.6520     0.0870 C.2   1 <1>   0.5440 
  9 O        6.6500     2.7840     1.0670 O.2   1 <1>  -0.5700 
 10 N        6.4620     3.0420    -1.1180 N.am  1 <1>  -0.7300 
 11 C        7.6150     3.9720    -1.3240 C.3   1 <1>   0.1400 
 12 C        8.9820     3.2580    -1.2440 C.3   1 <1>   0.3430 
 13 N        9.2310     2.6990     0.1190 N.4   1 <1>  -0.9590 
 14 C        9.7720     3.7150     1.0700 C.3   1 <1>   0.2630 
 15 C       10.0670     1.4650     0.0900 C.3   1 <1>   0.2630 
 16 H        1.5880     1.9760    -1.3730 H     1 <1>   0.1500 
 17 H        2.8060    -0.0380     2.1650 H     1 <1>   0.1500 
 18 H        3.8040     3.0120    -1.5640 H     1 <1>   0.1500 
 19 H        5.0400     0.9840     1.9880 H     1 <1>   0.1500 
 20 H        5.8990     2.8560    -1.9540 H     1 <1>   0.3700 
 21 H        7.5740     4.7600    -0.5910 H     1 <1>   0.0800 
 22 H        7.5180     4.4280    -2.2950 H     1 <1>   0.0800 
 23 H        9.7680     3.9480    -1.5020 H     1 <1>   0.0800 
 24 H        8.9870     2.4630    -1.9710 H     1 <1>   0.0800 
 25 H        8.2820     2.4510     0.4860 H     1 <1>   0.4500 
 26 H       10.7380     4.0630     0.7420 H     1 <1>   0.0800 
 27 H        9.8720     3.2850     2.0530 H     1 <1>   0.0800 
 28 H        9.1000     4.5550     1.1370 H     1 <1>   0.0800 
 29 H       11.0520     1.6880    -0.2860 H     1 <1>   0.0800 
 30 H        9.6120     0.7220    -0.5440 H     1 <1>   0.0800 
 31 H       10.1600     1.0570     1.0830 H     1 <1>   0.0800 
@<TRIPOS>BOND
  1   1   2  1   
  2   2   3  ar  
  3   2   4  ar  
  4   3   5  ar  
  5   3  16  1   
  6   4   6  ar  
  7   4  17  1   
  8   5   7  ar  
  9   5  18  1   
 10   6   7  ar  
 11   6  19  1   
 12   7   8  1   
 13   8   9  2   
 14   8  10  am  
 15  10  11  1   
 16  10  20  1   
 17  11  12  1   
 18  11  21  1   
 19  11  22  1   
 20  12  13  1   
 21  12  23  1   
 22  12  24  1   
 23  13  14  1   
 24  13  15  1   
 25  13  25  1   
 26  14  26  1   
 27  14  27  1   
 28  14  28  1   
 29  15  29  1   
 30  15  30  1   
 31  15  31  1   
@<TRIPOS>SUBSTRUCTURE
  1 ****   8 GROUP 4 **** **** 0

# MOE 2024.06 (io_trps.svl 2023.06)
