@<TRIPOS>MOLECULE
NONAME
54 55 1 0 0 
SMALL
USER_CHARGES


@<TRIPOS>ATOM
  1 O        1.2170     0.7050    -0.7910 O.2   1 <1>  -0.5700 
  2 C        1.0540     1.8960    -0.8800 C.2   1 <1>   0.6590 
  3 O       -0.1320     2.4230    -1.1570 O.3   1 <1>  -0.4300 
  4 C        2.1880     2.9010    -0.6860 C.3   1 <1>  -0.0190 
  5 C       -1.2680     1.6130    -1.3520 C.3   1 <1>   0.1200 
  6 C        3.5840     2.2460    -0.7280 C.3   1 <1>  -0.1600 
  7 C        2.0150     3.6830     0.6310 C.3   1 <1>  -0.1600 
  8 C       -2.4560     2.5270    -1.6360 C.3   1 <1>  -0.2400 
  9 C        4.7000     3.2680    -0.5010 C.3   1 <1>   0.1400 
 10 C        3.1450     4.6920     0.8430 C.3   1 <1>   0.1400 
 11 N        4.4580     3.9930     0.7780 N.am  1 <1>  -0.6600 
 12 C        5.3610     4.0760     1.8160 C.2   1 <1>   0.5690 
 13 O        5.1050     4.6870     2.8290 O.2   1 <1>  -0.5700 
 14 C        6.7140     3.3700     1.7630 C.3   1 <1>   0.1810 
 15 O        7.5160     3.8640     0.7000 O.3   1 <1>  -0.3630 
 16 C        8.6770     3.2530     0.3620 C.ar  1 <1>   0.0820 
 17 C        9.2910     3.6750    -0.8020 C.ar  1 <1>  -0.1500 
 18 C        9.2670     2.2410     1.1090 C.ar  1 <1>  -0.1500 
 19 C       10.4710     3.0930    -1.2280 C.ar  1 <1>  -0.1500 
 20 C       10.4480     1.6630     0.6770 C.ar  1 <1>  -0.1500 
 21 C       11.0740     2.0720    -0.4970 C.ar  1 <1>  -0.1430 
 22 C       12.3890     1.3890    -0.9330 C.3   1 <1>   0.1430 
 23 C       13.4570     1.5920     0.1520 C.3   1 <1>  -0.2400 
 24 C       12.9540     1.9460    -2.2500 C.3   1 <1>  -0.2400 
 25 C       12.1450    -0.1140    -1.1340 C.3   1 <1>  -0.2400 
 26 H        2.1260     3.6000    -1.5010 H     1 <1>   0.0800 
 27 H       -1.4300     1.0320    -0.4600 H     1 <1>   0.0800 
 28 H       -1.0780     0.9540    -2.1830 H     1 <1>   0.0800 
 29 H        3.7300     1.7690    -1.6820 H     1 <1>   0.0800 
 30 H        3.6530     1.4840     0.0290 H     1 <1>   0.0800 
 31 H        2.0000     2.9990     1.4620 H     1 <1>   0.0800 
 32 H        1.0750     4.2070     0.6220 H     1 <1>   0.0800 
 33 H       -2.6240     3.1860    -0.8030 H     1 <1>   0.0800 
 34 H       -3.3400     1.9340    -1.7870 H     1 <1>   0.0800 
 35 H       -2.2750     3.1050    -2.5240 H     1 <1>   0.0800 
 36 H        4.7160     3.9820    -1.3080 H     1 <1>   0.0800 
 37 H        5.6460     2.7580    -0.4950 H     1 <1>   0.0800 
 38 H        3.0170     5.1790     1.7960 H     1 <1>   0.0800 
 39 H        3.1140     5.4500     0.0790 H     1 <1>   0.0800 
 40 H        6.5570     2.3180     1.6180 H     1 <1>   0.0800 
 41 H        7.2420     3.5380     2.6830 H     1 <1>   0.0800 
 42 H        8.8380     4.4640    -1.3760 H     1 <1>   0.1500 
 43 H        8.8320     1.8920     2.0250 H     1 <1>   0.1500 
 44 H       10.9020     3.4600    -2.1400 H     1 <1>   0.1500 
 45 H       10.8800     0.8820     1.2750 H     1 <1>   0.1500 
 46 H       13.6100     2.6430     0.3240 H     1 <1>   0.0800 
 47 H       14.3920     1.1550    -0.1490 H     1 <1>   0.0800 
 48 H       13.1610     1.1390     1.0800 H     1 <1>   0.0800 
 49 H       13.1720     2.9950    -2.1540 H     1 <1>   0.0800 
 50 H       12.2520     1.8050    -3.0520 H     1 <1>   0.0800 
 51 H       13.8660     1.4410    -2.5150 H     1 <1>   0.0800 
 52 H       11.8370    -0.5840    -0.2180 H     1 <1>   0.0800 
 53 H       13.0400    -0.6030    -1.4740 H     1 <1>   0.0800 
 54 H       11.3720    -0.2660    -1.8670 H     1 <1>   0.0800 
@<TRIPOS>BOND
  1   1   2  2   
  2   2   3  1   
  3   2   4  1   
  4   3   5  1   
  5   4   6  1   
  6   4   7  1   
  7   4  26  1   
  8   5   8  1   
  9   5  27  1   
 10   5  28  1   
 11   6   9  1   
 12   6  29  1   
 13   6  30  1   
 14   7  10  1   
 15   7  31  1   
 16   7  32  1   
 17   8  33  1   
 18   8  34  1   
 19   8  35  1   
 20   9  11  1   
 21   9  36  1   
 22   9  37  1   
 23  10  11  1   
 24  10  38  1   
 25  10  39  1   
 26  11  12  am  
 27  12  13  2   
 28  12  14  1   
 29  14  15  1   
 30  14  40  1   
 31  14  41  1   
 32  15  16  1   
 33  16  17  ar  
 34  16  18  ar  
 35  17  19  ar  
 36  17  42  1   
 37  18  20  ar  
 38  18  43  1   
 39  19  21  ar  
 40  19  44  1   
 41  20  21  ar  
 42  20  45  1   
 43  21  22  1   
 44  22  23  1   
 45  22  24  1   
 46  22  25  1   
 47  23  46  1   
 48  23  47  1   
 49  23  48  1   
 50  24  49  1   
 51  24  50  1   
 52  24  51  1   
 53  25  52  1   
 54  25  53  1   
 55  25  54  1   
@<TRIPOS>SUBSTRUCTURE
  1 ****   9 GROUP 4 **** **** 0

# MOE 2024.06 (io_trps.svl 2023.06)
