@<TRIPOS>MOLECULE
NONAME
43 44 1 0 0 
SMALL
USER_CHARGES


@<TRIPOS>ATOM
  1 O        0.5940     0.4850     0.9690 O.2   1 <1>  -0.5700 
  2 C        0.2890     1.5200     0.4150 C.2   1 <1>   0.5690 
  3 N        1.1540     2.1530    -0.4510 N.am  1 <1>  -0.6600 
  4 C       -1.0810     2.1030     0.7530 C.3   1 <1>   0.1810 
  5 C        2.4610     1.5280    -0.7890 C.3   1 <1>   0.1400 
  6 C        0.7640     3.3190    -1.2910 C.3   1 <1>   0.1400 
  7 O       -1.9820     1.9820    -0.3370 O.3   1 <1>  -0.3620 
  8 C        3.5000     1.7520     0.3150 C.3   1 <1>  -0.1600 
  9 C        1.0490     4.6530    -0.5960 C.3   1 <1>  -0.1600 
 10 C       -3.2130     2.5170    -0.1620 C.ar  1 <1>   0.0820 
 11 C        4.1620     3.1400     0.3310 C.3   1 <1>  -0.1600 
 12 C        2.5380     5.0020    -0.4360 C.3   1 <1>  -0.1600 
 13 C       -3.4250     3.8990    -0.1110 C.ar  1 <1>   0.0820 
 14 C       -4.2780     1.6400    -0.0510 C.ar  1 <1>  -0.1500 
 15 C        3.2360     4.2960     0.7420 C.3   1 <1>  -0.1600 
 16 O       -2.3510     4.7310    -0.2550 O.3   1 <1>  -0.3630 
 17 C       -4.7220     4.3720     0.0760 C.ar  1 <1>  -0.1500 
 18 C       -5.5620     2.1230     0.1310 C.ar  1 <1>  -0.1500 
 19 C       -2.5070     6.1320    -0.2930 C.3   1 <1>   0.0400 
 20 C       -5.7810     3.4870     0.1970 C.ar  1 <1>  -0.1500 
 21 H       -0.9790     3.1360     1.0170 H     1 <1>   0.0800 
 22 H       -1.5000     1.5690     1.5860 H     1 <1>   0.0800 
 23 H        2.8350     1.9040    -1.7250 H     1 <1>   0.0800 
 24 H        2.3070     0.4690    -0.9050 H     1 <1>   0.0800 
 25 H       -0.2850     3.2650    -1.5220 H     1 <1>   0.0800 
 26 H        1.2850     3.2850    -2.2320 H     1 <1>   0.0800 
 27 H        4.2810     1.0280     0.1640 H     1 <1>   0.0800 
 28 H        3.0620     1.5370     1.2740 H     1 <1>   0.0800 
 29 H        0.5510     4.6900     0.3550 H     1 <1>   0.0800 
 30 H        0.6040     5.4180    -1.2070 H     1 <1>   0.0800 
 31 H        4.6240     3.3410    -0.6190 H     1 <1>   0.0800 
 32 H        4.9570     3.0940     1.0560 H     1 <1>   0.0800 
 33 H        2.5910     6.0610    -0.2480 H     1 <1>   0.0800 
 34 H        3.0610     4.8280    -1.3590 H     1 <1>   0.0800 
 35 H       -4.0960     0.5810    -0.1070 H     1 <1>   0.1500 
 36 H        3.8520     5.0320     1.2300 H     1 <1>   0.0800 
 37 H        2.5200     3.9620     1.4740 H     1 <1>   0.0800 
 38 H       -4.9330     5.4230     0.1280 H     1 <1>   0.1500 
 39 H       -6.3870     1.4370     0.2200 H     1 <1>   0.1500 
 40 H       -1.5380     6.5730    -0.4400 H     1 <1>   0.0800 
 41 H       -2.9200     6.4640     0.6420 H     1 <1>   0.0800 
 42 H       -3.1530     6.3880    -1.1140 H     1 <1>   0.0800 
 43 H       -6.7800     3.8620     0.3400 H     1 <1>   0.1500 
@<TRIPOS>BOND
  1   1   2  2   
  2   2   3  am  
  3   2   4  1   
  4   3   5  1   
  5   3   6  1   
  6   4   7  1   
  7   4  21  1   
  8   4  22  1   
  9   5   8  1   
 10   5  23  1   
 11   5  24  1   
 12   6   9  1   
 13   6  25  1   
 14   6  26  1   
 15   7  10  1   
 16   8  11  1   
 17   8  27  1   
 18   8  28  1   
 19   9  12  1   
 20   9  29  1   
 21   9  30  1   
 22  10  13  ar  
 23  10  14  ar  
 24  11  15  1   
 25  11  31  1   
 26  11  32  1   
 27  12  15  1   
 28  12  33  1   
 29  12  34  1   
 30  13  16  1   
 31  13  17  ar  
 32  14  18  ar  
 33  14  35  1   
 34  15  36  1   
 35  15  37  1   
 36  16  19  1   
 37  17  20  ar  
 38  17  38  1   
 39  18  20  ar  
 40  18  39  1   
 41  19  40  1   
 42  19  41  1   
 43  19  42  1   
 44  20  43  1   
@<TRIPOS>SUBSTRUCTURE
  1 ****   4 GROUP 4 **** **** 0

# MOE 2024.06 (io_trps.svl 2023.06)
