@<TRIPOS>MOLECULE
NONAME
47 49 1 0 0 
SMALL
USER_CHARGES


@<TRIPOS>ATOM
  1 CL       0.8110    -0.2790    -1.2670 Cl    1 <1>  -0.1770 
  2 C        1.9800    -1.5670    -1.1160 C.ar  1 <1>   0.1770 
  3 C        3.1380    -1.3470    -0.3980 C.ar  1 <1>  -0.1500 
  4 C        1.7220    -2.7840    -1.7200 C.ar  1 <1>  -0.1500 
  5 C        4.0730    -2.3680    -0.2740 C.ar  1 <1>   0.1000 
  6 C        2.6510    -3.8050    -1.5980 C.ar  1 <1>  -0.1500 
  7 N        5.2530    -2.1930     0.4390 N.pl3 1 <1>  -0.8380 
  8 C        3.8160    -3.5920    -0.8790 C.ar  1 <1>  -0.1500 
  9 C        5.1130    -2.0300     1.9150 C.3   1 <1>   0.2090 
 10 C        6.2220    -1.2050    -0.1160 C.3   1 <1>   0.2090 
 11 C        6.4850    -2.1230     2.6080 C.3   1 <1>   0.1100 
 12 C        7.5820    -1.2980     0.6020 C.3   1 <1>   0.1100 
 13 N        7.4590    -1.1430     2.0730 N.3   1 <1>  -0.8100 
 14 C        8.7570    -1.2550     2.8020 C.3   1 <1>   0.1710 
 15 C        9.8320    -0.2130     2.4600 C.2   1 <1>   0.5690 
 16 O       10.0310     0.6960     3.2310 O.2   1 <1>  -0.5700 
 17 N       10.5450    -0.3950     1.3060 N.am  1 <1>  -0.5470 
 18 C       11.5460     0.3470     0.6550 C.ar  1 <1>   0.1170 
 19 C       11.8830    -0.0210    -0.6530 C.ar  1 <1>   0.0830 
 20 C       12.2130     1.4130     1.2460 C.ar  1 <1>  -0.1500 
 21 O       11.2030    -1.0770    -1.1990 O.3   1 <1>  -0.3630 
 22 C       12.8700     0.6790    -1.3410 C.ar  1 <1>  -0.1500 
 23 C       13.1930     2.1050     0.5580 C.ar  1 <1>  -0.1500 
 24 C       11.4830    -1.5270    -2.5070 C.3   1 <1>   0.0400 
 25 C       13.5220     1.7390    -0.7350 C.ar  1 <1>  -0.1500 
 26 H        3.3140    -0.3940     0.0610 H     1 <1>   0.1500 
 27 H        0.8120    -2.9270    -2.2730 H     1 <1>   0.1500 
 28 H        2.4700    -4.7600    -2.0600 H     1 <1>   0.1500 
 29 H        4.5440    -4.3750    -0.7770 H     1 <1>   0.1500 
 30 H        4.4640    -2.7990     2.2960 H     1 <1>   0.0800 
 31 H        4.6700    -1.0740     2.1340 H     1 <1>   0.0800 
 32 H        5.8320    -0.2090     0.0010 H     1 <1>   0.0800 
 33 H        6.3570    -1.3920    -1.1670 H     1 <1>   0.0800 
 34 H        6.8650    -3.1220     2.4800 H     1 <1>   0.0800 
 35 H        6.3480    -1.9480     3.6610 H     1 <1>   0.0800 
 36 H        8.2090    -0.5190     0.2080 H     1 <1>   0.0800 
 37 H        8.0280    -2.2500     0.3690 H     1 <1>   0.0800 
 38 H        9.1720    -2.2330     2.6410 H     1 <1>   0.0800 
 39 H        8.5610    -1.1600     3.8560 H     1 <1>   0.0800 
 40 H       10.2450    -1.1840     0.7340 H     1 <1>   0.3700 
 41 H       11.9740     1.7110     2.2500 H     1 <1>   0.1500 
 42 H       13.1480     0.4200    -2.3440 H     1 <1>   0.1500 
 43 H       13.6990     2.9290     1.0320 H     1 <1>   0.1500 
 44 H       10.8400    -2.3610    -2.7200 H     1 <1>   0.0800 
 45 H       12.5120    -1.8370    -2.5570 H     1 <1>   0.0800 
 46 H       11.2870    -0.7290    -3.2010 H     1 <1>   0.0800 
 47 H       14.2850     2.2800    -1.2670 H     1 <1>   0.1500 
@<TRIPOS>BOND
  1   1   2  1   
  2   2   3  ar  
  3   2   4  ar  
  4   3   5  ar  
  5   3  26  1   
  6   4   6  ar  
  7   4  27  1   
  8   5   7  1   
  9   5   8  ar  
 10   6   8  ar  
 11   6  28  1   
 12   7   9  1   
 13   7  10  1   
 14   8  29  1   
 15   9  11  1   
 16   9  30  1   
 17   9  31  1   
 18  10  12  1   
 19  10  32  1   
 20  10  33  1   
 21  11  13  1   
 22  11  34  1   
 23  11  35  1   
 24  12  13  1   
 25  12  36  1   
 26  12  37  1   
 27  13  14  1   
 28  14  15  1   
 29  14  38  1   
 30  14  39  1   
 31  15  16  2   
 32  15  17  am  
 33  17  18  1   
 34  17  40  1   
 35  18  19  ar  
 36  18  20  ar  
 37  19  21  1   
 38  19  22  ar  
 39  20  23  ar  
 40  20  41  1   
 41  21  24  1   
 42  22  25  ar  
 43  22  42  1   
 44  23  25  ar  
 45  23  43  1   
 46  24  44  1   
 47  24  45  1   
 48  24  46  1   
 49  25  47  1   
@<TRIPOS>SUBSTRUCTURE
  1 ****  12 GROUP 4 **** **** 0

# MOE 2024.06 (io_trps.svl 2023.06)
