@<TRIPOS>MOLECULE
NONAME
38 40 1 0 0 
SMALL
USER_CHARGES


@<TRIPOS>ATOM
  1 S       -0.0920    -0.7350    -0.3080 S.o2  1 <1>   1.2950 
  2 O        0.4910    -1.4170     0.8310 O.2   1 <1>  -0.6500 
  3 O        0.2030    -1.2070    -1.6460 O.2   1 <1>  -0.6500 
  4 N        0.3250     0.9760    -0.2180 N.pl3 1 <1>   0.3170 
  5 C       -1.8870    -0.6540    -0.0930 C.ar  1 <1>  -0.0090 
  6 C        0.5080     1.8130    -1.2680 C.2   1 <1>   0.0360 
  7 C        0.4120     1.7960     0.8600 C.2   1 <1>  -0.3020 
  8 C       -2.4680    -0.7850     1.1630 C.ar  1 <1>  -0.1500 
  9 C       -2.7290    -0.4230    -1.1740 C.ar  1 <1>  -0.1500 
 10 N        0.6970     3.0510    -0.9460 N.2   1 <1>  -0.5650 
 11 C        0.6400     3.0430     0.3980 C.2   1 <1>   0.0770 
 12 C       -3.8370    -0.6820     1.3340 C.ar  1 <1>  -0.1500 
 13 C       -4.0980    -0.3200    -1.0070 C.ar  1 <1>  -0.1500 
 14 C       -4.6670    -0.4460     0.2500 C.ar  1 <1>  -0.1430 
 15 C       -6.1770    -0.3330     0.4560 C.3   1 <1>   0.0630 
 16 C       -6.9270    -1.4390    -0.3070 C.3   1 <1>  -0.1600 
 17 C       -6.6910     1.0590     0.0540 C.3   1 <1>  -0.1600 
 18 C       -8.4460    -1.3230    -0.1120 C.3   1 <1>  -0.1600 
 19 C       -8.2100     1.1750     0.2490 C.3   1 <1>  -0.1600 
 20 C       -8.9520     0.0690    -0.5130 C.3   1 <1>  -0.1600 
 21 H        0.4910     1.4470    -2.2810 H     1 <1>   0.1500 
 22 H        0.3100     1.4420     1.8700 H     1 <1>   0.1500 
 23 H       -1.8450    -0.9730     2.0220 H     1 <1>   0.1500 
 24 H       -2.3150    -0.3250    -2.1640 H     1 <1>   0.1500 
 25 H        0.7670     3.9510     0.9670 H     1 <1>   0.1500 
 26 H       -4.2530    -0.7900     2.3210 H     1 <1>   0.1500 
 27 H       -4.7210    -0.1400    -1.8670 H     1 <1>   0.1500 
 28 H       -6.3900    -0.4650     1.5030 H     1 <1>   0.0800 
 29 H       -6.5920    -2.4010     0.0390 H     1 <1>   0.0800 
 30 H       -6.7050    -1.3710    -1.3570 H     1 <1>   0.0800 
 31 H       -6.4580     1.2490    -0.9790 H     1 <1>   0.0800 
 32 H       -6.1940     1.8080     0.6460 H     1 <1>   0.0800 
 33 H       -8.6890    -1.5060     0.9210 H     1 <1>   0.0800 
 34 H       -8.9440    -2.0720    -0.7040 H     1 <1>   0.0800 
 35 H       -8.5460     2.1380    -0.0960 H     1 <1>   0.0800 
 36 H       -8.4430     1.1020     1.2980 H     1 <1>   0.0800 
 37 H      -10.0070     0.1400    -0.3130 H     1 <1>   0.0800 
 38 H       -8.8090     0.2080    -1.5710 H     1 <1>   0.0800 
@<TRIPOS>BOND
  1   1   2  2   
  2   1   3  2   
  3   1   4  1   
  4   1   5  1   
  5   4   6  1   
  6   4   7  1   
  7   5   8  ar  
  8   5   9  ar  
  9   6  10  2   
 10   6  21  1   
 11   7  11  2   
 12   7  22  1   
 13   8  12  ar  
 14   8  23  1   
 15   9  13  ar  
 16   9  24  1   
 17  10  11  1   
 18  11  25  1   
 19  12  14  ar  
 20  12  26  1   
 21  13  14  ar  
 22  13  27  1   
 23  14  15  1   
 24  15  16  1   
 25  15  17  1   
 26  15  28  1   
 27  16  18  1   
 28  16  29  1   
 29  16  30  1   
 30  17  19  1   
 31  17  31  1   
 32  17  32  1   
 33  18  20  1   
 34  18  33  1   
 35  18  34  1   
 36  19  20  1   
 37  19  35  1   
 38  19  36  1   
 39  20  37  1   
 40  20  38  1   
@<TRIPOS>SUBSTRUCTURE
  1 ****   9 GROUP 4 **** **** 0

# MOE 2024.06 (io_trps.svl 2023.06)
