@<TRIPOS>MOLECULE
NONAME
61 65 1 0 0 
SMALL
USER_CHARGES


@<TRIPOS>ATOM
  1 O      -11.3730     0.7520    -0.1990 O.2   1 <1>  -0.5700 
  2 C      -12.2670     0.1850     0.3860 C.2   1 <1>   0.5690 
  3 N      -11.9970    -0.4780     1.5460 N.am  1 <1>  -0.7300 
  4 C      -13.7110     0.1990    -0.1590 C.3   1 <1>   0.0610 
  5 C      -10.6880    -0.4910     2.2530 C.3   1 <1>   0.1400 
  6 C      -14.2080    -1.2480    -0.4120 C.3   1 <1>  -0.1600 
  7 C      -14.6630     0.8750     0.8610 C.3   1 <1>  -0.1600 
  8 C      -13.8110     0.9800    -1.4970 C.3   1 <1>  -0.1600 
  9 C       -9.5540    -1.0370     1.3560 C.3   1 <1>   0.3430 
 10 C      -15.6560    -1.2490    -0.9360 C.3   1 <1>  -0.0800 
 11 C      -16.1130     0.8800     0.3410 C.3   1 <1>  -0.0800 
 12 C      -15.2560     0.9890    -2.0280 C.3   1 <1>  -0.0800 
 13 N       -8.3490    -0.1430     1.3140 N.4   1 <1>  -0.9590 
 14 C      -16.5710    -0.5700     0.1010 C.3   1 <1>  -0.1600 
 15 C      -15.7180    -0.4610    -2.2570 C.3   1 <1>  -0.1600 
 16 C      -16.1730     1.6560    -0.9880 C.3   1 <1>  -0.1600 
 17 C       -8.6350     1.1100     0.5100 C.3   1 <1>   0.3430 
 18 C       -7.1670    -0.8630     0.7110 C.3   1 <1>   0.3430 
 19 C       -7.4120     2.0420     0.3900 C.3   1 <1>   0.2090 
 20 C       -5.9110     0.0290     0.6270 C.3   1 <1>   0.2090 
 21 N       -6.2100     1.3000    -0.0920 N.pl3 1 <1>  -0.8380 
 22 C       -5.1210     2.0780    -0.4690 C.ar  1 <1>   0.1000 
 23 C       -4.8830     2.3150    -1.8160 C.ar  1 <1>  -0.1500 
 24 C       -4.2600     2.6340     0.4710 C.ar  1 <1>  -0.1500 
 25 C       -3.8080     3.0860    -2.2190 C.ar  1 <1>  -0.1500 
 26 C       -3.1830     3.4050     0.0720 C.ar  1 <1>  -0.1500 
 27 C       -2.9550     3.6310    -1.2750 C.ar  1 <1>  -0.1500 
 28 H      -12.7880    -0.9000     2.0430 H     1 <1>   0.3700 
 29 H      -10.7750    -1.1130     3.1270 H     1 <1>   0.0800 
 30 H      -10.4680     0.5120     2.5740 H     1 <1>   0.0800 
 31 H      -14.1660    -1.8230     0.4950 H     1 <1>   0.0800 
 32 H      -13.5680    -1.7280    -1.1320 H     1 <1>   0.0800 
 33 H      -14.3430     1.8880     1.0370 H     1 <1>   0.0800 
 34 H      -14.6330     0.3580     1.8030 H     1 <1>   0.0800 
 35 H      -13.1640     0.5310    -2.2300 H     1 <1>   0.0800 
 36 H      -13.4790     1.9930    -1.3520 H     1 <1>   0.0800 
 37 H       -9.9340    -1.1640     0.3550 H     1 <1>   0.0800 
 38 H       -9.2680    -2.0070     1.7270 H     1 <1>   0.0800 
 39 H      -15.9840    -2.2610    -1.1030 H     1 <1>   0.0800 
 40 H      -16.7590     1.3510     1.0630 H     1 <1>   0.0800 
 41 H      -15.3000     1.5350    -2.9550 H     1 <1>   0.0800 
 42 H       -8.0910     0.1470     2.2640 H     1 <1>   0.4500 
 43 H      -16.5480    -1.1200     1.0260 H     1 <1>   0.0800 
 44 H      -17.5870    -0.5750    -0.2540 H     1 <1>   0.0800 
 45 H      -16.7260    -0.4660    -2.6370 H     1 <1>   0.0800 
 46 H      -15.0920    -0.9330    -2.9940 H     1 <1>   0.0800 
 47 H      -15.8650     2.6750    -0.8300 H     1 <1>   0.0800 
 48 H      -17.1850     1.6750    -1.3530 H     1 <1>   0.0800 
 49 H       -9.4510     1.6570     0.9530 H     1 <1>   0.0800 
 50 H       -8.9440     0.8330    -0.4850 H     1 <1>   0.0800 
 51 H       -7.4140    -1.1840    -0.2880 H     1 <1>   0.0800 
 52 H       -6.9350    -1.7400     1.2920 H     1 <1>   0.0800 
 53 H       -7.1990     2.4940     1.3430 H     1 <1>   0.0800 
 54 H       -7.6380     2.8340    -0.3050 H     1 <1>   0.0800 
 55 H       -5.1340    -0.4970     0.0980 H     1 <1>   0.0800 
 56 H       -5.5480     0.2470     1.6160 H     1 <1>   0.0800 
 57 H       -5.5460     1.8890    -2.5450 H     1 <1>   0.1500 
 58 H       -4.4330     2.4650     1.5170 H     1 <1>   0.1500 
 59 H       -3.6340     3.2610    -3.2670 H     1 <1>   0.1500 
 60 H       -2.5200     3.8300     0.8050 H     1 <1>   0.1500 
 61 H       -2.1180     4.2310    -1.5870 H     1 <1>   0.1500 
@<TRIPOS>BOND
  1   1   2  2   
  2   2   3  am  
  3   2   4  1   
  4   3   5  1   
  5   3  28  1   
  6   4   6  1   
  7   4   7  1   
  8   4   8  1   
  9   5   9  1   
 10   5  29  1   
 11   5  30  1   
 12   6  10  1   
 13   6  31  1   
 14   6  32  1   
 15   7  11  1   
 16   7  33  1   
 17   7  34  1   
 18   8  12  1   
 19   8  35  1   
 20   8  36  1   
 21   9  13  1   
 22   9  37  1   
 23   9  38  1   
 24  10  14  1   
 25  10  15  1   
 26  10  39  1   
 27  11  14  1   
 28  11  16  1   
 29  11  40  1   
 30  12  15  1   
 31  12  16  1   
 32  12  41  1   
 33  13  17  1   
 34  13  18  1   
 35  13  42  1   
 36  14  43  1   
 37  14  44  1   
 38  15  45  1   
 39  15  46  1   
 40  16  47  1   
 41  16  48  1   
 42  17  19  1   
 43  17  49  1   
 44  17  50  1   
 45  18  20  1   
 46  18  51  1   
 47  18  52  1   
 48  19  21  1   
 49  19  53  1   
 50  19  54  1   
 51  20  21  1   
 52  20  55  1   
 53  20  56  1   
 54  21  22  1   
 55  22  23  ar  
 56  22  24  ar  
 57  23  25  ar  
 58  23  57  1   
 59  24  26  ar  
 60  24  58  1   
 61  25  27  ar  
 62  25  59  1   
 63  26  27  ar  
 64  26  60  1   
 65  27  61  1   
@<TRIPOS>SUBSTRUCTURE
  1 ****   1 GROUP 4 **** **** 0

# MOE 2024.06 (io_trps.svl 2023.06)
