@<TRIPOS>MOLECULE
NONAME
54 56 1 0 0 
SMALL
USER_CHARGES


@<TRIPOS>ATOM
  1 BR       1.4260    -0.1000     1.3780 Br    1 <1>  -0.1110 
  2 C        0.4680    -1.7050     0.8920 C.ar  1 <1>   0.1110 
  3 C        0.9930    -2.5600    -0.0680 C.ar  1 <1>   0.0820 
  4 C       -0.7310    -1.9490     1.5290 C.ar  1 <1>  -0.1500 
  5 O        2.1820    -2.2320    -0.6390 O.3   1 <1>  -0.3630 
  6 C        0.2700    -3.7040    -0.3920 C.ar  1 <1>  -0.1500 
  7 C       -1.4470    -3.0900     1.1990 C.ar  1 <1>  -0.1430 
  8 C        2.8360    -3.0860    -1.5520 C.3   1 <1>   0.0400 
  9 C       -0.9460    -3.9680     0.2380 C.ar  1 <1>   0.0830 
 10 C       -2.7680    -3.3780     1.8870 C.3   1 <1>   0.4870 
 11 O       -1.7000    -5.0660    -0.0490 O.3   1 <1>  -0.3630 
 12 N       -3.8380    -3.4060     0.8610 N.4   1 <1>  -0.9590 
 13 C       -1.1700    -6.1410    -0.8010 C.3   1 <1>   0.0400 
 14 C       -4.0190    -2.0750     0.1760 C.3   1 <1>   0.3430 
 15 C       -5.1400    -3.9360     1.4000 C.3   1 <1>   0.3430 
 16 C       -5.1110    -2.1050    -0.9150 C.3   1 <1>   0.2090 
 17 C       -6.2310    -4.0290     0.3150 C.3   1 <1>   0.2090 
 18 N       -6.3700    -2.7450    -0.4290 N.pl3 1 <1>  -0.8380 
 19 C       -7.4650    -1.9390    -0.1140 C.ar  1 <1>   0.1000 
 20 C       -8.6900    -2.0800    -0.7760 C.ar  1 <1>  -0.1430 
 21 C       -7.3450    -0.9890     0.8960 C.ar  1 <1>  -0.1500 
 22 C       -9.7730    -1.2880    -0.4010 C.ar  1 <1>  -0.1430 
 23 C       -8.8370    -3.1030    -1.9030 C.3   1 <1>  -0.0970 
 24 C       -8.4140    -0.1970     1.2540 C.ar  1 <1>  -0.1500 
 25 C       -9.6250    -0.3490     0.6080 C.ar  1 <1>  -0.1500 
 26 C      -11.1380    -1.4120    -1.0660 C.3   1 <1>  -0.0970 
 27 H       -1.0790    -1.2490     2.2690 H     1 <1>   0.1500 
 28 H        0.6540    -4.3750    -1.1330 H     1 <1>   0.1500 
 29 H        3.7670    -2.6240    -1.8300 H     1 <1>   0.0800 
 30 H        2.2180    -3.2080    -2.4230 H     1 <1>   0.0800 
 31 H        3.0270    -4.0300    -1.0740 H     1 <1>   0.0800 
 32 H       -2.9780    -2.6240     2.6280 H     1 <1>   0.0800 
 33 H       -2.7030    -4.3360     2.3780 H     1 <1>   0.0800 
 34 H       -3.4870    -4.0690     0.1500 H     1 <1>   0.4500 
 35 H       -0.9880    -5.8130    -1.8090 H     1 <1>   0.0800 
 36 H       -1.8900    -6.9400    -0.8060 H     1 <1>   0.0800 
 37 H       -0.2580    -6.4800    -0.3390 H     1 <1>   0.0800 
 38 H       -3.0890    -1.7630    -0.2730 H     1 <1>   0.0800 
 39 H       -4.2950    -1.3320     0.9040 H     1 <1>   0.0800 
 40 H       -5.5010    -3.2840     2.1780 H     1 <1>   0.0800 
 41 H       -4.9910    -4.9140     1.8290 H     1 <1>   0.0800 
 42 H       -4.7510    -2.6500    -1.7700 H     1 <1>   0.0800 
 43 H       -5.3220    -1.1000    -1.2390 H     1 <1>   0.0800 
 44 H       -7.1730    -4.2780     0.7760 H     1 <1>   0.0800 
 45 H       -5.9910    -4.8140    -0.3800 H     1 <1>   0.0800 
 46 H       -6.4140    -0.8680     1.4090 H     1 <1>   0.1500 
 47 H       -7.8930    -3.3100    -2.3710 H     1 <1>   0.0800 
 48 H       -9.4910    -2.7410    -2.6730 H     1 <1>   0.0800 
 49 H       -9.2340    -4.0200    -1.5100 H     1 <1>   0.0800 
 50 H       -8.3140     0.5370     2.0350 H     1 <1>   0.1500 
 51 H      -10.4550     0.2720     0.8980 H     1 <1>   0.1500 
 52 H      -11.4460    -2.4410    -1.0960 H     1 <1>   0.0800 
 53 H      -11.0930    -1.0270    -2.0690 H     1 <1>   0.0800 
 54 H      -11.8840    -0.8590    -0.5240 H     1 <1>   0.0800 
@<TRIPOS>BOND
  1   1   2  1   
  2   2   3  ar  
  3   2   4  ar  
  4   3   5  1   
  5   3   6  ar  
  6   4   7  ar  
  7   4  27  1   
  8   5   8  1   
  9   6   9  ar  
 10   6  28  1   
 11   7   9  ar  
 12   7  10  1   
 13   8  29  1   
 14   8  30  1   
 15   8  31  1   
 16   9  11  1   
 17  10  12  1   
 18  10  32  1   
 19  10  33  1   
 20  11  13  1   
 21  12  14  1   
 22  12  15  1   
 23  12  34  1   
 24  13  35  1   
 25  13  36  1   
 26  13  37  1   
 27  14  16  1   
 28  14  38  1   
 29  14  39  1   
 30  15  17  1   
 31  15  40  1   
 32  15  41  1   
 33  16  18  1   
 34  16  42  1   
 35  16  43  1   
 36  17  18  1   
 37  17  44  1   
 38  17  45  1   
 39  18  19  1   
 40  19  20  ar  
 41  19  21  ar  
 42  20  22  ar  
 43  20  23  1   
 44  21  24  ar  
 45  21  46  1   
 46  22  25  ar  
 47  22  26  1   
 48  23  47  1   
 49  23  48  1   
 50  23  49  1   
 51  24  25  ar  
 52  24  50  1   
 53  25  51  1   
 54  26  52  1   
 55  26  53  1   
 56  26  54  1   
@<TRIPOS>SUBSTRUCTURE
  1 ****  14 GROUP 4 **** **** 0

# MOE 2024.06 (io_trps.svl 2023.06)
