@<TRIPOS>MOLECULE
NONAME
40 42 1 0 0 
SMALL
USER_CHARGES


@<TRIPOS>ATOM
  1 S       -0.0570    -0.3730     0.2130 S.3   1 <1>  -0.0800 
  2 C        0.2630     1.3570     0.2410 C.2   1 <1>   0.1040 
  3 C        1.6250    -0.7490     0.5390 C.2   1 <1>  -0.1100 
  4 N       -0.7610     2.2780     0.0930 N.am  1 <1>  -0.4940 
  5 C        1.5910     1.5970     0.4520 C.2   1 <1>  -0.0860 
  6 C        2.3430     0.3820     0.6410 C.2   1 <1>  -0.1500 
  7 C       -2.0570     2.1900    -0.3550 C.2   1 <1>   0.7160 
  8 C        2.1700     2.9140     0.4980 C.2   1 <1>   0.7160 
  9 O       -2.4870     1.1430    -0.7920 O.2   1 <1>  -0.5700 
 10 C       -2.8980     3.3600    -0.3080 C.2   1 <1>  -0.0860 
 11 O        1.4920     3.8550     0.8830 O.2   1 <1>  -0.5700 
 12 N        3.4610     3.1710     0.0940 N.am  1 <1>  -0.6600 
 13 C       -4.2310     3.4660    -0.1130 C.2   1 <1>  -0.0400 
 14 C       -2.5490     4.6990    -0.4580 C.2   1 <1>   0.1080 
 15 C        4.1840     4.4000     0.5330 C.3   1 <1>   0.1400 
 16 C        4.1160     2.4920    -1.0640 C.3   1 <1>   0.1400 
 17 O       -4.6420     4.7100    -0.1320 O.3   1 <1>  -0.0190 
 18 C       -5.2760     2.3890     0.1230 C.3   1 <1>  -0.0600 
 19 N       -3.5790     5.4470    -0.3460 N.2   1 <1>  -0.4100 
 20 C       -1.1710     5.2720    -0.7360 C.3   1 <1>  -0.0590 
 21 C        5.6850     4.1110     0.7050 C.3   1 <1>   0.1200 
 22 C        5.6170     2.2980    -0.7910 C.3   1 <1>   0.1200 
 23 O        6.2110     3.5180    -0.4490 O.3   1 <1>  -0.5600 
 24 H        1.8880    -1.7890     0.6250 H     1 <1>   0.1500 
 25 H       -0.4960     3.2200     0.3910 H     1 <1>   0.3700 
 26 H        3.3970     0.4180     0.8560 H     1 <1>   0.1500 
 27 H        3.7790     4.7550     1.4660 H     1 <1>   0.0800 
 28 H        4.0520     5.1740    -0.2040 H     1 <1>   0.0800 
 29 H        4.0030     3.1070    -1.9400 H     1 <1>   0.0800 
 30 H        3.6570     1.5430    -1.2710 H     1 <1>   0.0800 
 31 H       -4.8260     1.4150     0.1790 H     1 <1>   0.0800 
 32 H       -5.9870     2.3940    -0.6830 H     1 <1>   0.0800 
 33 H       -5.7930     2.5820     1.0440 H     1 <1>   0.0800 
 34 H       -0.6170     5.3570     0.1800 H     1 <1>   0.0800 
 35 H       -1.2690     6.2540    -1.1640 H     1 <1>   0.0800 
 36 H       -0.6340     4.6530    -1.4310 H     1 <1>   0.0800 
 37 H        5.8510     3.4510     1.5390 H     1 <1>   0.0800 
 38 H        6.2220     5.0270     0.8780 H     1 <1>   0.0800 
 39 H        6.1110     1.9300    -1.6730 H     1 <1>   0.0800 
 40 H        5.7740     1.5990     0.0120 H     1 <1>   0.0800 
@<TRIPOS>BOND
  1   1   2  1   
  2   1   3  1   
  3   2   4  1   
  4   2   5  2   
  5   3   6  2   
  6   3  24  1   
  7   4   7  am  
  8   4  25  1   
  9   5   6  1   
 10   5   8  1   
 11   6  26  1   
 12   7   9  2   
 13   7  10  1   
 14   8  11  2   
 15   8  12  am  
 16  10  13  2   
 17  10  14  1   
 18  12  15  1   
 19  12  16  1   
 20  13  17  1   
 21  13  18  1   
 22  14  19  2   
 23  14  20  1   
 24  15  21  1   
 25  15  27  1   
 26  15  28  1   
 27  16  22  1   
 28  16  29  1   
 29  16  30  1   
 30  17  19  1   
 31  18  31  1   
 32  18  32  1   
 33  18  33  1   
 34  20  34  1   
 35  20  35  1   
 36  20  36  1   
 37  21  23  1   
 38  21  37  1   
 39  21  38  1   
 40  22  23  1   
 41  22  39  1   
 42  22  40  1   
@<TRIPOS>SUBSTRUCTURE
  1 ****   4 GROUP 4 **** **** 0

# MOE 2024.06 (io_trps.svl 2023.06)
