@<TRIPOS>MOLECULE
NONAME
44 46 1 0 0 
SMALL
USER_CHARGES


@<TRIPOS>ATOM
  1 S        0.0120    -0.6020    -1.5940 S.3   1 <1>  -0.3710 
  2 C       -0.8500     0.5610    -0.5400 C.2   1 <1>   0.6510 
  3 C        1.5460     0.3160    -2.1410 C.3   1 <1>   0.1310 
  4 N       -0.3750     1.7430    -0.5170 N.2   1 <1>  -0.6210 
  5 N       -1.9440     0.0970     0.1680 N.am  1 <1>  -0.2370 
  6 C        2.7300     0.0350    -1.2140 C.2   1 <1>   0.5690 
  7 C       -0.9320     2.6460     0.3300 C.2   1 <1>   0.0210 
  8 C       -2.5740     1.0310     0.9900 C.2   1 <1>   0.6160 
  9 C       -2.3830    -1.2400     0.1040 C.ar  1 <1>   0.1170 
 10 O        3.3240    -1.0020    -1.4130 O.2   1 <1>  -0.5700 
 11 N        3.1500     0.9030    -0.2300 N.am  1 <1>  -0.6600 
 12 O       -0.3770     3.7410     0.4040 O.3   1 <1>  -0.8500 
 13 C       -2.0440     2.3080     1.0730 C.2   1 <1>  -0.1360 
 14 O       -3.5860     0.6920     1.6310 O.2   1 <1>  -0.5700 
 15 C       -3.5010    -1.5820    -0.6470 C.ar  1 <1>  -0.1500 
 16 C       -1.7040    -2.2410     0.7900 C.ar  1 <1>  -0.1500 
 17 C        4.2450     0.5280     0.7100 C.3   1 <1>   0.1400 
 18 C        2.5060     2.2140     0.1290 C.3   1 <1>   0.1400 
 19 C       -3.9250    -2.8960    -0.7180 C.ar  1 <1>  -0.1500 
 20 C       -2.1240    -3.5570     0.7220 C.ar  1 <1>  -0.1500 
 21 C        5.2080     1.7040     0.9220 C.3   1 <1>   0.1200 
 22 C        3.5360     3.2960     0.4960 C.3   1 <1>   0.1200 
 23 C       -3.2420    -3.8920    -0.0380 C.ar  1 <1>   0.0820 
 24 O        4.5140     2.8230     1.3860 O.3   1 <1>  -0.5600 
 25 O       -3.7210    -5.1570    -0.1630 O.3   1 <1>  -0.3630 
 26 C       -3.0790    -6.2430     0.4670 C.3   1 <1>   0.0400 
 27 H        1.3220     1.3590    -2.2280 H     1 <1>   0.0800 
 28 H        1.7770    -0.0610    -3.1190 H     1 <1>   0.0800 
 29 H       -2.4870     3.0380     1.7170 H     1 <1>   0.1500 
 30 H       -4.0380    -0.8120    -1.1730 H     1 <1>   0.1500 
 31 H       -0.8400    -1.9810     1.3750 H     1 <1>   0.1500 
 32 H        4.7980    -0.3140     0.3330 H     1 <1>   0.0800 
 33 H        3.8150     0.2480     1.6560 H     1 <1>   0.0800 
 34 H        1.8390     2.0720     0.9630 H     1 <1>   0.0800 
 35 H        1.9240     2.6000    -0.6860 H     1 <1>   0.0800 
 36 H       -4.7900    -3.1580    -1.3000 H     1 <1>   0.1500 
 37 H       -1.5720    -4.3010     1.2630 H     1 <1>   0.1500 
 38 H        5.7040     1.9580     0.0020 H     1 <1>   0.0800 
 39 H        5.9480     1.4490     1.6590 H     1 <1>   0.0800 
 40 H        3.0300     4.1230     0.9630 H     1 <1>   0.0800 
 41 H        4.0270     3.6530    -0.3920 H     1 <1>   0.0800 
 42 H       -3.6190    -7.1390     0.2210 H     1 <1>   0.0800 
 43 H       -3.0930    -6.0860     1.5310 H     1 <1>   0.0800 
 44 H       -2.0700    -6.3120     0.0990 H     1 <1>   0.0800 
@<TRIPOS>BOND
  1   1   2  1   
  2   1   3  1   
  3   2   4  2   
  4   2   5  1   
  5   3   6  1   
  6   3  27  1   
  7   3  28  1   
  8   4   7  1   
  9   5   8  am  
 10   5   9  1   
 11   6  10  2   
 12   6  11  am  
 13   7  12  1   
 14   7  13  2   
 15   8  13  1   
 16   8  14  2   
 17   9  15  ar  
 18   9  16  ar  
 19  11  17  1   
 20  11  18  1   
 21  13  29  1   
 22  15  19  ar  
 23  15  30  1   
 24  16  20  ar  
 25  16  31  1   
 26  17  21  1   
 27  17  32  1   
 28  17  33  1   
 29  18  22  1   
 30  18  34  1   
 31  18  35  1   
 32  19  23  ar  
 33  19  36  1   
 34  20  23  ar  
 35  20  37  1   
 36  21  24  1   
 37  21  38  1   
 38  21  39  1   
 39  22  24  1   
 40  22  40  1   
 41  22  41  1   
 42  23  25  1   
 43  25  26  1   
 44  26  42  1   
 45  26  43  1   
 46  26  44  1   
@<TRIPOS>SUBSTRUCTURE
  1 ****   2 GROUP 4 **** **** 0

# MOE 2024.06 (io_trps.svl 2023.06)
