@<TRIPOS>MOLECULE
NONAME
24 24 1 0 0 
SMALL
USER_CHARGES


@<TRIPOS>ATOM
  1 S       -0.1670    -0.2890    -0.0030 S.3   1 <1>  -0.3710 
  2 C       -1.5580     0.8230     0.0010 C.2   1 <1>   0.6510 
  3 C        1.2740     0.8670     0.0010 C.3   1 <1>   0.0700 
  4 N       -1.3590     2.0860     0.0050 N.2   1 <1>  -0.6210 
  5 N       -2.7640     0.2040    -0.0020 N.am  1 <1>  -0.4900 
  6 C        2.5550     0.0320    -0.0020 C.3   1 <1>  -0.1600 
  7 C       -2.4760     2.8860     0.0080 C.2   1 <1>   0.0210 
  8 C       -3.8970     0.9590     0.0010 C.2   1 <1>   0.6160 
  9 C        3.7980     0.9300     0.0010 C.3   1 <1>  -0.1600 
 10 O       -2.2980     4.1050     0.0130 O.3   1 <1>  -0.8500 
 11 C       -3.7460     2.3340     0.0060 C.2   1 <1>  -0.1360 
 12 O       -4.9760     0.3470    -0.0010 O.2   1 <1>  -0.5700 
 13 C        5.0820     0.0960    -0.0020 C.3   1 <1>  -0.2400 
 14 H        1.1890     1.4780     0.8830 H     1 <1>   0.0800 
 15 H        1.1890     1.4840    -0.8770 H     1 <1>   0.0800 
 16 H       -2.8460    -0.8020    -0.0050 H     1 <1>   0.3700 
 17 H        2.5630    -0.5940    -0.8770 H     1 <1>   0.0800 
 18 H        2.5630    -0.6000     0.8690 H     1 <1>   0.0800 
 19 H        3.7840     1.5600     0.8750 H     1 <1>   0.0800 
 20 H        3.7850     1.5660    -0.8680 H     1 <1>   0.0800 
 21 H       -4.5990     2.9780     0.0080 H     1 <1>   0.1500 
 22 H        5.1240    -0.5320     0.8710 H     1 <1>   0.0800 
 23 H        5.9410     0.7440     0.0010 H     1 <1>   0.0800 
 24 H        5.1240    -0.5260    -0.8790 H     1 <1>   0.0800 
@<TRIPOS>BOND
  1   1   2  1   
  2   1   3  1   
  3   2   4  2   
  4   2   5  1   
  5   3   6  1   
  6   3  14  1   
  7   3  15  1   
  8   4   7  1   
  9   5   8  am  
 10   5  16  1   
 11   6   9  1   
 12   6  17  1   
 13   6  18  1   
 14   7  10  1   
 15   7  11  2   
 16   8  11  1   
 17   8  12  2   
 18   9  13  1   
 19   9  19  1   
 20   9  20  1   
 21  11  21  1   
 22  13  22  1   
 23  13  23  1   
 24  13  24  1   
@<TRIPOS>SUBSTRUCTURE
  1 ****   2 GROUP 4 **** **** 0

# MOE 2024.06 (io_trps.svl 2023.06)
