@<TRIPOS>MOLECULE
NONAME
36 36 1 0 0 
SMALL
USER_CHARGES


@<TRIPOS>ATOM
  1 CL      -0.0180    -2.6520     3.0810 Cl    1 <1>  -0.1770 
  2 C       -0.9410    -2.4500     1.6080 C.ar  1 <1>   0.1770 
  3 C       -0.3440    -1.9050     0.4720 C.ar  1 <1>   0.0830 
  4 C       -2.2600    -2.8580     1.6120 C.ar  1 <1>  -0.1500 
  5 O        0.9680    -1.5470     0.5500 O.3   1 <1>  -0.3630 
  6 C       -1.1140    -1.7610    -0.6830 C.ar  1 <1>  -0.1500 
  7 C       -2.9960    -2.7140     0.4520 C.ar  1 <1>   0.1770 
  8 C        1.7610    -1.2390    -0.5920 C.3   1 <1>   0.2610 
  9 C       -2.4390    -2.1690    -0.6910 C.ar  1 <1>  -0.1500 
 10 CL      -4.6600    -3.2350     0.4270 Cl    1 <1>  -0.1770 
 11 C        3.2260    -1.7190    -0.4250 C.2   1 <1>   0.5690 
 12 C        1.6330     0.2760    -0.8300 C.3   1 <1>  -0.2400 
 13 O        4.1190    -1.0220    -0.8430 O.2   1 <1>  -0.5700 
 14 N        3.5730    -2.9220     0.1100 N.am  1 <1>  -0.7300 
 15 C        2.7690    -3.9030     0.8710 C.3   1 <1>   0.1400 
 16 C        1.8920    -4.7240    -0.0740 C.3   1 <1>  -0.1600 
 17 C        0.9840    -5.6610     0.7250 C.3   1 <1>   0.1200 
 18 O        0.1720    -6.3710    -0.1540 O.3   1 <1>  -0.5600 
 19 C       -1.0430    -5.7620    -0.4640 C.3   1 <1>   0.0400 
 20 H       -2.7040    -3.2780     2.4950 H     1 <1>   0.1500 
 21 H       -0.7110    -1.3310    -1.5810 H     1 <1>   0.1500 
 22 H        1.3700    -1.7760    -1.4340 H     1 <1>   0.0800 
 23 H       -3.0430    -2.0640    -1.5760 H     1 <1>   0.1500 
 24 H        2.0750     0.8110    -0.0080 H     1 <1>   0.0800 
 25 H        0.6050     0.5680    -0.9340 H     1 <1>   0.0800 
 26 H        2.1590     0.5490    -1.7280 H     1 <1>   0.0800 
 27 H        4.5790    -3.1040     0.1000 H     1 <1>   0.3700 
 28 H        2.1680    -3.3870     1.5980 H     1 <1>   0.0800 
 29 H        3.4350    -4.5590     1.4070 H     1 <1>   0.0800 
 30 H        2.5170    -5.3090    -0.7240 H     1 <1>   0.0800 
 31 H        1.2860    -4.0660    -0.6660 H     1 <1>   0.0800 
 32 H        0.3720    -5.1250     1.4300 H     1 <1>   0.0800 
 33 H        1.5790    -6.3810     1.2600 H     1 <1>   0.0800 
 34 H       -0.8620    -4.8080    -0.9250 H     1 <1>   0.0800 
 35 H       -1.5700    -6.4010    -1.1500 H     1 <1>   0.0800 
 36 H       -1.6210    -5.6460     0.4360 H     1 <1>   0.0800 
@<TRIPOS>BOND
  1   1   2  1   
  2   2   3  ar  
  3   2   4  ar  
  4   3   5  1   
  5   3   6  ar  
  6   4   7  ar  
  7   4  20  1   
  8   5   8  1   
  9   6   9  ar  
 10   6  21  1   
 11   7   9  ar  
 12   7  10  1   
 13   8  11  1   
 14   8  12  1   
 15   8  22  1   
 16   9  23  1   
 17  11  13  2   
 18  11  14  am  
 19  12  24  1   
 20  12  25  1   
 21  12  26  1   
 22  14  15  1   
 23  14  27  1   
 24  15  16  1   
 25  15  28  1   
 26  15  29  1   
 27  16  17  1   
 28  16  30  1   
 29  16  31  1   
 30  17  18  1   
 31  17  32  1   
 32  17  33  1   
 33  18  19  1   
 34  19  34  1   
 35  19  35  1   
 36  19  36  1   
@<TRIPOS>SUBSTRUCTURE
  1 ****   3 GROUP 4 **** **** 0

# MOE 2024.06 (io_trps.svl 2023.06)
