@<TRIPOS>MOLECULE
NONAME
43 44 1 0 0 
SMALL
USER_CHARGES


@<TRIPOS>ATOM
  1 S        0.6060     0.2510    -0.0390 S.3   1 <1>  -0.2860 
  2 C       -1.0280     0.8840     0.3540 C.2   1 <1>   0.2420 
  3 C        1.1650    -0.4590     1.5870 C.3   1 <1>   0.1310 
  4 N       -1.5450     0.8340     1.5280 N.2   1 <1>  -0.3380 
  5 N       -1.8160     1.4560    -0.5550 N.pl3 1 <1>   0.0480 
  6 C        2.5950    -0.9700     1.5120 C.2   1 <1>   0.5690 
  7 N       -2.7480     1.4060     1.4150 N.2   1 <1>  -0.3380 
  8 C       -2.8940     1.7700     0.1810 C.2   1 <1>   0.0060 
  9 C       -1.5390     1.6790    -1.9880 C.3   1 <1>   0.0160 
 10 O        2.9160    -1.8520     2.2710 O.2   1 <1>  -0.5700 
 11 N        3.4450    -0.4000     0.6050 N.am  1 <1>  -0.5470 
 12 C       -4.1240     2.4680    -0.3910 C.3   1 <1>   0.0200 
 13 C        4.8030    -0.5910     0.2860 C.ar  1 <1>   0.1170 
 14 C       -5.1720     2.8200     0.6720 C.3   1 <1>  -0.2400 
 15 C        5.3270     0.1180    -0.8010 C.ar  1 <1>   0.0830 
 16 C        5.6420    -1.4400     0.9980 C.ar  1 <1>  -0.1500 
 17 O        4.4720     0.9500    -1.4750 O.3   1 <1>  -0.3630 
 18 C        6.6640    -0.0360    -1.1550 C.ar  1 <1>  -0.1500 
 19 C        6.9720    -1.5940     0.6480 C.ar  1 <1>   0.0830 
 20 C        4.9120     1.7040    -2.5830 C.3   1 <1>   0.0400 
 21 C        7.4840    -0.8880    -0.4350 C.ar  1 <1>  -0.1500 
 22 O        7.7100    -2.4470     1.4060 O.3   1 <1>  -0.3620 
 23 C        9.0700    -2.6870     1.1250 C.3   1 <1>   0.0400 
 24 H        0.4920    -1.2590     1.8320 H     1 <1>   0.0800 
 25 H        1.0860     0.3200     2.3220 H     1 <1>   0.0800 
 26 H       -0.8990     2.5350    -2.0960 H     1 <1>   0.0800 
 27 H       -2.4580     1.8460    -2.5190 H     1 <1>   0.0800 
 28 H       -1.0500     0.8130    -2.3970 H     1 <1>   0.0800 
 29 H        3.0060     0.2830    -0.0190 H     1 <1>   0.3700 
 30 H       -4.5770     1.8260    -1.1250 H     1 <1>   0.0800 
 31 H       -3.8140     3.3740    -0.8820 H     1 <1>   0.0800 
 32 H       -5.5190     1.9270     1.1610 H     1 <1>   0.0800 
 33 H       -6.0120     3.3160     0.2190 H     1 <1>   0.0800 
 34 H       -4.7430     3.4710     1.4140 H     1 <1>   0.0800 
 35 H        5.2730    -1.9960     1.8380 H     1 <1>   0.1500 
 36 H        7.0900     0.4950    -1.9850 H     1 <1>   0.1500 
 37 H        4.0810     2.2790    -2.9490 H     1 <1>   0.0800 
 38 H        5.2570     1.0330    -3.3500 H     1 <1>   0.0800 
 39 H        5.7000     2.3660    -2.2660 H     1 <1>   0.0800 
 40 H        8.5100    -0.9870    -0.7310 H     1 <1>   0.1500 
 41 H        9.4390    -3.3940     1.8460 H     1 <1>   0.0800 
 42 H        9.6130    -1.7630     1.2090 H     1 <1>   0.0800 
 43 H        9.1550    -3.0980     0.1350 H     1 <1>   0.0800 
@<TRIPOS>BOND
  1   1   2  1   
  2   1   3  1   
  3   2   4  2   
  4   2   5  1   
  5   3   6  1   
  6   3  24  1   
  7   3  25  1   
  8   4   7  1   
  9   5   8  1   
 10   5   9  1   
 11   6  10  2   
 12   6  11  am  
 13   7   8  2   
 14   8  12  1   
 15   9  26  1   
 16   9  27  1   
 17   9  28  1   
 18  11  13  1   
 19  11  29  1   
 20  12  14  1   
 21  12  30  1   
 22  12  31  1   
 23  13  15  ar  
 24  13  16  ar  
 25  14  32  1   
 26  14  33  1   
 27  14  34  1   
 28  15  17  1   
 29  15  18  ar  
 30  16  19  ar  
 31  16  35  1   
 32  17  20  1   
 33  18  21  ar  
 34  18  36  1   
 35  19  21  ar  
 36  19  22  1   
 37  20  37  1   
 38  20  38  1   
 39  20  39  1   
 40  21  40  1   
 41  22  23  1   
 42  23  41  1   
 43  23  42  1   
 44  23  43  1   
@<TRIPOS>SUBSTRUCTURE
  1 ****  11 GROUP 4 **** **** 0

# MOE 2024.06 (io_trps.svl 2023.06)
