@<TRIPOS>MOLECULE
NONAME
34 34 1 0 0 
SMALL
USER_CHARGES


@<TRIPOS>ATOM
  1 S        0.2230     2.7360    -1.3540 S.3   1 <1>  -0.0800 
  2 C        1.3810     3.0620    -0.1190 C.2   1 <1>   0.4340 
  3 C       -0.4160     1.5240    -0.2860 C.2   1 <1>   0.4420 
  4 S        2.5950     4.3230    -0.4710 S.3   1 <1>  -0.2860 
  5 N        1.2570     2.3500     0.9240 N.2   1 <1>  -0.3380 
  6 N        0.2240     1.4590     0.8280 N.2   1 <1>  -0.3380 
  7 N       -1.5000     0.8060    -0.7520 N.am  1 <1>  -0.4940 
  8 C        3.7280     4.2940     1.0030 C.3   1 <1>   0.1310 
  9 C       -2.1430    -0.2460    -0.1710 C.2   1 <1>   0.5690 
 10 C        5.1270     3.8450     0.5970 C.2   1 <1>   0.5690 
 11 O       -1.8120    -0.7440     0.8710 O.2   1 <1>  -0.5700 
 12 C       -3.3350    -0.8160    -0.8980 C.3   1 <1>  -0.1790 
 13 O        5.9610     4.7170     0.5070 O.2   1 <1>  -0.5700 
 14 N        5.4440     2.5240     0.3590 N.am  1 <1>  -0.6600 
 15 C        6.8170     2.1630    -0.0920 C.3   1 <1>   0.1400 
 16 C        4.5530     1.3670     0.6630 C.3   1 <1>   0.1400 
 17 C        6.9630     2.4210    -1.5910 C.3   1 <1>  -0.2400 
 18 C        4.0150     0.7500    -0.6260 C.3   1 <1>  -0.2400 
 19 H       -1.8590     1.1030    -1.6540 H     1 <1>   0.3700 
 20 H        3.3070     3.6640     1.7600 H     1 <1>   0.0800 
 21 H        3.7680     5.3020     1.3710 H     1 <1>   0.0800 
 22 H       -3.0350    -1.1960    -1.8570 H     1 <1>   0.0800 
 23 H       -4.0850    -0.0580    -1.0250 H     1 <1>   0.0800 
 24 H       -3.7550    -1.6230    -0.3240 H     1 <1>   0.0800 
 25 H        7.0190     1.1280     0.1230 H     1 <1>   0.0800 
 26 H        7.5370     2.7590     0.4450 H     1 <1>   0.0800 
 27 H        3.7340     1.6710     1.2850 H     1 <1>   0.0800 
 28 H        5.1050     0.6260     1.2160 H     1 <1>   0.0800 
 29 H        7.9560     2.1580    -1.9070 H     1 <1>   0.0800 
 30 H        6.2590     1.8360    -2.1510 H     1 <1>   0.0800 
 31 H        6.8070     3.4640    -1.8030 H     1 <1>   0.0800 
 32 H        3.5790     1.5060    -1.2530 H     1 <1>   0.0800 
 33 H        4.8020     0.2520    -1.1610 H     1 <1>   0.0800 
 34 H        3.2590     0.0250    -0.3860 H     1 <1>   0.0800 
@<TRIPOS>BOND
  1   1   2  1   
  2   1   3  1   
  3   2   4  1   
  4   2   5  2   
  5   3   6  2   
  6   3   7  1   
  7   4   8  1   
  8   5   6  1   
  9   7   9  am  
 10   7  19  1   
 11   8  10  1   
 12   8  20  1   
 13   8  21  1   
 14   9  11  2   
 15   9  12  1   
 16  10  13  2   
 17  10  14  am  
 18  12  22  1   
 19  12  23  1   
 20  12  24  1   
 21  14  15  1   
 22  14  16  1   
 23  15  17  1   
 24  15  25  1   
 25  15  26  1   
 26  16  18  1   
 27  16  27  1   
 28  16  28  1   
 29  17  29  1   
 30  17  30  1   
 31  17  31  1   
 32  18  32  1   
 33  18  33  1   
 34  18  34  1   
@<TRIPOS>SUBSTRUCTURE
  1 ****   2 GROUP 4 **** **** 0

# MOE 2024.06 (io_trps.svl 2023.06)
