@<TRIPOS>MOLECULE
NONAME
44 45 1 0 0 
SMALL
USER_CHARGES


@<TRIPOS>ATOM
  1 O        0.3430     1.0810     1.9770 O.2   1 <1>  -0.5700 
  2 C       -0.2900     2.0530     1.6320 C.2   1 <1>   0.5690 
  3 N       -1.4800     1.8950     0.9480 N.am  1 <1>  -0.6600 
  4 C        0.2990     3.4180     2.0110 C.3   1 <1>   0.1810 
  5 C       -1.7870     0.5720     0.3160 C.3   1 <1>   0.1400 
  6 C       -2.3430     3.0360     0.5030 C.3   1 <1>   0.1400 
  7 O        0.1060     4.4280     1.0250 O.3   1 <1>  -0.3620 
  8 C       -3.2930     0.2630     0.3130 C.3   1 <1>   0.3430 
  9 C       -3.8380     2.6670     0.4580 C.3   1 <1>   0.3430 
 10 C        1.1500     4.7250     0.2130 C.ar  1 <1>   0.0820 
 11 N       -4.0900     1.3850    -0.2850 N.4   1 <1>  -0.9590 
 12 C        1.6310     3.8370    -0.7540 C.ar  1 <1>   0.0820 
 13 C        1.7380     5.9710     0.3600 C.ar  1 <1>  -0.1500 
 14 C       -5.5270     1.0500    -0.3690 C.3   1 <1>   0.4810 
 15 O        1.0380     2.6260    -0.9210 O.3   1 <1>  -0.3630 
 16 C        2.7060     4.2120    -1.5500 C.ar  1 <1>  -0.1500 
 17 C        2.8120     6.3350    -0.4340 C.ar  1 <1>  -0.1500 
 18 C       -6.1480     2.0100    -1.3570 C.2   1 <1>  -0.2880 
 19 C        1.8710     1.4880    -0.9830 C.3   1 <1>   0.0400 
 20 C        3.2960     5.4550    -1.3870 C.ar  1 <1>  -0.1500 
 21 C       -6.4890     1.7070    -2.6140 C.2   1 <1>  -0.3000 
 22 H        1.3550     3.3150     2.1910 H     1 <1>   0.0800 
 23 H       -0.1670     3.7590     2.9150 H     1 <1>   0.0800 
 24 H       -1.2810    -0.2200     0.8400 H     1 <1>   0.0800 
 25 H       -1.4160     0.5770    -0.6940 H     1 <1>   0.0800 
 26 H       -2.0160     3.3620    -0.4700 H     1 <1>   0.0800 
 27 H       -2.2350     3.8650     1.1790 H     1 <1>   0.0800 
 28 H       -3.6080     0.0920     1.3290 H     1 <1>   0.0800 
 29 H       -3.4600    -0.6450    -0.2430 H     1 <1>   0.0800 
 30 H       -4.3770     3.4750    -0.0070 H     1 <1>   0.0800 
 31 H       -4.1940     2.5720     1.4710 H     1 <1>   0.0800 
 32 H       -3.7740     1.5260    -1.2550 H     1 <1>   0.4500 
 33 H        1.3560     6.6530     1.0980 H     1 <1>   0.1500 
 34 H       -6.0040     1.1230     0.5950 H     1 <1>   0.0800 
 35 H       -5.6450     0.0440    -0.7390 H     1 <1>   0.0800 
 36 H        3.0820     3.5490    -2.3060 H     1 <1>   0.1500 
 37 H        3.2690     7.3020    -0.3120 H     1 <1>   0.1500 
 38 H       -6.3080     2.9940    -0.9480 H     1 <1>   0.1500 
 39 H        1.2600     0.6160    -0.8410 H     1 <1>   0.0800 
 40 H        2.6040     1.5470    -0.1970 H     1 <1>   0.0800 
 41 H        2.3470     1.4480    -1.9460 H     1 <1>   0.0800 
 42 H        4.1300     5.7400    -2.0060 H     1 <1>   0.1500 
 43 H       -6.9370     2.4110    -3.2990 H     1 <1>   0.1500 
 44 H       -6.3610     0.7420    -3.0780 H     1 <1>   0.1500 
@<TRIPOS>BOND
  1   1   2  2   
  2   2   3  am  
  3   2   4  1   
  4   3   5  1   
  5   3   6  1   
  6   4   7  1   
  7   4  22  1   
  8   4  23  1   
  9   5   8  1   
 10   5  24  1   
 11   5  25  1   
 12   6   9  1   
 13   6  26  1   
 14   6  27  1   
 15   7  10  1   
 16   8  11  1   
 17   8  28  1   
 18   8  29  1   
 19   9  11  1   
 20   9  30  1   
 21   9  31  1   
 22  10  12  ar  
 23  10  13  ar  
 24  11  14  1   
 25  11  32  1   
 26  12  15  1   
 27  12  16  ar  
 28  13  17  ar  
 29  13  33  1   
 30  14  18  1   
 31  14  34  1   
 32  14  35  1   
 33  15  19  1   
 34  16  20  ar  
 35  16  36  1   
 36  17  20  ar  
 37  17  37  1   
 38  18  21  2   
 39  18  38  1   
 40  19  39  1   
 41  19  40  1   
 42  19  41  1   
 43  20  42  1   
 44  21  43  1   
 45  21  44  1   
@<TRIPOS>SUBSTRUCTURE
  1 ****   3 GROUP 4 **** **** 0

# MOE 2024.06 (io_trps.svl 2023.06)
