@<TRIPOS>MOLECULE
NONAME
55 56 1 0 0 
SMALL
USER_CHARGES


@<TRIPOS>ATOM
  1 S       -0.3670    -0.1400    -1.0840 S.o2  1 <1>   1.3330 
  2 O        0.3410    -1.1100    -1.8810 O.2   1 <1>  -0.6500 
  3 O        0.3720     0.8860    -0.3900 O.2   1 <1>  -0.6500 
  4 N       -1.3180    -1.0250     0.0760 N.am  1 <1>  -0.6930 
  5 C       -1.5620     0.6280    -2.1580 C.3   1 <1>  -0.1350 
  6 C       -1.4260    -2.4110    -0.0280 C.ar  1 <1>   0.1990 
  7 C       -2.2660    -0.3470     1.0250 C.3   1 <1>   0.3370 
  8 C       -1.9390    -3.0160    -1.1710 C.ar  1 <1>  -0.1500 
  9 C       -1.0350    -3.2240     1.0290 C.ar  1 <1>  -0.1500 
 10 C       -3.7290    -0.4410     0.5200 C.2   1 <1>   0.5690 
 11 C       -1.8810     1.0860     1.4200 C.3   1 <1>  -0.2400 
 12 C       -2.0640    -4.3910    -1.2610 C.ar  1 <1>  -0.1440 
 13 C       -1.1670    -4.6000     0.9620 C.ar  1 <1>  -0.1440 
 14 O       -4.0570     0.2850    -0.3910 O.2   1 <1>  -0.5700 
 15 N       -4.6440    -1.3410     1.0370 N.am  1 <1>  -0.6600 
 16 C       -1.6780    -5.1800    -0.1880 C.ar  1 <1>  -0.1500 
 17 C       -2.5800    -5.0310    -2.5370 C.3   1 <1>  -0.0970 
 18 C       -0.7160    -5.4750     2.1180 C.3   1 <1>  -0.0970 
 19 C       -6.0360    -1.4000     0.4910 C.3   1 <1>   0.1400 
 20 C       -4.3330    -2.5220     1.9020 C.3   1 <1>   0.1400 
 21 C       -6.2140    -2.6850    -0.3380 C.3   1 <1>   0.3430 
 22 C       -4.5260    -3.8270     1.1060 C.3   1 <1>   0.3430 
 23 N       -5.8850    -3.9290     0.4530 N.4   1 <1>  -0.9590 
 24 C       -5.9750    -5.1250    -0.4240 C.3   1 <1>   0.3430 
 25 C       -5.9650    -6.3940     0.4190 C.3   1 <1>  -0.2400 
 26 H       -1.0590     1.1060    -2.9750 H     1 <1>   0.0800 
 27 H       -2.1260     1.3720    -1.6330 H     1 <1>   0.0800 
 28 H       -2.2380    -0.1030    -2.5550 H     1 <1>   0.0800 
 29 H       -2.2070    -0.8860     1.9480 H     1 <1>   0.0800 
 30 H       -2.2210    -2.3990    -2.0040 H     1 <1>   0.1500 
 31 H       -0.6030    -2.7630     1.9000 H     1 <1>   0.1500 
 32 H       -1.9450     1.7600     0.5860 H     1 <1>   0.0800 
 33 H       -0.8870     1.1080     1.8300 H     1 <1>   0.0800 
 34 H       -2.5570     1.4420     2.1750 H     1 <1>   0.0800 
 35 H       -1.7520    -6.2530    -0.2560 H     1 <1>   0.1500 
 36 H       -3.2960    -4.3920    -3.0220 H     1 <1>   0.0800 
 37 H       -3.0420    -5.9800    -2.3330 H     1 <1>   0.0800 
 38 H       -1.7570    -5.1920    -3.2120 H     1 <1>   0.0800 
 39 H       -0.6710    -4.9120     3.0330 H     1 <1>   0.0800 
 40 H        0.2640    -5.8670     1.9110 H     1 <1>   0.0800 
 41 H       -1.3920    -6.3000     2.2560 H     1 <1>   0.0800 
 42 H       -6.2440    -0.5460    -0.1320 H     1 <1>   0.0800 
 43 H       -6.7420    -1.3810     1.3020 H     1 <1>   0.0800 
 44 H       -4.9880    -2.5190     2.7560 H     1 <1>   0.0800 
 45 H       -3.3280    -2.4940     2.2730 H     1 <1>   0.0800 
 46 H       -5.5660    -2.6200    -1.1960 H     1 <1>   0.0800 
 47 H       -7.2300    -2.7350    -0.6940 H     1 <1>   0.0800 
 48 H       -4.3680    -4.6650     1.7630 H     1 <1>   0.0800 
 49 H       -3.7670    -3.8650     0.3460 H     1 <1>   0.0800 
 50 H       -6.5880    -4.0260     1.1960 H     1 <1>   0.4500 
 51 H       -5.1490    -5.1370    -1.1200 H     1 <1>   0.0800 
 52 H       -6.8920    -5.0910    -0.9910 H     1 <1>   0.0800 
 53 H       -5.0210    -6.5350     0.9120 H     1 <1>   0.0800 
 54 H       -6.1230    -7.2420    -0.2240 H     1 <1>   0.0800 
 55 H       -6.7590    -6.3800     1.1450 H     1 <1>   0.0800 
@<TRIPOS>BOND
  1   1   2  2   
  2   1   3  2   
  3   1   4  am  
  4   1   5  1   
  5   4   6  1   
  6   4   7  1   
  7   5  26  1   
  8   5  27  1   
  9   5  28  1   
 10   6   8  ar  
 11   6   9  ar  
 12   7  10  1   
 13   7  11  1   
 14   7  29  1   
 15   8  12  ar  
 16   8  30  1   
 17   9  13  ar  
 18   9  31  1   
 19  10  14  2   
 20  10  15  am  
 21  11  32  1   
 22  11  33  1   
 23  11  34  1   
 24  12  16  ar  
 25  12  17  1   
 26  13  16  ar  
 27  13  18  1   
 28  15  19  1   
 29  15  20  1   
 30  16  35  1   
 31  17  36  1   
 32  17  37  1   
 33  17  38  1   
 34  18  39  1   
 35  18  40  1   
 36  18  41  1   
 37  19  21  1   
 38  19  42  1   
 39  19  43  1   
 40  20  22  1   
 41  20  44  1   
 42  20  45  1   
 43  21  23  1   
 44  21  46  1   
 45  21  47  1   
 46  22  23  1   
 47  22  48  1   
 48  22  49  1   
 49  23  24  1   
 50  23  50  1   
 51  24  25  1   
 52  24  51  1   
 53  24  52  1   
 54  25  53  1   
 55  25  54  1   
 56  25  55  1   
@<TRIPOS>SUBSTRUCTURE
  1 ****   6 GROUP 4 **** **** 0

# MOE 2024.06 (io_trps.svl 2023.06)
