@<TRIPOS>MOLECULE
NONAME
48 49 1 0 0 
SMALL
USER_CHARGES


@<TRIPOS>ATOM
  1 O        1.1580    -0.3940     1.5900 O.3   1 <1>  -0.3630 
  2 C        2.0970    -0.8810     0.7420 C.ar  1 <1>   0.0830 
  3 C        1.0330     0.9840     1.8600 C.3   1 <1>   0.0400 
  4 C        2.0080    -2.2260     0.4300 C.ar  1 <1>  -0.1500 
  5 C        3.1150    -0.1070     0.1910 C.ar  1 <1>  -0.1500 
  6 C        2.9260    -2.8060    -0.4370 C.ar  1 <1>   0.0830 
  7 C        4.0380    -0.6840    -0.6700 C.ar  1 <1>  -0.1430 
  8 O        2.9120    -4.1130    -0.7950 O.3   1 <1>  -0.3630 
  9 C        3.9320    -2.0300    -0.9850 C.ar  1 <1>  -0.1500 
 10 C        5.1660     0.1310    -1.2550 C.3   1 <1>   0.4860 
 11 C        1.8960    -4.9810    -0.3400 C.3   1 <1>   0.0400 
 12 N        6.3540    -0.1620    -0.4270 N.4   1 <1>  -0.9060 
 13 C        7.6100     0.4440    -0.8920 C.3   1 <1>   0.4230 
 14 C        8.7560    -0.2650    -0.1650 C.3   1 <1>  -0.1600 
 15 C        7.5680     1.9440    -0.5960 C.3   1 <1>  -0.2400 
 16 C       10.1480     0.1380    -0.6750 C.3   1 <1>  -0.0170 
 17 C       11.1970    -0.7250     0.0010 C.ar  1 <1>  -0.1430 
 18 C       11.6340    -1.8970    -0.5980 C.ar  1 <1>  -0.1500 
 19 C       11.7210    -0.3530     1.2300 C.ar  1 <1>  -0.1500 
 20 C       12.5810    -2.6900     0.0260 C.ar  1 <1>  -0.1500 
 21 C       12.6680    -1.1460     1.8540 C.ar  1 <1>  -0.1500 
 22 C       13.0980    -2.3150     1.2540 C.ar  1 <1>  -0.1500 
 23 H        0.1790     1.1210     2.5010 H     1 <1>   0.0800 
 24 H        0.8790     1.5100     0.9350 H     1 <1>   0.0800 
 25 H        1.9200     1.3260     2.3610 H     1 <1>   0.0800 
 26 H        1.2140    -2.7940     0.8750 H     1 <1>   0.1500 
 27 H        3.1870     0.9370     0.4340 H     1 <1>   0.1500 
 28 H        4.6190    -2.5100    -1.6610 H     1 <1>   0.1500 
 29 H        4.9250     1.1810    -1.2220 H     1 <1>   0.0800 
 30 H        5.3350    -0.1600    -2.2800 H     1 <1>   0.0800 
 31 H        2.0720    -5.9540    -0.7640 H     1 <1>   0.0800 
 32 H        0.9420    -4.6080    -0.6680 H     1 <1>   0.0800 
 33 H        1.9380    -5.0380     0.7340 H     1 <1>   0.0800 
 34 H        6.4530    -1.1840    -0.3930 H     1 <1>   0.4500 
 35 H        6.1590     0.1240     0.5370 H     1 <1>   0.4500 
 36 H        7.7190     0.2850    -1.9540 H     1 <1>   0.0800 
 37 H        8.6590    -1.3280    -0.3080 H     1 <1>   0.0800 
 38 H        8.7070    -0.0650     0.8920 H     1 <1>   0.0800 
 39 H        7.4950     2.1290     0.4620 H     1 <1>   0.0800 
 40 H        6.7480     2.4210    -1.1000 H     1 <1>   0.0800 
 41 H        8.4670     2.4140    -0.9520 H     1 <1>   0.0800 
 42 H       10.3560     1.1710    -0.4570 H     1 <1>   0.0800 
 43 H       10.2120     0.0050    -1.7420 H     1 <1>   0.0800 
 44 H       11.2440    -2.2030    -1.5530 H     1 <1>   0.1500 
 45 H       11.4000     0.5550     1.7090 H     1 <1>   0.1500 
 46 H       12.9190    -3.5980    -0.4420 H     1 <1>   0.1500 
 47 H       13.0730    -0.8530     2.8080 H     1 <1>   0.1500 
 48 H       13.8350    -2.9310     1.7390 H     1 <1>   0.1500 
@<TRIPOS>BOND
  1   1   2  1   
  2   1   3  1   
  3   2   4  ar  
  4   2   5  ar  
  5   3  23  1   
  6   3  24  1   
  7   3  25  1   
  8   4   6  ar  
  9   4  26  1   
 10   5   7  ar  
 11   5  27  1   
 12   6   8  1   
 13   6   9  ar  
 14   7   9  ar  
 15   7  10  1   
 16   8  11  1   
 17   9  28  1   
 18  10  12  1   
 19  10  29  1   
 20  10  30  1   
 21  11  31  1   
 22  11  32  1   
 23  11  33  1   
 24  12  13  1   
 25  12  34  1   
 26  12  35  1   
 27  13  14  1   
 28  13  15  1   
 29  13  36  1   
 30  14  16  1   
 31  14  37  1   
 32  14  38  1   
 33  15  39  1   
 34  15  40  1   
 35  15  41  1   
 36  16  17  1   
 37  16  42  1   
 38  16  43  1   
 39  17  18  ar  
 40  17  19  ar  
 41  18  20  ar  
 42  18  44  1   
 43  19  21  ar  
 44  19  45  1   
 45  20  22  ar  
 46  20  46  1   
 47  21  22  ar  
 48  21  47  1   
 49  22  48  1   
@<TRIPOS>SUBSTRUCTURE
  1 ****  12 GROUP 4 **** **** 0

# MOE 2024.06 (io_trps.svl 2023.06)
