@<TRIPOS>MOLECULE
NONAME
51 53 1 0 0 
SMALL
USER_CHARGES


@<TRIPOS>ATOM
  1 O       -0.3090    -0.1450     1.2890 O.2   1 <1>  -0.5700 
  2 C       -0.2210    -0.7200     0.2230 C.2   1 <1>   0.6900 
  3 N       -1.3090    -1.1700    -0.4620 N.am  1 <1>  -0.5470 
  4 N        1.0030    -0.9320    -0.3230 N.am  1 <1>  -0.7300 
  5 C       -2.6800    -0.9920    -0.2180 C.ar  1 <1>   0.1170 
  6 C        2.2500    -0.5210     0.3370 C.3   1 <1>   0.2200 
  7 C       -3.5760    -1.9310    -0.7170 C.ar  1 <1>  -0.1500 
  8 C       -3.1880     0.0960     0.4840 C.ar  1 <1>  -0.1500 
  9 C        2.5900     0.9110    -0.0690 C.3   1 <1>  -0.1600 
 10 C        3.3790    -1.4750    -0.0410 C.3   1 <1>  -0.1600 
 11 C       -4.9400    -1.7950    -0.5200 C.ar  1 <1>  -0.1500 
 12 C       -4.5500     0.2370     0.6840 C.ar  1 <1>  -0.1500 
 13 C        3.9030     1.3440     0.5730 C.3   1 <1>   0.3430 
 14 C        4.6880    -1.0190     0.6010 C.3   1 <1>   0.3430 
 15 C       -5.4350    -0.7030     0.1860 C.ar  1 <1>   0.0820 
 16 N        4.9900     0.3860     0.2000 N.4   1 <1>  -0.9590 
 17 O       -6.7560    -0.4900     0.4260 O.3   1 <1>  -0.3630 
 18 C        6.3070     0.8320     0.7350 C.3   1 <1>   0.4860 
 19 C       -7.7310    -1.4100    -0.0120 C.3   1 <1>   0.0400 
 20 C        6.6770     2.1380     0.0630 C.ar  1 <1>  -0.1440 
 21 C        6.5710     3.3360     0.7560 C.ar  1 <1>  -0.1500 
 22 C        7.1170     2.1470    -1.2540 C.ar  1 <1>  -0.1500 
 23 C        6.8880     4.5310     0.1340 C.ar  1 <1>  -0.1500 
 24 C        7.4340     3.3430    -1.8730 C.ar  1 <1>  -0.1500 
 25 C        7.3170     4.5350    -1.1810 C.ar  1 <1>  -0.1500 
 26 H       -1.0940    -1.8350    -1.1960 H     1 <1>   0.3700 
 27 H        1.0600    -1.2000    -1.3030 H     1 <1>   0.3700 
 28 H        2.1060    -0.5580     1.4070 H     1 <1>   0.0800 
 29 H       -3.2080    -2.7810    -1.2610 H     1 <1>   0.1500 
 30 H       -2.5220     0.8420     0.8780 H     1 <1>   0.1500 
 31 H        1.8070     1.5690     0.2690 H     1 <1>   0.0800 
 32 H        2.6630     0.9980    -1.1380 H     1 <1>   0.0800 
 33 H        3.4980    -1.5190    -1.1090 H     1 <1>   0.0800 
 34 H        3.1430    -2.4620     0.3150 H     1 <1>   0.0800 
 35 H       -5.5960    -2.5440    -0.9210 H     1 <1>   0.1500 
 36 H       -4.9330     1.0800     1.2300 H     1 <1>   0.1500 
 37 H        3.7860     1.3690     1.6450 H     1 <1>   0.0800 
 38 H        4.1510     2.3390     0.2370 H     1 <1>   0.0800 
 39 H        5.4870    -1.6740     0.2900 H     1 <1>   0.0800 
 40 H        4.5990    -1.0800     1.6750 H     1 <1>   0.0800 
 41 H        5.0770     0.4290    -0.8230 H     1 <1>   0.4500 
 42 H        7.0660     0.0980     0.5200 H     1 <1>   0.0800 
 43 H        6.2540     0.9670     1.8040 H     1 <1>   0.0800 
 44 H       -8.6940    -1.0470     0.2980 H     1 <1>   0.0800 
 45 H       -7.5370    -2.3650     0.4420 H     1 <1>   0.0800 
 46 H       -7.6930    -1.4750    -1.0850 H     1 <1>   0.0800 
 47 H        6.2450     3.3600     1.7820 H     1 <1>   0.1500 
 48 H        7.2260     1.2340    -1.8130 H     1 <1>   0.1500 
 49 H        6.8050     5.4610     0.6710 H     1 <1>   0.1500 
 50 H        7.7760     3.3520    -2.8950 H     1 <1>   0.1500 
 51 H        7.5650     5.4650    -1.6640 H     1 <1>   0.1500 
@<TRIPOS>BOND
  1   1   2  2   
  2   2   3  am  
  3   2   4  am  
  4   3   5  1   
  5   3  26  1   
  6   4   6  1   
  7   4  27  1   
  8   5   7  ar  
  9   5   8  ar  
 10   6   9  1   
 11   6  10  1   
 12   6  28  1   
 13   7  11  ar  
 14   7  29  1   
 15   8  12  ar  
 16   8  30  1   
 17   9  13  1   
 18   9  31  1   
 19   9  32  1   
 20  10  14  1   
 21  10  33  1   
 22  10  34  1   
 23  11  15  ar  
 24  11  35  1   
 25  12  15  ar  
 26  12  36  1   
 27  13  16  1   
 28  13  37  1   
 29  13  38  1   
 30  14  16  1   
 31  14  39  1   
 32  14  40  1   
 33  15  17  1   
 34  16  18  1   
 35  16  41  1   
 36  17  19  1   
 37  18  20  1   
 38  18  42  1   
 39  18  43  1   
 40  19  44  1   
 41  19  45  1   
 42  19  46  1   
 43  20  21  ar  
 44  20  22  ar  
 45  21  23  ar  
 46  21  47  1   
 47  22  24  ar  
 48  22  48  1   
 49  23  25  ar  
 50  23  49  1   
 51  24  25  ar  
 52  24  50  1   
 53  25  51  1   
@<TRIPOS>SUBSTRUCTURE
  1 ****   4 GROUP 4 **** **** 0

# MOE 2024.06 (io_trps.svl 2023.06)
