@<TRIPOS>MOLECULE
NONAME
43 45 1 0 0 
SMALL
USER_CHARGES


@<TRIPOS>ATOM
  1 CL       2.7790     0.4140     2.6320 Cl    1 <1>  -0.1770 
  2 C        3.0250     0.5320     0.9070 C.ar  1 <1>   0.1770 
  3 C        2.6560    -0.5170     0.0730 C.ar  1 <1>  -0.1440 
  4 C        3.5710     1.7010     0.4120 C.ar  1 <1>  -0.1500 
  5 C        2.8390    -0.3680    -1.2990 C.ar  1 <1>  -0.1500 
  6 C        2.0510    -1.7860     0.6680 C.3   1 <1>   0.5940 
  7 C        3.7430     1.8200    -0.9520 C.ar  1 <1>   0.1770 
  8 C        3.3830     0.7990    -1.8120 C.ar  1 <1>  -0.1500 
  9 S        2.7710    -3.2450    -0.1180 S.3   1 <1>  -0.4600 
 10 N        0.6080    -1.8780     0.3490 N.am  1 <1>  -0.6600 
 11 CL       4.4170     3.2900    -1.6030 Cl    1 <1>  -0.1770 
 12 C        1.2410    -3.9610    -0.7590 C.3   1 <1>   0.1310 
 13 C        0.1880    -2.9390    -0.3920 C.2   1 <1>   0.5690 
 14 C       -0.3190    -0.8430     0.8850 C.3   1 <1>   0.1400 
 15 O       -0.9570    -3.0530    -0.7620 O.2   1 <1>  -0.5700 
 16 C       -0.8460     0.0520    -0.2560 C.3   1 <1>   0.3430 
 17 N       -2.3340     0.2450    -0.2290 N.4   1 <1>  -0.9590 
 18 C       -3.0530    -1.0310    -0.5460 C.3   1 <1>   0.3430 
 19 C       -2.7310     1.3260    -1.1770 C.3   1 <1>   0.3430 
 20 C       -4.5630    -0.8220    -0.4230 C.3   1 <1>  -0.1600 
 21 C       -4.2330     1.5940    -1.0600 C.3   1 <1>  -0.1600 
 22 C       -5.0540     0.3240    -1.3160 C.3   1 <1>  -0.1600 
 23 H        3.8560     2.5010     1.0700 H     1 <1>   0.1500 
 24 H        2.5690    -1.1590    -1.9800 H     1 <1>   0.1500 
 25 H        2.2250    -1.8860     1.7260 H     1 <1>   0.0800 
 26 H        3.5340     0.9190    -2.8720 H     1 <1>   0.1500 
 27 H        1.0730    -4.9020    -0.2680 H     1 <1>   0.0800 
 28 H        1.3370    -4.0790    -1.8220 H     1 <1>   0.0800 
 29 H        0.1880    -0.2370     1.6140 H     1 <1>   0.0800 
 30 H       -1.1330    -1.3440     1.3800 H     1 <1>   0.0800 
 31 H       -0.5700    -0.3950    -1.1970 H     1 <1>   0.0800 
 32 H       -0.3570     1.0100    -0.1880 H     1 <1>   0.0800 
 33 H       -2.6300     0.5390     0.7100 H     1 <1>   0.4500 
 34 H       -2.7480    -1.8130     0.1310 H     1 <1>   0.0800 
 35 H       -2.8090    -1.3500    -1.5470 H     1 <1>   0.0800 
 36 H       -2.4980     1.0280    -2.1870 H     1 <1>   0.0800 
 37 H       -2.1890     2.2320    -0.9570 H     1 <1>   0.0800 
 38 H       -4.8140    -0.6230     0.6040 H     1 <1>   0.0800 
 39 H       -5.0640    -1.7320    -0.7050 H     1 <1>   0.0800 
 40 H       -4.5130     2.3470    -1.7760 H     1 <1>   0.0800 
 41 H       -4.4530     1.9840    -0.0820 H     1 <1>   0.0800 
 42 H       -6.0980     0.5160    -1.1260 H     1 <1>   0.0800 
 43 H       -4.9590     0.0370    -2.3510 H     1 <1>   0.0800 
@<TRIPOS>BOND
  1   1   2  1   
  2   2   3  ar  
  3   2   4  ar  
  4   3   5  ar  
  5   3   6  1   
  6   4   7  ar  
  7   4  23  1   
  8   5   8  ar  
  9   5  24  1   
 10   6   9  1   
 11   6  10  1   
 12   6  25  1   
 13   7   8  ar  
 14   7  11  1   
 15   8  26  1   
 16   9  12  1   
 17  10  13  am  
 18  10  14  1   
 19  12  13  1   
 20  12  27  1   
 21  12  28  1   
 22  13  15  2   
 23  14  16  1   
 24  14  29  1   
 25  14  30  1   
 26  16  17  1   
 27  16  31  1   
 28  16  32  1   
 29  17  18  1   
 30  17  19  1   
 31  17  33  1   
 32  18  20  1   
 33  18  34  1   
 34  18  35  1   
 35  19  21  1   
 36  19  36  1   
 37  19  37  1   
 38  20  22  1   
 39  20  38  1   
 40  20  39  1   
 41  21  22  1   
 42  21  40  1   
 43  21  41  1   
 44  22  42  1   
 45  22  43  1   
@<TRIPOS>SUBSTRUCTURE
  1 ****  16 GROUP 4 **** **** 0

# MOE 2024.06 (io_trps.svl 2023.06)
