@<TRIPOS>MOLECULE
NONAME
37 38 1 0 0 
SMALL
USER_CHARGES


@<TRIPOS>ATOM
  1 O       -0.6890    -0.8340     1.4340 O.2   1 <1>  -0.5700 
  2 C       -1.7030    -1.3060     0.9640 C.2   1 <1>   0.7060 
  3 O       -2.7710    -0.5220     0.8340 O.3   1 <1>  -0.2320 
  4 C       -1.8130    -2.6570     0.5330 C.2   1 <1>  -0.1360 
  5 C       -3.9550    -0.9690     0.3550 C.ar  1 <1>   0.0830 
  6 C       -2.9670    -3.1700     0.0470 C.2   1 <1>  -0.1670 
  7 C       -4.1330    -2.3150    -0.0180 C.ar  1 <1>   0.0280 
  8 C       -4.9750    -0.0360     0.2510 C.ar  1 <1>  -0.1500 
  9 C       -2.9800    -4.6120    -0.4440 C.3   1 <1>  -0.1020 
 10 C       -5.4340    -2.6740    -0.4300 C.ar  1 <1>   0.0830 
 11 C       -6.2200    -0.4040    -0.2170 C.ar  1 <1>  -0.1440 
 12 O       -5.7650    -3.9470    -0.7260 O.3   1 <1>  -0.3630 
 13 C       -6.4360    -1.7270    -0.5560 C.ar  1 <1>  -0.1500 
 14 C       -7.3420     0.6090    -0.3560 C.3   1 <1>  -0.0970 
 15 C       -6.2940    -4.7480     0.3130 C.3   1 <1>   0.2580 
 16 C       -7.7660    -4.4270     0.5350 C.2   1 <1>  -0.2880 
 17 C       -8.8400    -5.1590     0.2130 C.2   1 <1>  -0.2760 
 18 C      -10.2500    -4.6850     0.5270 C.3   1 <1>  -0.1020 
 19 C       -8.8280    -6.5100    -0.4890 C.3   1 <1>  -0.1020 
 20 H       -0.9100    -3.2310     0.6140 H     1 <1>   0.1500 
 21 H       -4.7790     0.9820     0.5380 H     1 <1>   0.1500 
 22 H       -3.5690    -5.2260     0.2110 H     1 <1>   0.0800 
 23 H       -1.9850    -5.0190    -0.4730 H     1 <1>   0.0800 
 24 H       -3.3850    -4.6610    -1.4390 H     1 <1>   0.0800 
 25 H       -7.4000    -2.0370    -0.9200 H     1 <1>   0.1500 
 26 H       -8.1480     0.3550     0.3090 H     1 <1>   0.0800 
 27 H       -7.7120     0.6090    -1.3660 H     1 <1>   0.0800 
 28 H       -6.9980     1.5990    -0.1180 H     1 <1>   0.0800 
 29 H       -6.1560    -5.7720     0.0230 H     1 <1>   0.0800 
 30 H       -5.7290    -4.5680     1.2100 H     1 <1>   0.0800 
 31 H       -7.8690    -3.4740     1.0230 H     1 <1>   0.1500 
 32 H      -10.7450    -5.3910     1.1690 H     1 <1>   0.0800 
 33 H      -10.8170    -4.5820    -0.3810 H     1 <1>   0.0800 
 34 H      -10.2320    -3.7310     1.0240 H     1 <1>   0.0800 
 35 H       -9.4110    -6.4580    -1.3910 H     1 <1>   0.0800 
 36 H       -9.2540    -7.2610     0.1520 H     1 <1>   0.0800 
 37 H       -7.8360    -6.8180    -0.7580 H     1 <1>   0.0800 
@<TRIPOS>BOND
  1   1   2  2   
  2   2   3  1   
  3   2   4  1   
  4   3   5  1   
  5   4   6  2   
  6   4  20  1   
  7   5   7  ar  
  8   5   8  ar  
  9   6   7  1   
 10   6   9  1   
 11   7  10  ar  
 12   8  11  ar  
 13   8  21  1   
 14   9  22  1   
 15   9  23  1   
 16   9  24  1   
 17  10  12  1   
 18  10  13  ar  
 19  11  13  ar  
 20  11  14  1   
 21  12  15  1   
 22  13  25  1   
 23  14  26  1   
 24  14  27  1   
 25  14  28  1   
 26  15  16  1   
 27  15  29  1   
 28  15  30  1   
 29  16  17  2   
 30  16  31  1   
 31  17  18  1   
 32  17  19  1   
 33  18  32  1   
 34  18  33  1   
 35  18  34  1   
 36  19  35  1   
 37  19  36  1   
 38  19  37  1   
@<TRIPOS>SUBSTRUCTURE
  1 ****  10 GROUP 4 **** **** 0

# MOE 2024.06 (io_trps.svl 2023.06)
