@<TRIPOS>MOLECULE
NONAME
33 34 1 0 0 
SMALL
USER_CHARGES


@<TRIPOS>ATOM
  1 BR      -0.2440    -0.3990    -0.0140 Br    1 <1>  -0.1110 
  2 C        1.5750    -1.0080    -0.1080 C.ar  1 <1>   0.1110 
  3 C        2.4820    -0.5540     0.8290 C.ar  1 <1>  -0.1500 
  4 C        1.9370    -1.8840    -1.1120 C.ar  1 <1>  -0.1500 
  5 C        3.7910    -0.9980     0.7560 C.ar  1 <1>  -0.1500 
  6 C        3.2500    -2.3180    -1.1690 C.ar  1 <1>  -0.1500 
  7 C        4.2040    -1.8940    -0.2380 C.ar  1 <1>   0.0860 
  8 C        5.5730    -2.3720    -0.3120 C.2   1 <1>   0.5440 
  9 O        6.0620    -2.6690    -1.3840 O.2   1 <1>  -0.5700 
 10 N        6.3200    -2.5060     0.8270 N.am  1 <1>  -0.7300 
 11 C        7.7240    -2.9870     0.9470 C.3   1 <1>   0.2200 
 12 C        8.6950    -2.3190    -0.0550 C.3   1 <1>   0.2000 
 13 C        7.7210    -4.5120     0.8280 C.3   1 <1>  -0.2400 
 14 O       10.0120    -2.6180     0.2870 O.3   1 <1>  -0.5600 
 15 C        8.6620    -0.7930    -0.0680 C.3   1 <1>  -0.1600 
 16 C       10.8690    -1.7140    -0.3310 C.3   1 <1>   0.1200 
 17 C       10.0840    -0.4110    -0.4540 C.3   1 <1>  -0.1600 
 18 H        2.1670     0.1340     1.5940 H     1 <1>   0.1500 
 19 H        1.2090    -2.2170    -1.8300 H     1 <1>   0.1500 
 20 H        4.5040    -0.6360     1.4750 H     1 <1>   0.1500 
 21 H        3.5520    -2.9990    -1.9470 H     1 <1>   0.1500 
 22 H        5.8390    -2.4240     1.7220 H     1 <1>   0.3700 
 23 H        8.0690    -2.7250     1.9330 H     1 <1>   0.0800 
 24 H        8.5320    -2.7030    -1.0480 H     1 <1>   0.0800 
 25 H        7.3930    -4.8070    -0.1530 H     1 <1>   0.0800 
 26 H        7.0760    -4.9470     1.5680 H     1 <1>   0.0800 
 27 H        8.7170    -4.8890     0.9790 H     1 <1>   0.0800 
 28 H        8.4310    -0.4240     0.9150 H     1 <1>   0.0800 
 29 H        7.9310    -0.4280    -0.7670 H     1 <1>   0.0800 
 30 H       11.1240    -2.1080    -1.3000 H     1 <1>   0.0800 
 31 H       11.7530    -1.6070     0.2720 H     1 <1>   0.0800 
 32 H       10.4800     0.3380     0.2080 H     1 <1>   0.0800 
 33 H       10.1320    -0.0480    -1.4660 H     1 <1>   0.0800 
@<TRIPOS>BOND
  1   1   2  1   
  2   2   3  ar  
  3   2   4  ar  
  4   3   5  ar  
  5   3  18  1   
  6   4   6  ar  
  7   4  19  1   
  8   5   7  ar  
  9   5  20  1   
 10   6   7  ar  
 11   6  21  1   
 12   7   8  1   
 13   8   9  2   
 14   8  10  am  
 15  10  11  1   
 16  10  22  1   
 17  11  12  1   
 18  11  13  1   
 19  11  23  1   
 20  12  14  1   
 21  12  15  1   
 22  12  24  1   
 23  13  25  1   
 24  13  26  1   
 25  13  27  1   
 26  14  16  1   
 27  15  17  1   
 28  15  28  1   
 29  15  29  1   
 30  16  17  1   
 31  16  30  1   
 32  16  31  1   
 33  17  32  1   
 34  17  33  1   
@<TRIPOS>SUBSTRUCTURE
  1 ****   8 GROUP 4 **** **** 0

# MOE 2024.06 (io_trps.svl 2023.06)
