@<TRIPOS>MOLECULE
NONAME
40 43 1 0 0 
SMALL
USER_CHARGES


@<TRIPOS>ATOM
  1 F       -0.4270     0.2410    -1.6080 F     1 <1>  -0.1900 
  2 C        0.3310     1.0780    -0.9440 C.ar  1 <1>   0.1900 
  3 C       -0.2240     2.2520    -0.4330 C.ar  1 <1>   0.1170 
  4 C        1.6600     0.7430    -0.7760 C.ar  1 <1>  -0.1500 
  5 N       -1.5890     2.5830    -0.6120 N.am  1 <1>  -0.2370 
  6 C        0.6230     3.0930     0.2830 C.ar  1 <1>  -0.1500 
  7 C        2.4810     1.6020    -0.0660 C.ar  1 <1>  -0.1500 
  8 C       -2.4530     2.3810     0.4410 C.2   1 <1>   0.5690 
  9 C       -2.0740     2.7440    -1.8890 C.2   1 <1>   0.5700 
 10 C        1.9600     2.7730     0.4630 C.ar  1 <1>  -0.1500 
 11 O       -2.4460     1.3330     1.0360 O.2   1 <1>  -0.5700 
 12 C       -3.4260     3.4420     0.9700 C.3   1 <1>  -0.0190 
 13 O       -1.4070     3.1230    -2.8200 O.2   1 <1>  -0.5700 
 14 C       -4.8910     3.0050     0.7530 C.3   1 <1>   0.1530 
 15 C       -3.4380     4.9700     0.5760 C.3   1 <1>  -0.0800 
 16 C       -5.1670     3.0760    -0.7360 C.2   1 <1>  -0.2880 
 17 C       -5.5960     4.2930     1.1480 C.3   1 <1>  -0.1900 
 18 C       -4.9040     5.2000     0.1430 C.3   1 <1>   0.1530 
 19 C       -2.4290     5.5570    -0.4260 C.3   1 <1>  -0.2400 
 20 C       -5.1600     4.3580    -1.0960 C.2   1 <1>  -0.2880 
 21 C       -7.0450     4.3770     1.4860 C.3   1 <1>  -0.2000 
 22 C       -5.9930     4.6740     2.5350 C.3   1 <1>  -0.2000 
 23 H        2.0410    -0.1730    -1.1920 H     1 <1>   0.1500 
 24 H        0.2420     4.0040     0.7050 H     1 <1>   0.1500 
 25 H        3.5210     1.3600     0.0770 H     1 <1>   0.1500 
 26 H       -3.1100     2.5290    -2.0610 H     1 <1>   0.0600 
 27 H        2.6010     3.4380     1.0170 H     1 <1>   0.1500 
 28 H       -3.2730     3.4230     2.0350 H     1 <1>   0.0800 
 29 H       -5.2250     2.1180     1.2630 H     1 <1>   0.0800 
 30 H       -3.2960     5.5220     1.4910 H     1 <1>   0.0800 
 31 H       -5.3180     2.1750    -1.3070 H     1 <1>   0.1500 
 32 H       -5.2620     6.2150     0.1170 H     1 <1>   0.0800 
 33 H       -2.6120     5.2210    -1.4290 H     1 <1>   0.0800 
 34 H       -1.4210     5.3180    -0.1470 H     1 <1>   0.0800 
 35 H       -2.5190     6.6290    -0.4340 H     1 <1>   0.0800 
 36 H       -5.2940     4.8280    -2.0560 H     1 <1>   0.1500 
 37 H       -7.6130     3.4650     1.5620 H     1 <1>   0.1000 
 38 H       -7.6240     5.1900     1.0840 H     1 <1>   0.1000 
 39 H       -5.8720     5.6940     2.8580 H     1 <1>   0.1000 
 40 H       -5.8590     3.9670     3.3350 H     1 <1>   0.1000 
@<TRIPOS>BOND
  1   1   2  1   
  2   2   3  ar  
  3   2   4  ar  
  4   3   5  1   
  5   3   6  ar  
  6   4   7  ar  
  7   4  23  1   
  8   5   8  am  
  9   5   9  am  
 10   6  10  ar  
 11   6  24  1   
 12   7  10  ar  
 13   7  25  1   
 14   8  11  2   
 15   8  12  1   
 16   9  13  2   
 17   9  26  1   
 18  10  27  1   
 19  12  14  1   
 20  12  15  1   
 21  12  28  1   
 22  14  16  1   
 23  14  17  1   
 24  14  29  1   
 25  15  18  1   
 26  15  19  1   
 27  15  30  1   
 28  16  20  2   
 29  16  31  1   
 30  17  18  1   
 31  17  21  1   
 32  17  22  1   
 33  18  20  1   
 34  18  32  1   
 35  19  33  1   
 36  19  34  1   
 37  19  35  1   
 38  20  36  1   
 39  21  22  1   
 40  21  37  1   
 41  21  38  1   
 42  22  39  1   
 43  22  40  1   
@<TRIPOS>SUBSTRUCTURE
  1 ****   8 GROUP 4 **** **** 0

# MOE 2024.06 (io_trps.svl 2023.06)
