@<TRIPOS>MOLECULE
NONAME
37 40 1 0 0 
SMALL
USER_CHARGES


@<TRIPOS>ATOM
  1 O       -0.1990     0.5660     0.4740 O.2   1 <1>  -0.5700 
  2 C       -0.6850     1.4490    -0.1860 C.2   1 <1>   0.5690 
  3 N       -0.0380     2.5550    -0.6790 N.am  1 <1>  -0.4200 
  4 C       -2.1550     1.4390    -0.5730 C.3   1 <1>  -0.0190 
  5 C       -0.8600     3.3890    -1.3910 C.2   1 <1>   0.5690 
  6 C        1.3990     2.8760    -0.4670 C.3   1 <1>   0.2200 
  7 C       -2.2830     2.8610    -1.4570 C.3   1 <1>  -0.0190 
  8 C       -3.2290     1.5410     0.6780 C.3   1 <1>   0.0580 
  9 O       -0.5330     4.4220    -1.9170 O.2   1 <1>  -0.5700 
 10 C        2.3070     1.8010    -1.0850 C.3   1 <1>  -0.1600 
 11 C        1.7060     3.0860     1.0240 C.3   1 <1>  -0.1600 
 12 C       -3.4320     3.7930    -0.7210 C.3   1 <1>   0.0580 
 13 C       -4.4370     2.4990     1.1970 C.2   1 <1>  -0.2880 
 14 C       -3.2900     2.6640    -0.0310 C.3   1 <1>  -0.1600 
 15 C        3.7880     2.1480    -0.8710 C.3   1 <1>  -0.1600 
 16 C        3.1880     3.4300     1.2350 C.3   1 <1>  -0.1600 
 17 C       -4.5430     3.6830     0.4610 C.2   1 <1>  -0.2880 
 18 C        4.0980     2.3590     0.6170 C.3   1 <1>  -0.1600 
 19 H       -2.3500     0.5740    -1.1850 H     1 <1>   0.0800 
 20 H        1.6170     3.8030    -0.9700 H     1 <1>   0.0800 
 21 H       -2.5380     2.6660    -2.4850 H     1 <1>   0.0800 
 22 H       -2.6010     1.4670     1.5560 H     1 <1>   0.0800 
 23 H        2.1090     1.7250    -2.1390 H     1 <1>   0.0800 
 24 H        2.1110     0.8470    -0.6300 H     1 <1>   0.0800 
 25 H        1.4810     2.1900     1.5760 H     1 <1>   0.0800 
 26 H        1.0970     3.8850     1.4080 H     1 <1>   0.0800 
 27 H       -2.8910     4.6890    -0.4450 H     1 <1>   0.0800 
 28 H       -5.0350     2.1670     2.0300 H     1 <1>   0.1500 
 29 H       -2.4940     3.1680     0.6640 H     1 <1>   0.0800 
 30 H       -4.0870     2.1260    -0.7820 H     1 <1>   0.0800 
 31 H        4.0290     3.0450    -1.4170 H     1 <1>   0.0800 
 32 H        4.4030     1.3530    -1.2570 H     1 <1>   0.0800 
 33 H        3.3920     3.5110     2.2890 H     1 <1>   0.0800 
 34 H        3.4020     4.3840     0.7840 H     1 <1>   0.0800 
 35 H       -5.2440     4.4920     0.5850 H     1 <1>   0.1500 
 36 H        5.1280     2.6520     0.7330 H     1 <1>   0.0800 
 37 H        3.9600     1.4300     1.1440 H     1 <1>   0.0800 
@<TRIPOS>BOND
  1   1   2  2   
  2   2   3  am  
  3   2   4  1   
  4   3   5  am  
  5   3   6  1   
  6   4   7  1   
  7   4   8  1   
  8   4  19  1   
  9   5   7  1   
 10   5   9  2   
 11   6  10  1   
 12   6  11  1   
 13   6  20  1   
 14   7  12  1   
 15   7  21  1   
 16   8  13  1   
 17   8  14  1   
 18   8  22  1   
 19  10  15  1   
 20  10  23  1   
 21  10  24  1   
 22  11  16  1   
 23  11  25  1   
 24  11  26  1   
 25  12  14  1   
 26  12  17  1   
 27  12  27  1   
 28  13  17  2   
 29  13  28  1   
 30  14  29  1   
 31  14  30  1   
 32  15  18  1   
 33  15  31  1   
 34  15  32  1   
 35  16  18  1   
 36  16  33  1   
 37  16  34  1   
 38  17  35  1   
 39  18  36  1   
 40  18  37  1   
@<TRIPOS>SUBSTRUCTURE
  1 ****   3 GROUP 4 **** **** 0

# MOE 2024.06 (io_trps.svl 2023.06)
