@<TRIPOS>MOLECULE
NONAME
27 27 1 0 0 
SMALL
USER_CHARGES


@<TRIPOS>ATOM
  1 CL      -2.3280    -2.1720    -2.6210 Cl    1 <1>  -0.1770 
  2 C       -1.2730    -2.6770    -1.3110 C.ar  1 <1>   0.1770 
  3 C        0.0540    -2.9730    -1.5700 C.ar  1 <1>   0.1770 
  4 C       -1.7920    -2.7740    -0.0220 C.ar  1 <1>   0.1170 
  5 CL       0.6990    -2.8520    -3.1910 Cl    1 <1>  -0.1770 
  6 C        0.8990    -3.3730    -0.5510 C.ar  1 <1>  -0.1500 
  7 N       -3.1440    -2.4620     0.2110 N.am  1 <1>  -0.5470 
  8 C       -0.9280    -3.1750     0.9960 C.ar  1 <1>  -0.1500 
  9 C        0.4010    -3.4730     0.7370 C.ar  1 <1>  -0.1500 
 10 C       -4.0050    -2.7410     1.2340 C.2   1 <1>   0.5690 
 11 O       -3.7010    -3.3530     2.2290 O.2   1 <1>  -0.5700 
 12 C       -5.4400    -2.2340     1.0710 C.3   1 <1>   0.1710 
 13 N       -5.8060    -1.9020    -0.3410 N.3   1 <1>  -0.8100 
 14 C       -6.9840    -1.0290    -0.3830 C.3   1 <1>   0.0300 
 15 C       -6.0530    -3.1190    -1.1310 C.3   1 <1>   0.0300 
 16 H        1.9280    -3.6020    -0.7650 H     1 <1>   0.1500 
 17 H       -3.6450    -2.0120    -0.5680 H     1 <1>   0.3700 
 18 H       -1.2910    -3.2550     2.0050 H     1 <1>   0.1500 
 19 H        1.0460    -3.7820     1.5430 H     1 <1>   0.1500 
 20 H       -5.5260    -1.3500     1.6770 H     1 <1>   0.0800 
 21 H       -6.1180    -2.9700     1.4660 H     1 <1>   0.0800 
 22 H       -6.7830    -0.1140     0.1490 H     1 <1>   0.0800 
 23 H       -7.8340    -1.5160     0.0630 H     1 <1>   0.0800 
 24 H       -7.2180    -0.7790    -1.4040 H     1 <1>   0.0800 
 25 H       -5.1860    -3.7570    -1.1240 H     1 <1>   0.0800 
 26 H       -6.2660    -2.8540    -2.1530 H     1 <1>   0.0800 
 27 H       -6.8900    -3.6670    -0.7310 H     1 <1>   0.0800 
@<TRIPOS>BOND
  1   1   2  1   
  2   2   3  ar  
  3   2   4  ar  
  4   3   5  1   
  5   3   6  ar  
  6   4   7  1   
  7   4   8  ar  
  8   6   9  ar  
  9   6  16  1   
 10   7  10  am  
 11   7  17  1   
 12   8   9  ar  
 13   8  18  1   
 14   9  19  1   
 15  10  11  2   
 16  10  12  1   
 17  12  13  1   
 18  12  20  1   
 19  12  21  1   
 20  13  14  1   
 21  13  15  1   
 22  14  22  1   
 23  14  23  1   
 24  14  24  1   
 25  15  25  1   
 26  15  26  1   
 27  15  27  1   
@<TRIPOS>SUBSTRUCTURE
  1 ****   7 GROUP 4 **** **** 0

# MOE 2024.06 (io_trps.svl 2023.06)
