@<TRIPOS>MOLECULE
NONAME
32 32 1 0 0 
SMALL
USER_CHARGES


@<TRIPOS>ATOM
  1 S        0.7540    -0.0390    -0.4230 S.o2  1 <1>   1.3330 
  2 O        1.0450     0.8810     0.6510 O.2   1 <1>  -0.6500 
  3 O        1.2220     0.1840    -1.7670 O.2   1 <1>  -0.6500 
  4 N        1.2920    -1.5680    -0.0220 N.am  1 <1>  -0.9140 
  5 C       -1.0070    -0.2820    -0.4780 C.3   1 <1>  -0.1350 
  6 C        2.4340    -1.5690     0.8530 C.3   1 <1>   0.4190 
  7 C        3.6990    -1.2370     0.0530 C.ar  1 <1>  -0.1430 
  8 C        2.4970    -2.9140     1.5720 C.3   1 <1>  -0.2400 
  9 C        4.2660    -2.0350    -0.9480 C.ar  1 <1>  -0.1440 
 10 C        4.3070    -0.0260     0.3650 C.ar  1 <1>  -0.1500 
 11 C        5.4230    -1.6040    -1.5810 C.ar  1 <1>  -0.1500 
 12 C        3.7070    -3.3760    -1.4100 C.3   1 <1>  -0.0970 
 13 C        5.4560     0.3990    -0.2760 C.ar  1 <1>  -0.1430 
 14 C        6.0170    -0.4010    -1.2510 C.ar  1 <1>  -0.1500 
 15 C        6.0840     1.7310     0.0930 C.3   1 <1>  -0.0970 
 16 H        1.6880    -1.8850    -0.9050 H     1 <1>   0.4200 
 17 H       -1.4940     0.6300    -0.7600 H     1 <1>   0.0800 
 18 H       -1.3680    -0.5830     0.4850 H     1 <1>   0.0800 
 19 H       -1.2540    -1.0410    -1.1940 H     1 <1>   0.0800 
 20 H        2.3020    -0.8350     1.6310 H     1 <1>   0.0800 
 21 H        2.4300    -3.7400     0.8930 H     1 <1>   0.0800 
 22 H        1.6840    -2.9800     2.2710 H     1 <1>   0.0800 
 23 H        3.4190    -2.9840     2.1180 H     1 <1>   0.0800 
 24 H        3.8760     0.6110     1.1180 H     1 <1>   0.1500 
 25 H        5.8780    -2.2070    -2.3470 H     1 <1>   0.1500 
 26 H        2.6350    -3.3790    -1.4320 H     1 <1>   0.0800 
 27 H        4.0520    -4.1570    -0.7560 H     1 <1>   0.0800 
 28 H        4.0450    -3.6020    -2.4050 H     1 <1>   0.0800 
 29 H        6.9120    -0.0920    -1.7600 H     1 <1>   0.1500 
 30 H        5.3180     2.4730     0.2290 H     1 <1>   0.0800 
 31 H        6.7470     2.0660    -0.6840 H     1 <1>   0.0800 
 32 H        6.6400     1.6300     1.0070 H     1 <1>   0.0800 
@<TRIPOS>BOND
  1   1   2  2   
  2   1   3  2   
  3   1   4  am  
  4   1   5  1   
  5   4   6  1   
  6   4  16  1   
  7   5  17  1   
  8   5  18  1   
  9   5  19  1   
 10   6   7  1   
 11   6   8  1   
 12   6  20  1   
 13   7   9  ar  
 14   7  10  ar  
 15   8  21  1   
 16   8  22  1   
 17   8  23  1   
 18   9  11  ar  
 19   9  12  1   
 20  10  13  ar  
 21  10  24  1   
 22  11  14  ar  
 23  11  25  1   
 24  12  26  1   
 25  12  27  1   
 26  12  28  1   
 27  13  14  ar  
 28  13  15  1   
 29  14  29  1   
 30  15  30  1   
 31  15  31  1   
 32  15  32  1   
@<TRIPOS>SUBSTRUCTURE
  1 ****   7 GROUP 4 **** **** 0

# MOE 2024.06 (io_trps.svl 2023.06)
