@<TRIPOS>MOLECULE
NONAME
47 49 1 0 0 
SMALL
USER_CHARGES


@<TRIPOS>ATOM
  1 O        0.4710     0.3370     1.4390 O.2   1 <1>  -0.5700 
  2 C        0.3510     1.2910     0.7140 C.2   1 <1>   0.5690 
  3 N       -0.8390     1.6590     0.1790 N.am  1 <1>  -0.7300 
  4 C        1.5800     2.1030     0.3750 C.3   1 <1>  -0.0990 
  5 C       -2.1180     0.9690     0.4110 C.3   1 <1>   0.2200 
  6 C        2.5880     1.2590    -0.4150 C.3   1 <1>   0.0200 
  7 C       -2.6550     0.4580    -0.9300 C.3   1 <1>  -0.1600 
  8 C       -3.0970     1.9480     1.0660 C.3   1 <1>  -0.1600 
  9 C        3.7890     2.0850    -0.8290 C.2   1 <1>   0.2980 
 10 C       -4.0430    -0.1780    -0.7660 C.3   1 <1>  -0.1600 
 11 C       -4.4860     1.3140     1.2340 C.3   1 <1>  -0.1600 
 12 O        3.6300     3.0120    -1.7360 O.3   1 <1>  -0.0190 
 13 N        4.9630     1.9670    -0.3690 N.2   1 <1>  -0.5650 
 14 C       -5.0260     0.7980    -0.1060 C.3   1 <1>  -0.1600 
 15 N        4.8090     3.5330    -1.8630 N.2   1 <1>  -0.4100 
 16 C        5.6030     2.9180    -1.0580 C.2   1 <1>   0.4620 
 17 C        7.0210     3.1930    -0.8890 C.ar  1 <1>   0.0540 
 18 C        7.8030     2.4830     0.0220 C.ar  1 <1>  -0.1500 
 19 C        7.6590     4.1860    -1.6350 C.ar  1 <1>  -0.1500 
 20 C        9.1520     2.7410     0.1880 C.ar  1 <1>   0.0820 
 21 C        9.0070     4.4550    -1.4810 C.ar  1 <1>  -0.1500 
 22 O        9.8100     1.9860     1.1030 O.3   1 <1>  -0.3630 
 23 C        9.7590     3.7360    -0.5710 C.ar  1 <1>  -0.1500 
 24 C       11.1870     2.1650     1.3510 C.3   1 <1>   0.0400 
 25 H       -0.9020     2.4800    -0.4210 H     1 <1>   0.3700 
 26 H        2.0330     2.4350     1.2920 H     1 <1>   0.0800 
 27 H        1.2990     2.9690    -0.1940 H     1 <1>   0.0800 
 28 H       -1.9650     0.1290     1.0710 H     1 <1>   0.0800 
 29 H        2.1220     0.8560    -1.2960 H     1 <1>   0.0800 
 30 H        2.9210     0.4350     0.1920 H     1 <1>   0.0800 
 31 H       -1.9750    -0.2750    -1.3280 H     1 <1>   0.0800 
 32 H       -2.7260     1.2740    -1.6270 H     1 <1>   0.0800 
 33 H       -3.1870     2.8310     0.4590 H     1 <1>   0.0800 
 34 H       -2.7180     2.2330     2.0320 H     1 <1>   0.0800 
 35 H       -3.9590    -1.0630    -0.1570 H     1 <1>   0.0800 
 36 H       -4.4210    -0.4760    -1.7290 H     1 <1>   0.0800 
 37 H       -5.1670     2.0400     1.6430 H     1 <1>   0.0800 
 38 H       -4.4210     0.4950     1.9310 H     1 <1>   0.0800 
 39 H       -5.9700     0.3060     0.0520 H     1 <1>   0.0800 
 40 H       -5.1980     1.6320    -0.7660 H     1 <1>   0.0800 
 41 H        7.3560     1.7090     0.6190 H     1 <1>   0.1500 
 42 H        7.0910     4.7570    -2.3490 H     1 <1>   0.1500 
 43 H        9.4710     5.2270    -2.0710 H     1 <1>   0.1500 
 44 H       10.8030     3.9620    -0.4680 H     1 <1>   0.1500 
 45 H       11.4840     1.4620     2.1070 H     1 <1>   0.0800 
 46 H       11.3510     3.1690     1.7000 H     1 <1>   0.0800 
 47 H       11.7320     1.9780     0.4430 H     1 <1>   0.0800 
@<TRIPOS>BOND
  1   1   2  2   
  2   2   3  am  
  3   2   4  1   
  4   3   5  1   
  5   3  25  1   
  6   4   6  1   
  7   4  26  1   
  8   4  27  1   
  9   5   7  1   
 10   5   8  1   
 11   5  28  1   
 12   6   9  1   
 13   6  29  1   
 14   6  30  1   
 15   7  10  1   
 16   7  31  1   
 17   7  32  1   
 18   8  11  1   
 19   8  33  1   
 20   8  34  1   
 21   9  12  1   
 22   9  13  2   
 23  10  14  1   
 24  10  35  1   
 25  10  36  1   
 26  11  14  1   
 27  11  37  1   
 28  11  38  1   
 29  12  15  1   
 30  13  16  1   
 31  14  39  1   
 32  14  40  1   
 33  15  16  2   
 34  16  17  1   
 35  17  18  ar  
 36  17  19  ar  
 37  18  20  ar  
 38  18  41  1   
 39  19  21  ar  
 40  19  42  1   
 41  20  22  1   
 42  20  23  ar  
 43  21  23  ar  
 44  21  43  1   
 45  22  24  1   
 46  23  44  1   
 47  24  45  1   
 48  24  46  1   
 49  24  47  1   
@<TRIPOS>SUBSTRUCTURE
  1 ****   9 GROUP 4 **** **** 0

# MOE 2024.06 (io_trps.svl 2023.06)
