@<TRIPOS>MOLECULE
NONAME
41 42 1 0 0 
SMALL
USER_CHARGES


@<TRIPOS>ATOM
  1 O       -0.1860    -0.7080    -0.6140 O.3   1 <1>  -0.3630 
  2 C       -1.4650    -0.7480    -0.1800 C.ar  1 <1>   0.0830 
  3 C        0.7980    -0.6600     0.3900 C.3   1 <1>   0.1200 
  4 C       -2.0750    -1.9780     0.0580 C.ar  1 <1>  -0.1440 
  5 C       -2.1620     0.4430     0.0150 C.ar  1 <1>  -0.1440 
  6 C        2.1620    -0.5080    -0.2810 C.3   1 <1>  -0.1600 
  7 C       -3.3790    -2.0040     0.5270 C.ar  1 <1>  -0.1500 
  8 C       -1.3440    -3.2890    -0.1920 C.3   1 <1>  -0.0960 
  9 C       -3.4640     0.3930     0.4840 C.ar  1 <1>  -0.1500 
 10 C       -1.5240     1.7920    -0.2840 C.3   1 <1>  -0.0970 
 11 C        3.2860    -0.4370     0.7560 C.3   1 <1>   0.0210 
 12 C       -4.0690    -0.8250     0.7420 C.ar  1 <1>  -0.1500 
 13 C        4.6300    -0.2660     0.0690 C.2   1 <1>  -0.1810 
 14 C        5.2420     0.9400    -0.2710 C.2   1 <1>   0.1080 
 15 C        5.4920    -1.2190    -0.3490 C.2   1 <1>  -0.3320 
 16 N        6.3890     0.7640    -0.8460 N.2   1 <1>  -0.7070 
 17 C        4.6810     2.3210    -0.0200 C.3   1 <1>  -0.0590 
 18 N        6.5430    -0.5700    -0.8940 N.pl3 1 <1>   0.3000 
 19 C        5.4000    -2.7330    -0.2780 C.3   1 <1>  -0.0600 
 20 H        0.7450    -1.5710     0.9600 H     1 <1>   0.0800 
 21 H        0.5890     0.1790     1.0310 H     1 <1>   0.0800 
 22 H        2.1670     0.3890    -0.8740 H     1 <1>   0.0800 
 23 H        2.3350    -1.3480    -0.9310 H     1 <1>   0.0800 
 24 H       -3.8650    -2.9430     0.7240 H     1 <1>   0.1500 
 25 H       -0.6900    -3.5070     0.6310 H     1 <1>   0.0800 
 26 H       -0.7610    -3.2220    -1.0940 H     1 <1>   0.0800 
 27 H       -2.0420    -4.0990    -0.3040 H     1 <1>   0.0800 
 28 H       -4.0170     1.3010     0.6480 H     1 <1>   0.1500 
 29 H       -0.8670     2.0720     0.5190 H     1 <1>   0.0800 
 30 H       -2.2740     2.5520    -0.4000 H     1 <1>   0.0800 
 31 H       -0.9560     1.7380    -1.1960 H     1 <1>   0.0800 
 32 H        3.3000    -1.3390     1.3420 H     1 <1>   0.0800 
 33 H        3.1210     0.3860     1.4270 H     1 <1>   0.0800 
 34 H       -5.0810    -0.8540     1.1070 H     1 <1>   0.1500 
 35 H        3.6640     2.3730    -0.3590 H     1 <1>   0.0800 
 36 H        5.2620     3.0520    -0.5520 H     1 <1>   0.0800 
 37 H        4.7210     2.5410     1.0300 H     1 <1>   0.0800 
 38 H        7.3750    -1.0060    -1.3070 H     1 <1>   0.2700 
 39 H        4.4630    -3.0370     0.1510 H     1 <1>   0.0800 
 40 H        6.1970    -3.1240     0.3290 H     1 <1>   0.0800 
 41 H        5.4720    -3.1540    -1.2650 H     1 <1>   0.0800 
@<TRIPOS>BOND
  1   1   2  1   
  2   1   3  1   
  3   2   4  ar  
  4   2   5  ar  
  5   3   6  1   
  6   3  20  1   
  7   3  21  1   
  8   4   7  ar  
  9   4   8  1   
 10   5   9  ar  
 11   5  10  1   
 12   6  11  1   
 13   6  22  1   
 14   6  23  1   
 15   7  12  ar  
 16   7  24  1   
 17   8  25  1   
 18   8  26  1   
 19   8  27  1   
 20   9  12  ar  
 21   9  28  1   
 22  10  29  1   
 23  10  30  1   
 24  10  31  1   
 25  11  13  1   
 26  11  32  1   
 27  11  33  1   
 28  12  34  1   
 29  13  14  1   
 30  13  15  2   
 31  14  16  2   
 32  14  17  1   
 33  15  18  1   
 34  15  19  1   
 35  16  18  1   
 36  17  35  1   
 37  17  36  1   
 38  17  37  1   
 39  18  38  1   
 40  19  39  1   
 41  19  40  1   
 42  19  41  1   
@<TRIPOS>SUBSTRUCTURE
  1 ****   3 GROUP 4 **** **** 0

# MOE 2024.06 (io_trps.svl 2023.06)
