@<TRIPOS>MOLECULE
NONAME
42 43 1 0 0 
SMALL
USER_CHARGES


@<TRIPOS>ATOM
  1 O        0.4230     0.3780     1.5820 O.2   1 <1>  -0.5700 
  2 C        0.1080     1.4630     1.1470 C.2   1 <1>   0.5690 
  3 N        1.0320     2.3000     0.5600 N.am  1 <1>  -0.6600 
  4 C       -1.3530     1.8730     1.3150 C.3   1 <1>   0.1810 
  5 C        0.7320     3.6570     0.0210 C.3   1 <1>   0.1400 
  6 C        2.4240     1.8460     0.2880 C.3   1 <1>   0.1400 
  7 O       -1.9710     2.1270     0.0610 O.3   1 <1>  -0.3620 
  8 C        0.9390     3.6540    -1.4960 C.3   1 <1>  -0.1600 
  9 C        2.6650     1.8290    -1.2260 C.3   1 <1>  -0.1600 
 10 C       -3.2110     2.6680    -0.0090 C.ar  1 <1>   0.0820 
 11 C        2.3550     3.1900    -1.8690 C.3   1 <1>  -0.1600 
 12 C       -4.0440     2.8440     1.0910 C.ar  1 <1>  -0.1500 
 13 C       -3.6480     3.0650    -1.2610 C.ar  1 <1>  -0.1500 
 14 C       -5.2920     3.4190     0.9270 C.ar  1 <1>  -0.1500 
 15 C       -4.8960     3.6390    -1.4200 C.ar  1 <1>  -0.1500 
 16 C       -5.7310     3.8240    -0.3270 C.ar  1 <1>  -0.1440 
 17 C       -7.1060     4.4600    -0.5180 C.3   1 <1>   0.0630 
 18 C       -7.2160     5.7690     0.2700 C.3   1 <1>  -0.2400 
 19 C       -8.2190     3.4870    -0.1180 C.3   1 <1>  -0.2400 
 20 H       -1.4040     2.7640     1.9120 H     1 <1>   0.0800 
 21 H       -1.8940     1.0790     1.7960 H     1 <1>   0.0800 
 22 H        1.4010     4.3670     0.4760 H     1 <1>   0.0800 
 23 H       -0.2730     3.9600     0.2480 H     1 <1>   0.0800 
 24 H        2.5910     0.8610     0.6900 H     1 <1>   0.0800 
 25 H        3.1130     2.5210     0.7640 H     1 <1>   0.0800 
 26 H        0.7690     4.6440    -1.8810 H     1 <1>   0.0800 
 27 H        0.2100     2.9990    -1.9420 H     1 <1>   0.0800 
 28 H        2.0400     1.0710    -1.6640 H     1 <1>   0.0800 
 29 H        3.6880     1.5610    -1.4200 H     1 <1>   0.0800 
 30 H        3.0710     3.9170    -1.5260 H     1 <1>   0.0800 
 31 H        2.4430     3.1150    -2.9400 H     1 <1>   0.0800 
 32 H       -3.7460     2.5380     2.0750 H     1 <1>   0.1500 
 33 H       -3.0040     2.9220    -2.1100 H     1 <1>   0.1500 
 34 H       -5.9260     3.5490     1.7860 H     1 <1>   0.1500 
 35 H       -5.2140     3.9410    -2.4020 H     1 <1>   0.1500 
 36 H       -7.2360     4.6940    -1.5610 H     1 <1>   0.0800 
 37 H       -7.1460     5.5890     1.3270 H     1 <1>   0.0800 
 38 H       -8.1570     6.2480     0.0650 H     1 <1>   0.0800 
 39 H       -6.4230     6.4360    -0.0180 H     1 <1>   0.0800 
 40 H       -8.1700     3.2570     0.9310 H     1 <1>   0.0800 
 41 H       -8.1220     2.5720    -0.6740 H     1 <1>   0.0800 
 42 H       -9.1820     3.9160    -0.3300 H     1 <1>   0.0800 
@<TRIPOS>BOND
  1   1   2  2   
  2   2   3  am  
  3   2   4  1   
  4   3   5  1   
  5   3   6  1   
  6   4   7  1   
  7   4  20  1   
  8   4  21  1   
  9   5   8  1   
 10   5  22  1   
 11   5  23  1   
 12   6   9  1   
 13   6  24  1   
 14   6  25  1   
 15   7  10  1   
 16   8  11  1   
 17   8  26  1   
 18   8  27  1   
 19   9  11  1   
 20   9  28  1   
 21   9  29  1   
 22  10  12  ar  
 23  10  13  ar  
 24  11  30  1   
 25  11  31  1   
 26  12  14  ar  
 27  12  32  1   
 28  13  15  ar  
 29  13  33  1   
 30  14  16  ar  
 31  14  34  1   
 32  15  16  ar  
 33  15  35  1   
 34  16  17  1   
 35  17  18  1   
 36  17  19  1   
 37  17  36  1   
 38  18  37  1   
 39  18  38  1   
 40  18  39  1   
 41  19  40  1   
 42  19  41  1   
 43  19  42  1   
@<TRIPOS>SUBSTRUCTURE
  1 ****   7 GROUP 4 **** **** 0

# MOE 2024.06 (io_trps.svl 2023.06)
