@<TRIPOS>MOLECULE
NONAME
37 37 1 0 0 
SMALL
USER_CHARGES


@<TRIPOS>ATOM
  1 CL      -0.0500     0.4310     0.8310 Cl    1 <1>  -0.1770 
  2 C        1.4470     1.0460     0.1790 C.ar  1 <1>   0.1770 
  3 C        2.6440     0.5160     0.6160 C.ar  1 <1>  -0.1500 
  4 C        1.4060     2.0530    -0.7660 C.ar  1 <1>  -0.1500 
  5 C        3.8560     0.9850     0.1080 C.ar  1 <1>   0.0860 
  6 C        2.5960     2.5390    -1.2770 C.ar  1 <1>  -0.1500 
  7 C        5.1160     0.4200     0.5580 C.2   1 <1>   0.5440 
  8 C        3.8010     2.0110    -0.8420 C.ar  1 <1>  -0.1500 
  9 O        5.2180    -0.0470     1.6750 O.2   1 <1>  -0.5700 
 10 N        6.1980     0.3910    -0.2750 N.am  1 <1>  -0.7300 
 11 C        7.5340    -0.1660     0.0540 C.3   1 <1>   0.2200 
 12 C        8.5880     0.9680    -0.0880 C.3   1 <1>  -0.0800 
 13 C        7.8400    -1.4260    -0.8170 C.3   1 <1>  -0.0800 
 14 C       10.0130     0.5180     0.2770 C.3   1 <1>  -0.2400 
 15 C        8.2400     2.1870     0.7880 C.3   1 <1>  -0.2400 
 16 C        6.6200    -2.0550    -1.5200 C.3   1 <1>  -0.2400 
 17 C        8.4940    -2.5270     0.0380 C.3   1 <1>  -0.2400 
 18 H        2.6420    -0.2650     1.3550 H     1 <1>   0.1500 
 19 H        0.4590     2.4470    -1.0890 H     1 <1>   0.1500 
 20 H        2.5830     3.3280    -2.0100 H     1 <1>   0.1500 
 21 H        4.7160     2.4110    -1.2400 H     1 <1>   0.1500 
 22 H        6.0850     0.6590    -1.2500 H     1 <1>   0.3700 
 23 H        7.5190    -0.4710     1.0870 H     1 <1>   0.0800 
 24 H        8.6020     1.2870    -1.1160 H     1 <1>   0.0800 
 25 H        8.5380    -1.1480    -1.5880 H     1 <1>   0.0800 
 26 H       10.0410     0.1350     1.2820 H     1 <1>   0.0800 
 27 H       10.6960     1.3470     0.2110 H     1 <1>   0.0800 
 28 H       10.3650    -0.2420    -0.3960 H     1 <1>   0.0800 
 29 H        8.1570     1.8940     1.8200 H     1 <1>   0.0800 
 30 H        7.3070     2.6280     0.4860 H     1 <1>   0.0800 
 31 H        9.0000     2.9440     0.7050 H     1 <1>   0.0800 
 32 H        5.8660    -2.3220    -0.7990 H     1 <1>   0.0800 
 33 H        6.9100    -2.9440    -2.0520 H     1 <1>   0.0800 
 34 H        6.1930    -1.3740    -2.2340 H     1 <1>   0.0800 
 35 H        7.8060    -2.8710     0.7900 H     1 <1>   0.0800 
 36 H        9.3780    -2.1680     0.5310 H     1 <1>   0.0800 
 37 H        8.7750    -3.3640    -0.5770 H     1 <1>   0.0800 
@<TRIPOS>BOND
  1   1   2  1   
  2   2   3  ar  
  3   2   4  ar  
  4   3   5  ar  
  5   3  18  1   
  6   4   6  ar  
  7   4  19  1   
  8   5   7  1   
  9   5   8  ar  
 10   6   8  ar  
 11   6  20  1   
 12   7   9  2   
 13   7  10  am  
 14   8  21  1   
 15  10  11  1   
 16  10  22  1   
 17  11  12  1   
 18  11  13  1   
 19  11  23  1   
 20  12  14  1   
 21  12  15  1   
 22  12  24  1   
 23  13  16  1   
 24  13  17  1   
 25  13  25  1   
 26  14  26  1   
 27  14  27  1   
 28  14  28  1   
 29  15  29  1   
 30  15  30  1   
 31  15  31  1   
 32  16  32  1   
 33  16  33  1   
 34  16  34  1   
 35  17  35  1   
 36  17  36  1   
 37  17  37  1   
@<TRIPOS>SUBSTRUCTURE
  1 ****   7 GROUP 4 **** **** 0

# MOE 2024.06 (io_trps.svl 2023.06)
