@<TRIPOS>MOLECULE
NONAME
47 49 1 0 0 
SMALL
USER_CHARGES


@<TRIPOS>ATOM
  1 O       -2.3950    -2.1050     1.5800 O.2   1 <1>  -0.5700 
  2 C       -3.0670    -1.9660     0.5720 C.2   1 <1>   0.5440 
  3 N       -3.4510    -3.0840    -0.1320 N.am  1 <1>  -0.6600 
  4 C       -3.4610    -0.6390     0.1550 C.ar  1 <1>   0.0860 
  5 C       -3.1110    -4.4580     0.3020 C.3   1 <1>   0.1400 
  6 C       -4.5990    -3.0990    -1.0650 C.3   1 <1>   0.1400 
  7 C       -4.2160     0.1810     1.0050 C.ar  1 <1>   0.1170 
  8 C       -3.0930    -0.1460    -1.0970 C.ar  1 <1>  -0.1500 
  9 C       -4.2570    -5.3240    -0.2070 C.3   1 <1>  -0.1600 
 10 C       -4.8010    -4.5680    -1.4140 C.3   1 <1>  -0.1600 
 11 N       -4.6060    -0.2980     2.2620 N.am  1 <1>  -0.5470 
 12 C       -4.5550     1.4660     0.5910 C.ar  1 <1>  -0.1500 
 13 C       -3.4510     1.1250    -1.5030 C.ar  1 <1>  -0.1500 
 14 C       -5.8160    -0.3250     2.8920 C.2   1 <1>   0.5690 
 15 C       -4.1830     1.9350    -0.6530 C.ar  1 <1>  -0.1500 
 16 O       -5.9140    -0.8870     3.9540 O.2   1 <1>  -0.5700 
 17 C       -7.0740     0.3230     2.3120 C.3   1 <1>   0.1810 
 18 O       -7.2650     0.0510     0.9310 O.3   1 <1>  -0.3630 
 19 C       -7.6120    -1.1760     0.4590 C.ar  1 <1>   0.0820 
 20 C       -7.7650    -1.3090    -0.9190 C.ar  1 <1>  -0.1430 
 21 C       -7.8200    -2.2800     1.2840 C.ar  1 <1>  -0.1500 
 22 C       -8.1370    -2.5320    -1.4550 C.ar  1 <1>  -0.1500 
 23 C       -7.5220    -0.1230    -1.8420 C.3   1 <1>  -0.0970 
 24 C       -8.1840    -3.4970     0.7380 C.ar  1 <1>  -0.1500 
 25 C       -8.3470    -3.6230    -0.6300 C.ar  1 <1>  -0.1500 
 26 H       -3.0170    -4.5200     1.3730 H     1 <1>   0.0800 
 27 H       -2.1820    -4.7480    -0.1580 H     1 <1>   0.0800 
 28 H       -4.4010    -2.5090    -1.9430 H     1 <1>   0.0800 
 29 H       -5.4650    -2.7150    -0.5540 H     1 <1>   0.0800 
 30 H       -2.5130    -0.7740    -1.7510 H     1 <1>   0.1500 
 31 H       -5.0130    -5.3810     0.5570 H     1 <1>   0.0800 
 32 H       -3.9300    -6.3180    -0.4540 H     1 <1>   0.0800 
 33 H       -4.2190    -4.8030    -2.2870 H     1 <1>   0.0800 
 34 H       -5.8340    -4.7930    -1.6090 H     1 <1>   0.0800 
 35 H       -3.9240    -0.9320     2.7010 H     1 <1>   0.3700 
 36 H       -5.1130     2.1060     1.2480 H     1 <1>   0.1500 
 37 H       -3.1570     1.4880    -2.4740 H     1 <1>   0.1500 
 38 H       -4.4580     2.9290    -0.9620 H     1 <1>   0.1500 
 39 H       -7.0020     1.3870     2.4230 H     1 <1>   0.0800 
 40 H       -7.9450    -0.0120     2.8450 H     1 <1>   0.0800 
 41 H       -7.7060    -2.2180     2.3490 H     1 <1>   0.1500 
 42 H       -8.2650    -2.6430    -2.5170 H     1 <1>   0.1500 
 43 H       -6.5110     0.2250    -1.7260 H     1 <1>   0.0800 
 44 H       -8.1930     0.6770    -1.5890 H     1 <1>   0.0800 
 45 H       -7.6780    -0.3900    -2.8710 H     1 <1>   0.0800 
 46 H       -8.3440    -4.3460     1.3790 H     1 <1>   0.1500 
 47 H       -8.6380    -4.5700    -1.0520 H     1 <1>   0.1500 
@<TRIPOS>BOND
  1   1   2  2   
  2   2   3  am  
  3   2   4  1   
  4   3   5  1   
  5   3   6  1   
  6   4   7  ar  
  7   4   8  ar  
  8   5   9  1   
  9   5  26  1   
 10   5  27  1   
 11   6  10  1   
 12   6  28  1   
 13   6  29  1   
 14   7  11  1   
 15   7  12  ar  
 16   8  13  ar  
 17   8  30  1   
 18   9  10  1   
 19   9  31  1   
 20   9  32  1   
 21  10  33  1   
 22  10  34  1   
 23  11  14  am  
 24  11  35  1   
 25  12  15  ar  
 26  12  36  1   
 27  13  15  ar  
 28  13  37  1   
 29  14  16  2   
 30  14  17  1   
 31  15  38  1   
 32  17  18  1   
 33  17  39  1   
 34  17  40  1   
 35  18  19  1   
 36  19  20  ar  
 37  19  21  ar  
 38  20  22  ar  
 39  20  23  1   
 40  21  24  ar  
 41  21  41  1   
 42  22  25  ar  
 43  22  42  1   
 44  23  43  1   
 45  23  44  1   
 46  23  45  1   
 47  24  25  ar  
 48  24  46  1   
 49  25  47  1   
@<TRIPOS>SUBSTRUCTURE
  1 ****   4 GROUP 4 **** **** 0

# MOE 2024.06 (io_trps.svl 2023.06)
