@<TRIPOS>MOLECULE
NONAME
37 37 1 0 0 
SMALL
USER_CHARGES


@<TRIPOS>ATOM
  1 S       -0.3120     0.4280     1.7810 S.o2  1 <1>   1.3330 
  2 O        0.8020     0.2290     2.6760 O.2   1 <1>  -0.6500 
  3 O       -1.0120    -0.7010     1.2190 O.2   1 <1>  -0.6500 
  4 N        0.2680     1.3840     0.4670 N.am  1 <1>  -0.6930 
  5 C       -1.4800     1.5210     2.5630 C.3   1 <1>  -0.1350 
  6 C       -0.6110     1.7850    -0.5460 C.ar  1 <1>   0.1990 
  7 C        1.5260     2.1640     0.7140 C.3   1 <1>   0.2570 
  8 C       -1.1870     3.0630    -0.5850 C.ar  1 <1>   0.0830 
  9 C       -0.9320     0.8830    -1.5510 C.ar  1 <1>  -0.1500 
 10 C        2.1970     2.7500    -0.5370 C.2   1 <1>   0.5690 
 11 O       -0.9190     3.9430     0.4210 O.3   1 <1>  -0.3630 
 12 C       -2.0400     3.4140    -1.6220 C.ar  1 <1>  -0.1500 
 13 C       -1.7810     1.2360    -2.5850 C.ar  1 <1>  -0.1500 
 14 O        2.3020     3.9560    -0.5930 O.2   1 <1>  -0.5700 
 15 N        2.6880     1.9410    -1.5420 N.am  1 <1>  -0.6600 
 16 C       -0.5980     5.2730     0.0690 C.3   1 <1>   0.0400 
 17 C       -2.3330     2.5040    -2.6230 C.ar  1 <1>  -0.1500 
 18 C        3.2710     2.5140    -2.7880 C.3   1 <1>   0.0600 
 19 C        2.6420     0.4510    -1.5290 C.3   1 <1>   0.0600 
 20 H       -1.9010     1.0510     3.4290 H     1 <1>   0.0800 
 21 H       -2.2720     1.7630     1.8830 H     1 <1>   0.0800 
 22 H       -0.9950     2.4290     2.8620 H     1 <1>   0.0800 
 23 H        2.2500     1.5320     1.1940 H     1 <1>   0.0800 
 24 H        1.3060     2.9700     1.3900 H     1 <1>   0.0800 
 25 H       -0.5130    -0.1060    -1.5140 H     1 <1>   0.1500 
 26 H       -2.4890     4.3890    -1.6540 H     1 <1>   0.1500 
 27 H       -2.0150     0.5220    -3.3560 H     1 <1>   0.1500 
 28 H       -0.1150     5.7360     0.9100 H     1 <1>   0.0800 
 29 H       -1.5020     5.8020    -0.1720 H     1 <1>   0.0800 
 30 H        0.0730     5.2630    -0.7730 H     1 <1>   0.0800 
 31 H       -2.9940     2.7790    -3.4270 H     1 <1>   0.1500 
 32 H        3.2460     3.5890    -2.7670 H     1 <1>   0.0800 
 33 H        2.7060     2.1770    -3.6400 H     1 <1>   0.0800 
 34 H        4.2930     2.1960    -2.8900 H     1 <1>   0.0800 
 35 H        2.3530     0.0690    -0.5670 H     1 <1>   0.0800 
 36 H        3.6130     0.0560    -1.7710 H     1 <1>   0.0800 
 37 H        1.9320     0.1080    -2.2620 H     1 <1>   0.0800 
@<TRIPOS>BOND
  1   1   2  2   
  2   1   3  2   
  3   1   4  am  
  4   1   5  1   
  5   4   6  1   
  6   4   7  1   
  7   5  20  1   
  8   5  21  1   
  9   5  22  1   
 10   6   8  ar  
 11   6   9  ar  
 12   7  10  1   
 13   7  23  1   
 14   7  24  1   
 15   8  11  1   
 16   8  12  ar  
 17   9  13  ar  
 18   9  25  1   
 19  10  14  2   
 20  10  15  am  
 21  11  16  1   
 22  12  17  ar  
 23  12  26  1   
 24  13  17  ar  
 25  13  27  1   
 26  15  18  1   
 27  15  19  1   
 28  16  28  1   
 29  16  29  1   
 30  16  30  1   
 31  17  31  1   
 32  18  32  1   
 33  18  33  1   
 34  18  34  1   
 35  19  35  1   
 36  19  36  1   
 37  19  37  1   
@<TRIPOS>SUBSTRUCTURE
  1 ****   6 GROUP 4 **** **** 0

# MOE 2024.06 (io_trps.svl 2023.06)
