@<TRIPOS>MOLECULE
NONAME
35 36 1 0 0 
SMALL
USER_CHARGES


@<TRIPOS>ATOM
  1 O        1.1520    -2.8710     1.1590 O.2   1 <1>  -0.5700 
  2 C        0.7700    -2.5300     0.0670 C.2   1 <1>   0.6300 
  3 N        1.4500    -1.6560    -0.7190 N.am  1 <1>  -0.7300 
  4 C       -0.5310    -3.1020    -0.4740 C.3   1 <1>  -0.1000 
  5 C        2.7020    -0.9340    -0.3880 C.3   1 <1>   0.2200 
  6 C       -1.5580    -2.2360    -1.1490 C.3   1 <1>  -0.2000 
  7 C       -1.8340    -2.8040     0.2080 C.3   1 <1>  -0.2000 
  8 C        3.8370    -1.9470    -0.1340 C.3   1 <1>  -0.0170 
  9 C        2.4250     0.0320     0.7800 C.3   1 <1>  -0.1600 
 10 C        5.2240    -1.3180    -0.1450 C.ar  1 <1>  -0.1440 
 11 C        3.3440     1.2630     0.7970 C.3   1 <1>  -0.2400 
 12 C        5.9680    -1.2410     1.0220 C.ar  1 <1>  -0.1500 
 13 C        5.7600    -0.8220    -1.3250 C.ar  1 <1>  -0.1500 
 14 C        7.2280    -0.6680     1.0140 C.ar  1 <1>  -0.1500 
 15 C        7.0200    -0.2480    -1.3350 C.ar  1 <1>  -0.1500 
 16 C        7.7540    -0.1700    -0.1650 C.ar  1 <1>  -0.1500 
 17 H        1.0340    -1.4070    -1.6150 H     1 <1>   0.3700 
 18 H       -0.3940    -4.1030    -0.8380 H     1 <1>   0.1000 
 19 H        2.9640    -0.3500    -1.2530 H     1 <1>   0.0800 
 20 H       -2.0970    -2.6330    -1.9920 H     1 <1>   0.1000 
 21 H       -1.3990    -1.1740    -1.2230 H     1 <1>   0.1000 
 22 H       -1.8190    -2.1520     1.0650 H     1 <1>   0.1000 
 23 H       -2.5520    -3.6000     0.3090 H     1 <1>   0.1000 
 24 H        3.8120    -2.6980    -0.9030 H     1 <1>   0.0800 
 25 H        3.6740    -2.4430     0.8060 H     1 <1>   0.0800 
 26 H        2.5130    -0.4960     1.7140 H     1 <1>   0.0800 
 27 H        1.4130     0.3900     0.7040 H     1 <1>   0.0800 
 28 H        3.0510     1.9240     1.5930 H     1 <1>   0.0800 
 29 H        4.3690     0.9830     0.9580 H     1 <1>   0.0800 
 30 H        3.2760     1.7980    -0.1340 H     1 <1>   0.0800 
 31 H        5.5680    -1.6250     1.9450 H     1 <1>   0.1500 
 32 H        5.2010    -0.8820    -2.2410 H     1 <1>   0.1500 
 33 H        7.7970    -0.6100     1.9250 H     1 <1>   0.1500 
 34 H        7.4290     0.1360    -2.2520 H     1 <1>   0.1500 
 35 H        8.7330     0.2760    -0.1710 H     1 <1>   0.1500 
@<TRIPOS>BOND
  1   1   2  2   
  2   2   3  am  
  3   2   4  1   
  4   3   5  1   
  5   3  17  1   
  6   4   6  1   
  7   4   7  1   
  8   4  18  1   
  9   5   8  1   
 10   5   9  1   
 11   5  19  1   
 12   6   7  1   
 13   6  20  1   
 14   6  21  1   
 15   7  22  1   
 16   7  23  1   
 17   8  10  1   
 18   8  24  1   
 19   8  25  1   
 20   9  11  1   
 21   9  26  1   
 22   9  27  1   
 23  10  12  ar  
 24  10  13  ar  
 25  11  28  1   
 26  11  29  1   
 27  11  30  1   
 28  12  14  ar  
 29  12  31  1   
 30  13  15  ar  
 31  13  32  1   
 32  14  16  ar  
 33  14  33  1   
 34  15  16  ar  
 35  15  34  1   
 36  16  35  1   
@<TRIPOS>SUBSTRUCTURE
  1 ****   5 GROUP 4 **** **** 0

# MOE 2024.06 (io_trps.svl 2023.06)
