@<TRIPOS>MOLECULE
NONAME
46 47 1 0 0 
SMALL
USER_CHARGES


@<TRIPOS>ATOM
  1 O       -1.7600    -8.0150     0.8410 O.3   1 <1>  -0.5600 
  2 C       -1.2040    -9.2880     0.6460 C.3   1 <1>   0.1200 
  3 C       -1.6720    -7.1730    -0.2760 C.3   1 <1>   0.1200 
  4 C        0.2750    -9.1950     0.2010 C.3   1 <1>   0.3430 
  5 C       -0.1980    -6.9470    -0.6890 C.3   1 <1>   0.3430 
  6 N        0.7450    -7.7690     0.1490 N.4   1 <1>  -0.9590 
  7 C        2.1760    -7.6550    -0.2440 C.3   1 <1>   0.3430 
  8 C        2.7110    -6.2550     0.0670 C.3   1 <1>  -0.1600 
  9 C        4.2120    -6.1740    -0.2480 C.3   1 <1>  -0.1600 
 10 C        4.7870    -4.7910     0.0640 C.3   1 <1>   0.1200 
 11 O        6.1530    -4.8180    -0.2700 O.3   1 <1>  -0.3630 
 12 C        6.9660    -3.7470    -0.0660 C.ar  1 <1>   0.0820 
 13 C        8.3220    -3.8940    -0.3530 C.ar  1 <1>  -0.1440 
 14 C        6.4940    -2.5270     0.4180 C.ar  1 <1>  -0.1500 
 15 C        9.1830    -2.8280    -0.1440 C.ar  1 <1>  -0.1500 
 16 C        8.8890    -5.2040    -0.8900 C.3   1 <1>   0.1220 
 17 C        7.3640    -1.4710     0.6170 C.ar  1 <1>  -0.1500 
 18 C        8.7090    -1.6210     0.3370 C.ar  1 <1>  -0.1500 
 19 C        9.3860    -6.0720     0.2540 C.2   1 <1>  -0.2880 
 20 C       10.6300    -6.5420     0.3870 C.2   1 <1>  -0.3000 
 21 H       -1.7910    -9.8120    -0.0880 H     1 <1>   0.0800 
 22 H       -1.2780    -9.8220     1.5780 H     1 <1>   0.0800 
 23 H       -2.1330    -6.2350    -0.0190 H     1 <1>   0.0800 
 24 H       -2.2320    -7.6120    -1.0840 H     1 <1>   0.0800 
 25 H        0.3760    -9.6520    -0.7700 H     1 <1>   0.0800 
 26 H        0.8830    -9.7610     0.8890 H     1 <1>   0.0800 
 27 H        0.0330    -5.9000    -0.5840 H     1 <1>   0.0800 
 28 H       -0.0850    -7.2010    -1.7300 H     1 <1>   0.0800 
 29 H        0.6230    -7.4190     1.1110 H     1 <1>   0.4500 
 30 H        2.2910    -7.8670    -1.2950 H     1 <1>   0.0800 
 31 H        2.7580    -8.3760     0.3080 H     1 <1>   0.0800 
 32 H        2.5620    -6.0350     1.1110 H     1 <1>   0.0800 
 33 H        2.1960    -5.5190    -0.5240 H     1 <1>   0.0800 
 34 H        4.3760    -6.3840    -1.2920 H     1 <1>   0.0800 
 35 H        4.7470    -6.9030     0.3370 H     1 <1>   0.0800 
 36 H        4.7000    -4.5620     1.1120 H     1 <1>   0.0800 
 37 H        4.3110    -4.0290    -0.5290 H     1 <1>   0.0800 
 38 H        5.4570    -2.3770     0.6450 H     1 <1>   0.1500 
 39 H       10.2330    -2.9370    -0.3530 H     1 <1>   0.1500 
 40 H        9.6970    -4.9940    -1.5670 H     1 <1>   0.0800 
 41 H        8.1420    -5.7390    -1.4470 H     1 <1>   0.0800 
 42 H        6.9960    -0.5310     0.9900 H     1 <1>   0.1500 
 43 H        9.3880    -0.8010     0.4950 H     1 <1>   0.1500 
 44 H        8.6090    -6.2730     0.9720 H     1 <1>   0.1500 
 45 H       10.9530    -7.1540     1.2120 H     1 <1>   0.1500 
 46 H       11.4280    -6.3570    -0.3110 H     1 <1>   0.1500 
@<TRIPOS>BOND
  1   1   2  1   
  2   1   3  1   
  3   2   4  1   
  4   2  21  1   
  5   2  22  1   
  6   3   5  1   
  7   3  23  1   
  8   3  24  1   
  9   4   6  1   
 10   4  25  1   
 11   4  26  1   
 12   5   6  1   
 13   5  27  1   
 14   5  28  1   
 15   6   7  1   
 16   6  29  1   
 17   7   8  1   
 18   7  30  1   
 19   7  31  1   
 20   8   9  1   
 21   8  32  1   
 22   8  33  1   
 23   9  10  1   
 24   9  34  1   
 25   9  35  1   
 26  10  11  1   
 27  10  36  1   
 28  10  37  1   
 29  11  12  1   
 30  12  13  ar  
 31  12  14  ar  
 32  13  15  ar  
 33  13  16  1   
 34  14  17  ar  
 35  14  38  1   
 36  15  18  ar  
 37  15  39  1   
 38  16  19  1   
 39  16  40  1   
 40  16  41  1   
 41  17  18  ar  
 42  17  42  1   
 43  18  43  1   
 44  19  20  2   
 45  19  44  1   
 46  20  45  1   
 47  20  46  1   
@<TRIPOS>SUBSTRUCTURE
  1 ****   9 GROUP 4 **** **** 0

# MOE 2024.06 (io_trps.svl 2023.06)
