@<TRIPOS>MOLECULE
NONAME
50 51 1 0 0 
SMALL
USER_CHARGES


@<TRIPOS>ATOM
  1 S       -0.9740     0.8890    -0.1370 S.o2  1 <1>   1.4470 
  2 O       -1.7180     1.5770     0.8970 O.2   1 <1>  -0.6500 
  3 O       -1.2240    -0.5250    -0.3310 O.2   1 <1>  -0.6500 
  4 N       -1.3220     1.6800    -1.5950 N.am  1 <1>  -0.8490 
  5 C        0.7970     1.1540     0.1370 C.ar  1 <1>  -0.0090 
  6 C       -2.6370     1.2630    -2.1620 C.3   1 <1>   0.2570 
  7 C       -1.1660     3.1330    -1.4850 C.3   1 <1>   0.1960 
  8 C        1.7470     0.7010    -0.7720 C.ar  1 <1>   0.0830 
  9 C        1.2520     1.8180     1.2710 C.ar  1 <1>  -0.1500 
 10 C       -3.9110     1.7470    -1.4320 C.2   1 <1>   0.5690 
 11 C       -1.1050     3.7820    -2.8670 C.3   1 <1>  -0.2400 
 12 O        1.3660     0.0590    -1.8940 O.3   1 <1>  -0.3630 
 13 C        3.1010     0.9160    -0.5600 C.ar  1 <1>  -0.1500 
 14 C        2.6030     2.0310     1.4990 C.ar  1 <1>  -0.1440 
 15 O       -4.2470     2.8940    -1.6420 O.2   1 <1>  -0.5700 
 16 N       -4.6710     0.9420    -0.6100 N.am  1 <1>  -0.6600 
 17 C        1.5480    -1.3380    -1.9150 C.3   1 <1>   0.0400 
 18 C        3.5280     1.5780     0.5750 C.ar  1 <1>  -0.1500 
 19 C        3.0640     2.7600     2.7490 C.3   1 <1>  -0.0970 
 20 C       -4.4620    -0.5220    -0.3810 C.3   1 <1>   0.1400 
 21 C       -5.7270     1.5910     0.2290 C.3   1 <1>   0.1400 
 22 C       -4.4800    -0.8160     1.1210 C.3   1 <1>  -0.1600 
 23 C       -6.6250     0.5670     0.9340 C.3   1 <1>  -0.1600 
 24 C       -5.8130    -0.4260     1.7830 C.3   1 <1>  -0.1600 
 25 H       -2.6520     0.1960    -2.2620 H     1 <1>   0.0800 
 26 H       -2.7020     1.6360    -3.1670 H     1 <1>   0.0800 
 27 H       -0.2390     3.3520    -0.9830 H     1 <1>   0.0800 
 28 H       -1.9610     3.5630    -0.8970 H     1 <1>   0.0800 
 29 H        0.5340     2.1740     1.9900 H     1 <1>   0.1500 
 30 H       -2.0660     3.7570    -3.3470 H     1 <1>   0.0800 
 31 H       -0.3750     3.2830    -3.4790 H     1 <1>   0.0800 
 32 H       -0.8180     4.8120    -2.7620 H     1 <1>   0.0800 
 33 H        3.8130     0.5700    -1.2860 H     1 <1>   0.1500 
 34 H        1.1510    -1.7140    -2.8410 H     1 <1>   0.0800 
 35 H        1.0160    -1.7720    -1.0860 H     1 <1>   0.0800 
 36 H        2.5980    -1.5590    -1.8460 H     1 <1>   0.0800 
 37 H        4.5800     1.7410     0.7340 H     1 <1>   0.1500 
 38 H        3.1480     3.8130     2.5460 H     1 <1>   0.0800 
 39 H        4.0220     2.3900     3.0680 H     1 <1>   0.0800 
 40 H        2.3620     2.6160     3.5510 H     1 <1>   0.0800 
 41 H       -3.5380    -0.8650    -0.7960 H     1 <1>   0.0800 
 42 H       -5.2550    -1.0670    -0.8640 H     1 <1>   0.0800 
 43 H       -6.3330     2.2310    -0.3910 H     1 <1>   0.0800 
 44 H       -5.2410     2.2070     0.9670 H     1 <1>   0.0800 
 45 H       -3.6760    -0.2640     1.5770 H     1 <1>   0.0800 
 46 H       -4.2840    -1.8600     1.2860 H     1 <1>   0.0800 
 47 H       -7.1850     0.0340     0.1850 H     1 <1>   0.0800 
 48 H       -7.3340     1.0810     1.5580 H     1 <1>   0.0800 
 49 H       -5.6020     0.0120     2.7440 H     1 <1>   0.0800 
 50 H       -6.4090    -1.3070     1.9510 H     1 <1>   0.0800 
@<TRIPOS>BOND
  1   1   2  2   
  2   1   3  2   
  3   1   4  am  
  4   1   5  1   
  5   4   6  1   
  6   4   7  1   
  7   5   8  ar  
  8   5   9  ar  
  9   6  10  1   
 10   6  25  1   
 11   6  26  1   
 12   7  11  1   
 13   7  27  1   
 14   7  28  1   
 15   8  12  1   
 16   8  13  ar  
 17   9  14  ar  
 18   9  29  1   
 19  10  15  2   
 20  10  16  am  
 21  11  30  1   
 22  11  31  1   
 23  11  32  1   
 24  12  17  1   
 25  13  18  ar  
 26  13  33  1   
 27  14  18  ar  
 28  14  19  1   
 29  16  20  1   
 30  16  21  1   
 31  17  34  1   
 32  17  35  1   
 33  17  36  1   
 34  18  37  1   
 35  19  38  1   
 36  19  39  1   
 37  19  40  1   
 38  20  22  1   
 39  20  41  1   
 40  20  42  1   
 41  21  23  1   
 42  21  43  1   
 43  21  44  1   
 44  22  24  1   
 45  22  45  1   
 46  22  46  1   
 47  23  24  1   
 48  23  47  1   
 49  23  48  1   
 50  24  49  1   
 51  24  50  1   
@<TRIPOS>SUBSTRUCTURE
  1 ****   1 GROUP 4 **** **** 0

# MOE 2024.06 (io_trps.svl 2023.06)
