@<TRIPOS>MOLECULE
NONAME
51 52 1 0 0 
SMALL
USER_CHARGES


@<TRIPOS>ATOM
  1 O        0.1290    -0.3630     1.8850 O.2   1 <1>  -0.5700 
  2 C        0.1140    -1.2370     1.0530 C.2   1 <1>   0.5690 
  3 N       -0.9390    -1.4130     0.2210 N.am  1 <1>  -0.7300 
  4 C        1.3300    -2.1480     0.9270 C.3   1 <1>  -0.0190 
  5 C       -2.2010    -0.6770     0.3000 C.3   1 <1>   0.3640 
  6 C        2.2570    -1.6160    -0.1820 C.3   1 <1>  -0.0990 
  7 C        0.9500    -3.6270     0.7000 C.3   1 <1>  -0.2400 
  8 C       -3.3210    -1.6190    -0.1280 C.ar  1 <1>  -0.1440 
  9 C       -2.1110     0.5600    -0.5890 C.3   1 <1>  -0.2400 
 10 C        3.5800    -2.3470    -0.2340 C.2   1 <1>   0.5690 
 11 C       -3.3970    -2.1180    -1.4230 C.ar  1 <1>  -0.1500 
 12 C       -4.2850    -2.0000     0.7950 C.ar  1 <1>  -0.1500 
 13 O        3.7370    -3.1820    -1.0900 O.2   1 <1>  -0.5700 
 14 N        4.5200    -2.0130     0.6880 N.am  1 <1>  -0.7300 
 15 C       -4.4180    -2.9780    -1.7870 C.ar  1 <1>  -0.1500 
 16 C       -5.3070    -2.8600     0.4320 C.ar  1 <1>  -0.1500 
 17 C        5.9110    -2.4920     0.8500 C.3   1 <1>   0.3640 
 18 C       -5.3740    -3.3500    -0.8590 C.ar  1 <1>  -0.1500 
 19 C        6.8580    -1.5730     0.0870 C.ar  1 <1>  -0.1440 
 20 C        6.1000    -3.9610     0.4740 C.3   1 <1>  -0.2400 
 21 C        6.7590    -1.4300    -1.2910 C.ar  1 <1>  -0.1500 
 22 C        7.8380    -0.8620     0.7670 C.ar  1 <1>  -0.1500 
 23 C        7.6220    -0.5930    -1.9770 C.ar  1 <1>  -0.1500 
 24 C        8.7030    -0.0250     0.0820 C.ar  1 <1>  -0.1500 
 25 C        8.5950     0.1100    -1.2900 C.ar  1 <1>  -0.1500 
 26 H       -0.9690    -2.2160    -0.4060 H     1 <1>   0.3700 
 27 H        1.8570    -2.0900     1.8640 H     1 <1>   0.0800 
 28 H       -2.3620    -0.3610     1.3180 H     1 <1>   0.0800 
 29 H        2.4510    -0.5720    -0.0180 H     1 <1>   0.0800 
 30 H        1.7720    -1.7080    -1.1370 H     1 <1>   0.0800 
 31 H        0.5050    -3.7670    -0.2700 H     1 <1>   0.0800 
 32 H        0.2510    -3.9490     1.4520 H     1 <1>   0.0800 
 33 H        1.8230    -4.2540     0.7620 H     1 <1>   0.0800 
 34 H       -1.8710     0.2950    -1.6020 H     1 <1>   0.0800 
 35 H       -1.3560     1.2240    -0.2080 H     1 <1>   0.0800 
 36 H       -3.0530     1.0770    -0.5810 H     1 <1>   0.0800 
 37 H       -2.6620    -1.8400    -2.1580 H     1 <1>   0.1500 
 38 H       -4.2440    -1.6300     1.8050 H     1 <1>   0.1500 
 39 H        4.3270    -1.2010     1.2730 H     1 <1>   0.3700 
 40 H       -4.4700    -3.3580    -2.7930 H     1 <1>   0.1500 
 41 H       -6.0490    -3.1490     1.1560 H     1 <1>   0.1500 
 42 H        6.1420    -2.4130     1.8990 H     1 <1>   0.0800 
 43 H       -6.1690    -4.0180    -1.1420 H     1 <1>   0.1500 
 44 H        6.0110    -4.1050    -0.5870 H     1 <1>   0.0800 
 45 H        5.3750    -4.5720     0.9800 H     1 <1>   0.0800 
 46 H        7.0840    -4.2800     0.7650 H     1 <1>   0.0800 
 47 H        6.0050    -1.9730    -1.8350 H     1 <1>   0.1500 
 48 H        7.9380    -0.9560     1.8340 H     1 <1>   0.1500 
 49 H        7.5350    -0.4920    -3.0450 H     1 <1>   0.1500 
 50 H        9.4600     0.5220     0.6170 H     1 <1>   0.1500 
 51 H        9.2670     0.7610    -1.8230 H     1 <1>   0.1500 
@<TRIPOS>BOND
  1   1   2  2   
  2   2   3  am  
  3   2   4  1   
  4   3   5  1   
  5   3  26  1   
  6   4   6  1   
  7   4   7  1   
  8   4  27  1   
  9   5   8  1   
 10   5   9  1   
 11   5  28  1   
 12   6  10  1   
 13   6  29  1   
 14   6  30  1   
 15   7  31  1   
 16   7  32  1   
 17   7  33  1   
 18   8  11  ar  
 19   8  12  ar  
 20   9  34  1   
 21   9  35  1   
 22   9  36  1   
 23  10  13  2   
 24  10  14  am  
 25  11  15  ar  
 26  11  37  1   
 27  12  16  ar  
 28  12  38  1   
 29  14  17  1   
 30  14  39  1   
 31  15  18  ar  
 32  15  40  1   
 33  16  18  ar  
 34  16  41  1   
 35  17  19  1   
 36  17  20  1   
 37  17  42  1   
 38  18  43  1   
 39  19  21  ar  
 40  19  22  ar  
 41  20  44  1   
 42  20  45  1   
 43  20  46  1   
 44  21  23  ar  
 45  21  47  1   
 46  22  24  ar  
 47  22  48  1   
 48  23  25  ar  
 49  23  49  1   
 50  24  25  ar  
 51  24  50  1   
 52  25  51  1   
@<TRIPOS>SUBSTRUCTURE
  1 ****   6 GROUP 4 **** **** 0

# MOE 2024.06 (io_trps.svl 2023.06)
