@<TRIPOS>MOLECULE
NONAME
41 43 1 0 0 
SMALL
USER_CHARGES


@<TRIPOS>ATOM
  1 O        0.2800     0.7200    -1.9330 O.2   1 <1>  -0.5700 
  2 C        0.6960     1.5960    -1.1810 C.2   1 <1>   0.7160 
  3 N        2.0080     1.5820    -0.7220 N.am  1 <1>  -0.2290 
  4 C       -0.1340     2.6540    -0.7490 C.2   1 <1>  -0.0860 
  5 C        2.4400     2.6090     0.1380 C.2   1 <1>   0.4960 
  6 C        2.8970     0.5750    -1.0980 C.2   1 <1>  -0.0410 
  7 C        0.3830     3.6040     0.0900 C.2   1 <1>  -0.0260 
  8 C       -1.4670     3.0110    -0.9790 C.2   1 <1>  -0.1500 
  9 N        1.6610     3.5900     0.5360 N.2   1 <1>  -0.5760 
 10 C        3.8030     2.5590     0.5900 C.2   1 <1>  -0.1240 
 11 C        4.1780     0.5480    -0.6600 C.2   1 <1>  -0.1500 
 12 N       -0.5780     4.5230     0.3790 N.pl3 1 <1>   0.0480 
 13 C       -1.7410     4.1620    -0.2840 C.2   1 <1>  -0.2370 
 14 C        4.6440     1.5620     0.2050 C.2   1 <1>  -0.1500 
 15 C        4.3140     3.6520     1.5250 C.3   1 <1>  -0.1020 
 16 C       -0.3740     5.7000     1.2520 C.3   1 <1>   0.0160 
 17 C       -2.9830     4.8870    -0.2270 C.2   1 <1>   0.7150 
 18 O       -3.1440     5.8570     0.4900 O.2   1 <1>  -0.5700 
 19 N       -4.0260     4.4680    -0.9940 N.am  1 <1>  -0.7300 
 20 C       -5.3530     5.1290    -1.0840 C.3   1 <1>   0.1400 
 21 C       -6.2080     4.7790     0.1340 C.3   1 <1>   0.1200 
 22 O       -7.5010     5.2480    -0.0880 O.3   1 <1>  -0.5600 
 23 C       -8.3590     5.0570     0.9900 C.3   1 <1>   0.0400 
 24 H        2.5200    -0.1900    -1.7580 H     1 <1>   0.1500 
 25 H       -2.1260     2.4370    -1.6070 H     1 <1>   0.1500 
 26 H        4.8600    -0.2320    -0.9530 H     1 <1>   0.1500 
 27 H        5.6680     1.5130     0.5360 H     1 <1>   0.1500 
 28 H        4.2240     4.6130     1.0480 H     1 <1>   0.0800 
 29 H        5.3450     3.4950     1.7850 H     1 <1>   0.0800 
 30 H        3.7310     3.6630     2.4290 H     1 <1>   0.0800 
 31 H        0.6430     5.7310     1.5960 H     1 <1>   0.0800 
 32 H       -1.0340     5.6330     2.0970 H     1 <1>   0.0800 
 33 H       -0.5910     6.5940     0.6990 H     1 <1>   0.0800 
 34 H       -3.8780     3.6590    -1.5950 H     1 <1>   0.3700 
 35 H       -5.8500     4.8030    -1.9800 H     1 <1>   0.0800 
 36 H       -5.2180     6.1970    -1.1260 H     1 <1>   0.0800 
 37 H       -5.8090     5.2540     1.0140 H     1 <1>   0.0800 
 38 H       -6.2520     3.7130     0.2690 H     1 <1>   0.0800 
 39 H       -9.3260     5.4440     0.7210 H     1 <1>   0.0800 
 40 H       -7.9800     5.5920     1.8450 H     1 <1>   0.0800 
 41 H       -8.4350     4.0050     1.2030 H     1 <1>   0.0800 
@<TRIPOS>BOND
  1   1   2  2   
  2   2   3  am  
  3   2   4  1   
  4   3   5  1   
  5   3   6  1   
  6   4   7  2   
  7   4   8  1   
  8   5   9  2   
  9   5  10  1   
 10   6  11  2   
 11   6  24  1   
 12   7   9  1   
 13   7  12  1   
 14   8  13  2   
 15   8  25  1   
 16  10  14  2   
 17  10  15  1   
 18  11  14  1   
 19  11  26  1   
 20  12  13  1   
 21  12  16  1   
 22  13  17  1   
 23  14  27  1   
 24  15  28  1   
 25  15  29  1   
 26  15  30  1   
 27  16  31  1   
 28  16  32  1   
 29  16  33  1   
 30  17  18  2   
 31  17  19  am  
 32  19  20  1   
 33  19  34  1   
 34  20  21  1   
 35  20  35  1   
 36  20  36  1   
 37  21  22  1   
 38  21  37  1   
 39  21  38  1   
 40  22  23  1   
 41  23  39  1   
 42  23  40  1   
 43  23  41  1   
@<TRIPOS>SUBSTRUCTURE
  1 ****   7 GROUP 4 **** **** 0

# MOE 2024.06 (io_trps.svl 2023.06)
