@<TRIPOS>MOLECULE
Structure2314
26 27 1 0 0 
SMALL
USER_CHARGES


@<TRIPOS>ATOM
  1 F       -0.0470     0.7400    -0.8190 F     1 <1>  -0.3400 
  2 C        0.7290     1.0920     0.1970 C.3   1 <1>   1.1640 
  3 F        0.0810     0.7430     1.3020 F     1 <1>  -0.3400 
  4 F        0.7690     2.4190     0.1960 F     1 <1>  -0.3400 
  5 C        2.1290     0.4600     0.0960 C.ar  1 <1>  -0.1440 
  6 C        2.4250    -0.7370     0.7430 C.ar  1 <1>  -0.1500 
  7 C        3.1290     1.0670    -0.6600 C.ar  1 <1>  -0.1500 
  8 C        3.6820    -1.3030     0.6430 C.ar  1 <1>  -0.1500 
  9 C        4.3890     0.5030    -0.7630 C.ar  1 <1>  -0.1500 
 10 C        4.6730    -0.6880    -0.1020 C.ar  1 <1>   0.0830 
 11 O        5.8810    -1.3010    -0.1380 O.3   1 <1>  -0.3400 
 12 C        7.0370    -0.6210    -0.5800 C.3   1 <1>   0.2580 
 13 C        8.3020    -1.4700    -0.3180 C.3   1 <1>   0.4720 
 14 C        7.5840     0.3520     0.4940 C.3   1 <1>   0.4720 
 15 N        8.9410    -0.2740     0.3320 N.4   1 <1>  -0.8440 
 16 H        1.6720    -1.2400     1.3300 H     1 <1>   0.1500 
 17 H        2.9220     1.9890    -1.1810 H     1 <1>   0.1500 
 18 H        3.8940    -2.2300     1.1470 H     1 <1>   0.1500 
 19 H        5.1160     1.0060    -1.3720 H     1 <1>   0.1500 
 20 H        6.9480    -0.2410    -1.5820 H     1 <1>   0.0000 
 21 H        8.8300    -1.7630    -1.2070 H     1 <1>   0.0000 
 22 H        8.1460    -2.2570     0.3970 H     1 <1>   0.0000 
 23 H        7.1890     0.1650     1.4760 H     1 <1>   0.0000 
 24 H        7.5870     1.3840     0.1950 H     1 <1>   0.0000 
 25 H        9.5540     0.2480    -0.3050 H     1 <1>   0.4500 
 26 H        9.3930    -0.4970     1.2270 H     1 <1>   0.4500 
@<TRIPOS>BOND
  1   1   2  1   
  2   2   3  1   
  3   2   4  1   
  4   2   5  1   
  5   5   6  ar  
  6   5   7  ar  
  7   6   8  ar  
  8   6  16  1   
  9   7   9  ar  
 10   7  17  1   
 11   8  10  ar  
 12   8  18  1   
 13   9  10  ar  
 14   9  19  1   
 15  10  11  1   
 16  11  12  1   
 17  12  13  1   
 18  12  14  1   
 19  12  20  1   
 20  13  15  1   
 21  13  21  1   
 22  13  22  1   
 23  14  15  1   
 24  14  23  1   
 25  14  24  1   
 26  15  25  1   
 27  15  26  1   
@<TRIPOS>SUBSTRUCTURE
  1 ****   9 GROUP 4 **** **** 0

# MOE 2024.06 (io_trps.svl 2023.06)
