@<TRIPOS>MOLECULE
NONAME
40 41 1 0 0 
SMALL
USER_CHARGES


@<TRIPOS>ATOM
  1 S       -0.0670    -0.2310    -0.0330 S.3   1 <1>  -0.3710 
  2 C       -1.6000     0.6530    -0.3460 C.2   1 <1>   0.6510 
  3 C        1.2230     1.0870     0.0910 C.3   1 <1>   0.1500 
  4 N       -1.5290     1.9230    -0.4560 N.2   1 <1>  -0.6210 
  5 N       -2.7400    -0.1220    -0.4430 N.am  1 <1>  -0.2370 
  6 C        2.5580     0.4330    -0.2960 C.3   1 <1>  -0.1600 
  7 C        1.1890     1.6190     1.5270 C.3   1 <1>  -0.2400 
  8 C       -2.6840     2.6120    -0.6910 C.2   1 <1>   0.0210 
  9 C       -3.9280     0.5610    -0.6920 C.2   1 <1>   0.6160 
 10 C       -2.7240    -1.5210    -0.2920 C.ar  1 <1>   0.1170 
 11 C        3.7230     1.4310    -0.3540 C.3   1 <1>  -0.2400 
 12 O       -2.5690     3.8370    -0.7830 O.3   1 <1>  -0.8500 
 13 C       -3.8980     1.9470    -0.8130 C.2   1 <1>  -0.1240 
 14 O       -4.9790    -0.1040    -0.7960 O.2   1 <1>  -0.5700 
 15 C       -2.5640    -2.3510    -1.3960 C.ar  1 <1>  -0.1500 
 16 C       -2.8670    -2.0980     0.9650 C.ar  1 <1>  -0.1500 
 17 C       -5.1770     2.7380    -1.0760 C.3   1 <1>  -0.0220 
 18 C       -2.5410    -3.7260    -1.2470 C.ar  1 <1>  -0.1500 
 19 C       -2.8450    -3.4730     1.1170 C.ar  1 <1>  -0.1500 
 20 C       -5.8960     3.0570     0.2370 C.3   1 <1>  -0.2400 
 21 C       -2.6810    -4.2890     0.0100 C.ar  1 <1>  -0.1500 
 22 H        0.9660     1.8600    -0.6140 H     1 <1>   0.0800 
 23 H        2.4440    -0.0150    -1.2670 H     1 <1>   0.0800 
 24 H        2.7890    -0.3500     0.4050 H     1 <1>   0.0800 
 25 H        1.4250     0.8370     2.2250 H     1 <1>   0.0800 
 26 H        0.2080     2.0020     1.7450 H     1 <1>   0.0800 
 27 H        1.8890     2.4240     1.6440 H     1 <1>   0.0800 
 28 H        3.4870     2.2400    -1.0230 H     1 <1>   0.0800 
 29 H        4.6100     0.9380    -0.7100 H     1 <1>   0.0800 
 30 H        3.9290     1.8360     0.6210 H     1 <1>   0.0800 
 31 H       -2.4580    -1.9090    -2.3700 H     1 <1>   0.1500 
 32 H       -2.9960    -1.4600     1.8210 H     1 <1>   0.1500 
 33 H       -5.8260     2.1790    -1.7250 H     1 <1>   0.0800 
 34 H       -4.9280     3.6570    -1.5780 H     1 <1>   0.0800 
 35 H       -2.4150    -4.3570    -2.1090 H     1 <1>   0.1500 
 36 H       -2.9550    -3.9070     2.0950 H     1 <1>   0.1500 
 37 H       -6.1700     2.1470     0.7400 H     1 <1>   0.0800 
 38 H       -6.7800     3.6360     0.0440 H     1 <1>   0.0800 
 39 H       -5.2370     3.6240     0.8710 H     1 <1>   0.0800 
 40 H       -2.6630    -5.3580     0.1270 H     1 <1>   0.1500 
@<TRIPOS>BOND
  1   1   2  1   
  2   1   3  1   
  3   2   4  2   
  4   2   5  1   
  5   3   6  1   
  6   3   7  1   
  7   3  22  1   
  8   4   8  1   
  9   5   9  am  
 10   5  10  1   
 11   6  11  1   
 12   6  23  1   
 13   6  24  1   
 14   7  25  1   
 15   7  26  1   
 16   7  27  1   
 17   8  12  1   
 18   8  13  2   
 19   9  13  1   
 20   9  14  2   
 21  10  15  ar  
 22  10  16  ar  
 23  11  28  1   
 24  11  29  1   
 25  11  30  1   
 26  13  17  1   
 27  15  18  ar  
 28  15  31  1   
 29  16  19  ar  
 30  16  32  1   
 31  17  20  1   
 32  17  33  1   
 33  17  34  1   
 34  18  21  ar  
 35  18  35  1   
 36  19  21  ar  
 37  19  36  1   
 38  20  37  1   
 39  20  38  1   
 40  20  39  1   
 41  21  40  1   
@<TRIPOS>SUBSTRUCTURE
  1 ****   2 GROUP 4 **** **** 0

# MOE 2024.06 (io_trps.svl 2023.06)
