@<TRIPOS>MOLECULE
NONAME
53 54 1 0 0 
SMALL
USER_CHARGES


@<TRIPOS>ATOM
  1 O       -9.6900     2.9570    -1.0830 O.3   1 <1>  -0.3630 
  2 C       -8.3570     3.2110    -0.9370 C.ar  1 <1>   0.0830 
  3 C      -10.3900     2.1050    -0.2100 C.3   1 <1>   0.1200 
  4 C       -7.4210     2.4050    -0.2640 C.ar  1 <1>   0.0830 
  5 C       -7.9330     4.3900    -1.5290 C.ar  1 <1>  -0.1500 
  6 C      -11.8850     2.3540    -0.3990 C.3   1 <1>  -0.1600 
  7 O       -7.8090     1.2200     0.2960 O.3   1 <1>  -0.3630 
  8 C       -6.0950     2.8300    -0.1940 C.ar  1 <1>  -0.1500 
  9 C       -6.6130     4.7930    -1.4560 C.ar  1 <1>  -0.1500 
 10 C      -12.7010     1.4770     0.5530 C.3   1 <1>   0.1100 
 11 C       -6.8740     0.2620     0.7420 C.3   1 <1>   0.0400 
 12 C       -5.6870     4.0150    -0.7850 C.ar  1 <1>  -0.1430 
 13 N      -14.1390     1.5820     0.2550 N.3   1 <1>  -0.8100 
 14 C       -4.2350     4.4590    -0.6970 C.3   1 <1>  -0.0160 
 15 C      -14.8950     0.4680     0.8750 C.3   1 <1>   0.1100 
 16 C      -14.7180     2.8890     0.6650 C.3   1 <1>   0.1100 
 17 C       -4.0030     5.2870     0.5720 C.3   1 <1>  -0.1600 
 18 C      -16.4030     0.5120     0.5200 C.3   1 <1>   0.3430 
 19 C      -16.2450     2.9670     0.4150 C.3   1 <1>   0.3430 
 20 C       -2.5470     5.7490     0.6860 C.3   1 <1>  -0.2400 
 21 N      -16.7360     1.7350    -0.2830 N.4   1 <1>  -0.9590 
 22 C      -18.1660     1.8090    -0.6980 C.3   1 <1>   0.2630 
 23 H      -10.0870     2.3290     0.7980 H     1 <1>   0.0800 
 24 H      -10.1380     1.0890    -0.4590 H     1 <1>   0.0800 
 25 H       -8.6510     4.9970    -2.0500 H     1 <1>   0.1500 
 26 H      -12.1480     2.1180    -1.4150 H     1 <1>   0.0800 
 27 H      -12.0780     3.3930    -0.2080 H     1 <1>   0.0800 
 28 H       -5.3570     2.2500     0.3240 H     1 <1>   0.1500 
 29 H       -6.3130     5.7150    -1.9220 H     1 <1>   0.1500 
 30 H      -12.5060     1.7530     1.5770 H     1 <1>   0.0800 
 31 H      -12.3870     0.4550     0.4160 H     1 <1>   0.0800 
 32 H       -7.4140    -0.6220     1.0290 H     1 <1>   0.0800 
 33 H       -6.3460     0.6580     1.5910 H     1 <1>   0.0800 
 34 H       -6.1990     0.0320    -0.0630 H     1 <1>   0.0800 
 35 H       -3.9840     5.0440    -1.5640 H     1 <1>   0.0800 
 36 H       -3.5930     3.5950    -0.6900 H     1 <1>   0.0800 
 37 H      -14.7820     0.5020     1.9460 H     1 <1>   0.0800 
 38 H      -14.4910    -0.4720     0.5370 H     1 <1>   0.0800 
 39 H      -14.2480     3.6810     0.1080 H     1 <1>   0.0800 
 40 H      -14.5210     3.0680     1.7080 H     1 <1>   0.0800 
 41 H       -4.2600     4.6970     1.4350 H     1 <1>   0.0800 
 42 H       -4.6510     6.1480     0.5570 H     1 <1>   0.0800 
 43 H      -16.9810     0.4960     1.4290 H     1 <1>   0.0800 
 44 H      -16.6520    -0.3720    -0.0440 H     1 <1>   0.0800 
 45 H      -16.4560     3.8400    -0.1810 H     1 <1>   0.0800 
 46 H      -16.7520     3.0830     1.3590 H     1 <1>   0.0800 
 47 H       -1.8850     4.9010     0.7260 H     1 <1>   0.0800 
 48 H       -2.4150     6.3270     1.5840 H     1 <1>   0.0800 
 49 H       -2.2780     6.3610    -0.1570 H     1 <1>   0.0800 
 50 H      -16.1130     1.6610    -1.1060 H     1 <1>   0.4500 
 51 H      -18.8040     1.8870     0.1670 H     1 <1>   0.0800 
 52 H      -18.4400     0.9250    -1.2510 H     1 <1>   0.0800 
 53 H      -18.3280     2.6700    -1.3260 H     1 <1>   0.0800 
@<TRIPOS>BOND
  1   1   2  1   
  2   1   3  1   
  3   2   4  ar  
  4   2   5  ar  
  5   3   6  1   
  6   3  23  1   
  7   3  24  1   
  8   4   7  1   
  9   4   8  ar  
 10   5   9  ar  
 11   5  25  1   
 12   6  10  1   
 13   6  26  1   
 14   6  27  1   
 15   7  11  1   
 16   8  12  ar  
 17   8  28  1   
 18   9  12  ar  
 19   9  29  1   
 20  10  13  1   
 21  10  30  1   
 22  10  31  1   
 23  11  32  1   
 24  11  33  1   
 25  11  34  1   
 26  12  14  1   
 27  13  15  1   
 28  13  16  1   
 29  14  17  1   
 30  14  35  1   
 31  14  36  1   
 32  15  18  1   
 33  15  37  1   
 34  15  38  1   
 35  16  19  1   
 36  16  39  1   
 37  16  40  1   
 38  17  20  1   
 39  17  41  1   
 40  17  42  1   
 41  18  21  1   
 42  18  43  1   
 43  18  44  1   
 44  19  21  1   
 45  19  45  1   
 46  19  46  1   
 47  20  47  1   
 48  20  48  1   
 49  20  49  1   
 50  21  22  1   
 51  21  50  1   
 52  22  51  1   
 53  22  52  1   
 54  22  53  1   
@<TRIPOS>SUBSTRUCTURE
  1 ****   3 GROUP 4 **** **** 0

# MOE 2024.06 (io_trps.svl 2023.06)
