@<TRIPOS>MOLECULE
NONAME
42 42 1 0 0 
SMALL
USER_CHARGES


@<TRIPOS>ATOM
  1 F        0.7710    -0.4330     0.1380 F     1 <1>  -0.1900 
  2 C        2.0530    -0.1930     0.0360 C.ar  1 <1>   0.1900 
  3 C        2.7550    -0.7500    -1.0150 C.ar  1 <1>  -0.1500 
  4 C        2.6590     0.6090     0.9830 C.ar  1 <1>  -0.1500 
  5 C        4.1110    -0.4910    -1.1150 C.ar  1 <1>  -0.1500 
  6 C        4.0160     0.8580     0.8690 C.ar  1 <1>  -0.1500 
  7 C        4.7580     0.3150    -0.1800 C.ar  1 <1>   0.1170 
  8 N        6.1350     0.5310    -0.3220 N.am  1 <1>  -0.5470 
  9 C        6.9580     1.5220     0.1290 C.2   1 <1>   0.6900 
 10 O        6.5070     2.5070     0.6810 O.2   1 <1>  -0.5700 
 11 N        8.3070     1.3860    -0.0940 N.am  1 <1>  -0.6600 
 12 C        9.0710     0.1500     0.2480 C.3   1 <1>   0.2200 
 13 C        9.1640     2.5540    -0.4530 C.3   1 <1>   0.2200 
 14 C        9.0780    -0.8090    -0.9540 C.3   1 <1>  -0.1600 
 15 C        8.5440    -0.4930     1.5360 C.3   1 <1>  -0.2400 
 16 C        9.5040     3.3730     0.8050 C.3   1 <1>  -0.1600 
 17 C        8.5080     3.3860    -1.5600 C.3   1 <1>  -0.2400 
 18 C       10.1050    -1.9410    -0.8100 C.3   1 <1>  -0.2400 
 19 C       10.6180     4.4050     0.5720 C.3   1 <1>  -0.2400 
 20 H        2.2470    -1.3690    -1.7320 H     1 <1>   0.1500 
 21 H        2.0830     1.0280     1.7890 H     1 <1>   0.1500 
 22 H        4.6700    -0.9150    -1.9290 H     1 <1>   0.1500 
 23 H        4.5010     1.4770     1.6030 H     1 <1>   0.1500 
 24 H        6.6300    -0.1130    -0.9280 H     1 <1>   0.3700 
 25 H       10.0900     0.4370     0.4450 H     1 <1>   0.0800 
 26 H       10.0860     2.1730    -0.8590 H     1 <1>   0.0800 
 27 H        9.3200    -0.2490    -1.8410 H     1 <1>   0.0800 
 28 H        8.1050    -1.2460    -1.0860 H     1 <1>   0.0800 
 29 H        7.5830    -0.9500     1.3870 H     1 <1>   0.0800 
 30 H        8.4660     0.2500     2.3100 H     1 <1>   0.0800 
 31 H        9.2250    -1.2520     1.8740 H     1 <1>   0.0800 
 32 H        9.8240     2.7010     1.5820 H     1 <1>   0.0800 
 33 H        8.6230     3.8830     1.1530 H     1 <1>   0.0800 
 34 H        7.6480     3.9120    -1.1870 H     1 <1>   0.0800 
 35 H        8.2100     2.7500    -2.3730 H     1 <1>   0.0800 
 36 H        9.2040     4.1100    -1.9400 H     1 <1>   0.0800 
 37 H       11.0920    -1.5390    -0.6590 H     1 <1>   0.0800 
 38 H       10.1160    -2.5410    -1.7030 H     1 <1>   0.0800 
 39 H        9.8590    -2.5810     0.0190 H     1 <1>   0.0800 
 40 H       11.5070     3.9260     0.2010 H     1 <1>   0.0800 
 41 H       10.8550     4.8970     1.4980 H     1 <1>   0.0800 
 42 H       10.3030     5.1530    -0.1330 H     1 <1>   0.0800 
@<TRIPOS>BOND
  1   1   2  1   
  2   2   3  ar  
  3   2   4  ar  
  4   3   5  ar  
  5   3  20  1   
  6   4   6  ar  
  7   4  21  1   
  8   5   7  ar  
  9   5  22  1   
 10   6   7  ar  
 11   6  23  1   
 12   7   8  1   
 13   8   9  am  
 14   8  24  1   
 15   9  10  2   
 16   9  11  am  
 17  11  12  1   
 18  11  13  1   
 19  12  14  1   
 20  12  15  1   
 21  12  25  1   
 22  13  16  1   
 23  13  17  1   
 24  13  26  1   
 25  14  18  1   
 26  14  27  1   
 27  14  28  1   
 28  15  29  1   
 29  15  30  1   
 30  15  31  1   
 31  16  19  1   
 32  16  32  1   
 33  16  33  1   
 34  17  34  1   
 35  17  35  1   
 36  17  36  1   
 37  18  37  1   
 38  18  38  1   
 39  18  39  1   
 40  19  40  1   
 41  19  41  1   
 42  19  42  1   
@<TRIPOS>SUBSTRUCTURE
  1 ****   8 GROUP 4 **** **** 0

# MOE 2024.06 (io_trps.svl 2023.06)
