@<TRIPOS>MOLECULE
NONAME
48 52 1 0 0 
SMALL
USER_CHARGES


@<TRIPOS>ATOM
  1 N        0.1380     0.2930     0.5070 N.1   1 <1>  -0.5570 
  2 C        0.0930     1.4240     0.3870 C.1   1 <1>   0.4920 
  3 C       -0.0840     2.8240     0.2230 C.2   1 <1>   0.0740 
  4 C       -1.3770     3.3100     0.0240 C.cat 1 <1>   0.7910 
  5 C        0.9470     3.7460     0.2420 C.2   1 <1>  -0.1380 
  6 N       -2.5410     2.6160    -0.0460 N.pl3 1 <1>  -0.7000 
  7 N       -1.6370     4.6390    -0.1550 N.pl3 1 <1>  -0.6290 
  8 C        0.6720     5.0860     0.0860 C.2   1 <1>  -0.1380 
  9 C        2.4290     3.4980     0.4280 C.3   1 <1>  -0.0220 
 10 C       -3.5630     3.4940    -0.3160 C.ar  1 <1>   0.3090 
 11 C       -0.6240     5.5590    -0.0920 C.2   1 <1>   0.4790 
 12 C       -3.0130     4.7610    -0.4050 C.ar  1 <1>   0.3090 
 13 C        1.9470     5.8980     0.1590 C.3   1 <1>  -0.0220 
 14 C        2.9920     4.9030     0.6860 C.3   1 <1>  -0.1600 
 15 C       -4.9240     3.2730    -0.5020 C.ar  1 <1>  -0.1090 
 16 N       -0.9320     6.8760    -0.1770 N.pl3 1 <1>  -0.8380 
 17 C       -3.8350     5.8410    -0.7190 C.ar  1 <1>  -0.1090 
 18 C       -5.7330     4.3520    -0.7960 C.ar  1 <1>  -0.1500 
 19 C       -1.4210     7.6330     1.0100 C.3   1 <1>   0.2090 
 20 C       -0.6460     7.6740    -1.4020 C.3   1 <1>   0.2090 
 21 C       -5.1880     5.6310    -0.9080 C.ar  1 <1>  -0.1500 
 22 C       -0.4900     8.8070     1.3200 C.3   1 <1>  -0.1600 
 23 C        0.2630     8.8650    -1.0780 C.3   1 <1>  -0.1600 
 24 C       -0.2730     9.7020     0.0920 C.3   1 <1>  -0.0800 
 25 C        0.6910    10.8470     0.4220 C.3   1 <1>  -0.2400 
 26 H       -2.6440     1.6020     0.0530 H     1 <1>   0.4500 
 27 H        2.8480     3.0860    -0.4740 H     1 <1>   0.0800 
 28 H        2.6330     2.8400     1.2560 H     1 <1>   0.0800 
 29 H        1.8480     6.7420     0.8180 H     1 <1>   0.0800 
 30 H        2.2150     6.2370    -0.8270 H     1 <1>   0.0800 
 31 H        3.9510     5.0430     0.2170 H     1 <1>   0.0800 
 32 H        3.1030     5.0460     1.7480 H     1 <1>   0.0800 
 33 H       -5.3300     2.2800    -0.4200 H     1 <1>   0.1500 
 34 H       -3.4240     6.8250    -0.8210 H     1 <1>   0.1500 
 35 H       -6.7920     4.2130    -0.9460 H     1 <1>   0.1500 
 36 H       -1.4790     6.9800     1.8650 H     1 <1>   0.0800 
 37 H       -2.4090     8.0110     0.8100 H     1 <1>   0.0800 
 38 H       -1.5750     8.0380    -1.8070 H     1 <1>   0.0800 
 39 H       -0.1790     7.0520    -2.1470 H     1 <1>   0.0800 
 40 H       -5.8350     6.4610    -1.1480 H     1 <1>   0.1500 
 41 H        0.4510     8.4250     1.6710 H     1 <1>   0.0800 
 42 H       -0.9190     9.3880     2.1180 H     1 <1>   0.0800 
 43 H        0.3470     9.4830    -1.9540 H     1 <1>   0.0800 
 44 H        1.2480     8.5030    -0.8470 H     1 <1>   0.0800 
 45 H       -1.2200    10.1290    -0.1960 H     1 <1>   0.0800 
 46 H        1.6530    10.4640     0.7160 H     1 <1>   0.0800 
 47 H        0.3010    11.4450     1.2260 H     1 <1>   0.0800 
 48 H        0.8240    11.4830    -0.4360 H     1 <1>   0.0800 
@<TRIPOS>BOND
  1   1   2  3   
  2   2   3  1   
  3   3   4  1   
  4   3   5  2   
  5   4   6  ar  
  6   4   7  ar  
  7   5   8  1   
  8   5   9  1   
  9   6  10  1   
 10   6  26  1   
 11   7  11  1   
 12   7  12  1   
 13   8  11  2   
 14   8  13  1   
 15   9  14  1   
 16   9  27  1   
 17   9  28  1   
 18  10  12  ar  
 19  10  15  ar  
 20  11  16  1   
 21  12  17  ar  
 22  13  14  1   
 23  13  29  1   
 24  13  30  1   
 25  14  31  1   
 26  14  32  1   
 27  15  18  ar  
 28  15  33  1   
 29  16  19  1   
 30  16  20  1   
 31  17  21  ar  
 32  17  34  1   
 33  18  21  ar  
 34  18  35  1   
 35  19  22  1   
 36  19  36  1   
 37  19  37  1   
 38  20  23  1   
 39  20  38  1   
 40  20  39  1   
 41  21  40  1   
 42  22  24  1   
 43  22  41  1   
 44  22  42  1   
 45  23  24  1   
 46  23  43  1   
 47  23  44  1   
 48  24  25  1   
 49  24  45  1   
 50  25  46  1   
 51  25  47  1   
 52  25  48  1   
@<TRIPOS>SUBSTRUCTURE
  1 ****  11 GROUP 4 **** **** 0

# MOE 2024.06 (io_trps.svl 2023.06)
