@<TRIPOS>MOLECULE
NONAME
36 38 1 0 0 
SMALL
USER_CHARGES


@<TRIPOS>ATOM
  1 S        0.0130    -0.3100     0.8800 S.3   1 <1>  -0.4600 
  2 C        1.1190    -1.5140     0.1240 C.3   1 <1>   0.5300 
  3 C        1.2280     0.9750     1.1920 C.3   1 <1>   0.0700 
  4 N        2.4040    -0.7880    -0.0030 N.am  1 <1>  -0.6600 
  5 C        0.5430    -1.8700    -1.2390 C.3   1 <1>  -0.2400 
  6 C        1.1810    -2.6880     1.0970 C.3   1 <1>  -0.2400 
  7 C        2.2810     0.7040     0.1280 C.3   1 <1>   0.2810 
  8 C        3.6070    -1.3940    -0.2350 C.2   1 <1>   0.5690 
  9 C        3.5890     1.4690     0.3890 C.2   1 <1>   0.5690 
 10 O        3.6880    -2.5380    -0.6170 O.2   1 <1>  -0.5700 
 11 C        4.9140    -0.6290     0.0270 C.3   1 <1>   0.2810 
 12 O        3.5080     2.6130     0.7710 O.2   1 <1>  -0.5700 
 13 N        4.7920     0.8630     0.1570 N.am  1 <1>  -0.6600 
 14 C        5.9670    -0.9000    -1.0380 C.3   1 <1>   0.0700 
 15 C        6.0760     1.5890     0.0300 C.3   1 <1>   0.5300 
 16 S        7.1830     0.3850    -0.7250 S.3   1 <1>  -0.4600 
 17 C        6.0140     2.7630    -0.9430 C.3   1 <1>  -0.2400 
 18 C        6.6530     1.9450     1.3940 C.3   1 <1>  -0.2400 
 19 H        1.6150     0.8350     2.1860 H     1 <1>   0.0800 
 20 H        0.7640     1.9390     1.0890 H     1 <1>   0.0800 
 21 H        0.4620    -0.9930    -1.8540 H     1 <1>   0.0800 
 22 H       -0.4340    -2.3020    -1.1210 H     1 <1>   0.0800 
 23 H        1.1750    -2.5890    -1.7280 H     1 <1>   0.0800 
 24 H        1.6200    -2.3790     2.0270 H     1 <1>   0.0800 
 25 H        1.7540    -3.4970     0.6830 H     1 <1>   0.0800 
 26 H        0.1890    -3.0530     1.2880 H     1 <1>   0.0800 
 27 H        1.8940     1.0740    -0.8040 H     1 <1>   0.0800 
 28 H        5.3020    -0.9990     0.9590 H     1 <1>   0.0800 
 29 H        5.5800    -0.7600    -2.0320 H     1 <1>   0.0800 
 30 H        6.4310    -1.8640    -0.9350 H     1 <1>   0.0800 
 31 H        5.5750     2.4540    -1.8730 H     1 <1>   0.0800 
 32 H        7.0070     3.1280    -1.1340 H     1 <1>   0.0800 
 33 H        5.4420     3.5720    -0.5290 H     1 <1>   0.0800 
 34 H        6.7340     1.0680     2.0080 H     1 <1>   0.0800 
 35 H        6.0200     2.6640     1.8820 H     1 <1>   0.0800 
 36 H        7.6290     2.3770     1.2750 H     1 <1>   0.0800 
@<TRIPOS>BOND
  1   1   2  1   
  2   1   3  1   
  3   2   4  1   
  4   2   5  1   
  5   2   6  1   
  6   3   7  1   
  7   3  19  1   
  8   3  20  1   
  9   4   7  1   
 10   4   8  am  
 11   5  21  1   
 12   5  22  1   
 13   5  23  1   
 14   6  24  1   
 15   6  25  1   
 16   6  26  1   
 17   7   9  1   
 18   7  27  1   
 19   8  10  2   
 20   8  11  1   
 21   9  12  2   
 22   9  13  am  
 23  11  13  1   
 24  11  14  1   
 25  11  28  1   
 26  13  15  1   
 27  14  16  1   
 28  14  29  1   
 29  14  30  1   
 30  15  16  1   
 31  15  17  1   
 32  15  18  1   
 33  17  31  1   
 34  17  32  1   
 35  17  33  1   
 36  18  34  1   
 37  18  35  1   
 38  18  36  1   
@<TRIPOS>SUBSTRUCTURE
  1 ****   4 GROUP 4 **** **** 0

# MOE 2024.06 (io_trps.svl 2023.06)
