@<TRIPOS>MOLECULE
NONAME
43 44 1 0 0 
SMALL
USER_CHARGES


@<TRIPOS>ATOM
  1 BR      -0.4920     0.6830     0.1890 Br    1 <1>  -0.1110 
  2 C       -2.1560    -0.2810     0.0820 C.ar  1 <1>   0.1110 
  3 C       -2.9320    -0.3970     1.2180 C.ar  1 <1>  -0.1500 
  4 C       -2.5310    -0.8340    -1.1290 C.ar  1 <1>  -0.1500 
  5 C       -4.1200    -1.0930     1.1130 C.ar  1 <1>   0.1770 
  6 C       -3.7270    -1.5290    -1.2070 C.ar  1 <1>  -0.1500 
  7 CL      -5.1330    -1.2490     2.5360 Cl    1 <1>  -0.1770 
  8 C       -4.5450    -1.6690    -0.0860 C.ar  1 <1>   0.1170 
  9 N       -5.7620    -2.3760    -0.1140 N.am  1 <1>  -0.5470 
 10 C       -6.6600    -2.5620    -1.1310 C.2   1 <1>   0.5690 
 11 O       -6.4670    -2.1820    -2.2600 O.2   1 <1>  -0.5700 
 12 C       -7.9790    -3.2750    -0.8030 C.3   1 <1>   0.1710 
 13 N       -9.1010    -2.3750    -0.3930 N.3   1 <1>  -0.8100 
 14 C      -10.3840    -3.1020    -0.2630 C.3   1 <1>   0.1100 
 15 C       -8.8230    -1.5510     0.8110 C.3   1 <1>   0.1100 
 16 C      -11.5700    -2.1490     0.0330 C.3   1 <1>   0.3430 
 17 C      -10.0110    -0.6250     1.1800 C.3   1 <1>   0.3430 
 18 N      -11.1120    -0.7260     0.1640 N.4   1 <1>  -0.9590 
 19 C      -12.2360     0.2260     0.3620 C.3   1 <1>   0.3430 
 20 C      -11.7740     1.6620     0.1110 C.3   1 <1>  -0.1600 
 21 C      -12.9530     2.6390     0.1870 C.3   1 <1>  -0.2400 
 22 H       -2.6210     0.0410     2.1490 H     1 <1>   0.1500 
 23 H       -1.8990    -0.7230    -1.9930 H     1 <1>   0.1500 
 24 H       -4.0220    -1.9640    -2.1460 H     1 <1>   0.1500 
 25 H       -6.0610    -2.7040     0.8030 H     1 <1>   0.3700 
 26 H       -7.8000    -4.0040    -0.0330 H     1 <1>   0.0800 
 27 H       -8.2730    -3.8080    -1.6900 H     1 <1>   0.0800 
 28 H      -10.3130    -3.8340     0.5230 H     1 <1>   0.0800 
 29 H      -10.5900    -3.6300    -1.1790 H     1 <1>   0.0800 
 30 H       -7.9630    -0.9290     0.6300 H     1 <1>   0.0800 
 31 H       -8.5970    -2.1860     1.6510 H     1 <1>   0.0800 
 32 H      -12.0590    -2.4640     0.9400 H     1 <1>   0.0800 
 33 H      -12.2860    -2.2280    -0.7680 H     1 <1>   0.0800 
 34 H       -9.6500     0.3880     1.2380 H     1 <1>   0.0800 
 35 H      -10.3830    -0.8960     2.1540 H     1 <1>   0.0800 
 36 H      -10.6420    -0.5330    -0.7360 H     1 <1>   0.4500 
 37 H      -12.6290     0.1360     1.3620 H     1 <1>   0.0800 
 38 H      -13.0290    -0.0060    -0.3320 H     1 <1>   0.0800 
 39 H      -11.3310     1.7360    -0.8680 H     1 <1>   0.0800 
 40 H      -11.0440     1.9560     0.8440 H     1 <1>   0.0800 
 41 H      -13.6970     2.4010    -0.5530 H     1 <1>   0.0800 
 42 H      -12.6100     3.6440     0.0060 H     1 <1>   0.0800 
 43 H      -13.4110     2.6120     1.1610 H     1 <1>   0.0800 
@<TRIPOS>BOND
  1   1   2  1   
  2   2   3  ar  
  3   2   4  ar  
  4   3   5  ar  
  5   3  22  1   
  6   4   6  ar  
  7   4  23  1   
  8   5   7  1   
  9   5   8  ar  
 10   6   8  ar  
 11   6  24  1   
 12   8   9  1   
 13   9  10  am  
 14   9  25  1   
 15  10  11  2   
 16  10  12  1   
 17  12  13  1   
 18  12  26  1   
 19  12  27  1   
 20  13  14  1   
 21  13  15  1   
 22  14  16  1   
 23  14  28  1   
 24  14  29  1   
 25  15  17  1   
 26  15  30  1   
 27  15  31  1   
 28  16  18  1   
 29  16  32  1   
 30  16  33  1   
 31  17  18  1   
 32  17  34  1   
 33  17  35  1   
 34  18  19  1   
 35  18  36  1   
 36  19  20  1   
 37  19  37  1   
 38  19  38  1   
 39  20  21  1   
 40  20  39  1   
 41  20  40  1   
 42  21  41  1   
 43  21  42  1   
 44  21  43  1   
@<TRIPOS>SUBSTRUCTURE
  1 ****  15 GROUP 4 **** **** 0

# MOE 2024.06 (io_trps.svl 2023.06)
