@<TRIPOS>MOLECULE
NONAME
38 38 1 0 0 
SMALL
USER_CHARGES


@<TRIPOS>ATOM
  1 P       -0.4590     0.1900    -0.1170 P.3   1 <1>   1.2420 
  2 O       -1.0780     0.5210    -1.4020 O.2   1 <1>  -0.7000 
  3 O       -0.8130    -1.2930     0.3920 O.3   1 <1>  -0.5510 
  4 O       -0.9370     1.1120     1.1140 O.3   1 <1>  -0.5510 
  5 C        1.3570     0.3160    -0.0870 C.3   1 <1>   0.3440 
  6 C       -0.7100    -2.3820    -0.4460 C.3   1 <1>   0.2000 
  7 C       -2.2210     1.5930     1.3270 C.3   1 <1>   0.2000 
  8 O        1.9550    -0.2140     1.0730 O.3   1 <1>  -0.6800 
  9 C        1.8870     1.7420    -0.2970 C.ar  1 <1>  -0.1440 
 10 C       -2.0780    -2.6310    -1.0770 C.3   1 <1>  -0.2400 
 11 C       -0.2700    -3.5610     0.4150 C.3   1 <1>  -0.2400 
 12 C       -3.2610     0.4730     1.2520 C.3   1 <1>  -0.2400 
 13 C       -2.5100     2.7410     0.3600 C.3   1 <1>  -0.2400 
 14 C        1.5330     2.4160    -1.4620 C.ar  1 <1>   0.1600 
 15 C        2.7060     2.4020     0.6080 C.ar  1 <1>  -0.1500 
 16 N        1.9080     3.6430    -1.7810 N.ar  1 <1>  -0.6200 
 17 C        3.1040     3.6820     0.2900 C.ar  1 <1>  -0.1500 
 18 C        2.6830     4.2490    -0.8990 C.ar  1 <1>   0.1600 
 19 H        1.7540    -0.2770    -0.8890 H     1 <1>   0.0800 
 20 H        0.0310    -2.1860    -1.2040 H     1 <1>   0.0800 
 21 H       -2.2220     1.9920     2.3280 H     1 <1>   0.0800 
 22 H        1.5420     0.1950     1.8600 H     1 <1>   0.4000 
 23 H       -2.8210    -2.7840    -0.3150 H     1 <1>   0.0800 
 24 H       -2.0410    -3.5060    -1.7000 H     1 <1>   0.0800 
 25 H       -2.3670    -1.7970    -1.6910 H     1 <1>   0.0800 
 26 H       -0.9920    -3.7490     1.1900 H     1 <1>   0.0800 
 27 H        0.6850    -3.3530     0.8620 H     1 <1>   0.0800 
 28 H       -0.1780    -4.4440    -0.1900 H     1 <1>   0.0800 
 29 H       -3.3590     0.1000     0.2490 H     1 <1>   0.0800 
 30 H       -4.2190     0.8530     1.5580 H     1 <1>   0.0800 
 31 H       -2.9900    -0.3310     1.9130 H     1 <1>   0.0800 
 32 H       -2.6150     2.3860    -0.6490 H     1 <1>   0.0800 
 33 H       -1.7200     3.4690     0.4020 H     1 <1>   0.0800 
 34 H       -3.4290     3.2220     0.6370 H     1 <1>   0.0800 
 35 H        0.9010     1.9240    -2.1840 H     1 <1>   0.1500 
 36 H        3.0370     1.9550     1.5280 H     1 <1>   0.1500 
 37 H        3.7370     4.2390     0.9560 H     1 <1>   0.1500 
 38 H        3.0000     5.2500    -1.1370 H     1 <1>   0.1500 
@<TRIPOS>BOND
  1   1   2  2   
  2   1   3  1   
  3   1   4  1   
  4   1   5  1   
  5   3   6  1   
  6   4   7  1   
  7   5   8  1   
  8   5   9  1   
  9   5  19  1   
 10   6  10  1   
 11   6  11  1   
 12   6  20  1   
 13   7  12  1   
 14   7  13  1   
 15   7  21  1   
 16   8  22  1   
 17   9  14  ar  
 18   9  15  ar  
 19  10  23  1   
 20  10  24  1   
 21  10  25  1   
 22  11  26  1   
 23  11  27  1   
 24  11  28  1   
 25  12  29  1   
 26  12  30  1   
 27  12  31  1   
 28  13  32  1   
 29  13  33  1   
 30  13  34  1   
 31  14  16  ar  
 32  14  35  1   
 33  15  17  ar  
 34  15  36  1   
 35  16  18  ar  
 36  17  18  ar  
 37  17  37  1   
 38  18  38  1   
@<TRIPOS>SUBSTRUCTURE
  1 ****   1 GROUP 4 **** **** 0

# MOE 2024.06 (io_trps.svl 2023.06)
