@<TRIPOS>MOLECULE
NONAME
32 32 1 0 0 
SMALL
USER_CHARGES


@<TRIPOS>ATOM
  1 CL       1.5150    -0.4530    -1.3100 Cl    1 <1>  -0.1770 
  2 C        0.6660    -1.8640    -0.7360 C.ar  1 <1>   0.1770 
  3 C       -0.4760    -2.2770    -1.3970 C.ar  1 <1>  -0.1500 
  4 C        1.1440    -2.5440     0.3670 C.ar  1 <1>  -0.1500 
  5 C       -1.1590    -3.3970    -0.9450 C.ar  1 <1>  -0.1440 
  6 C        0.4660    -3.6620     0.8210 C.ar  1 <1>  -0.1500 
  7 C       -0.6890    -4.0920     0.1680 C.ar  1 <1>   0.0830 
  8 C       -2.4060    -3.8650    -1.6650 C.3   1 <1>   0.4870 
  9 O       -1.4040    -5.1760     0.5750 O.3   1 <1>  -0.3620 
 10 N       -3.5180    -3.7860    -0.7000 N.4   1 <1>  -0.9060 
 11 C       -0.8750    -6.0820     1.5250 C.3   1 <1>   0.0400 
 12 C       -4.8060    -4.3220    -1.2280 C.3   1 <1>   0.3430 
 13 C       -5.9420    -4.2800    -0.1870 C.3   1 <1>   0.2000 
 14 O       -7.0850    -4.6900    -0.8330 O.3   1 <1>  -0.6800 
 15 C       -6.2250    -2.8860     0.3760 C.3   1 <1>  -0.2400 
 16 H       -0.8030    -1.7140    -2.2540 H     1 <1>   0.1500 
 17 H        2.0370    -2.1990     0.8590 H     1 <1>   0.1500 
 18 H        0.8530    -4.1750     1.6830 H     1 <1>   0.1500 
 19 H       -2.2680    -4.8820    -1.9930 H     1 <1>   0.0800 
 20 H       -2.6030    -3.2410    -2.5220 H     1 <1>   0.0800 
 21 H       -3.6170    -2.8150    -0.3850 H     1 <1>   0.4500 
 22 H       -3.1940    -4.3310     0.1170 H     1 <1>   0.4500 
 23 H       -1.5520    -6.9130     1.6180 H     1 <1>   0.0800 
 24 H       -0.7800    -5.5850     2.4750 H     1 <1>   0.0800 
 25 H        0.0830    -6.4340     1.1820 H     1 <1>   0.0800 
 26 H       -4.6720    -5.3440    -1.5430 H     1 <1>   0.0800 
 27 H       -5.1120    -3.7410    -2.0830 H     1 <1>   0.0800 
 28 H       -5.7480    -4.9820     0.6070 H     1 <1>   0.0800 
 29 H       -7.8580    -4.6720    -0.2300 H     1 <1>   0.4000 
 30 H       -6.4300    -2.1880    -0.4180 H     1 <1>   0.0800 
 31 H       -5.3860    -2.5260     0.9430 H     1 <1>   0.0800 
 32 H       -7.0720    -2.9180     1.0390 H     1 <1>   0.0800 
@<TRIPOS>BOND
  1   1   2  1   
  2   2   3  ar  
  3   2   4  ar  
  4   3   5  ar  
  5   3  16  1   
  6   4   6  ar  
  7   4  17  1   
  8   5   7  ar  
  9   5   8  1   
 10   6   7  ar  
 11   6  18  1   
 12   7   9  1   
 13   8  10  1   
 14   8  19  1   
 15   8  20  1   
 16   9  11  1   
 17  10  12  1   
 18  10  21  1   
 19  10  22  1   
 20  11  23  1   
 21  11  24  1   
 22  11  25  1   
 23  12  13  1   
 24  12  26  1   
 25  12  27  1   
 26  13  14  1   
 27  13  15  1   
 28  13  28  1   
 29  14  29  1   
 30  15  30  1   
 31  15  31  1   
 32  15  32  1   
@<TRIPOS>SUBSTRUCTURE
  1 ****   5 GROUP 4 **** **** 0

# MOE 2024.06 (io_trps.svl 2023.06)
