@<TRIPOS>MOLECULE
NONAME
47 49 1 0 0 
SMALL
USER_CHARGES


@<TRIPOS>ATOM
  1 F       -0.7280     1.4110     1.5070 F     1 <1>  -0.1900 
  2 C       -0.6210     2.2010     0.4670 C.ar  1 <1>   0.1900 
  3 C       -1.7840     2.5720    -0.2160 C.ar  1 <1>   0.1170 
  4 C        0.6420     2.6240     0.1060 C.ar  1 <1>  -0.1500 
  5 N       -3.0310     2.0860     0.2350 N.am  1 <1>  -0.5470 
  6 C       -1.6330     3.4190    -1.3150 C.ar  1 <1>  -0.1500 
  7 C        0.7350     3.4570    -0.9900 C.ar  1 <1>   0.1900 
  8 C       -4.3000     2.1800    -0.2690 C.2   1 <1>   0.5690 
  9 C       -0.3780     3.8620    -1.7060 C.ar  1 <1>  -0.1500 
 10 F        1.9140     3.8790    -1.3630 F     1 <1>  -0.1900 
 11 O       -4.5640     2.7540    -1.2970 O.2   1 <1>  -0.5700 
 12 C       -5.4190     1.5050     0.5270 C.3   1 <1>  -0.0190 
 13 C       -5.5420     0.0170     0.1530 C.3   1 <1>  -0.1600 
 14 C       -6.7840     2.2020     0.3480 C.3   1 <1>  -0.1600 
 15 C       -6.6550    -0.6740     0.9460 C.3   1 <1>   0.1400 
 16 C       -7.8930     1.4980     1.1340 C.3   1 <1>   0.1400 
 17 N       -7.9380     0.0580     0.7540 N.am  1 <1>  -0.6600 
 18 C       -9.0180    -0.5330     0.1240 C.2   1 <1>   0.5440 
 19 O       -8.8670    -1.6110    -0.4210 O.2   1 <1>  -0.5700 
 20 C      -10.3240     0.0950     0.0840 C.ar  1 <1>   0.0860 
 21 C      -10.9950     0.4630     1.2510 C.ar  1 <1>  -0.1500 
 22 C      -10.9590     0.3480    -1.1310 C.ar  1 <1>  -0.1500 
 23 C      -12.2340     1.0740     1.2040 C.ar  1 <1>  -0.1500 
 24 C      -12.1990     0.9580    -1.1880 C.ar  1 <1>  -0.1500 
 25 C      -12.8460     1.3300    -0.0130 C.ar  1 <1>   0.0830 
 26 O      -14.0550     1.9340     0.0240 O.3   1 <1>  -0.3630 
 27 C      -14.7810     2.2110    -1.1530 C.3   1 <1>   0.0400 
 28 H        1.5160     2.3200     0.6520 H     1 <1>   0.1500 
 29 H       -2.9510     1.5300     1.0870 H     1 <1>   0.3700 
 30 H       -2.4890     3.7420    -1.8780 H     1 <1>   0.1500 
 31 H       -0.2620     4.5130    -2.5540 H     1 <1>   0.1500 
 32 H       -5.1600     1.5690     1.5690 H     1 <1>   0.0800 
 33 H       -4.6120    -0.4900     0.3380 H     1 <1>   0.0800 
 34 H       -5.7600    -0.0760    -0.8980 H     1 <1>   0.0800 
 35 H       -7.0560     2.2090    -0.6940 H     1 <1>   0.0800 
 36 H       -6.7130     3.2260     0.6710 H     1 <1>   0.0800 
 37 H       -6.4120    -0.6810     1.9940 H     1 <1>   0.0800 
 38 H       -6.7450    -1.6980     0.6230 H     1 <1>   0.0800 
 39 H       -8.8290     1.9840     0.9230 H     1 <1>   0.0800 
 40 H       -7.7050     1.5760     2.1910 H     1 <1>   0.0800 
 41 H      -10.5340     0.2620     2.2020 H     1 <1>   0.1500 
 42 H      -10.4620     0.0540    -2.0400 H     1 <1>   0.1500 
 43 H      -12.7410     1.3550     2.1090 H     1 <1>   0.1500 
 44 H      -12.6450     1.1340    -2.1480 H     1 <1>   0.1500 
 45 H      -15.7080     2.6780    -0.8700 H     1 <1>   0.0800 
 46 H      -14.9790     1.2870    -1.6660 H     1 <1>   0.0800 
 47 H      -14.2070     2.8810    -1.7680 H     1 <1>   0.0800 
@<TRIPOS>BOND
  1   1   2  1   
  2   2   3  ar  
  3   2   4  ar  
  4   3   5  1   
  5   3   6  ar  
  6   4   7  ar  
  7   4  28  1   
  8   5   8  am  
  9   5  29  1   
 10   6   9  ar  
 11   6  30  1   
 12   7   9  ar  
 13   7  10  1   
 14   8  11  2   
 15   8  12  1   
 16   9  31  1   
 17  12  13  1   
 18  12  14  1   
 19  12  32  1   
 20  13  15  1   
 21  13  33  1   
 22  13  34  1   
 23  14  16  1   
 24  14  35  1   
 25  14  36  1   
 26  15  17  1   
 27  15  37  1   
 28  15  38  1   
 29  16  17  1   
 30  16  39  1   
 31  16  40  1   
 32  17  18  am  
 33  18  19  2   
 34  18  20  1   
 35  20  21  ar  
 36  20  22  ar  
 37  21  23  ar  
 38  21  41  1   
 39  22  24  ar  
 40  22  42  1   
 41  23  25  ar  
 42  23  43  1   
 43  24  25  ar  
 44  24  44  1   
 45  25  26  1   
 46  26  27  1   
 47  27  45  1   
 48  27  46  1   
 49  27  47  1   
@<TRIPOS>SUBSTRUCTURE
  1 ****  14 GROUP 4 **** **** 0

# MOE 2024.06 (io_trps.svl 2023.06)
