@<TRIPOS>MOLECULE
NONAME
38 41 1 0 0 
SMALL
USER_CHARGES


@<TRIPOS>ATOM
  1 F        1.1320    -4.2000    -3.7580 F     1 <1>  -0.3400 
  2 C        2.1650    -4.2850    -2.9290 C.3   1 <1>   1.1580 
  3 F        2.9500    -3.2580    -3.2290 F     1 <1>  -0.3400 
  4 F        2.8120    -5.3900    -3.2740 F     1 <1>  -0.3400 
  5 C        1.7060    -4.2860    -1.4890 C.2   1 <1>  -0.1690 
  6 N        2.7050    -4.3670    -0.5450 N.pl3 1 <1>   0.6010 
  7 C        0.4190    -4.2150    -1.0440 C.2   1 <1>  -0.1360 
  8 N        4.0350    -4.4440    -0.7100 N.2   1 <1>  -0.7070 
  9 C        2.3650    -4.3740     0.7850 C.2   1 <1>  -0.0260 
 10 C        0.1370    -4.2240     0.3520 C.2   1 <1>   0.4360 
 11 C        4.5510    -4.5010     0.5150 C.2   1 <1>   0.2030 
 12 N        1.0660    -4.3030     1.2440 N.2   1 <1>  -0.5760 
 13 C        3.5300    -4.4600     1.4650 C.2   1 <1>  -0.1500 
 14 C       -1.3180    -4.1420     0.7900 C.3   1 <1>  -0.1000 
 15 C        5.9670    -4.5980     0.8870 C.2   1 <1>   0.7160 
 16 C       -2.1800    -2.9790     0.3900 C.3   1 <1>  -0.2000 
 17 C       -1.7540    -3.1380     1.8160 C.3   1 <1>  -0.2000 
 18 O        6.2630    -4.7180     2.0660 O.2   1 <1>  -0.5700 
 19 N        7.0100    -4.5610    -0.0220 N.am  1 <1>  -0.6600 
 20 C        8.4240    -4.7390     0.3720 C.3   1 <1>   0.1400 
 21 C        6.8870    -4.3820    -1.4860 C.3   1 <1>   0.1400 
 22 C        9.1680    -4.9640    -0.9390 C.3   1 <1>  -0.1600 
 23 C        8.3210    -4.2490    -1.9880 C.3   1 <1>  -0.1600 
 24 H       -0.4220    -4.1500    -1.7130 H     1 <1>   0.1500 
 25 H        3.6590    -4.4920     2.5330 H     1 <1>   0.1500 
 26 H       -1.7740    -5.1150     0.8440 H     1 <1>   0.1000 
 27 H       -3.2110    -3.1580     0.1400 H     1 <1>   0.1000 
 28 H       -1.7540    -2.1650    -0.1710 H     1 <1>   0.1000 
 29 H       -1.0130    -2.4700     2.2220 H     1 <1>   0.1000 
 30 H       -2.4820    -3.4380     2.5500 H     1 <1>   0.1000 
 31 H        8.5350    -5.5750     1.0430 H     1 <1>   0.0800 
 32 H        8.7670    -3.8410     0.8560 H     1 <1>   0.0800 
 33 H        6.3080    -3.5050    -1.7220 H     1 <1>   0.0800 
 34 H        6.4170    -5.2530    -1.9110 H     1 <1>   0.0800 
 35 H        9.1940    -6.0190    -1.1470 H     1 <1>   0.0800 
 36 H       10.1750    -4.5890    -0.8960 H     1 <1>   0.0800 
 37 H        8.5830    -3.2060    -2.0200 H     1 <1>   0.0800 
 38 H        8.4400    -4.6710    -2.9700 H     1 <1>   0.0800 
@<TRIPOS>BOND
  1   1   2  1   
  2   2   3  1   
  3   2   4  1   
  4   2   5  1   
  5   5   6  1   
  6   5   7  2   
  7   6   8  1   
  8   6   9  1   
  9   7  10  1   
 10   7  24  1   
 11   8  11  2   
 12   9  12  1   
 13   9  13  2   
 14  10  12  2   
 15  10  14  1   
 16  11  13  1   
 17  11  15  1   
 18  13  25  1   
 19  14  16  1   
 20  14  17  1   
 21  14  26  1   
 22  15  18  2   
 23  15  19  am  
 24  16  17  1   
 25  16  27  1   
 26  16  28  1   
 27  17  29  1   
 28  17  30  1   
 29  19  20  1   
 30  19  21  1   
 31  20  22  1   
 32  20  31  1   
 33  20  32  1   
 34  21  23  1   
 35  21  33  1   
 36  21  34  1   
 37  22  23  1   
 38  22  35  1   
 39  22  36  1   
 40  23  37  1   
 41  23  38  1   
@<TRIPOS>SUBSTRUCTURE
  1 ****   6 GROUP 4 **** **** 0

# MOE 2024.06 (io_trps.svl 2023.06)
