@<TRIPOS>MOLECULE
NONAME
45 46 1 0 0 
SMALL
USER_CHARGES


@<TRIPOS>ATOM
  1 S        0.0100    -0.3990     0.0320 S.o2  1 <1>   1.4470 
  2 O       -0.2710    -0.9290     1.3470 O.2   1 <1>  -0.6500 
  3 O       -0.1260    -1.2400    -1.1350 O.2   1 <1>  -0.6500 
  4 N       -1.0720     0.8460    -0.2670 N.am  1 <1>  -0.9140 
  5 C        1.6130     0.4470     0.0300 C.ar  1 <1>  -0.0090 
  6 C       -2.4210     0.5530     0.1410 C.3   1 <1>   0.2760 
  7 C        1.8750     1.4810     0.9220 C.ar  1 <1>  -0.1500 
  8 C        2.6230     0.0910    -0.8570 C.ar  1 <1>  -0.1500 
  9 C       -3.3500     1.1410    -0.9140 C.3   1 <1>  -0.2400 
 10 C       -2.6720     1.2070     1.4960 C.3   1 <1>  -0.2400 
 11 C        3.0950     2.1330     0.9290 C.ar  1 <1>  -0.1500 
 12 C        3.8440     0.7420    -0.8530 C.ar  1 <1>  -0.1500 
 13 C        4.1020     1.7730     0.0430 C.ar  1 <1>   0.1170 
 14 N        5.3160     2.4680     0.0750 N.am  1 <1>  -0.5470 
 15 C        6.5730     2.1150    -0.3270 C.2   1 <1>   0.6900 
 16 O        6.8210     0.9770    -0.6800 O.2   1 <1>  -0.5700 
 17 N        7.5630     3.0630    -0.2940 N.am  1 <1>  -0.6600 
 18 C        8.9990     2.6730    -0.3420 C.3   1 <1>   0.1400 
 19 C        7.3290     4.5300    -0.4020 C.3   1 <1>   0.1400 
 20 C        9.7600     3.3820     0.7840 C.3   1 <1>  -0.1600 
 21 C        8.0600     5.2490     0.7360 C.3   1 <1>  -0.1600 
 22 C        9.5560     4.9040     0.7440 C.3   1 <1>  -0.1600 
 23 H       -1.0940     0.8720    -1.2830 H     1 <1>   0.4200 
 24 H       -2.5860    -0.5130     0.2020 H     1 <1>   0.0800 
 25 H        1.1080     1.7740     1.6200 H     1 <1>   0.1500 
 26 H        2.4550    -0.7070    -1.5600 H     1 <1>   0.1500 
 27 H       -3.1970     2.2020    -1.0080 H     1 <1>   0.0800 
 28 H       -4.3730     0.9700    -0.6320 H     1 <1>   0.0800 
 29 H       -3.1850     0.6670    -1.8650 H     1 <1>   0.0800 
 30 H       -2.5000     2.2670     1.4420 H     1 <1>   0.0800 
 31 H       -2.0260     0.7830     2.2440 H     1 <1>   0.0800 
 32 H       -3.6880     1.0380     1.8020 H     1 <1>   0.0800 
 33 H        3.2650     2.9260     1.6350 H     1 <1>   0.1500 
 34 H        4.6010     0.4440    -1.5560 H     1 <1>   0.1500 
 35 H        5.3190     3.3330     0.6030 H     1 <1>   0.3700 
 36 H        9.4060     2.9510    -1.2980 H     1 <1>   0.0800 
 37 H        9.1060     1.6070    -0.2290 H     1 <1>   0.0800 
 38 H        6.2790     4.7620    -0.3730 H     1 <1>   0.0800 
 39 H        7.7130     4.8700    -1.3490 H     1 <1>   0.0800 
 40 H       10.8080     3.1550     0.7010 H     1 <1>   0.0800 
 41 H        9.4170     2.9950     1.7280 H     1 <1>   0.0800 
 42 H        7.6170     4.9640     1.6740 H     1 <1>   0.0800 
 43 H        7.9360     6.3120     0.6230 H     1 <1>   0.0800 
 44 H       10.0190     5.3010    -0.1430 H     1 <1>   0.0800 
 45 H       10.0310     5.3580     1.5980 H     1 <1>   0.0800 
@<TRIPOS>BOND
  1   1   2  2   
  2   1   3  2   
  3   1   4  am  
  4   1   5  1   
  5   4   6  1   
  6   4  23  1   
  7   5   7  ar  
  8   5   8  ar  
  9   6   9  1   
 10   6  10  1   
 11   6  24  1   
 12   7  11  ar  
 13   7  25  1   
 14   8  12  ar  
 15   8  26  1   
 16   9  27  1   
 17   9  28  1   
 18   9  29  1   
 19  10  30  1   
 20  10  31  1   
 21  10  32  1   
 22  11  13  ar  
 23  11  33  1   
 24  12  13  ar  
 25  12  34  1   
 26  13  14  1   
 27  14  15  am  
 28  14  35  1   
 29  15  16  2   
 30  15  17  am  
 31  17  18  1   
 32  17  19  1   
 33  18  20  1   
 34  18  36  1   
 35  18  37  1   
 36  19  21  1   
 37  19  38  1   
 38  19  39  1   
 39  20  22  1   
 40  20  40  1   
 41  20  41  1   
 42  21  22  1   
 43  21  42  1   
 44  21  43  1   
 45  22  44  1   
 46  22  45  1   
@<TRIPOS>SUBSTRUCTURE
  1 ****  13 GROUP 4 **** **** 0

# MOE 2024.06 (io_trps.svl 2023.06)
