@<TRIPOS>MOLECULE
NONAME
25 25 1 0 0 
SMALL
USER_CHARGES


@<TRIPOS>ATOM
  1 BR       0.3010     0.3790     0.0890 Br    1 <1>  -0.1110 
  2 C       -1.4690     1.1270    -0.0300 C.ar  1 <1>   0.1110 
  3 C       -1.6730     2.2310    -0.8330 C.ar  1 <1>  -0.1500 
  4 C       -2.4930     0.5400     0.6920 C.ar  1 <1>  -0.1500 
  5 C       -2.9560     2.7360    -0.8900 C.ar  1 <1>   0.1900 
  6 C       -3.7700     1.0740     0.6110 C.ar  1 <1>  -0.1500 
  7 F       -3.1670     3.7840    -1.6500 F     1 <1>  -0.1900 
  8 C       -4.0330     2.1900    -0.1850 C.ar  1 <1>   0.1170 
  9 N       -5.3090     2.7820    -0.3120 N.am  1 <1>  -0.5470 
 10 C       -6.5220     2.5050     0.2580 C.2   1 <1>   0.5690 
 11 O       -6.6980     1.6080     1.0460 O.2   1 <1>  -0.5700 
 12 C       -7.7090     3.3920    -0.1360 C.3   1 <1>  -0.0190 
 13 C       -8.2730     4.1500     1.0760 C.3   1 <1>  -0.2400 
 14 C       -8.8230     2.5760    -0.8110 C.3   1 <1>  -0.2400 
 15 H       -0.8680     2.6760    -1.3890 H     1 <1>   0.1500 
 16 H       -2.2950    -0.3200     1.3080 H     1 <1>   0.1500 
 17 H       -4.5570     0.6090     1.1760 H     1 <1>   0.1500 
 18 H       -5.3140     3.5770    -0.9510 H     1 <1>   0.3700 
 19 H       -7.3650     4.1230    -0.8460 H     1 <1>   0.0800 
 20 H       -8.6460     3.4550     1.8090 H     1 <1>   0.0800 
 21 H       -9.0750     4.8000     0.7770 H     1 <1>   0.0800 
 22 H       -7.5020     4.7430     1.5350 H     1 <1>   0.0800 
 23 H       -9.2120     1.8400    -0.1280 H     1 <1>   0.0800 
 24 H       -8.4380     2.0650    -1.6760 H     1 <1>   0.0800 
 25 H       -9.6280     3.2180    -1.1220 H     1 <1>   0.0800 
@<TRIPOS>BOND
  1   1   2  1   
  2   2   3  ar  
  3   2   4  ar  
  4   3   5  ar  
  5   3  15  1   
  6   4   6  ar  
  7   4  16  1   
  8   5   7  1   
  9   5   8  ar  
 10   6   8  ar  
 11   6  17  1   
 12   8   9  1   
 13   9  10  am  
 14   9  18  1   
 15  10  11  2   
 16  10  12  1   
 17  12  13  1   
 18  12  14  1   
 19  12  19  1   
 20  13  20  1   
 21  13  21  1   
 22  13  22  1   
 23  14  23  1   
 24  14  24  1   
 25  14  25  1   
@<TRIPOS>SUBSTRUCTURE
  1 ****   8 GROUP 4 **** **** 0

# MOE 2024.06 (io_trps.svl 2023.06)
