@<TRIPOS>MOLECULE
NONAME
36 36 1 0 0 
SMALL
USER_CHARGES


@<TRIPOS>ATOM
  1 CL       0.6230    -1.7600     0.9270 Cl    1 <1>  -0.1770 
  2 C        2.1400    -0.9580     0.6090 C.ar  1 <1>   0.1770 
  3 C        2.2890     0.3720     0.9470 C.ar  1 <1>  -0.1500 
  4 C        3.1730    -1.6640     0.0260 C.ar  1 <1>  -0.1500 
  5 C        3.4930     1.0070     0.6930 C.ar  1 <1>  -0.1500 
  6 C        4.3730    -1.0220    -0.2250 C.ar  1 <1>  -0.1500 
  7 C        4.5520     0.3240     0.0950 C.ar  1 <1>  -0.1430 
  8 C        5.9010     1.0130    -0.1860 C.3   1 <1>   0.4240 
  9 O        6.3810     0.5050    -1.3680 O.3   1 <1>  -0.6800 
 10 C        6.8910     0.6670     0.9330 C.3   1 <1>  -0.0990 
 11 C        5.7690     2.5210    -0.4300 C.3   1 <1>  -0.2400 
 12 C        8.2380     1.3680     0.8310 C.2   1 <1>   0.4480 
 13 O        8.3560     2.4300     1.3730 O.2   1 <1>  -0.5700 
 14 C        9.4420     0.7320     0.0820 C.3   1 <1>   0.0610 
 15 C        9.6510     1.4450    -1.2660 C.3   1 <1>  -0.2400 
 16 C        9.3010    -0.7820    -0.1810 C.3   1 <1>  -0.2400 
 17 C       10.7250     0.9220     0.9170 C.3   1 <1>  -0.2400 
 18 H        1.4720     0.9000     1.4040 H     1 <1>   0.1500 
 19 H        3.0370    -2.7000    -0.2240 H     1 <1>   0.1500 
 20 H        3.5860     2.0400     0.9750 H     1 <1>   0.1500 
 21 H        5.1750    -1.5870    -0.6720 H     1 <1>   0.1500 
 22 H        5.6830     0.6040    -2.0410 H     1 <1>   0.4000 
 23 H        7.0020    -0.3950     1.0090 H     1 <1>   0.0800 
 24 H        6.4460     0.9850     1.8590 H     1 <1>   0.0800 
 25 H        4.9740     2.7240    -1.1230 H     1 <1>   0.0800 
 26 H        6.6860     2.9260    -0.8220 H     1 <1>   0.0800 
 27 H        5.5600     3.0310     0.4930 H     1 <1>   0.0800 
 28 H        8.8010     1.3030    -1.9080 H     1 <1>   0.0800 
 29 H       10.5220     1.0650    -1.7690 H     1 <1>   0.0800 
 30 H        9.7810     2.5020    -1.1090 H     1 <1>   0.0800 
 31 H        8.4610    -0.9860    -0.8190 H     1 <1>   0.0800 
 32 H        9.1750    -1.3170     0.7430 H     1 <1>   0.0800 
 33 H       10.1810    -1.1620    -0.6700 H     1 <1>   0.0800 
 34 H       10.9180     1.9690     1.0760 H     1 <1>   0.0800 
 35 H       11.5780     0.4950     0.4200 H     1 <1>   0.0800 
 36 H       10.6170     0.4540     1.8790 H     1 <1>   0.0800 
@<TRIPOS>BOND
  1   1   2  1   
  2   2   3  ar  
  3   2   4  ar  
  4   3   5  ar  
  5   3  18  1   
  6   4   6  ar  
  7   4  19  1   
  8   5   7  ar  
  9   5  20  1   
 10   6   7  ar  
 11   6  21  1   
 12   7   8  1   
 13   8   9  1   
 14   8  10  1   
 15   8  11  1   
 16   9  22  1   
 17  10  12  1   
 18  10  23  1   
 19  10  24  1   
 20  11  25  1   
 21  11  26  1   
 22  11  27  1   
 23  12  13  2   
 24  12  14  1   
 25  14  15  1   
 26  14  16  1   
 27  14  17  1   
 28  15  28  1   
 29  15  29  1   
 30  15  30  1   
 31  16  31  1   
 32  16  32  1   
 33  16  33  1   
 34  17  34  1   
 35  17  35  1   
 36  17  36  1   
@<TRIPOS>SUBSTRUCTURE
  1 ****   8 GROUP 4 **** **** 0

# MOE 2024.06 (io_trps.svl 2023.06)
