@<TRIPOS>MOLECULE
NONAME
47 48 1 0 0 
SMALL
USER_CHARGES


@<TRIPOS>ATOM
  1 O       -4.4410     5.8690     1.7550 O.2   1 <1>  -0.5700 
  2 C       -5.4400     5.8550     1.0800 C.2   1 <1>   0.5690 
  3 N       -5.8730     4.7730     0.3700 N.am  1 <1>  -0.5470 
  4 C       -6.2390     7.1350     0.9810 C.3   1 <1>  -0.0990 
  5 C       -5.2980     3.5020     0.2030 C.ar  1 <1>   0.1170 
  6 C       -5.4240     8.3690     1.3920 C.3   1 <1>   0.3430 
  7 C       -4.4220     2.9360     1.1230 C.ar  1 <1>  -0.1500 
  8 C       -5.6320     2.7690    -0.9300 C.ar  1 <1>  -0.1500 
  9 N       -4.5470     8.9080     0.2990 N.4   1 <1>  -0.9590 
 10 C       -3.8850     1.6770     0.9160 C.ar  1 <1>  -0.1430 
 11 C       -5.1020     1.5100    -1.1500 C.ar  1 <1>  -0.1430 
 12 C       -3.3600     8.0240     0.0600 C.3   1 <1>   0.3430 
 13 C       -4.1570    10.3070     0.6410 C.3   1 <1>   0.3430 
 14 C       -4.2270     0.9690    -0.2230 C.ar  1 <1>  -0.1500 
 15 C       -2.9260     1.0710     1.9250 C.3   1 <1>  -0.0970 
 16 C       -5.4690     0.7160    -2.3910 C.3   1 <1>  -0.0970 
 17 C       -2.5270     8.4580    -1.1490 C.3   1 <1>  -0.1600 
 18 C       -3.9020    11.1080    -0.6350 C.3   1 <1>  -0.1600 
 19 C       -1.7030     9.7290    -0.9000 C.3   1 <1>  -0.1600 
 20 C       -2.4620    11.0350    -1.1690 C.3   1 <1>  -0.1600 
 21 H       -6.7430     4.8880    -0.1470 H     1 <1>   0.3700 
 22 H       -7.0620     7.0390     1.6650 H     1 <1>   0.0800 
 23 H       -6.6400     7.2620    -0.0070 H     1 <1>   0.0800 
 24 H       -4.8280     8.1350     2.2610 H     1 <1>   0.0800 
 25 H       -6.1230     9.1380     1.6800 H     1 <1>   0.0800 
 26 H       -4.1580     3.4750     2.0130 H     1 <1>   0.1500 
 27 H       -6.3110     3.1860    -1.6490 H     1 <1>   0.1500 
 28 H       -5.0820     8.9500    -0.5750 H     1 <1>   0.4500 
 29 H       -3.6950     7.0180    -0.1280 H     1 <1>   0.0800 
 30 H       -2.7380     7.9950     0.9400 H     1 <1>   0.0800 
 31 H       -3.2880    10.3200     1.2800 H     1 <1>   0.0800 
 32 H       -4.9680    10.7800     1.1720 H     1 <1>   0.0800 
 33 H       -3.8100    -0.0090    -0.3890 H     1 <1>   0.1500 
 34 H       -3.0100     1.5650     2.8760 H     1 <1>   0.0800 
 35 H       -1.9160     1.1710     1.5720 H     1 <1>   0.0800 
 36 H       -3.1450     0.0270     2.0650 H     1 <1>   0.0800 
 37 H       -5.9310     1.3460    -3.1290 H     1 <1>   0.0800 
 38 H       -6.1540    -0.0710    -2.1300 H     1 <1>   0.0800 
 39 H       -4.5870     0.2780    -2.8240 H     1 <1>   0.0800 
 40 H       -3.1400     8.5540    -2.0280 H     1 <1>   0.0800 
 41 H       -1.8310     7.6590    -1.3420 H     1 <1>   0.0800 
 42 H       -4.1130    12.1430    -0.4260 H     1 <1>   0.0800 
 43 H       -4.5940    10.8060    -1.4010 H     1 <1>   0.0800 
 44 H       -0.8430     9.7130    -1.5490 H     1 <1>   0.0800 
 45 H       -1.3240     9.7240     0.1090 H     1 <1>   0.0800 
 46 H       -1.8890    11.8400    -0.7400 H     1 <1>   0.0800 
 47 H       -2.4870    11.2120    -2.2320 H     1 <1>   0.0800 
@<TRIPOS>BOND
  1   1   2  2   
  2   2   3  am  
  3   2   4  1   
  4   3   5  1   
  5   3  21  1   
  6   4   6  1   
  7   4  22  1   
  8   4  23  1   
  9   5   7  ar  
 10   5   8  ar  
 11   6   9  1   
 12   6  24  1   
 13   6  25  1   
 14   7  10  ar  
 15   7  26  1   
 16   8  11  ar  
 17   8  27  1   
 18   9  12  1   
 19   9  13  1   
 20   9  28  1   
 21  10  14  ar  
 22  10  15  1   
 23  11  14  ar  
 24  11  16  1   
 25  12  17  1   
 26  12  29  1   
 27  12  30  1   
 28  13  18  1   
 29  13  31  1   
 30  13  32  1   
 31  14  33  1   
 32  15  34  1   
 33  15  35  1   
 34  15  36  1   
 35  16  37  1   
 36  16  38  1   
 37  16  39  1   
 38  17  19  1   
 39  17  40  1   
 40  17  41  1   
 41  18  20  1   
 42  18  42  1   
 43  18  43  1   
 44  19  20  1   
 45  19  44  1   
 46  19  45  1   
 47  20  46  1   
 48  20  47  1   
@<TRIPOS>SUBSTRUCTURE
  1 ****   2 GROUP 4 **** **** 0

# MOE 2024.06 (io_trps.svl 2023.06)
