@<TRIPOS>MOLECULE
NONAME
33 34 1 0 0 
SMALL
USER_CHARGES


@<TRIPOS>ATOM
  1 BR      -0.0890    -0.2080    -0.1840 Br    1 <1>  -0.1110 
  2 C       -0.1970     1.7120    -0.2710 C.ar  1 <1>   0.1110 
  3 C       -1.4070     2.3270    -0.5880 C.ar  1 <1>   0.0860 
  4 C        0.9570     2.4200     0.0100 C.ar  1 <1>  -0.1500 
  5 C       -2.6080     1.5820    -0.8830 C.2   1 <1>   0.5440 
  6 C       -1.4120     3.7230    -0.6000 C.ar  1 <1>  -0.1500 
  7 C        0.9190     3.8030    -0.0150 C.ar  1 <1>  -0.1500 
  8 O       -2.6800     0.8670    -1.8620 O.2   1 <1>  -0.5700 
  9 N       -3.6960     1.7120    -0.0740 N.am  1 <1>  -0.7300 
 10 C       -0.2680     4.4510    -0.3190 C.ar  1 <1>  -0.1500 
 11 C       -5.0240     1.1100    -0.2910 C.3   1 <1>   0.2200 
 12 C       -6.0520     2.2530    -0.4760 C.3   1 <1>   0.2000 
 13 C       -5.2950     0.1950     0.9060 C.3   1 <1>  -0.2400 
 14 O       -6.0450     3.1210     0.6220 O.3   1 <1>  -0.5600 
 15 C       -7.5120     1.8490    -0.6430 C.3   1 <1>  -0.1600 
 16 C       -7.2720     3.7720     0.7580 C.3   1 <1>   0.1200 
 17 C       -8.2370     3.1140    -0.2250 C.3   1 <1>  -0.1600 
 18 H        1.8660     1.8970     0.2470 H     1 <1>   0.1500 
 19 H       -2.3260     4.2380    -0.8400 H     1 <1>   0.1500 
 20 H        1.8070     4.3730     0.2020 H     1 <1>   0.1500 
 21 H       -3.6990     2.4000     0.6830 H     1 <1>   0.3700 
 22 H       -0.2980     5.5280    -0.3380 H     1 <1>   0.1500 
 23 H       -5.0060     0.5140    -1.1880 H     1 <1>   0.0800 
 24 H       -5.7600     2.8350    -1.3330 H     1 <1>   0.0800 
 25 H       -5.4030     0.7740     1.8060 H     1 <1>   0.0800 
 26 H       -4.4820    -0.4990     1.0250 H     1 <1>   0.0800 
 27 H       -6.1920    -0.3740     0.7510 H     1 <1>   0.0800 
 28 H       -7.7690     1.0490     0.0260 H     1 <1>   0.0800 
 29 H       -7.7350     1.5560    -1.6530 H     1 <1>   0.0800 
 30 H       -7.1340     4.8180     0.5440 H     1 <1>   0.0800 
 31 H       -7.6000     3.6450     1.7750 H     1 <1>   0.0800 
 32 H       -9.1920     2.9120     0.2260 H     1 <1>   0.0800 
 33 H       -8.3780     3.7630    -1.0720 H     1 <1>   0.0800 
@<TRIPOS>BOND
  1   1   2  1   
  2   2   3  ar  
  3   2   4  ar  
  4   3   5  1   
  5   3   6  ar  
  6   4   7  ar  
  7   4  18  1   
  8   5   8  2   
  9   5   9  am  
 10   6  10  ar  
 11   6  19  1   
 12   7  10  ar  
 13   7  20  1   
 14   9  11  1   
 15   9  21  1   
 16  10  22  1   
 17  11  12  1   
 18  11  13  1   
 19  11  23  1   
 20  12  14  1   
 21  12  15  1   
 22  12  24  1   
 23  13  25  1   
 24  13  26  1   
 25  13  27  1   
 26  14  16  1   
 27  15  17  1   
 28  15  28  1   
 29  15  29  1   
 30  16  17  1   
 31  16  30  1   
 32  16  31  1   
 33  17  32  1   
 34  17  33  1   
@<TRIPOS>SUBSTRUCTURE
  1 ****   9 GROUP 4 **** **** 0

# MOE 2024.06 (io_trps.svl 2023.06)
