@<TRIPOS>MOLECULE
NONAME
53 55 1 0 0 
SMALL
USER_CHARGES


@<TRIPOS>ATOM
  1 O       -5.8640    -3.0500    -2.4450 O.2   1 <1>  -0.5700 
  2 C       -5.2350    -2.4250    -1.6200 C.2   1 <1>   0.5440 
  3 N       -5.8570    -1.3560    -1.0700 N.am  1 <1>  -0.8000 
  4 C       -3.8990    -2.8060    -1.2270 C.ar  1 <1>   0.0860 
  5 C       -3.6190    -3.2050     0.0900 C.ar  1 <1>   0.1170 
  6 C       -2.8610    -2.7880    -2.1570 C.ar  1 <1>  -0.1500 
  7 N       -4.6630    -3.2680     1.0230 N.am  1 <1>  -0.5470 
  8 C       -2.3130    -3.5390     0.4360 C.ar  1 <1>  -0.1500 
  9 C       -1.5710    -3.1280    -1.8010 C.ar  1 <1>  -0.1500 
 10 C       -4.8690    -4.0110     2.1490 C.2   1 <1>   0.5690 
 11 C       -1.2960    -3.5010    -0.4970 C.ar  1 <1>  -0.1500 
 12 O       -4.0270    -4.6890     2.6850 O.2   1 <1>  -0.5700 
 13 C       -6.2870    -3.9640     2.7230 C.3   1 <1>   0.1710 
 14 N       -7.2940    -3.4030     1.7680 N.3   1 <1>  -0.8100 
 15 C       -7.6460    -4.3860     0.7050 C.3   1 <1>   0.1100 
 16 C       -8.5270    -2.9930     2.4740 C.3   1 <1>   0.1100 
 17 C       -8.6560    -3.8230    -0.3140 C.3   1 <1>   0.2090 
 18 C       -9.5700    -2.3700     1.5240 C.3   1 <1>   0.2090 
 19 N       -9.8620    -3.2410     0.3490 N.pl3 1 <1>  -0.8380 
 20 C      -11.0380    -3.9940     0.3590 C.ar  1 <1>   0.1000 
 21 C      -12.1190    -3.6570    -0.4620 C.ar  1 <1>  -0.1430 
 22 C      -11.1400    -5.0970     1.1980 C.ar  1 <1>  -0.1500 
 23 C      -13.2840    -4.4210    -0.4230 C.ar  1 <1>  -0.1430 
 24 C      -11.9690    -2.4430    -1.3790 C.3   1 <1>  -0.0970 
 25 C      -12.2910    -5.8550     1.2340 C.ar  1 <1>  -0.1500 
 26 C      -13.3590    -5.5160     0.4260 C.ar  1 <1>  -0.1500 
 27 C      -14.4980    -4.1030    -1.2850 C.3   1 <1>  -0.0970 
 28 H       -6.7870    -1.0960    -1.4050 H     1 <1>   0.3700 
 29 H       -5.3890    -0.6870    -0.4570 H     1 <1>   0.3700 
 30 H       -3.0780    -2.5030    -3.1730 H     1 <1>   0.1500 
 31 H       -5.5540    -2.8410     0.7300 H     1 <1>   0.3700 
 32 H       -2.0860    -3.8350     1.4450 H     1 <1>   0.1500 
 33 H       -0.7800    -3.1060    -2.5330 H     1 <1>   0.1500 
 34 H       -0.2920    -3.7660    -0.2120 H     1 <1>   0.1500 
 35 H       -6.2480    -3.3480     3.6030 H     1 <1>   0.0800 
 36 H       -6.5760    -4.9550     3.0250 H     1 <1>   0.0800 
 37 H       -8.0670    -5.2700     1.1510 H     1 <1>   0.0800 
 38 H       -6.7630    -4.6840     0.1680 H     1 <1>   0.0800 
 39 H       -8.2820    -2.2660     3.2290 H     1 <1>   0.0800 
 40 H       -8.9690    -3.8420     2.9650 H     1 <1>   0.0800 
 41 H       -8.9610    -4.6070    -0.9850 H     1 <1>   0.0800 
 42 H       -8.1790    -3.0610    -0.9030 H     1 <1>   0.0800 
 43 H       -9.2010    -1.4250     1.1680 H     1 <1>   0.0800 
 44 H      -10.4820    -2.1850     2.0640 H     1 <1>   0.0800 
 45 H      -10.3110    -5.3590     1.8230 H     1 <1>   0.1500 
 46 H      -11.0910    -2.5620    -1.9870 H     1 <1>   0.0800 
 47 H      -11.8490    -1.5590    -0.7800 H     1 <1>   0.0800 
 48 H      -12.8060    -2.2980    -2.0320 H     1 <1>   0.0800 
 49 H      -12.3580    -6.7060     1.8870 H     1 <1>   0.1500 
 50 H      -14.2520    -6.1140     0.4640 H     1 <1>   0.1500 
 51 H      -14.8430    -3.1060    -1.0790 H     1 <1>   0.0800 
 52 H      -15.3050    -4.7850    -1.0880 H     1 <1>   0.0800 
 53 H      -14.2370    -4.1820    -2.3250 H     1 <1>   0.0800 
@<TRIPOS>BOND
  1   1   2  2   
  2   2   3  am  
  3   2   4  1   
  4   3  28  1   
  5   3  29  1   
  6   4   5  ar  
  7   4   6  ar  
  8   5   7  1   
  9   5   8  ar  
 10   6   9  ar  
 11   6  30  1   
 12   7  10  am  
 13   7  31  1   
 14   8  11  ar  
 15   8  32  1   
 16   9  11  ar  
 17   9  33  1   
 18  10  12  2   
 19  10  13  1   
 20  11  34  1   
 21  13  14  1   
 22  13  35  1   
 23  13  36  1   
 24  14  15  1   
 25  14  16  1   
 26  15  17  1   
 27  15  37  1   
 28  15  38  1   
 29  16  18  1   
 30  16  39  1   
 31  16  40  1   
 32  17  19  1   
 33  17  41  1   
 34  17  42  1   
 35  18  19  1   
 36  18  43  1   
 37  18  44  1   
 38  19  20  1   
 39  20  21  ar  
 40  20  22  ar  
 41  21  23  ar  
 42  21  24  1   
 43  22  25  ar  
 44  22  45  1   
 45  23  26  ar  
 46  23  27  1   
 47  24  46  1   
 48  24  47  1   
 49  24  48  1   
 50  25  26  ar  
 51  25  49  1   
 52  26  50  1   
 53  27  51  1   
 54  27  52  1   
 55  27  53  1   
@<TRIPOS>SUBSTRUCTURE
  1 ****  15 GROUP 4 **** **** 0

# MOE 2024.06 (io_trps.svl 2023.06)
