@<TRIPOS>MOLECULE
NONAME
51 53 1 0 0 
SMALL
USER_CHARGES


@<TRIPOS>ATOM
  1 CL       0.6260     1.1720    -2.0690 Cl    1 <1>  -0.1770 
  2 C        0.2750     2.7170    -1.3360 C.ar  1 <1>   0.1770 
  3 C        0.3690     3.8660    -2.1010 C.ar  1 <1>  -0.1500 
  4 C       -0.0900     2.7660    -0.0020 C.ar  1 <1>  -0.1500 
  5 C        0.0870     5.0900    -1.5190 C.ar  1 <1>  -0.1500 
  6 C       -0.3730     3.9910     0.5770 C.ar  1 <1>  -0.1500 
  7 C       -0.2930     5.1530    -0.1850 C.ar  1 <1>   0.0830 
  8 O       -0.5680     6.3690     0.3480 O.3   1 <1>  -0.1650 
  9 C       -1.6410     6.5590     1.1550 C.ar  1 <1>   0.0830 
 10 C       -2.8460     5.9000     0.9420 C.ar  1 <1>  -0.1500 
 11 C       -1.5220     7.4560     2.2030 C.ar  1 <1>  -0.1500 
 12 C       -3.9290     6.1350     1.7760 C.ar  1 <1>  -0.1430 
 13 C       -2.5960     7.6850     3.0440 C.ar  1 <1>  -0.1500 
 14 C       -3.7950     7.0250     2.8350 C.ar  1 <1>  -0.1500 
 15 C       -5.2500     5.4340     1.5250 C.3   1 <1>   0.4860 
 16 N       -6.1830     6.3950     0.8750 N.4   1 <1>  -0.9590 
 17 C       -7.5720     5.8350     0.8230 C.3   1 <1>   0.3430 
 18 C       -5.6890     6.8110    -0.4730 C.3   1 <1>   0.3430 
 19 C       -8.5630     6.8390     0.2220 C.3   1 <1>  -0.0190 
 20 C       -6.6350     7.8540    -1.0710 C.3   1 <1>  -0.1600 
 21 C       -9.9250     6.1730     0.1280 C.2   1 <1>   0.6590 
 22 C       -8.0790     7.3390    -1.1530 C.3   1 <1>  -0.1600 
 23 O      -10.0520     4.9890     0.2990 O.2   1 <1>  -0.5700 
 24 O      -10.9430     6.9720    -0.1450 O.3   1 <1>  -0.4300 
 25 C      -12.2580     6.4790    -0.2660 C.3   1 <1>   0.1200 
 26 C      -13.1760     7.6540    -0.5880 C.3   1 <1>  -0.2400 
 27 H        0.6620     3.7980    -3.1330 H     1 <1>   0.1500 
 28 H       -0.1450     1.8560     0.5690 H     1 <1>   0.1500 
 29 H        0.1610     5.9970    -2.0940 H     1 <1>   0.1500 
 30 H       -0.6440     4.0460     1.6170 H     1 <1>   0.1500 
 31 H       -2.9260     5.2110     0.1180 H     1 <1>   0.1500 
 32 H       -0.5890     7.9690     2.3580 H     1 <1>   0.1500 
 33 H       -2.4920     8.3760     3.8640 H     1 <1>   0.1500 
 34 H       -4.6130     7.2160     3.5090 H     1 <1>   0.1500 
 35 H       -5.6570     5.0990     2.4660 H     1 <1>   0.0800 
 36 H       -5.0980     4.5730     0.8940 H     1 <1>   0.0800 
 37 H       -6.1820     7.2390     1.4620 H     1 <1>   0.4500 
 38 H       -7.9020     5.5650     1.8130 H     1 <1>   0.0800 
 39 H       -7.5780     4.9410     0.2200 H     1 <1>   0.0800 
 40 H       -5.6400     5.9540    -1.1260 H     1 <1>   0.0800 
 41 H       -4.6990     7.2330    -0.3930 H     1 <1>   0.0800 
 42 H       -8.6610     7.6730     0.8930 H     1 <1>   0.0800 
 43 H       -6.2930     8.1070    -2.0610 H     1 <1>   0.0800 
 44 H       -6.5940     8.7530    -0.4810 H     1 <1>   0.0800 
 45 H       -8.7270     8.1260    -1.5040 H     1 <1>   0.0800 
 46 H       -8.1310     6.5330    -1.8680 H     1 <1>   0.0800 
 47 H      -12.5390     6.0150     0.6660 H     1 <1>   0.0800 
 48 H      -12.2790     5.7450    -1.0550 H     1 <1>   0.0800 
 49 H      -13.1410     8.3820     0.2020 H     1 <1>   0.0800 
 50 H      -14.1880     7.3050    -0.6870 H     1 <1>   0.0800 
 51 H      -12.8820     8.1120    -1.5160 H     1 <1>   0.0800 
@<TRIPOS>BOND
  1   1   2  1   
  2   2   3  ar  
  3   2   4  ar  
  4   3   5  ar  
  5   3  27  1   
  6   4   6  ar  
  7   4  28  1   
  8   5   7  ar  
  9   5  29  1   
 10   6   7  ar  
 11   6  30  1   
 12   7   8  1   
 13   8   9  1   
 14   9  10  ar  
 15   9  11  ar  
 16  10  12  ar  
 17  10  31  1   
 18  11  13  ar  
 19  11  32  1   
 20  12  14  ar  
 21  12  15  1   
 22  13  14  ar  
 23  13  33  1   
 24  14  34  1   
 25  15  16  1   
 26  15  35  1   
 27  15  36  1   
 28  16  17  1   
 29  16  18  1   
 30  16  37  1   
 31  17  19  1   
 32  17  38  1   
 33  17  39  1   
 34  18  20  1   
 35  18  40  1   
 36  18  41  1   
 37  19  21  1   
 38  19  22  1   
 39  19  42  1   
 40  20  22  1   
 41  20  43  1   
 42  20  44  1   
 43  21  23  2   
 44  21  24  1   
 45  22  45  1   
 46  22  46  1   
 47  24  25  1   
 48  25  26  1   
 49  25  47  1   
 50  25  48  1   
 51  26  49  1   
 52  26  50  1   
 53  26  51  1   
@<TRIPOS>SUBSTRUCTURE
  1 ****  15 GROUP 4 **** **** 0

# MOE 2024.06 (io_trps.svl 2023.06)
