@<TRIPOS>MOLECULE
NONAME
47 48 1 0 0 
SMALL
USER_CHARGES


@<TRIPOS>ATOM
  1 S       -1.1370     0.3420     0.5480 S.3   1 <1>  -0.0800 
  2 C       -2.0710     1.7150    -0.0280 C.2   1 <1>  -0.1400 
  3 C        0.1480     1.3940     1.1060 C.2   1 <1>  -0.1100 
  4 C       -1.4150     2.8700     0.2070 C.2   1 <1>  -0.1810 
  5 C       -3.4070     1.3940    -0.6610 C.3   1 <1>   0.5230 
  6 C       -0.1510     2.6800     0.8540 C.2   1 <1>  -0.1500 
  7 C       -1.8670     4.2780    -0.1390 C.3   1 <1>  -0.0590 
  8 N       -4.2560     0.7320     0.3620 N.4   1 <1>  -0.9590 
  9 C       -5.4920     0.1510    -0.2520 C.3   1 <1>   0.3430 
 10 C       -4.5620     1.6610     1.4900 C.3   1 <1>   0.3430 
 11 C       -6.3370    -0.5990     0.7830 C.3   1 <1>  -0.0190 
 12 C       -5.3650     0.9230     2.5630 C.3   1 <1>  -0.1600 
 13 C       -7.6150    -1.0440     0.0810 C.2   1 <1>   0.5690 
 14 C       -6.6500     0.3130     1.9870 C.3   1 <1>  -0.1600 
 15 O       -8.1480    -0.1990    -0.6000 O.2   1 <1>  -0.5700 
 16 N       -8.1230    -2.3180     0.1880 N.am  1 <1>  -0.6600 
 17 C       -9.3790    -2.6740    -0.5400 C.3   1 <1>   0.1400 
 18 C       -7.4680    -3.4670     0.8800 C.3   1 <1>   0.1400 
 19 C      -10.5650    -2.6730     0.4200 C.3   1 <1>  -0.2400 
 20 C       -7.6620    -3.3830     2.3940 C.3   1 <1>  -0.2400 
 21 H        1.0050     0.9340     1.5680 H     1 <1>   0.1500 
 22 H       -3.2500     0.7350    -1.5000 H     1 <1>   0.0800 
 23 H       -3.8780     2.2960    -1.0140 H     1 <1>   0.0800 
 24 H        0.4800     3.5180     1.0990 H     1 <1>   0.1500 
 25 H       -2.8290     4.2770    -0.6180 H     1 <1>   0.0800 
 26 H       -1.1560     4.7350    -0.8040 H     1 <1>   0.0800 
 27 H       -1.9280     4.8740     0.7550 H     1 <1>   0.0800 
 28 H       -3.6790    -0.0270     0.7480 H     1 <1>   0.4500 
 29 H       -5.2300    -0.5250    -1.0500 H     1 <1>   0.0800 
 30 H       -6.0900     0.9440    -0.6740 H     1 <1>   0.0800 
 31 H       -5.1360     2.4990     1.1270 H     1 <1>   0.0800 
 32 H       -3.6470     2.0370     1.9210 H     1 <1>   0.0800 
 33 H       -5.7760    -1.4500     1.1150 H     1 <1>   0.0800 
 34 H       -5.6210     1.6170     3.3450 H     1 <1>   0.0800 
 35 H       -4.7530     0.1550     3.0040 H     1 <1>   0.0800 
 36 H       -7.1680    -0.2420     2.7500 H     1 <1>   0.0800 
 37 H       -7.3080     1.1070     1.6700 H     1 <1>   0.0800 
 38 H       -9.2770    -3.6410    -1.0020 H     1 <1>   0.0800 
 39 H       -9.5680    -1.9640    -1.3290 H     1 <1>   0.0800 
 40 H       -6.4190    -3.4940     0.6390 H     1 <1>   0.0800 
 41 H       -7.8960    -4.3900     0.5270 H     1 <1>   0.0800 
 42 H      -10.4710    -3.4610     1.1440 H     1 <1>   0.0800 
 43 H      -11.4730    -2.8320    -0.1320 H     1 <1>   0.0800 
 44 H      -10.6350    -1.7240     0.9210 H     1 <1>   0.0800 
 45 H       -7.1390    -2.5450     2.8090 H     1 <1>   0.0800 
 46 H       -7.2740    -4.2750     2.8520 H     1 <1>   0.0800 
 47 H       -8.7040    -3.3070     2.6410 H     1 <1>   0.0800 
@<TRIPOS>BOND
  1   1   2  1   
  2   1   3  1   
  3   2   4  2   
  4   2   5  1   
  5   3   6  2   
  6   3  21  1   
  7   4   6  1   
  8   4   7  1   
  9   5   8  1   
 10   5  22  1   
 11   5  23  1   
 12   6  24  1   
 13   7  25  1   
 14   7  26  1   
 15   7  27  1   
 16   8   9  1   
 17   8  10  1   
 18   8  28  1   
 19   9  11  1   
 20   9  29  1   
 21   9  30  1   
 22  10  12  1   
 23  10  31  1   
 24  10  32  1   
 25  11  13  1   
 26  11  14  1   
 27  11  33  1   
 28  12  14  1   
 29  12  34  1   
 30  12  35  1   
 31  13  15  2   
 32  13  16  am  
 33  14  36  1   
 34  14  37  1   
 35  16  17  1   
 36  16  18  1   
 37  17  19  1   
 38  17  38  1   
 39  17  39  1   
 40  18  20  1   
 41  18  40  1   
 42  18  41  1   
 43  19  42  1   
 44  19  43  1   
 45  19  44  1   
 46  20  45  1   
 47  20  46  1   
 48  20  47  1   
@<TRIPOS>SUBSTRUCTURE
  1 ****   9 GROUP 4 **** **** 0

# MOE 2024.06 (io_trps.svl 2023.06)
