@<TRIPOS>MOLECULE
NONAME
53 55 1 0 0 
SMALL
USER_CHARGES


@<TRIPOS>ATOM
  1 O       -1.0200    -5.0900    -0.8070 O.2   1 <1>  -0.5700 
  2 C       -0.4580    -4.5210     0.0970 C.2   1 <1>   0.5690 
  3 N        0.6560    -3.7530    -0.1440 N.am  1 <1>  -0.6600 
  4 C       -1.0330    -4.7130     1.4960 C.3   1 <1>  -0.0990 
  5 C        1.1650    -2.6570     0.7590 C.3   1 <1>   0.1400 
  6 C        1.3320    -3.8090    -1.4840 C.3   1 <1>   0.1400 
  7 C       -2.4930    -4.2410     1.6730 C.3   1 <1>  -0.1600 
  8 C        1.3870    -1.3010     0.0300 C.3   1 <1>   0.5660 
  9 C        1.3720    -2.4400    -2.1980 C.3   1 <1>   0.3430 
 10 C       -2.7110    -2.7220     1.5290 C.3   1 <1>  -0.0990 
 11 N        0.8320    -1.3190    -1.3620 N.4   1 <1>  -0.9590 
 12 C        2.8440    -0.8310     0.0240 C.ar  1 <1>  -0.1440 
 13 C       -2.6340    -2.2310     0.0890 C.2   1 <1>   0.4230 
 14 C        0.9130    -0.0010    -2.0520 C.3   1 <1>   0.2630 
 15 C        3.9140    -1.6770    -0.2500 C.ar  1 <1>  -0.1500 
 16 C        3.1060     0.5040     0.3080 C.ar  1 <1>  -0.1500 
 17 O       -1.6710    -1.5730    -0.2260 O.2   1 <1>  -0.5700 
 18 C       -3.6870    -2.5820    -0.8360 C.ar  1 <1>   0.0860 
 19 C        5.2100    -1.1940    -0.2550 C.ar  1 <1>  -0.1500 
 20 C        4.4020     0.9870     0.3030 C.ar  1 <1>  -0.1500 
 21 C       -3.3790    -3.1440    -2.0750 C.ar  1 <1>  -0.1500 
 22 C       -5.0370    -2.3780    -0.5410 C.ar  1 <1>  -0.1500 
 23 C        5.4550     0.1380     0.0190 C.ar  1 <1>  -0.1500 
 24 C       -4.3680    -3.4890    -2.9780 C.ar  1 <1>  -0.1500 
 25 C       -6.0300    -2.7210    -1.4390 C.ar  1 <1>  -0.1500 
 26 C       -5.6970    -3.2770    -2.6610 C.ar  1 <1>  -0.1500 
 27 H       -0.4100    -4.2650     2.2440 H     1 <1>   0.0800 
 28 H       -1.0110    -5.7710     1.6860 H     1 <1>   0.0800 
 29 H        2.0760    -2.9770     1.2330 H     1 <1>   0.0800 
 30 H        0.4560    -2.4690     1.5420 H     1 <1>   0.0800 
 31 H        0.8420    -4.5170    -2.1310 H     1 <1>   0.0800 
 32 H        2.3350    -4.1710    -1.3510 H     1 <1>   0.0800 
 33 H       -2.8150    -4.5340     2.6580 H     1 <1>   0.0800 
 34 H       -3.1220    -4.7650     0.9710 H     1 <1>   0.0800 
 35 H        0.8330    -0.5670     0.5910 H     1 <1>   0.0800 
 36 H        0.7990    -2.5130    -3.1080 H     1 <1>   0.0800 
 37 H        2.3900    -2.2250    -2.4760 H     1 <1>   0.0800 
 38 H       -1.9910    -2.1950     2.1280 H     1 <1>   0.0800 
 39 H       -3.6800    -2.4770     1.9230 H     1 <1>   0.0800 
 40 H       -0.1740    -1.5400    -1.1920 H     1 <1>   0.4500 
 41 H        1.9430     0.2740    -2.2130 H     1 <1>   0.0800 
 42 H        0.4400     0.7610    -1.4550 H     1 <1>   0.0800 
 43 H        0.4120    -0.0480    -3.0060 H     1 <1>   0.0800 
 44 H        3.7680    -2.7210    -0.4570 H     1 <1>   0.1500 
 45 H        2.3060     1.1880     0.5390 H     1 <1>   0.1500 
 46 H        6.0350    -1.8530    -0.4690 H     1 <1>   0.1500 
 47 H        4.5970     2.0230     0.5240 H     1 <1>   0.1500 
 48 H       -2.3500    -3.3250    -2.3270 H     1 <1>   0.1500 
 49 H       -5.3210    -1.9390     0.3990 H     1 <1>   0.1500 
 50 H        6.4650     0.5140     0.0160 H     1 <1>   0.1500 
 51 H       -4.1060    -3.9270    -3.9260 H     1 <1>   0.1500 
 52 H       -7.0650    -2.5550    -1.1930 H     1 <1>   0.1500 
 53 H       -6.4690    -3.5460    -3.3620 H     1 <1>   0.1500 
@<TRIPOS>BOND
  1   1   2  2   
  2   2   3  am  
  3   2   4  1   
  4   3   5  1   
  5   3   6  1   
  6   4   7  1   
  7   4  27  1   
  8   4  28  1   
  9   5   8  1   
 10   5  29  1   
 11   5  30  1   
 12   6   9  1   
 13   6  31  1   
 14   6  32  1   
 15   7  10  1   
 16   7  33  1   
 17   7  34  1   
 18   8  11  1   
 19   8  12  1   
 20   8  35  1   
 21   9  11  1   
 22   9  36  1   
 23   9  37  1   
 24  10  13  1   
 25  10  38  1   
 26  10  39  1   
 27  11  14  1   
 28  11  40  1   
 29  12  15  ar  
 30  12  16  ar  
 31  13  17  2   
 32  13  18  1   
 33  14  41  1   
 34  14  42  1   
 35  14  43  1   
 36  15  19  ar  
 37  15  44  1   
 38  16  20  ar  
 39  16  45  1   
 40  18  21  ar  
 41  18  22  ar  
 42  19  23  ar  
 43  19  46  1   
 44  20  23  ar  
 45  20  47  1   
 46  21  24  ar  
 47  21  48  1   
 48  22  25  ar  
 49  22  49  1   
 50  23  50  1   
 51  24  26  ar  
 52  24  51  1   
 53  25  26  ar  
 54  25  52  1   
 55  26  53  1   
@<TRIPOS>SUBSTRUCTURE
  1 ****  17 GROUP 4 **** **** 0

# MOE 2024.06 (io_trps.svl 2023.06)
