@<TRIPOS>MOLECULE
NONAME
40 41 1 0 0 
SMALL
USER_CHARGES


@<TRIPOS>ATOM
  1 O       -0.0230    -0.1010     1.2450 O.2   1 <1>  -0.5700 
  2 C        0.4330    -0.6890     0.2860 C.2   1 <1>   0.6900 
  3 N       -0.3210    -1.5350    -0.4740 N.am  1 <1>  -0.5470 
  4 N        1.7330    -0.5370    -0.0610 N.am  1 <1>  -0.7300 
  5 C       -1.6920    -1.8070    -0.4670 C.ar  1 <1>   0.1170 
  6 C        2.7010     0.3220     0.6430 C.3   1 <1>   0.2200 
  7 C       -2.1470    -2.9940    -1.0300 C.ar  1 <1>  -0.1500 
  8 C       -2.6430    -0.9380     0.0610 C.ar  1 <1>  -0.1500 
  9 C        3.1380     1.4400    -0.2950 C.3   1 <1>  -0.1600 
 10 C        3.9840    -0.4690     0.8660 C.3   1 <1>  -0.1600 
 11 C       -3.4930    -3.3020    -1.0580 C.ar  1 <1>  -0.1500 
 12 C       -3.9890    -1.2480     0.0330 C.ar  1 <1>  -0.1500 
 13 C        4.2150     0.8310    -1.2010 C.3   1 <1>  -0.1600 
 14 C        4.7580    -0.3950    -0.4550 C.3   1 <1>  -0.1600 
 15 C       -4.4570    -2.4410    -0.5270 C.ar  1 <1>   0.0860 
 16 C       -5.8660    -2.7800    -0.5640 C.2   1 <1>   0.6340 
 17 O       -6.2910    -3.8100    -1.0490 O.2   1 <1>  -0.5700 
 18 O       -6.7390    -1.9130    -0.0390 O.3   1 <1>  -0.4300 
 19 C       -8.1250    -2.1700    -0.0360 C.3   1 <1>   0.1200 
 20 C       -8.8240    -0.9890     0.6320 C.3   1 <1>  -0.2400 
 21 H        0.2350    -2.1240    -1.0820 H     1 <1>   0.3700 
 22 H        2.0750    -0.9040    -0.9430 H     1 <1>   0.3700 
 23 H        2.2860     0.6970     1.5650 H     1 <1>   0.0800 
 24 H       -1.4400    -3.6880    -1.4470 H     1 <1>   0.1500 
 25 H       -2.3290    -0.0070     0.4980 H     1 <1>   0.1500 
 26 H        3.5810     2.2220     0.2960 H     1 <1>   0.0800 
 27 H        2.3120     1.8550    -0.8460 H     1 <1>   0.0800 
 28 H        3.7900    -1.4790     1.1830 H     1 <1>   0.0800 
 29 H        4.5550     0.0250     1.6330 H     1 <1>   0.0800 
 30 H       -3.8150    -4.2310    -1.4980 H     1 <1>   0.1500 
 31 H       -4.6910    -0.5500     0.4550 H     1 <1>   0.1500 
 32 H        4.9940     1.5460    -1.4020 H     1 <1>   0.0800 
 33 H        3.7770     0.5240    -2.1360 H     1 <1>   0.0800 
 34 H        4.5780    -1.2830    -1.0360 H     1 <1>   0.0800 
 35 H        5.8160    -0.3080    -0.2740 H     1 <1>   0.0800 
 36 H       -8.3010    -3.0820     0.5090 H     1 <1>   0.0800 
 37 H       -8.4530    -2.2880    -1.0550 H     1 <1>   0.0800 
 38 H       -8.4770    -0.8780     1.6440 H     1 <1>   0.0800 
 39 H       -9.8850    -1.1580     0.6490 H     1 <1>   0.0800 
 40 H       -8.6290    -0.0850     0.0830 H     1 <1>   0.0800 
@<TRIPOS>BOND
  1   1   2  2   
  2   2   3  am  
  3   2   4  am  
  4   3   5  1   
  5   3  21  1   
  6   4   6  1   
  7   4  22  1   
  8   5   7  ar  
  9   5   8  ar  
 10   6   9  1   
 11   6  10  1   
 12   6  23  1   
 13   7  11  ar  
 14   7  24  1   
 15   8  12  ar  
 16   8  25  1   
 17   9  13  1   
 18   9  26  1   
 19   9  27  1   
 20  10  14  1   
 21  10  28  1   
 22  10  29  1   
 23  11  15  ar  
 24  11  30  1   
 25  12  15  ar  
 26  12  31  1   
 27  13  14  1   
 28  13  32  1   
 29  13  33  1   
 30  14  34  1   
 31  14  35  1   
 32  15  16  1   
 33  16  17  2   
 34  16  18  1   
 35  18  19  1   
 36  19  20  1   
 37  19  36  1   
 38  19  37  1   
 39  20  38  1   
 40  20  39  1   
 41  20  40  1   
@<TRIPOS>SUBSTRUCTURE
  1 ****   5 GROUP 4 **** **** 0

# MOE 2024.06 (io_trps.svl 2023.06)
