@<TRIPOS>MOLECULE
NONAME
35 35 1 0 0 
SMALL
USER_CHARGES


@<TRIPOS>ATOM
  1 CL       0.1550     0.5530    -1.7990 Cl    1 <1>  -0.1770 
  2 C        1.5730    -0.2200    -1.1140 C.ar  1 <1>   0.1770 
  3 C        1.4420    -1.4620    -0.4950 C.ar  1 <1>   0.1170 
  4 C        2.7880     0.4270    -1.2070 C.ar  1 <1>  -0.1500 
  5 N        0.1710    -2.0690    -0.4290 N.am  1 <1>  -0.5470 
  6 C        2.5960    -2.0420     0.0220 C.ar  1 <1>  -0.1500 
  7 C        3.9170    -0.1710    -0.6760 C.ar  1 <1>  -0.1500 
  8 C       -0.3030    -3.1290     0.2950 C.2   1 <1>   0.5690 
  9 C        3.8340    -1.4160    -0.0580 C.ar  1 <1>   0.1170 
 10 O        0.3750    -3.7580     1.0720 O.2   1 <1>  -0.5700 
 11 C       -1.7740    -3.5150     0.1060 C.3   1 <1>  -0.0190 
 12 N        4.9420    -2.0680     0.5050 N.am  1 <1>  -0.5470 
 13 C       -2.5850    -3.2760     1.3890 C.3   1 <1>  -0.2400 
 14 C       -1.9220    -4.9780    -0.3460 C.3   1 <1>  -0.2400 
 15 C        6.2840    -1.9110     0.3040 C.2   1 <1>   0.5690 
 16 O        6.7630    -1.1180    -0.4680 O.2   1 <1>  -0.5700 
 17 C        7.2190    -2.8000     1.1040 C.3   1 <1>  -0.0990 
 18 C        7.1300    -4.2810     0.7000 C.3   1 <1>  -0.2400 
 19 H        2.8530     1.3860    -1.6890 H     1 <1>   0.1500 
 20 H       -0.5340    -1.5860    -0.9870 H     1 <1>   0.3700 
 21 H        2.5420    -3.0050     0.4910 H     1 <1>   0.1500 
 22 H        4.8610     0.3390    -0.7440 H     1 <1>   0.1500 
 23 H       -2.1920    -2.8940    -0.6660 H     1 <1>   0.0800 
 24 H        4.7000    -2.8310     1.1350 H     1 <1>   0.3700 
 25 H       -2.2100    -3.8930     2.1880 H     1 <1>   0.0800 
 26 H       -3.6230    -3.5110     1.2310 H     1 <1>   0.0800 
 27 H       -2.5090    -2.2470     1.6920 H     1 <1>   0.0800 
 28 H       -1.5360    -5.6420     0.4080 H     1 <1>   0.0800 
 29 H       -1.3740    -5.1430    -1.2560 H     1 <1>   0.0800 
 30 H       -2.9560    -5.2170    -0.5200 H     1 <1>   0.0800 
 31 H        6.9920    -2.6920     2.1490 H     1 <1>   0.0800 
 32 H        8.2270    -2.4560     0.9540 H     1 <1>   0.0800 
 33 H        6.1430    -4.6700     0.8780 H     1 <1>   0.0800 
 34 H        7.8350    -4.8620     1.2690 H     1 <1>   0.0800 
 35 H        7.3610    -4.3910    -0.3450 H     1 <1>   0.0800 
@<TRIPOS>BOND
  1   1   2  1   
  2   2   3  ar  
  3   2   4  ar  
  4   3   5  1   
  5   3   6  ar  
  6   4   7  ar  
  7   4  19  1   
  8   5   8  am  
  9   5  20  1   
 10   6   9  ar  
 11   6  21  1   
 12   7   9  ar  
 13   7  22  1   
 14   8  10  2   
 15   8  11  1   
 16   9  12  1   
 17  11  13  1   
 18  11  14  1   
 19  11  23  1   
 20  12  15  am  
 21  12  24  1   
 22  13  25  1   
 23  13  26  1   
 24  13  27  1   
 25  14  28  1   
 26  14  29  1   
 27  14  30  1   
 28  15  16  2   
 29  15  17  1   
 30  17  18  1   
 31  17  31  1   
 32  17  32  1   
 33  18  33  1   
 34  18  34  1   
 35  18  35  1   
@<TRIPOS>SUBSTRUCTURE
  1 ****   6 GROUP 4 **** **** 0

# MOE 2024.06 (io_trps.svl 2023.06)
