@<TRIPOS>MOLECULE
NONAME
26 26 1 0 0 
SMALL
USER_CHARGES


@<TRIPOS>ATOM
  1 S        0.3510     0.0450    -0.9220 S.o2  1 <1>   1.3330 
  2 O        0.5310    -1.3550    -0.6300 O.2   1 <1>  -0.6500 
  3 O        1.0990     0.6970    -1.9660 O.2   1 <1>  -0.6500 
  4 N       -1.2830     0.2830    -1.3900 N.am  1 <1>  -0.7570 
  5 C        0.4630     1.0240     0.5820 C.3   1 <1>  -0.0550 
  6 C       -2.4590    -0.2260    -0.8540 C.ar  1 <1>   0.1990 
  7 C        1.8600     1.0380     1.2290 C.3   1 <1>  -0.2400 
  8 C       -3.6680     0.1770    -1.4050 C.ar  1 <1>  -0.1500 
  9 C       -2.4870    -1.1180     0.2180 C.ar  1 <1>  -0.1500 
 10 C       -4.8490    -0.3030    -0.8790 C.ar  1 <1>   0.1900 
 11 C       -3.6830    -1.5910     0.7350 C.ar  1 <1>  -0.1500 
 12 F       -5.9700     0.1000    -1.4200 F     1 <1>  -0.1900 
 13 C       -4.8920    -1.1860     0.1900 C.ar  1 <1>  -0.1430 
 14 C       -6.2120    -1.6980     0.7470 C.3   1 <1>  -0.0970 
 15 H       -1.3160     0.7680    -2.2830 H     1 <1>   0.4200 
 16 H       -0.2390     0.6430     1.2990 H     1 <1>   0.0800 
 17 H        0.1810     2.0350     0.3600 H     1 <1>   0.0800 
 18 H        2.1580     0.0360     1.4880 H     1 <1>   0.0800 
 19 H        1.8530     1.6390     2.1200 H     1 <1>   0.0800 
 20 H        2.5820     1.4440     0.5410 H     1 <1>   0.0800 
 21 H       -3.6950     0.8590    -2.2320 H     1 <1>   0.1500 
 22 H       -1.5710    -1.4630     0.6590 H     1 <1>   0.1500 
 23 H       -3.6660    -2.2800     1.5620 H     1 <1>   0.1500 
 24 H       -6.8100    -0.8720     1.0890 H     1 <1>   0.0800 
 25 H       -6.0490    -2.3680     1.5720 H     1 <1>   0.0800 
 26 H       -6.7530    -2.2230    -0.0190 H     1 <1>   0.0800 
@<TRIPOS>BOND
  1   1   2  2   
  2   1   3  2   
  3   1   4  am  
  4   1   5  1   
  5   4   6  1   
  6   4  15  1   
  7   5   7  1   
  8   5  16  1   
  9   5  17  1   
 10   6   8  ar  
 11   6   9  ar  
 12   7  18  1   
 13   7  19  1   
 14   7  20  1   
 15   8  10  ar  
 16   8  21  1   
 17   9  11  ar  
 18   9  22  1   
 19  10  12  1   
 20  10  13  ar  
 21  11  13  ar  
 22  11  23  1   
 23  13  14  1   
 24  14  24  1   
 25  14  25  1   
 26  14  26  1   
@<TRIPOS>SUBSTRUCTURE
  1 ****   6 GROUP 4 **** **** 0

# MOE 2024.06 (io_trps.svl 2023.06)
