@<TRIPOS>MOLECULE
NONAME
51 53 1 0 0 
SMALL
USER_CHARGES


@<TRIPOS>ATOM
  1 CL       0.5100    -1.4330    -1.1890 Cl    1 <1>  -0.1770 
  2 C        2.2050    -1.1610    -0.8690 C.ar  1 <1>   0.1770 
  3 C        3.1330    -2.0940    -1.2920 C.ar  1 <1>  -0.1500 
  4 C        2.5920    -0.0170    -0.1980 C.ar  1 <1>  -0.1500 
  5 C        4.4800    -1.8850    -1.0420 C.ar  1 <1>  -0.1440 
  6 C        3.9350     0.1970     0.0560 C.ar  1 <1>  -0.1500 
  7 C        4.8850    -0.7350    -0.3650 C.ar  1 <1>   0.0830 
  8 C        5.4970    -2.9180    -1.5120 C.3   1 <1>  -0.0960 
  9 O        6.2170    -0.5770    -0.1440 O.3   1 <1>  -0.3630 
 10 C        6.7410     0.5870     0.4820 C.3   1 <1>   0.1810 
 11 C        8.2590     0.4990     0.5970 C.2   1 <1>   0.5690 
 12 O        8.8650     1.5180     0.8420 O.2   1 <1>  -0.5700 
 13 N        8.8210    -0.7350     0.4030 N.am  1 <1>  -0.5470 
 14 C       10.0620    -1.3960     0.6010 C.ar  1 <1>   0.1170 
 15 C       11.3740    -0.8700     0.4960 C.ar  1 <1>   0.1000 
 16 C        9.9260    -2.7450     0.9110 C.ar  1 <1>  -0.1500 
 17 N       11.7220     0.4560     0.2120 N.pl3 1 <1>  -0.8380 
 18 C       12.4550    -1.7190     0.7000 C.ar  1 <1>  -0.1500 
 19 C       11.0160    -3.5710     1.1140 C.ar  1 <1>  -0.1500 
 20 C       11.8070     1.3200     1.4380 C.3   1 <1>   0.2090 
 21 C       11.2310     1.0160    -1.0930 C.3   1 <1>   0.2090 
 22 C       12.2900    -3.0550     1.0060 C.ar  1 <1>  -0.1500 
 23 C       11.8860     2.8320     1.1500 C.3   1 <1>   0.3430 
 24 C       11.3390     2.5510    -1.2040 C.3   1 <1>   0.3430 
 25 N       10.9370     3.2320     0.0670 N.4   1 <1>  -0.9590 
 26 C       10.7920     4.7070    -0.0700 C.3   1 <1>   0.2630 
 27 H        2.7910    -2.9700    -1.8110 H     1 <1>   0.1500 
 28 H        1.8460     0.6900     0.1190 H     1 <1>   0.1500 
 29 H        4.2120     1.0920     0.5800 H     1 <1>   0.1500 
 30 H        5.0160    -3.7250    -2.0340 H     1 <1>   0.0800 
 31 H        6.0230    -3.3230    -0.6670 H     1 <1>   0.0800 
 32 H        6.2050    -2.4570    -2.1770 H     1 <1>   0.0800 
 33 H        6.3130     0.6670     1.4640 H     1 <1>   0.0800 
 34 H        6.4700     1.4410    -0.1110 H     1 <1>   0.0800 
 35 H        8.0900    -1.4030     0.1460 H     1 <1>   0.3700 
 36 H        8.9450    -3.1750     1.0030 H     1 <1>   0.1500 
 37 H       13.4490    -1.3200     0.6140 H     1 <1>   0.1500 
 38 H       10.8740    -4.6110     1.3540 H     1 <1>   0.1500 
 39 H       12.6770     1.0310     2.0010 H     1 <1>   0.0800 
 40 H       10.9550     1.1260     2.0660 H     1 <1>   0.0800 
 41 H       10.2080     0.7310    -1.2500 H     1 <1>   0.0800 
 42 H       11.8000     0.5710    -1.8900 H     1 <1>   0.0800 
 43 H       13.1480    -3.6870     1.1590 H     1 <1>   0.1500 
 44 H       12.8930     3.0770     0.8590 H     1 <1>   0.0800 
 45 H       11.6610     3.3670     2.0570 H     1 <1>   0.0800 
 46 H       10.7130     2.8830    -2.0160 H     1 <1>   0.0800 
 47 H       12.3570     2.8080    -1.4440 H     1 <1>   0.0800 
 48 H       10.0290     2.7930     0.3430 H     1 <1>   0.4500 
 49 H       11.7340     5.1520    -0.3440 H     1 <1>   0.0800 
 50 H       10.4630     5.1360     0.8630 H     1 <1>   0.0800 
 51 H       10.0630     4.9400    -0.8290 H     1 <1>   0.0800 
@<TRIPOS>BOND
  1   1   2  1   
  2   2   3  ar  
  3   2   4  ar  
  4   3   5  ar  
  5   3  27  1   
  6   4   6  ar  
  7   4  28  1   
  8   5   7  ar  
  9   5   8  1   
 10   6   7  ar  
 11   6  29  1   
 12   7   9  1   
 13   8  30  1   
 14   8  31  1   
 15   8  32  1   
 16   9  10  1   
 17  10  11  1   
 18  10  33  1   
 19  10  34  1   
 20  11  12  2   
 21  11  13  am  
 22  13  14  1   
 23  13  35  1   
 24  14  15  ar  
 25  14  16  ar  
 26  15  17  1   
 27  15  18  ar  
 28  16  19  ar  
 29  16  36  1   
 30  17  20  1   
 31  17  21  1   
 32  18  22  ar  
 33  18  37  1   
 34  19  22  ar  
 35  19  38  1   
 36  20  23  1   
 37  20  39  1   
 38  20  40  1   
 39  21  24  1   
 40  21  41  1   
 41  21  42  1   
 42  22  43  1   
 43  23  25  1   
 44  23  44  1   
 45  23  45  1   
 46  24  25  1   
 47  24  46  1   
 48  24  47  1   
 49  25  26  1   
 50  25  48  1   
 51  26  49  1   
 52  26  50  1   
 53  26  51  1   
@<TRIPOS>SUBSTRUCTURE
  1 ****  13 GROUP 4 **** **** 0

# MOE 2024.06 (io_trps.svl 2023.06)
