@<TRIPOS>MOLECULE
Structure540
21 21 1 0 0 
SMALL
USER_CHARGES


@<TRIPOS>ATOM
  1 CL      -0.5420    -0.5210     0.9210 Cl    1 <1>  -0.1770 
  2 C       -1.7350     0.6320     0.4000 C.ar  1 <1>   0.7970 
  3 N       -2.9840     0.3070     0.6650 N.ar  1 <1>  -0.6200 
  4 N       -1.2530     1.7060    -0.2070 N.ar  1 <1>  -0.6200 
  5 C       -3.8720     1.1820     0.2630 C.ar  1 <1>   0.4100 
  6 C       -2.1720     2.5690    -0.5900 C.ar  1 <1>   0.1600 
  7 N       -5.1620     0.8500     0.5330 N.pl3 1 <1>  -0.8690 
  8 C       -3.5050     2.3520    -0.3750 C.ar  1 <1>  -0.1500 
  9 C       -6.2870     1.0900    -0.3710 C.3   1 <1>   0.2890 
 10 C       -7.2440     2.0560     0.3160 C.3   1 <1>  -0.2400 
 11 C       -6.9540    -0.2500    -0.6510 C.3   1 <1>  -0.2400 
 12 H       -1.8400     3.4680    -1.0840 H     1 <1>   0.1500 
 13 H       -5.2420    -0.0270     1.0530 H     1 <1>   0.4000 
 14 H       -4.2470     3.0620    -0.6800 H     1 <1>   0.1500 
 15 H       -5.9370     1.5160    -1.2970 H     1 <1>   0.0800 
 16 H       -7.5980     1.6400     1.2430 H     1 <1>   0.0800 
 17 H       -8.0890     2.2510    -0.3190 H     1 <1>   0.0800 
 18 H       -6.7460     2.9860     0.5160 H     1 <1>   0.0800 
 19 H       -7.3190    -0.6910     0.2590 H     1 <1>   0.0800 
 20 H       -6.2520    -0.9190    -1.1160 H     1 <1>   0.0800 
 21 H       -7.7830    -0.1120    -1.3200 H     1 <1>   0.0800 
@<TRIPOS>BOND
  1   1   2  1   
  2   2   3  ar  
  3   2   4  ar  
  4   3   5  ar  
  5   4   6  ar  
  6   5   7  1   
  7   5   8  ar  
  8   6   8  ar  
  9   6  12  1   
 10   7   9  1   
 11   7  13  1   
 12   8  14  1   
 13   9  10  1   
 14   9  11  1   
 15   9  15  1   
 16  10  16  1   
 17  10  17  1   
 18  10  18  1   
 19  11  19  1   
 20  11  20  1   
 21  11  21  1   
@<TRIPOS>SUBSTRUCTURE
  1 ****   5 GROUP 4 **** **** 0

# MOE 2024.06 (io_trps.svl 2023.06)
