@<TRIPOS>MOLECULE
NONAME
53 55 1 0 0 
SMALL
USER_CHARGES


@<TRIPOS>ATOM
  1 F       -2.5660    -0.3850    -1.2540 F     1 <1>  -0.1900 
  2 C       -2.7940     0.8740    -0.9960 C.ar  1 <1>   0.1900 
  3 C       -3.5100     1.6230    -1.9090 C.ar  1 <1>  -0.1500 
  4 C       -2.3120     1.4110     0.1820 C.ar  1 <1>  -0.1500 
  5 C       -3.7530     2.9580    -1.6280 C.ar  1 <1>  -0.1500 
  6 C       -2.5600     2.7460     0.4540 C.ar  1 <1>  -0.1500 
  7 C       -3.2850     3.5220    -0.4450 C.ar  1 <1>  -0.1430 
  8 C       -3.5680     4.9800    -0.1320 C.3   1 <1>   0.4870 
  9 N       -5.0000     5.1240     0.2330 N.4   1 <1>  -0.9590 
 10 C       -5.4540     6.5450     0.3860 C.3   1 <1>   0.3430 
 11 C       -5.4190     4.2970     1.4130 C.3   1 <1>   0.3430 
 12 C       -6.9570     6.6270     0.7540 C.3   1 <1>   0.1100 
 13 C       -6.9550     4.3360     1.5910 C.3   1 <1>   0.1100 
 14 N       -7.6260     5.3070     0.6820 N.3   1 <1>  -0.8100 
 15 C       -9.0790     5.4190     1.0170 C.3   1 <1>   0.1710 
 16 C       -9.8480     4.0920     0.9810 C.2   1 <1>   0.5690 
 17 O      -10.0590     3.5200     2.0240 O.2   1 <1>  -0.5700 
 18 N      -10.2510     3.5840    -0.2140 N.am  1 <1>  -0.7300 
 19 C      -10.9870     2.3070    -0.3850 C.3   1 <1>   0.1400 
 20 C      -12.4780     2.5850    -0.5790 C.3   1 <1>  -0.0170 
 21 C      -13.2290     1.2820    -0.8000 C.ar  1 <1>  -0.1430 
 22 C      -13.6300     0.5180     0.2850 C.ar  1 <1>  -0.1500 
 23 C      -13.5160     0.8430    -2.0840 C.ar  1 <1>  -0.1500 
 24 C      -14.3090    -0.6720     0.0910 C.ar  1 <1>  -0.1500 
 25 C      -14.1960    -0.3470    -2.2790 C.ar  1 <1>  -0.1500 
 26 C      -14.5930    -1.1050    -1.1920 C.ar  1 <1>  -0.1500 
 27 H       -3.8620     1.1660    -2.8170 H     1 <1>   0.1500 
 28 H       -1.7540     0.7910     0.8620 H     1 <1>   0.1500 
 29 H       -4.3050     3.5440    -2.3440 H     1 <1>   0.1500 
 30 H       -2.1790     3.1660     1.3700 H     1 <1>   0.1500 
 31 H       -3.3450     5.5790    -1.0000 H     1 <1>   0.0800 
 32 H       -2.9410     5.3090     0.6800 H     1 <1>   0.0800 
 33 H       -5.5760     4.7440    -0.5320 H     1 <1>   0.4500 
 34 H       -5.2960     7.0770    -0.5380 H     1 <1>   0.0800 
 35 H       -4.8780     7.0400     1.1510 H     1 <1>   0.0800 
 36 H       -4.9480     4.6670     2.3090 H     1 <1>   0.0800 
 37 H       -5.1130     3.2720     1.2800 H     1 <1>   0.0800 
 38 H       -7.4430     7.3150     0.0820 H     1 <1>   0.0800 
 39 H       -7.0530     7.0280     1.7500 H     1 <1>   0.0800 
 40 H       -7.1820     4.5710     2.6180 H     1 <1>   0.0800 
 41 H       -7.3400     3.3470     1.4020 H     1 <1>   0.0800 
 42 H       -9.5510     6.0930     0.3240 H     1 <1>   0.0800 
 43 H       -9.1910     5.8350     2.0030 H     1 <1>   0.0800 
 44 H      -10.0120     4.0780    -1.0750 H     1 <1>   0.3700 
 45 H      -10.8500     1.6860     0.4850 H     1 <1>   0.0800 
 46 H      -10.5980     1.7790    -1.2380 H     1 <1>   0.0800 
 47 H      -12.6220     3.2330    -1.4250 H     1 <1>   0.0800 
 48 H      -12.8660     3.0760     0.2960 H     1 <1>   0.0800 
 49 H      -13.4130     0.8470     1.2870 H     1 <1>   0.1500 
 50 H      -13.2140     1.4230    -2.9380 H     1 <1>   0.1500 
 51 H      -14.6170    -1.2590     0.9380 H     1 <1>   0.1500 
 52 H      -14.4170    -0.6830    -3.2770 H     1 <1>   0.1500 
 53 H      -15.1210    -2.0300    -1.3440 H     1 <1>   0.1500 
@<TRIPOS>BOND
  1   1   2  1   
  2   2   3  ar  
  3   2   4  ar  
  4   3   5  ar  
  5   3  27  1   
  6   4   6  ar  
  7   4  28  1   
  8   5   7  ar  
  9   5  29  1   
 10   6   7  ar  
 11   6  30  1   
 12   7   8  1   
 13   8   9  1   
 14   8  31  1   
 15   8  32  1   
 16   9  10  1   
 17   9  11  1   
 18   9  33  1   
 19  10  12  1   
 20  10  34  1   
 21  10  35  1   
 22  11  13  1   
 23  11  36  1   
 24  11  37  1   
 25  12  14  1   
 26  12  38  1   
 27  12  39  1   
 28  13  14  1   
 29  13  40  1   
 30  13  41  1   
 31  14  15  1   
 32  15  16  1   
 33  15  42  1   
 34  15  43  1   
 35  16  17  2   
 36  16  18  am  
 37  18  19  1   
 38  18  44  1   
 39  19  20  1   
 40  19  45  1   
 41  19  46  1   
 42  20  21  1   
 43  20  47  1   
 44  20  48  1   
 45  21  22  ar  
 46  21  23  ar  
 47  22  24  ar  
 48  22  49  1   
 49  23  25  ar  
 50  23  50  1   
 51  24  26  ar  
 52  24  51  1   
 53  25  26  ar  
 54  25  52  1   
 55  26  53  1   
@<TRIPOS>SUBSTRUCTURE
  1 ****  18 GROUP 4 **** **** 0

# MOE 2024.06 (io_trps.svl 2023.06)
