@<TRIPOS>MOLECULE
NONAME
30 31 1 0 0 
SMALL
USER_CHARGES


@<TRIPOS>ATOM
  1 S       -6.9090     0.1910     0.1000 S.3   1 <1>  -0.0800 
  2 C       -5.3380     0.9930     0.1130 C.ar  1 <1>   0.2970 
  3 C       -7.7530     1.7190    -0.1770 C.2   1 <1>  -0.1400 
  4 N       -4.2010     0.3530     0.2710 N.ar  1 <1>  -0.5670 
  5 C       -5.4920     2.3440    -0.0680 C.ar  1 <1>   0.0000 
  6 C       -6.8680     2.7320    -0.2430 C.2   1 <1>  -0.1500 
  7 C       -9.2640     1.6350    -0.2980 C.3   1 <1>   0.0200 
  8 C       -3.1580     1.1590     0.2350 C.ar  1 <1>   0.4770 
  9 C       -4.3060     3.0790    -0.0620 C.ar  1 <1>   0.4100 
 10 C       -9.9000     3.0070    -0.5380 C.3   1 <1>  -0.2400 
 11 N       -3.1380     2.4750     0.0760 N.ar  1 <1>  -0.6200 
 12 C       -1.8050     0.5090     0.3970 C.3   1 <1>  -0.0960 
 13 N       -4.2970     4.4550    -0.1840 N.pl3 1 <1>  -0.8380 
 14 C       -5.0260     5.2920     0.8030 C.3   1 <1>   0.1290 
 15 C       -3.1620     5.1350    -0.8650 C.3   1 <1>   0.1290 
 16 H       -7.1070     3.7650    -0.4170 H     1 <1>   0.1500 
 17 H       -9.6640     1.2090     0.6050 H     1 <1>   0.0800 
 18 H       -9.5130     0.9790    -1.1140 H     1 <1>   0.0800 
 19 H       -9.6770     3.6690     0.2800 H     1 <1>   0.0800 
 20 H      -10.9680     2.9080    -0.6190 H     1 <1>   0.0800 
 21 H       -9.5240     3.4370    -1.4490 H     1 <1>   0.0800 
 22 H       -1.9080    -0.5470     0.5630 H     1 <1>   0.0800 
 23 H       -1.2960     0.9480     1.2340 H     1 <1>   0.0800 
 24 H       -1.2250     0.6700    -0.4920 H     1 <1>   0.0800 
 25 H       -5.6220     4.6750     1.4540 H     1 <1>   0.0800 
 26 H       -5.6690     5.9840     0.2880 H     1 <1>   0.0800 
 27 H       -4.3240     5.8430     1.4060 H     1 <1>   0.0800 
 28 H       -2.7560     4.4940    -1.6290 H     1 <1>   0.0800 
 29 H       -2.3880     5.3550    -0.1500 H     1 <1>   0.0800 
 30 H       -3.5000     6.0470    -1.3220 H     1 <1>   0.0800 
@<TRIPOS>BOND
  1   1   2  1   
  2   1   3  1   
  3   2   4  ar  
  4   2   5  ar  
  5   3   6  2   
  6   3   7  1   
  7   4   8  ar  
  8   5   6  1   
  9   5   9  ar  
 10   6  16  1   
 11   7  10  1   
 12   7  17  1   
 13   7  18  1   
 14   8  11  ar  
 15   8  12  1   
 16   9  11  ar  
 17   9  13  1   
 18  10  19  1   
 19  10  20  1   
 20  10  21  1   
 21  12  22  1   
 22  12  23  1   
 23  12  24  1   
 24  13  14  1   
 25  13  15  1   
 26  14  25  1   
 27  14  26  1   
 28  14  27  1   
 29  15  28  1   
 30  15  29  1   
 31  15  30  1   
@<TRIPOS>SUBSTRUCTURE
  1 ****   5 GROUP 4 **** **** 0

# MOE 2024.06 (io_trps.svl 2023.06)
