@<TRIPOS>MOLECULE
NONAME
41 43 1 0 0 
SMALL
USER_CHARGES


@<TRIPOS>ATOM
  1 BR      -0.3670    -0.6200    -0.6250 Br    1 <1>  -0.1110 
  2 C        0.8840     0.8520    -0.6400 C.ar  1 <1>   0.1110 
  3 C        0.4150     2.1490    -0.7820 C.ar  1 <1>   0.0830 
  4 C        2.2220     0.5490    -0.4980 C.ar  1 <1>  -0.1500 
  5 O       -0.9330     2.3280    -0.9040 O.3   1 <1>  -0.3630 
  6 C        1.3600     3.1840    -0.7990 C.ar  1 <1>   0.0830 
  7 C        3.1750     1.5640    -0.4970 C.ar  1 <1>   0.0280 
  8 C       -1.5650     3.3370    -0.1470 C.3   1 <1>   0.0400 
  9 O        0.9360     4.4710    -0.9720 O.3   1 <1>  -0.3630 
 10 C        2.7110     2.8710    -0.6560 C.ar  1 <1>  -0.1500 
 11 C        4.5690     1.2210    -0.3460 C.2   1 <1>  -0.1780 
 12 C        1.8410     5.5540    -0.9920 C.3   1 <1>   0.0400 
 13 C        5.6560     1.9620    -0.0200 C.2   1 <1>  -0.0380 
 14 N        5.6630     3.3270     0.2870 N.pl3 1 <1>  -0.8380 
 15 C        7.0580     1.3220     0.0780 C.3   1 <1>   0.3380 
 16 C        6.0560     3.5290     1.7140 C.3   1 <1>   0.2090 
 17 C        6.5940     4.1000    -0.5900 C.3   1 <1>   0.2090 
 18 O        7.0360     0.2410     0.9510 O.3   1 <1>  -0.6800 
 19 C        8.0450     2.3940     0.6060 C.3   1 <1>  -0.0800 
 20 C        7.4870     2.9790     1.9290 C.3   1 <1>  -0.1600 
 21 C        8.0310     3.5530    -0.4170 C.3   1 <1>  -0.1600 
 22 H        2.5230    -0.4760    -0.3840 H     1 <1>   0.1500 
 23 H       -2.5960     3.0630    -0.0210 H     1 <1>   0.0800 
 24 H       -1.4990     4.2660    -0.6830 H     1 <1>   0.0800 
 25 H       -1.0820     3.4150     0.8120 H     1 <1>   0.0800 
 26 H        3.4470     3.6460    -0.6730 H     1 <1>   0.1500 
 27 H        4.7500     0.1760    -0.5160 H     1 <1>   0.1500 
 28 H        1.2770     6.4590    -1.1240 H     1 <1>   0.0800 
 29 H        2.5220     5.4240    -1.8140 H     1 <1>   0.0800 
 30 H        2.3700     5.5850    -0.0550 H     1 <1>   0.0800 
 31 H        7.3650     0.9620    -0.8880 H     1 <1>   0.0800 
 32 H        6.0070     4.5760     1.9620 H     1 <1>   0.0800 
 33 H        5.3600     3.0000     2.3440 H     1 <1>   0.0800 
 34 H        6.2770     3.9960    -1.6140 H     1 <1>   0.0800 
 35 H        6.5530     5.1440    -0.3290 H     1 <1>   0.0800 
 36 H        7.9400    -0.0920     1.0830 H     1 <1>   0.4000 
 37 H        9.0370     1.9960     0.7230 H     1 <1>   0.0800 
 38 H        8.1230     3.7670     2.2890 H     1 <1>   0.0800 
 39 H        7.4570     2.2190     2.6890 H     1 <1>   0.0800 
 40 H        8.3950     3.2110    -1.3700 H     1 <1>   0.0800 
 41 H        8.6790     4.3470    -0.0910 H     1 <1>   0.0800 
@<TRIPOS>BOND
  1   1   2  1   
  2   2   3  ar  
  3   2   4  ar  
  4   3   5  1   
  5   3   6  ar  
  6   4   7  ar  
  7   4  22  1   
  8   5   8  1   
  9   6   9  1   
 10   6  10  ar  
 11   7  10  ar  
 12   7  11  1   
 13   8  23  1   
 14   8  24  1   
 15   8  25  1   
 16   9  12  1   
 17  10  26  1   
 18  11  13  2   
 19  11  27  1   
 20  12  28  1   
 21  12  29  1   
 22  12  30  1   
 23  13  14  1   
 24  13  15  1   
 25  14  16  1   
 26  14  17  1   
 27  15  18  1   
 28  15  19  1   
 29  15  31  1   
 30  16  20  1   
 31  16  32  1   
 32  16  33  1   
 33  17  21  1   
 34  17  34  1   
 35  17  35  1   
 36  18  36  1   
 37  19  20  1   
 38  19  21  1   
 39  19  37  1   
 40  20  38  1   
 41  20  39  1   
 42  21  40  1   
 43  21  41  1   
@<TRIPOS>SUBSTRUCTURE
  1 ****   7 GROUP 4 **** **** 0

# MOE 2024.06 (io_trps.svl 2023.06)
