@<TRIPOS>MOLECULE
NONAME
37 37 1 0 0 
SMALL
USER_CHARGES


@<TRIPOS>ATOM
  1 O       -0.0330     0.9990     1.1140 O.2   1 <1>  -0.5700 
  2 C       -0.3840     1.4710     0.0620 C.2   1 <1>   0.6590 
  3 O        0.2040     1.1470    -1.0850 O.3   1 <1>  -0.4300 
  4 C       -1.5070     2.4930    -0.0180 C.3   1 <1>   0.1810 
  5 C        1.2500     0.1990    -1.1410 C.3   1 <1>   0.0400 
  6 O       -2.6380     1.9460    -0.6780 O.3   1 <1>  -0.3630 
  7 C       -3.8470     2.5330    -0.5110 C.ar  1 <1>   0.0830 
  8 C       -4.9820     1.7560    -0.2410 C.ar  1 <1>  -0.1440 
  9 C       -3.9370     3.9160    -0.6210 C.ar  1 <1>  -0.1500 
 10 C       -6.1870     2.4400    -0.0710 C.ar  1 <1>  -0.1500 
 11 C       -4.9200     0.2040    -0.1290 C.3   1 <1>   0.1440 
 12 C       -5.1450     4.5580    -0.4470 C.ar  1 <1>  -0.1500 
 13 C       -6.2770     3.8190    -0.1660 C.ar  1 <1>  -0.1440 
 14 C       -6.2920    -0.4390     0.1570 C.3   1 <1>  -0.2400 
 15 C       -4.4260    -0.4170    -1.4470 C.3   1 <1>  -0.2400 
 16 C       -4.0000    -0.2200     1.0290 C.3   1 <1>  -0.2400 
 17 C       -7.6180     4.5050     0.0300 C.3   1 <1>  -0.0970 
 18 H       -1.1710     3.3510    -0.5680 H     1 <1>   0.0800 
 19 H       -1.8000     2.7800     0.9750 H     1 <1>   0.0800 
 20 H        1.5620     0.0970    -2.1650 H     1 <1>   0.0800 
 21 H        0.8840    -0.7430    -0.7690 H     1 <1>   0.0800 
 22 H        2.0680     0.5460    -0.5340 H     1 <1>   0.0800 
 23 H       -3.0710     4.5050    -0.8560 H     1 <1>   0.1500 
 24 H       -7.0990     1.9190     0.1420 H     1 <1>   0.1500 
 25 H       -5.2000     5.6290    -0.5340 H     1 <1>   0.1500 
 26 H       -6.9880    -0.2120    -0.6310 H     1 <1>   0.0800 
 27 H       -6.6880    -0.0870     1.0930 H     1 <1>   0.0800 
 28 H       -6.2060    -1.5090     0.2200 H     1 <1>   0.0800 
 29 H       -5.0400    -0.0800    -2.2630 H     1 <1>   0.0800 
 30 H       -4.4690    -1.4900    -1.4040 H     1 <1>   0.0800 
 31 H       -3.4110    -0.1430    -1.6590 H     1 <1>   0.0800 
 32 H       -4.3090     0.2620     1.9390 H     1 <1>   0.0800 
 33 H       -2.9780     0.0410     0.8400 H     1 <1>   0.0800 
 34 H       -4.0370    -1.2850     1.1750 H     1 <1>   0.0800 
 35 H       -8.2470     4.3240    -0.8230 H     1 <1>   0.0800 
 36 H       -7.4920     5.5660     0.1480 H     1 <1>   0.0800 
 37 H       -8.1030     4.1210     0.9090 H     1 <1>   0.0800 
@<TRIPOS>BOND
  1   1   2  2   
  2   2   3  1   
  3   2   4  1   
  4   3   5  1   
  5   4   6  1   
  6   4  18  1   
  7   4  19  1   
  8   5  20  1   
  9   5  21  1   
 10   5  22  1   
 11   6   7  1   
 12   7   8  ar  
 13   7   9  ar  
 14   8  10  ar  
 15   8  11  1   
 16   9  12  ar  
 17   9  23  1   
 18  10  13  ar  
 19  10  24  1   
 20  11  14  1   
 21  11  15  1   
 22  11  16  1   
 23  12  13  ar  
 24  12  25  1   
 25  13  17  1   
 26  14  26  1   
 27  14  27  1   
 28  14  28  1   
 29  15  29  1   
 30  15  30  1   
 31  15  31  1   
 32  16  32  1   
 33  16  33  1   
 34  16  34  1   
 35  17  35  1   
 36  17  36  1   
 37  17  37  1   
@<TRIPOS>SUBSTRUCTURE
  1 ****   7 GROUP 4 **** **** 0

# MOE 2024.06 (io_trps.svl 2023.06)
