@<TRIPOS>MOLECULE
NONAME
46 49 1 0 0 
SMALL
USER_CHARGES


@<TRIPOS>ATOM
  1 S       -0.1080     0.5580     0.5930 S.o2  1 <1>   1.3330 
  2 O        0.3510     0.6090    -0.7700 O.2   1 <1>  -0.6500 
  3 O        0.3470    -0.5180     1.4400 O.2   1 <1>  -0.6500 
  4 N       -1.7530     0.3300     0.4420 N.am  1 <1>  -0.9140 
  5 C        0.0470     2.1300     1.4120 C.3   1 <1>  -0.1350 
  6 C       -2.0500    -0.9560    -0.1820 C.3   1 <1>   0.4190 
  7 C       -3.5030    -0.9510    -0.6010 C.ar  1 <1>  -0.1440 
  8 C       -1.9260    -2.2000     0.7910 C.3   1 <1>   0.5670 
  9 C       -4.1840    -1.8720     0.1840 C.ar  1 <1>   0.0000 
 10 C       -4.1730    -0.2270    -1.5500 C.ar  1 <1>  -0.1500 
 11 N       -1.1930    -3.3640     0.1520 N.4   1 <1>  -0.9590 
 12 C       -3.3790    -2.5810     1.0690 C.ar  1 <1>  -0.1440 
 13 C       -5.5680    -2.0440     0.1050 C.ar  1 <1>   0.0000 
 14 C       -5.5590    -0.4150    -1.6910 C.ar  1 <1>  -0.1500 
 15 C       -1.2020    -4.6080     0.9700 C.3   1 <1>   0.3430 
 16 C        0.2220    -3.0050    -0.2090 C.3   1 <1>   0.3430 
 17 C       -3.9680    -3.4120     1.9870 C.ar  1 <1>  -0.1500 
 18 C       -6.1400    -2.9340     1.0350 C.ar  1 <1>  -0.1500 
 19 C       -6.2390    -1.2940    -0.8820 C.ar  1 <1>  -0.1500 
 20 C       -0.7660    -5.7980     0.1040 C.3   1 <1>  -0.1600 
 21 C        1.0230    -4.2180    -0.7060 C.3   1 <1>  -0.1600 
 22 C       -5.3630    -3.5890     1.9580 C.ar  1 <1>  -0.1500 
 23 C        0.1420    -5.4170    -1.0790 C.3   1 <1>  -0.1600 
 24 H       -2.0670     1.0260    -0.2330 H     1 <1>   0.4200 
 25 H       -0.4350     2.1000     2.3700 H     1 <1>   0.0800 
 26 H       -0.4000     2.9070     0.8240 H     1 <1>   0.0800 
 27 H        1.0830     2.3680     1.5600 H     1 <1>   0.0800 
 28 H       -1.4480    -1.0890    -1.0640 H     1 <1>   0.0800 
 29 H       -1.4390    -1.9080     1.7060 H     1 <1>   0.0800 
 30 H       -3.6750     0.4840    -2.1870 H     1 <1>   0.1500 
 31 H       -1.7000    -3.5980    -0.7100 H     1 <1>   0.4500 
 32 H       -6.0850     0.1510    -2.4410 H     1 <1>   0.1500 
 33 H       -2.1840    -4.8150     1.3550 H     1 <1>   0.0800 
 34 H       -0.5240    -4.4950     1.8020 H     1 <1>   0.0800 
 35 H        0.7270    -2.5970     0.6520 H     1 <1>   0.0800 
 36 H        0.2250    -2.2480    -0.9770 H     1 <1>   0.0800 
 37 H       -3.4040    -3.9380     2.7380 H     1 <1>   0.1500 
 38 H       -7.2060    -3.0810     1.0120 H     1 <1>   0.1500 
 39 H       -7.3020    -1.4230    -0.9860 H     1 <1>   0.1500 
 40 H       -1.6380    -6.3060    -0.2690 H     1 <1>   0.0800 
 41 H       -0.2500    -6.4970     0.7400 H     1 <1>   0.0800 
 42 H        1.7080    -4.5120     0.0700 H     1 <1>   0.0800 
 43 H        1.6210    -3.9230    -1.5510 H     1 <1>   0.0800 
 44 H       -5.8180    -4.2510     2.6760 H     1 <1>   0.1500 
 45 H       -0.4630    -5.1600    -1.9320 H     1 <1>   0.0800 
 46 H        0.7540    -6.2580    -1.3600 H     1 <1>   0.0800 
@<TRIPOS>BOND
  1   1   2  2   
  2   1   3  2   
  3   1   4  am  
  4   1   5  1   
  5   4   6  1   
  6   4  24  1   
  7   5  25  1   
  8   5  26  1   
  9   5  27  1   
 10   6   7  1   
 11   6   8  1   
 12   6  28  1   
 13   7   9  ar  
 14   7  10  ar  
 15   8  11  1   
 16   8  12  1   
 17   8  29  1   
 18   9  12  ar  
 19   9  13  ar  
 20  10  14  ar  
 21  10  30  1   
 22  11  15  1   
 23  11  16  1   
 24  11  31  1   
 25  12  17  ar  
 26  13  18  ar  
 27  13  19  ar  
 28  14  19  ar  
 29  14  32  1   
 30  15  20  1   
 31  15  33  1   
 32  15  34  1   
 33  16  21  1   
 34  16  35  1   
 35  16  36  1   
 36  17  22  ar  
 37  17  37  1   
 38  18  22  ar  
 39  18  38  1   
 40  19  39  1   
 41  20  23  1   
 42  20  40  1   
 43  20  41  1   
 44  21  23  1   
 45  21  42  1   
 46  21  43  1   
 47  22  44  1   
 48  23  45  1   
 49  23  46  1   
@<TRIPOS>SUBSTRUCTURE
  1 ****   8 GROUP 4 **** **** 0

# MOE 2024.06 (io_trps.svl 2023.06)
