@<TRIPOS>MOLECULE
NONAME
52 53 1 0 0 
SMALL
USER_CHARGES


@<TRIPOS>ATOM
  1 O        5.8450    -6.9960    -0.2890 O.3   1 <1>  -0.3630 
  2 C        6.6360    -5.8910    -0.3630 C.ar  1 <1>   0.0830 
  3 C        4.4390    -6.9120    -0.3100 C.3   1 <1>   0.1200 
  4 C        8.0120    -6.0490    -0.1840 C.ar  1 <1>  -0.1440 
  5 C        6.1100    -4.6230    -0.6080 C.ar  1 <1>  -0.1500 
  6 C        3.8800    -8.3240    -0.1240 C.3   1 <1>   0.1100 
  7 C        8.8260    -4.9260    -0.2500 C.ar  1 <1>  -0.1500 
  8 C        8.6440    -7.4210     0.0830 C.3   1 <1>   0.0640 
  9 C        6.9340    -3.5130    -0.6700 C.ar  1 <1>  -0.1440 
 10 N        2.4000    -8.3360    -0.1140 N.3   1 <1>  -0.8100 
 11 C        8.2950    -3.6720    -0.4890 C.ar  1 <1>  -0.1500 
 12 C        9.3360    -7.4490     1.4510 C.3   1 <1>  -0.2400 
 13 C        9.6290    -7.7970    -1.0290 C.3   1 <1>  -0.2400 
 14 C        6.3630    -2.1320    -0.9370 C.3   1 <1>  -0.0970 
 15 C        1.8900    -9.7050    -0.3720 C.3   1 <1>   0.1100 
 16 C        1.8430    -7.8190     1.1640 C.3   1 <1>   0.1100 
 17 C        0.3430    -9.7780    -0.3650 C.3   1 <1>   0.3430 
 18 C        0.2960    -7.8900     1.2140 C.3   1 <1>   0.3430 
 19 N       -0.2670    -8.4400    -0.0650 N.4   1 <1>  -0.9590 
 20 C       -1.7480    -8.4530    -0.1420 C.3   1 <1>   0.3430 
 21 C       -2.2740    -7.0250    -0.2140 C.3   1 <1>  -0.2400 
 22 H        4.1380    -6.5130    -1.2630 H     1 <1>   0.0800 
 23 H        4.1360    -6.2640     0.4920 H     1 <1>   0.0800 
 24 H        5.0590    -4.4810    -0.7580 H     1 <1>   0.1500 
 25 H        4.2620    -8.7460     0.7900 H     1 <1>   0.0800 
 26 H        4.2350    -8.9200    -0.9480 H     1 <1>   0.0800 
 27 H        9.8870    -5.0200    -0.1140 H     1 <1>   0.1500 
 28 H        7.8830    -8.1800     0.0990 H     1 <1>   0.0800 
 29 H        8.9490    -2.8190    -0.5360 H     1 <1>   0.1500 
 30 H       10.1610    -6.7610     1.4800 H     1 <1>   0.0800 
 31 H        9.7040    -8.4370     1.6610 H     1 <1>   0.0800 
 32 H        8.6330    -7.1750     2.2170 H     1 <1>   0.0800 
 33 H       10.4610    -7.1180    -1.0550 H     1 <1>   0.0800 
 34 H        9.1290    -7.7640    -1.9810 H     1 <1>   0.0800 
 35 H       10.0030    -8.7930    -0.8740 H     1 <1>   0.0800 
 36 H        5.2970    -2.1240    -0.8010 H     1 <1>   0.0800 
 37 H        6.5850    -1.8370    -1.9470 H     1 <1>   0.0800 
 38 H        6.7970    -1.4170    -0.2620 H     1 <1>   0.0800 
 39 H        2.2770   -10.3850     0.3700 H     1 <1>   0.0800 
 40 H        2.2450   -10.0420    -1.3310 H     1 <1>   0.0800 
 41 H        2.1390    -6.7930     1.2980 H     1 <1>   0.0800 
 42 H        2.2450    -8.3780     1.9920 H     1 <1>   0.0800 
 43 H        0.0270   -10.5000     0.3690 H     1 <1>   0.0800 
 44 H        0.0080   -10.1240    -1.3290 H     1 <1>   0.0800 
 45 H       -0.0880    -6.8990     1.3900 H     1 <1>   0.0800 
 46 H       -0.0030    -8.5090     2.0430 H     1 <1>   0.0800 
 47 H        0.1200    -7.8230    -0.7970 H     1 <1>   0.4500 
 48 H       -2.1620    -8.9590     0.7160 H     1 <1>   0.0800 
 49 H       -2.0590    -8.9830    -1.0290 H     1 <1>   0.0800 
 50 H       -2.0780    -6.4860     0.6950 H     1 <1>   0.0800 
 51 H       -3.3400    -7.0500    -0.3530 H     1 <1>   0.0800 
 52 H       -1.8430    -6.5000    -1.0490 H     1 <1>   0.0800 
@<TRIPOS>BOND
  1   1   2  1   
  2   1   3  1   
  3   2   4  ar  
  4   2   5  ar  
  5   3   6  1   
  6   3  22  1   
  7   3  23  1   
  8   4   7  ar  
  9   4   8  1   
 10   5   9  ar  
 11   5  24  1   
 12   6  10  1   
 13   6  25  1   
 14   6  26  1   
 15   7  11  ar  
 16   7  27  1   
 17   8  12  1   
 18   8  13  1   
 19   8  28  1   
 20   9  11  ar  
 21   9  14  1   
 22  10  15  1   
 23  10  16  1   
 24  11  29  1   
 25  12  30  1   
 26  12  31  1   
 27  12  32  1   
 28  13  33  1   
 29  13  34  1   
 30  13  35  1   
 31  14  36  1   
 32  14  37  1   
 33  14  38  1   
 34  15  17  1   
 35  15  39  1   
 36  15  40  1   
 37  16  18  1   
 38  16  41  1   
 39  16  42  1   
 40  17  19  1   
 41  17  43  1   
 42  17  44  1   
 43  18  19  1   
 44  18  45  1   
 45  18  46  1   
 46  19  20  1   
 47  19  47  1   
 48  20  21  1   
 49  20  48  1   
 50  20  49  1   
 51  21  50  1   
 52  21  51  1   
 53  21  52  1   
@<TRIPOS>SUBSTRUCTURE
  1 ****   3 GROUP 4 **** **** 0

# MOE 2024.06 (io_trps.svl 2023.06)
