@<TRIPOS>MOLECULE
NONAME
36 36 1 0 0 
SMALL
USER_CHARGES


@<TRIPOS>ATOM
  1 O       -1.3630     4.6290    -1.7110 O.2   1 <1>  -0.5700 
  2 C       -1.4530     3.9810    -0.6870 C.2   1 <1>   0.8050 
  3 O       -0.3170     3.5140    -0.1450 O.3   1 <1>  -0.4300 
  4 C       -2.6890     3.6750    -0.0080 C.2   1 <1>   0.0550 
  5 C        0.9310     3.7710    -0.7570 C.3   1 <1>   0.1200 
  6 O       -3.8580     4.1020    -0.4770 O.3   1 <1>  -0.2800 
  7 C       -2.9240     2.9660     1.1340 C.2   1 <1>  -0.1500 
  8 C        2.0370     3.1370     0.0950 C.3   1 <1>   0.3430 
  9 C       -4.8170     3.6920     0.3200 C.2   1 <1>  -0.0100 
 10 C       -4.3030     2.9780     1.3440 C.2   1 <1>  -0.1500 
 11 N        3.4030     3.2440    -0.5400 N.4   1 <1>  -0.9590 
 12 C        4.4390     2.3910     0.1190 C.3   1 <1>   0.5030 
 13 C        3.8060     4.6900    -0.6700 C.3   1 <1>   0.2630 
 14 C        4.6580     2.8090     1.5770 C.3   1 <1>  -0.2400 
 15 C        3.9920     0.9260     0.0610 C.3   1 <1>  -0.2400 
 16 C        5.7540     2.5100    -0.6570 C.3   1 <1>  -0.2400 
 17 H        1.0490     4.8390    -0.8230 H     1 <1>   0.0800 
 18 H        0.9100     3.3390    -1.7430 H     1 <1>   0.0800 
 19 H       -2.2070     2.4790     1.7710 H     1 <1>   0.1500 
 20 H        1.7820     2.1010     0.2320 H     1 <1>   0.0800 
 21 H        2.0500     3.6130     1.0610 H     1 <1>   0.0800 
 22 H       -5.8360     3.9490     0.0890 H     1 <1>   0.1500 
 23 H       -4.8230     2.5080     2.1600 H     1 <1>   0.1500 
 24 H        3.3270     2.8600    -1.4910 H     1 <1>   0.4500 
 25 H        3.9160     5.1380     0.3040 H     1 <1>   0.0800 
 26 H        3.0640     5.2430    -1.2210 H     1 <1>   0.0800 
 27 H        4.7420     4.7790    -1.1970 H     1 <1>   0.0800 
 28 H        3.7640     2.6970     2.1620 H     1 <1>   0.0800 
 29 H        5.0070     3.8220     1.6500 H     1 <1>   0.0800 
 30 H        5.4100     2.1800     2.0210 H     1 <1>   0.0800 
 31 H        4.7890     0.2880     0.4010 H     1 <1>   0.0800 
 32 H        3.1530     0.7330     0.7030 H     1 <1>   0.0800 
 33 H        3.7490     0.6350    -0.9460 H     1 <1>   0.0800 
 34 H        6.2000     3.4820    -0.5480 H     1 <1>   0.0800 
 35 H        5.6100     2.2950    -1.7010 H     1 <1>   0.0800 
 36 H        6.4690     1.8020    -0.2750 H     1 <1>   0.0800 
@<TRIPOS>BOND
  1   1   2  2   
  2   2   3  1   
  3   2   4  1   
  4   3   5  1   
  5   4   6  1   
  6   4   7  2   
  7   5   8  1   
  8   5  17  1   
  9   5  18  1   
 10   6   9  1   
 11   7  10  1   
 12   7  19  1   
 13   8  11  1   
 14   8  20  1   
 15   8  21  1   
 16   9  10  2   
 17   9  22  1   
 18  10  23  1   
 19  11  12  1   
 20  11  13  1   
 21  11  24  1   
 22  12  14  1   
 23  12  15  1   
 24  12  16  1   
 25  13  25  1   
 26  13  26  1   
 27  13  27  1   
 28  14  28  1   
 29  14  29  1   
 30  14  30  1   
 31  15  31  1   
 32  15  32  1   
 33  15  33  1   
 34  16  34  1   
 35  16  35  1   
 36  16  36  1   
@<TRIPOS>SUBSTRUCTURE
  1 ****   3 GROUP 4 **** **** 0

# MOE 2024.06 (io_trps.svl 2023.06)
