@<TRIPOS>MOLECULE
NONAME
30 30 1 0 0 
SMALL
USER_CHARGES


@<TRIPOS>ATOM
  1 S       -0.3600    -0.0790    -0.7740 S.o2  1 <1>   1.4470 
  2 O       -0.9980    -0.7380    -1.8910 O.2   1 <1>  -0.6500 
  3 O       -0.2760     1.3630    -0.7230 O.2   1 <1>  -0.6500 
  4 N       -1.2390    -0.4710     0.6040 N.am  1 <1>  -0.9140 
  5 C        1.2620    -0.8230    -0.4530 C.ar  1 <1>  -0.0090 
  6 C       -2.6770    -0.5970     0.4220 C.3   1 <1>   0.1960 
  7 C        1.4060    -2.2010    -0.3450 C.ar  1 <1>  -0.1500 
  8 C        2.4000    -0.0400    -0.2970 C.ar  1 <1>  -0.1500 
  9 C       -3.3310     0.7690     0.1950 C.3   1 <1>  -0.1600 
 10 C        2.6380    -2.7780    -0.0930 C.ar  1 <1>  -0.1500 
 11 C        3.6360    -0.6110    -0.0450 C.ar  1 <1>  -0.1500 
 12 C       -4.8520     0.6300     0.1680 C.3   1 <1>   0.1200 
 13 C        3.7610    -1.9850     0.0580 C.ar  1 <1>  -0.1430 
 14 O       -5.4010     1.8740    -0.0670 O.3   1 <1>  -0.6800 
 15 C        5.1140    -2.6150     0.3360 C.3   1 <1>  -0.0970 
 16 H       -1.0670     0.3150     1.2280 H     1 <1>   0.4200 
 17 H       -3.0900    -1.0390     1.3130 H     1 <1>   0.0800 
 18 H       -2.8940    -1.2610    -0.4000 H     1 <1>   0.0800 
 19 H        0.5390    -2.8290    -0.4620 H     1 <1>   0.1500 
 20 H        2.3220     1.0320    -0.3760 H     1 <1>   0.1500 
 21 H       -3.0090     1.1710    -0.7500 H     1 <1>   0.0800 
 22 H       -3.0490     1.4380     0.9880 H     1 <1>   0.0800 
 23 H        2.7170    -3.8490    -0.0140 H     1 <1>   0.1500 
 24 H        4.4990     0.0210     0.0720 H     1 <1>   0.1500 
 25 H       -5.2320     0.2640     1.1070 H     1 <1>   0.0800 
 26 H       -5.1670    -0.0250    -0.6280 H     1 <1>   0.0800 
 27 H       -5.0970     2.5230     0.5960 H     1 <1>   0.4000 
 28 H        5.1760    -3.5880    -0.1160 H     1 <1>   0.0800 
 29 H        5.2580    -2.7150     1.3970 H     1 <1>   0.0800 
 30 H        5.9040    -2.0040    -0.0650 H     1 <1>   0.0800 
@<TRIPOS>BOND
  1   1   2  2   
  2   1   3  2   
  3   1   4  am  
  4   1   5  1   
  5   4   6  1   
  6   4  16  1   
  7   5   7  ar  
  8   5   8  ar  
  9   6   9  1   
 10   6  17  1   
 11   6  18  1   
 12   7  10  ar  
 13   7  19  1   
 14   8  11  ar  
 15   8  20  1   
 16   9  12  1   
 17   9  21  1   
 18   9  22  1   
 19  10  13  ar  
 20  10  23  1   
 21  11  13  ar  
 22  11  24  1   
 23  12  14  1   
 24  12  25  1   
 25  12  26  1   
 26  13  15  1   
 27  14  27  1   
 28  15  28  1   
 29  15  29  1   
 30  15  30  1   
@<TRIPOS>SUBSTRUCTURE
  1 ****   1 GROUP 4 **** **** 0

# MOE 2024.06 (io_trps.svl 2023.06)
