@<TRIPOS>MOLECULE
NONAME
51 53 1 0 0 
SMALL
USER_CHARGES


@<TRIPOS>ATOM
  1 O       -1.1260     1.0410    -2.0150 O.2   1 <1>  -0.5700 
  2 C       -1.4230     1.4940    -0.9290 C.2   1 <1>   0.5440 
  3 N       -0.7280     2.4910    -0.2960 N.am  1 <1>  -0.4200 
  4 C       -2.5330     1.1110    -0.1030 C.ar  1 <1>   0.0860 
  5 C       -1.3510     2.7730     0.8910 C.2   1 <1>   0.5440 
  6 C        0.4980     3.1410    -0.8010 C.3   1 <1>   0.1400 
  7 C       -2.4880     1.9080     1.0310 C.ar  1 <1>   0.0860 
  8 C       -3.5380     0.1640    -0.2560 C.ar  1 <1>  -0.1500 
  9 O       -0.9810     3.6290     1.6680 O.2   1 <1>  -0.5700 
 10 C        1.7320     2.3700    -0.3230 C.3   1 <1>  -0.1600 
 11 C       -3.4480     1.7670     2.0260 C.ar  1 <1>  -0.1500 
 12 C       -4.4950     0.0250     0.7360 C.ar  1 <1>  -0.1500 
 13 C        3.0320     3.0190    -0.8350 C.3   1 <1>  -0.0990 
 14 C       -4.4500     0.8230     1.8730 C.ar  1 <1>  -0.1500 
 15 C        4.3120     2.3110    -0.3970 C.2   1 <1>   0.5690 
 16 O        4.2130     1.3020     0.2620 O.2   1 <1>  -0.5700 
 17 N        5.5390     2.8200    -0.7510 N.am  1 <1>  -0.6600 
 18 C        5.7630     4.0340    -1.5840 C.3   1 <1>   0.1400 
 19 C        6.7980     2.1790    -0.2790 C.3   1 <1>   0.1400 
 20 C        6.5470     5.0660    -0.7710 C.3   1 <1>  -0.1600 
 21 C        7.6040     3.1860     0.5460 C.3   1 <1>  -0.1600 
 22 C        7.8740     4.4850    -0.2390 C.3   1 <1>  -0.0190 
 23 C        8.6620     5.4840     0.6080 C.2   1 <1>   0.6590 
 24 O        8.1780     6.5050     1.0280 O.2   1 <1>  -0.5700 
 25 O        9.9240     5.1540     0.8510 O.3   1 <1>  -0.4300 
 26 C       10.7620     5.9800     1.6250 C.3   1 <1>   0.1200 
 27 C       12.1280     5.3090     1.7220 C.3   1 <1>  -0.2400 
 28 H        0.5320     4.1550    -0.4410 H     1 <1>   0.0800 
 29 H        0.4670     3.1590    -1.8780 H     1 <1>   0.0800 
 30 H       -3.5610    -0.4480    -1.1420 H     1 <1>   0.1500 
 31 H        1.6800     1.3560    -0.6810 H     1 <1>   0.0800 
 32 H        1.7480     2.3530     0.7540 H     1 <1>   0.0800 
 33 H       -3.4020     2.3930     2.9010 H     1 <1>   0.1500 
 34 H       -5.2790    -0.7070     0.6270 H     1 <1>   0.1500 
 35 H        3.0750     4.0320    -0.4780 H     1 <1>   0.0800 
 36 H        3.0120     3.0330    -1.9090 H     1 <1>   0.0800 
 37 H       -5.1990     0.7060     2.6380 H     1 <1>   0.1500 
 38 H        4.8350     4.4670    -1.9120 H     1 <1>   0.0800 
 39 H        6.3240     3.7570    -2.4600 H     1 <1>   0.0800 
 40 H        7.3690     1.8550    -1.1320 H     1 <1>   0.0800 
 41 H        6.5850     1.3110     0.3230 H     1 <1>   0.0800 
 42 H        5.9360     5.3940     0.0530 H     1 <1>   0.0800 
 43 H        6.7500     5.9240    -1.3860 H     1 <1>   0.0800 
 44 H        8.5370     2.7340     0.8350 H     1 <1>   0.0800 
 45 H        7.0580     3.4100     1.4460 H     1 <1>   0.0800 
 46 H        8.4920     4.2420    -1.0850 H     1 <1>   0.0800 
 47 H       10.3180     6.0980     2.6000 H     1 <1>   0.0800 
 48 H       10.8340     6.9410     1.1430 H     1 <1>   0.0800 
 49 H       12.0360     4.3470     2.1940 H     1 <1>   0.0800 
 50 H       12.7890     5.9180     2.3110 H     1 <1>   0.0800 
 51 H       12.5540     5.1910     0.7420 H     1 <1>   0.0800 
@<TRIPOS>BOND
  1   1   2  2   
  2   2   3  am  
  3   2   4  1   
  4   3   5  am  
  5   3   6  1   
  6   4   7  ar  
  7   4   8  ar  
  8   5   7  1   
  9   5   9  2   
 10   6  10  1   
 11   6  28  1   
 12   6  29  1   
 13   7  11  ar  
 14   8  12  ar  
 15   8  30  1   
 16  10  13  1   
 17  10  31  1   
 18  10  32  1   
 19  11  14  ar  
 20  11  33  1   
 21  12  14  ar  
 22  12  34  1   
 23  13  15  1   
 24  13  35  1   
 25  13  36  1   
 26  14  37  1   
 27  15  16  2   
 28  15  17  am  
 29  17  18  1   
 30  17  19  1   
 31  18  20  1   
 32  18  38  1   
 33  18  39  1   
 34  19  21  1   
 35  19  40  1   
 36  19  41  1   
 37  20  22  1   
 38  20  42  1   
 39  20  43  1   
 40  21  22  1   
 41  21  44  1   
 42  21  45  1   
 43  22  23  1   
 44  22  46  1   
 45  23  24  2   
 46  23  25  1   
 47  25  26  1   
 48  26  27  1   
 49  26  47  1   
 50  26  48  1   
 51  27  49  1   
 52  27  50  1   
 53  27  51  1   
@<TRIPOS>SUBSTRUCTURE
  1 ****  13 GROUP 4 **** **** 0

# MOE 2024.06 (io_trps.svl 2023.06)
