@<TRIPOS>MOLECULE
NONAME
43 44 1 0 0 
SMALL
USER_CHARGES


@<TRIPOS>ATOM
  1 F       -0.9180     0.3070    -1.1440 F     1 <1>  -0.1900 
  2 C       -0.4850     1.3850    -0.5350 C.ar  1 <1>   0.1900 
  3 C       -1.4150     2.3320    -0.1060 C.ar  1 <1>   0.1170 
  4 C        0.8770     1.5230    -0.3540 C.ar  1 <1>  -0.1500 
  5 N       -2.7890     2.1140    -0.3360 N.am  1 <1>  -0.5470 
  6 C       -0.9060     3.4650     0.5240 C.ar  1 <1>  -0.1500 
  7 C        1.3520     2.6580     0.2810 C.ar  1 <1>  -0.1500 
  8 C       -3.9040     2.6930     0.1860 C.2   1 <1>   0.6900 
  9 C        0.4580     3.6240     0.7170 C.ar  1 <1>  -0.1500 
 10 O       -3.8600     3.5330     1.0620 O.2   1 <1>  -0.5700 
 11 N       -5.1080     2.3060    -0.3060 N.am  1 <1>  -0.7300 
 12 C       -6.3850     2.8190     0.2060 C.3   1 <1>   0.2200 
 13 C       -7.4760     1.7660     0.0360 C.3   1 <1>  -0.1600 
 14 C       -6.7490     4.1010    -0.5380 C.3   1 <1>  -0.1600 
 15 C       -8.8190     2.3210     0.5050 C.3   1 <1>   0.3430 
 16 C       -8.0970     4.6250    -0.0550 C.3   1 <1>   0.3430 
 17 N       -9.1460     3.5770    -0.2410 N.4   1 <1>  -0.9590 
 18 C      -10.4800     4.1210     0.1400 C.3   1 <1>   0.3430 
 19 C      -11.5990     3.2370    -0.4160 C.3   1 <1>  -0.1600 
 20 C      -12.9730     3.8530    -0.1310 C.3   1 <1>  -0.2400 
 21 H        1.5500     0.7600    -0.7030 H     1 <1>   0.1500 
 22 H       -2.9700     1.2920    -0.9060 H     1 <1>   0.3700 
 23 H       -1.5690     4.2370     0.8700 H     1 <1>   0.1500 
 24 H        2.4090     2.7900     0.4360 H     1 <1>   0.1500 
 25 H        0.8250     4.5080     1.2100 H     1 <1>   0.1500 
 26 H       -5.1350     1.7260    -1.1420 H     1 <1>   0.3700 
 27 H       -6.2740     3.0410     1.2570 H     1 <1>   0.0800 
 28 H       -7.2300     0.9030     0.6300 H     1 <1>   0.0800 
 29 H       -7.5530     1.4600    -0.9920 H     1 <1>   0.0800 
 30 H       -6.7830     3.9300    -1.6000 H     1 <1>   0.0800 
 31 H       -5.9990     4.8470    -0.3410 H     1 <1>   0.0800 
 32 H       -8.7730     2.5280     1.5620 H     1 <1>   0.0800 
 33 H       -9.5850     1.5800     0.3410 H     1 <1>   0.0800 
 34 H       -8.3560     5.5120    -0.6110 H     1 <1>   0.0800 
 35 H       -8.0240     4.8890     0.9880 H     1 <1>   0.0800 
 36 H       -9.1810     3.3500    -1.2440 H     1 <1>   0.4500 
 37 H      -10.5950     5.1130    -0.2680 H     1 <1>   0.0800 
 38 H      -10.5630     4.1890     1.2130 H     1 <1>   0.0800 
 39 H      -11.5690     2.2610     0.0350 H     1 <1>   0.0800 
 40 H      -11.4880     3.1320    -1.4810 H     1 <1>   0.0800 
 41 H      -13.1370     3.9550     0.9290 H     1 <1>   0.0800 
 42 H      -13.7490     3.2210    -0.5290 H     1 <1>   0.0800 
 43 H      -13.0630     4.8230    -0.5900 H     1 <1>   0.0800 
@<TRIPOS>BOND
  1   1   2  1   
  2   2   3  ar  
  3   2   4  ar  
  4   3   5  1   
  5   3   6  ar  
  6   4   7  ar  
  7   4  21  1   
  8   5   8  am  
  9   5  22  1   
 10   6   9  ar  
 11   6  23  1   
 12   7   9  ar  
 13   7  24  1   
 14   8  10  2   
 15   8  11  am  
 16   9  25  1   
 17  11  12  1   
 18  11  26  1   
 19  12  13  1   
 20  12  14  1   
 21  12  27  1   
 22  13  15  1   
 23  13  28  1   
 24  13  29  1   
 25  14  16  1   
 26  14  30  1   
 27  14  31  1   
 28  15  17  1   
 29  15  32  1   
 30  15  33  1   
 31  16  17  1   
 32  16  34  1   
 33  16  35  1   
 34  17  18  1   
 35  17  36  1   
 36  18  19  1   
 37  18  37  1   
 38  18  38  1   
 39  19  20  1   
 40  19  39  1   
 41  19  40  1   
 42  20  41  1   
 43  20  42  1   
 44  20  43  1   
@<TRIPOS>SUBSTRUCTURE
  1 ****  11 GROUP 4 **** **** 0

# MOE 2024.06 (io_trps.svl 2023.06)
