@<TRIPOS>MOLECULE
NONAME
38 40 1 0 0 
SMALL
USER_CHARGES


@<TRIPOS>ATOM
  1 S       -0.3400    -0.5500     0.5160 S.3   1 <1>  -0.0800 
  2 C       -1.9210    -0.5800    -0.2750 C.2   1 <1>   0.0410 
  3 C        0.3750     0.3850    -0.7830 C.2   1 <1>  -0.1100 
  4 C       -3.0410    -1.2420     0.3470 C.2   1 <1>   0.2880 
  5 C       -1.8330     0.1140    -1.4360 C.2   1 <1>  -0.1500 
  6 C       -0.5440     0.6510    -1.7280 C.2   1 <1>  -0.1500 
  7 N       -4.2650    -0.8010     0.1840 N.2   1 <1>  -0.7070 
  8 C       -3.0240    -2.3820     1.1740 C.2   1 <1>  -0.0860 
  9 N       -5.0390    -1.5880     0.9400 N.pl3 1 <1>   0.3140 
 10 C       -1.8990    -3.2020     1.5410 C.2   1 <1>   0.7160 
 11 C       -4.3230    -2.5430     1.5390 C.2   1 <1>  -0.3020 
 12 C       -6.4900    -1.3640     1.0710 C.3   1 <1>   0.0960 
 13 O       -1.6970    -3.4330     2.7190 O.2   1 <1>  -0.5700 
 14 N       -1.0700    -3.7750     0.5990 N.am  1 <1>  -0.6600 
 15 C       -7.1370    -1.1670    -0.3030 C.3   1 <1>   0.0400 
 16 C        0.2160    -4.4380     0.9690 C.3   1 <1>   0.1400 
 17 C       -1.3530    -3.8110    -0.8670 C.3   1 <1>   0.1400 
 18 C       -8.6070    -1.0350    -0.1500 C.1   1 <1>   0.3570 
 19 C        0.3290    -5.8180     0.3020 C.3   1 <1>   0.1200 
 20 C       -1.1390    -5.2270    -1.4300 C.3   1 <1>   0.1200 
 21 N       -9.7300    -0.9480    -0.0010 N.1   1 <1>  -0.5570 
 22 O        0.1240    -5.7160    -1.0790 O.3   1 <1>  -0.5600 
 23 H        1.4170     0.6410    -0.6980 H     1 <1>   0.1500 
 24 H       -2.6630     0.2680    -2.1030 H     1 <1>   0.1500 
 25 H       -0.3670     1.2120    -2.6300 H     1 <1>   0.1500 
 26 H       -4.7420    -3.2880     2.1920 H     1 <1>   0.1500 
 27 H       -6.6420    -0.4910     1.6790 H     1 <1>   0.0800 
 28 H       -6.9250    -2.2120     1.5680 H     1 <1>   0.0800 
 29 H       -6.9300    -2.0100    -0.9360 H     1 <1>   0.0800 
 30 H       -6.7590    -0.2750    -0.7690 H     1 <1>   0.0800 
 31 H        0.2950    -4.5540     2.0360 H     1 <1>   0.0800 
 32 H        1.0350    -3.8210     0.6440 H     1 <1>   0.0800 
 33 H       -0.6910    -3.1280    -1.3710 H     1 <1>   0.0800 
 34 H       -2.3640    -3.5080    -1.0690 H     1 <1>   0.0800 
 35 H       -0.3980    -6.4960     0.7120 H     1 <1>   0.0800 
 36 H        1.3110    -6.2260     0.4600 H     1 <1>   0.0800 
 37 H       -1.1980    -5.2120    -2.5030 H     1 <1>   0.0800 
 38 H       -1.8860    -5.9020    -1.0510 H     1 <1>   0.0800 
@<TRIPOS>BOND
  1   1   2  1   
  2   1   3  1   
  3   2   4  1   
  4   2   5  2   
  5   3   6  2   
  6   3  23  1   
  7   4   7  2   
  8   4   8  1   
  9   5   6  1   
 10   5  24  1   
 11   6  25  1   
 12   7   9  1   
 13   8  10  1   
 14   8  11  2   
 15   9  11  1   
 16   9  12  1   
 17  10  13  2   
 18  10  14  am  
 19  11  26  1   
 20  12  15  1   
 21  12  27  1   
 22  12  28  1   
 23  14  16  1   
 24  14  17  1   
 25  15  18  1   
 26  15  29  1   
 27  15  30  1   
 28  16  19  1   
 29  16  31  1   
 30  16  32  1   
 31  17  20  1   
 32  17  33  1   
 33  17  34  1   
 34  18  21  3   
 35  19  22  1   
 36  19  35  1   
 37  19  36  1   
 38  20  22  1   
 39  20  37  1   
 40  20  38  1   
@<TRIPOS>SUBSTRUCTURE
  1 ****   4 GROUP 4 **** **** 0

# MOE 2024.06 (io_trps.svl 2023.06)
