@<TRIPOS>MOLECULE
NONAME
37 38 1 0 0 
SMALL
USER_CHARGES


@<TRIPOS>ATOM
  1 BR       0.3580    -0.5830    -0.2610 Br    1 <1>  -0.1110 
  2 C       -1.4920    -1.1200    -0.2350 C.ar  1 <1>   0.1110 
  3 C       -1.8990    -2.1290     0.6180 C.ar  1 <1>   0.1600 
  4 C       -2.3870    -0.4900    -1.0700 C.ar  1 <1>  -0.1500 
  5 N       -3.1520    -2.5600     0.7000 N.ar  1 <1>  -0.6200 
  6 C       -3.6890    -0.9350    -0.9870 C.ar  1 <1>  -0.1500 
  7 C       -4.0250    -1.9600    -0.0970 C.ar  1 <1>   0.4270 
  8 N       -5.2900    -2.4820     0.0660 N.am  1 <1>  -0.5470 
  9 C       -6.5060    -2.1370    -0.4520 C.2   1 <1>   0.5690 
 10 O       -6.6690    -1.2220    -1.2220 O.2   1 <1>  -0.5700 
 11 C       -7.7580    -2.9310    -0.0380 C.3   1 <1>   0.4040 
 12 N       -9.0470    -2.1650    -0.2430 N.4   1 <1>  -0.9590 
 13 C       -9.1690    -1.0430     0.7340 C.3   1 <1>   0.3430 
 14 C      -10.2220    -3.0770    -0.3060 C.3   1 <1>   0.3430 
 15 C       -9.9520     0.1070     0.1030 C.3   1 <1>  -0.1600 
 16 C      -11.4860    -2.3630    -0.7890 C.3   1 <1>  -0.1600 
 17 C      -11.4810     0.0090     0.2280 C.3   1 <1>  -0.1600 
 18 C      -12.0780    -1.4060     0.2550 C.3   1 <1>  -0.1600 
 19 H       -1.1650    -2.5960     1.2530 H     1 <1>   0.1500 
 20 H       -2.0800     0.2950    -1.7380 H     1 <1>   0.1500 
 21 H       -4.4320    -0.4850    -1.6160 H     1 <1>   0.1500 
 22 H       -5.2320    -3.2570     0.7260 H     1 <1>   0.3700 
 23 H       -7.6680    -3.2190     0.9950 H     1 <1>   0.0800 
 24 H       -7.7800    -3.8270    -0.6340 H     1 <1>   0.0800 
 25 H       -8.9390    -1.7080    -1.1650 H     1 <1>   0.4500 
 26 H       -8.1850    -0.6750     0.9760 H     1 <1>   0.0800 
 27 H       -9.6420    -1.3710     1.6460 H     1 <1>   0.0800 
 28 H      -10.4050    -3.5090     0.6650 H     1 <1>   0.0800 
 29 H      -10.0090    -3.8810    -0.9920 H     1 <1>   0.0800 
 30 H       -9.6720     0.2090    -0.9320 H     1 <1>   0.0800 
 31 H       -9.6480     1.0190     0.5870 H     1 <1>   0.0800 
 32 H      -12.2220    -3.1260    -0.9780 H     1 <1>   0.0800 
 33 H      -11.3130    -1.8600    -1.7250 H     1 <1>   0.0800 
 34 H      -11.9210     0.5570    -0.5890 H     1 <1>   0.0800 
 35 H      -11.7890     0.5100     1.1310 H     1 <1>   0.0800 
 36 H      -11.9730    -1.8290     1.2400 H     1 <1>   0.0800 
 37 H      -13.1370    -1.3120     0.0740 H     1 <1>   0.0800 
@<TRIPOS>BOND
  1   1   2  1   
  2   2   3  ar  
  3   2   4  ar  
  4   3   5  ar  
  5   3  19  1   
  6   4   6  ar  
  7   4  20  1   
  8   5   7  ar  
  9   6   7  ar  
 10   6  21  1   
 11   7   8  1   
 12   8   9  am  
 13   8  22  1   
 14   9  10  2   
 15   9  11  1   
 16  11  12  1   
 17  11  23  1   
 18  11  24  1   
 19  12  13  1   
 20  12  14  1   
 21  12  25  1   
 22  13  15  1   
 23  13  26  1   
 24  13  27  1   
 25  14  16  1   
 26  14  28  1   
 27  14  29  1   
 28  15  17  1   
 29  15  30  1   
 30  15  31  1   
 31  16  18  1   
 32  16  32  1   
 33  16  33  1   
 34  17  18  1   
 35  17  34  1   
 36  17  35  1   
 37  18  36  1   
 38  18  37  1   
@<TRIPOS>SUBSTRUCTURE
  1 ****   9 GROUP 4 **** **** 0

# MOE 2024.06 (io_trps.svl 2023.06)
