@<TRIPOS>MOLECULE
NONAME
39 40 1 0 0 
SMALL
USER_CHARGES


@<TRIPOS>ATOM
  1 S        0.0190     0.7540    -1.7640 S.3   1 <1>  -0.0800 
  2 C       -1.0220     1.5330    -0.5660 C.2   1 <1>  -0.0450 
  3 C        1.4740     1.1790    -0.8910 C.2   1 <1>  -0.1100 
  4 C       -2.4500     1.5110    -0.7630 C.2   1 <1>   0.7150 
  5 C       -0.2330     2.0590     0.4100 C.2   1 <1>  -0.1500 
  6 C        1.1670     1.8610     0.2260 C.2   1 <1>  -0.1500 
  7 O       -2.9590     0.8910    -1.6760 O.2   1 <1>  -0.5700 
  8 N       -3.2420     2.2190     0.1040 N.am  1 <1>  -0.5470 
  9 C       -4.6380     2.3410     0.1200 C.ar  1 <1>   0.1170 
 10 C       -5.4880     1.2610     0.3570 C.ar  1 <1>  -0.1430 
 11 C       -5.1880     3.5990    -0.0820 C.ar  1 <1>  -0.1500 
 12 C       -6.8570     1.4660     0.3740 C.ar  1 <1>  -0.1500 
 13 C       -4.9550    -0.1450     0.6040 C.3   1 <1>  -0.0970 
 14 C       -6.5570     3.8190    -0.0630 C.ar  1 <1>  -0.1430 
 15 C       -7.4030     2.7320     0.1670 C.ar  1 <1>   0.0830 
 16 C       -7.0520     5.2530    -0.3050 C.3   1 <1>   0.0630 
 17 O       -8.7500     2.9420     0.1820 O.3   1 <1>  -0.3620 
 18 C       -7.7990     5.8190     0.9080 C.3   1 <1>  -0.2400 
 19 C       -7.8910     5.3650    -1.5830 C.3   1 <1>  -0.2400 
 20 C       -9.6710     1.8760     0.2240 C.3   1 <1>   0.0400 
 21 H        2.4150     0.8690    -1.3110 H     1 <1>   0.1500 
 22 H       -0.5880     2.5880     1.2760 H     1 <1>   0.1500 
 23 H        1.8820     2.2360     0.9380 H     1 <1>   0.1500 
 24 H       -2.7440     2.8540     0.7190 H     1 <1>   0.3700 
 25 H       -4.5200     4.4190    -0.2660 H     1 <1>   0.1500 
 26 H       -7.4920     0.6230     0.5550 H     1 <1>   0.1500 
 27 H       -5.6960    -0.7600     1.0800 H     1 <1>   0.0800 
 28 H       -4.6850    -0.6000    -0.3320 H     1 <1>   0.0800 
 29 H       -4.0890    -0.1150     1.2400 H     1 <1>   0.0800 
 30 H       -6.1920     5.8820    -0.4510 H     1 <1>   0.0800 
 31 H       -8.7270     5.3010     1.0680 H     1 <1>   0.0800 
 32 H       -8.0150     6.8620     0.7580 H     1 <1>   0.0800 
 33 H       -7.1950     5.7160     1.7910 H     1 <1>   0.0800 
 34 H       -8.8200     4.8360    -1.4840 H     1 <1>   0.0800 
 35 H       -7.3480     4.9490    -2.4130 H     1 <1>   0.0800 
 36 H       -8.1080     6.3960    -1.7960 H     1 <1>   0.0800 
 37 H      -10.6610     2.2880     0.1440 H     1 <1>   0.0800 
 38 H       -9.5660     1.3600     1.1620 H     1 <1>   0.0800 
 39 H       -9.4810     1.2170    -0.6050 H     1 <1>   0.0800 
@<TRIPOS>BOND
  1   1   2  1   
  2   1   3  1   
  3   2   4  1   
  4   2   5  2   
  5   3   6  2   
  6   3  21  1   
  7   4   7  2   
  8   4   8  am  
  9   5   6  1   
 10   5  22  1   
 11   6  23  1   
 12   8   9  1   
 13   8  24  1   
 14   9  10  ar  
 15   9  11  ar  
 16  10  12  ar  
 17  10  13  1   
 18  11  14  ar  
 19  11  25  1   
 20  12  15  ar  
 21  12  26  1   
 22  13  27  1   
 23  13  28  1   
 24  13  29  1   
 25  14  15  ar  
 26  14  16  1   
 27  15  17  1   
 28  16  18  1   
 29  16  19  1   
 30  16  30  1   
 31  17  20  1   
 32  18  31  1   
 33  18  32  1   
 34  18  33  1   
 35  19  34  1   
 36  19  35  1   
 37  19  36  1   
 38  20  37  1   
 39  20  38  1   
 40  20  39  1   
@<TRIPOS>SUBSTRUCTURE
  1 ****   9 GROUP 4 **** **** 0

# MOE 2024.06 (io_trps.svl 2023.06)
