@<TRIPOS>MOLECULE
NONAME
36 37 1 0 0 
SMALL
USER_CHARGES


@<TRIPOS>ATOM
  1 BR       0.0200     0.0240     0.5720 Br    1 <1>  -0.1110 
  2 C        1.7090     0.9280     0.3380 C.ar  1 <1>   0.1110 
  3 C        1.7430     2.2740     0.0160 C.ar  1 <1>   0.1770 
  4 C        2.8730     0.2030     0.5010 C.ar  1 <1>  -0.1500 
  5 CL       0.2690     3.1910    -0.1860 Cl    1 <1>  -0.1770 
  6 C        2.9570     2.9120    -0.1500 C.ar  1 <1>  -0.1500 
  7 C        4.0870     0.8500     0.3350 C.ar  1 <1>  -0.1500 
  8 C        4.1470     2.2060     0.0040 C.ar  1 <1>   0.1170 
  9 N        5.3580     2.8960    -0.1640 N.am  1 <1>  -0.5470 
 10 C        6.6070     2.4400    -0.4920 C.2   1 <1>   0.5690 
 11 O        6.8430     1.2840    -0.7420 O.2   1 <1>  -0.5700 
 12 C        7.7390     3.4550    -0.5830 C.3   1 <1>  -0.0190 
 13 C        9.1380     2.8200    -0.5010 C.3   1 <1>   0.1400 
 14 C        7.7300     4.5380     0.5150 C.3   1 <1>  -0.0990 
 15 N        9.9520     3.8530     0.1710 N.am  1 <1>  -0.6600 
 16 C        9.1890     4.8130     0.7380 C.2   1 <1>   0.5690 
 17 C       11.4260     3.7910     0.2570 C.3   1 <1>   0.2200 
 18 O        9.5810     5.7750     1.3490 O.2   1 <1>  -0.5700 
 19 C       12.0300     3.9420    -1.1380 C.3   1 <1>  -0.2400 
 20 C       11.8550     2.4810     0.9150 C.3   1 <1>  -0.2400 
 21 H        2.8320    -0.8430     0.7520 H     1 <1>   0.1500 
 22 H        2.9670     3.9550    -0.4030 H     1 <1>   0.1500 
 23 H        4.9950     0.2880     0.4670 H     1 <1>   0.1500 
 24 H        5.2830     3.9070    -0.0650 H     1 <1>   0.3700 
 25 H        7.6680     3.9380    -1.5400 H     1 <1>   0.0800 
 26 H        9.5180     2.5890    -1.4810 H     1 <1>   0.0800 
 27 H        9.1280     1.9290     0.1060 H     1 <1>   0.0800 
 28 H        7.3170     4.1700     1.4370 H     1 <1>   0.0800 
 29 H        7.2200     5.4310     0.2040 H     1 <1>   0.0800 
 30 H       11.7690     4.6110     0.8690 H     1 <1>   0.0800 
 31 H       11.7620     3.1150    -1.7680 H     1 <1>   0.0800 
 32 H       13.1020     3.9800    -1.0650 H     1 <1>   0.0800 
 33 H       11.6900     4.8600    -1.5840 H     1 <1>   0.0800 
 34 H       11.5840     1.6360     0.3090 H     1 <1>   0.0800 
 35 H       11.3940     2.3910     1.8830 H     1 <1>   0.0800 
 36 H       12.9210     2.4740     1.0480 H     1 <1>   0.0800 
@<TRIPOS>BOND
  1   1   2  1   
  2   2   3  ar  
  3   2   4  ar  
  4   3   5  1   
  5   3   6  ar  
  6   4   7  ar  
  7   4  21  1   
  8   6   8  ar  
  9   6  22  1   
 10   7   8  ar  
 11   7  23  1   
 12   8   9  1   
 13   9  10  am  
 14   9  24  1   
 15  10  11  2   
 16  10  12  1   
 17  12  13  1   
 18  12  14  1   
 19  12  25  1   
 20  13  15  1   
 21  13  26  1   
 22  13  27  1   
 23  14  16  1   
 24  14  28  1   
 25  14  29  1   
 26  15  16  am  
 27  15  17  1   
 28  16  18  2   
 29  17  19  1   
 30  17  20  1   
 31  17  30  1   
 32  19  31  1   
 33  19  32  1   
 34  19  33  1   
 35  20  34  1   
 36  20  35  1   
 37  20  36  1   
@<TRIPOS>SUBSTRUCTURE
  1 ****  10 GROUP 4 **** **** 0

# MOE 2024.06 (io_trps.svl 2023.06)
