@<TRIPOS>MOLECULE
NONAME
43 45 1 0 0 
SMALL
USER_CHARGES


@<TRIPOS>ATOM
  1 S        0.1610    -0.5820    -1.4960 S.3   1 <1>  -0.0800 
  2 C       -0.4270    -1.1440     0.0780 C.2   1 <1>  -0.0450 
  3 C        1.7350    -0.1610    -0.8510 C.2   1 <1>  -0.1100 
  4 C       -1.7680    -1.6490     0.1790 C.2   1 <1>   0.4740 
  5 C        0.5810    -0.9870     0.9830 C.2   1 <1>  -0.1500 
  6 C        1.7880    -0.4360     0.4640 C.2   1 <1>  -0.1500 
  7 N       -2.5420    -1.7730    -0.8450 N.2   1 <1>  -0.5030 
  8 C       -2.2130    -2.0220     1.5920 C.3   1 <1>  -0.1790 
  9 N       -3.7880    -2.3160    -0.7510 N.pl3 1 <1>  -0.4870 
 10 C       -4.8570    -1.7200    -1.5960 C.3   1 <1>   0.1100 
 11 C       -3.9330    -3.7960    -0.6120 C.3   1 <1>   0.1100 
 12 C       -6.2520    -2.0960    -1.0700 C.3   1 <1>   0.2090 
 13 C       -5.3290    -4.1680    -0.0860 C.3   1 <1>   0.2090 
 14 N       -6.4030    -3.5780    -0.9400 N.pl3 1 <1>  -0.8380 
 15 C       -7.7030    -4.0290    -0.6700 C.ar  1 <1>   0.1000 
 16 C       -8.4010    -3.7800     0.5270 C.ar  1 <1>   0.0830 
 17 C       -8.3280    -4.7690    -1.6630 C.ar  1 <1>  -0.1500 
 18 O       -7.7800    -3.0470     1.5050 O.3   1 <1>  -0.3630 
 19 C       -9.6900    -4.2800     0.6870 C.ar  1 <1>  -0.1500 
 20 C       -9.6100    -5.2610    -1.4960 C.ar  1 <1>  -0.1500 
 21 C       -8.4500    -2.6840     2.6910 C.3   1 <1>   0.0400 
 22 C      -10.2920    -5.0160    -0.3200 C.ar  1 <1>  -0.1500 
 23 H        2.4570     0.2520    -1.5330 H     1 <1>   0.1500 
 24 H        0.5170    -1.2470     2.0240 H     1 <1>   0.1500 
 25 H        2.6420    -0.2710     1.0970 H     1 <1>   0.1500 
 26 H       -1.8470    -1.3000     2.2960 H     1 <1>   0.0800 
 27 H       -1.8260    -2.9910     1.8450 H     1 <1>   0.0800 
 28 H       -3.2830    -2.0370     1.6830 H     1 <1>   0.0800 
 29 H       -4.7470    -0.6510    -1.6020 H     1 <1>   0.0800 
 30 H       -4.7490    -2.0770    -2.6040 H     1 <1>   0.0800 
 31 H       -3.7890    -4.2520    -1.5750 H     1 <1>   0.0800 
 32 H       -3.1810    -4.1760     0.0530 H     1 <1>   0.0800 
 33 H       -7.0030    -1.7230    -1.7440 H     1 <1>   0.0800 
 34 H       -6.4020    -1.6310    -0.1120 H     1 <1>   0.0800 
 35 H       -5.4310    -3.8100     0.9230 H     1 <1>   0.0800 
 36 H       -5.4360    -5.2380    -0.0740 H     1 <1>   0.0800 
 37 H       -7.7910    -4.9560    -2.5740 H     1 <1>   0.1500 
 38 H      -10.2490    -4.1110     1.5870 H     1 <1>   0.1500 
 39 H      -10.0720    -5.8320    -2.2820 H     1 <1>   0.1500 
 40 H       -7.7810    -2.0840     3.2800 H     1 <1>   0.0800 
 41 H       -8.7130    -3.5760     3.2310 H     1 <1>   0.0800 
 42 H       -9.3250    -2.1120     2.4360 H     1 <1>   0.0800 
 43 H      -11.2890    -5.3980    -0.1870 H     1 <1>   0.1500 
@<TRIPOS>BOND
  1   1   2  1   
  2   1   3  1   
  3   2   4  1   
  4   2   5  2   
  5   3   6  2   
  6   3  23  1   
  7   4   7  2   
  8   4   8  1   
  9   5   6  1   
 10   5  24  1   
 11   6  25  1   
 12   7   9  1   
 13   8  26  1   
 14   8  27  1   
 15   8  28  1   
 16   9  10  1   
 17   9  11  1   
 18  10  12  1   
 19  10  29  1   
 20  10  30  1   
 21  11  13  1   
 22  11  31  1   
 23  11  32  1   
 24  12  14  1   
 25  12  33  1   
 26  12  34  1   
 27  13  14  1   
 28  13  35  1   
 29  13  36  1   
 30  14  15  1   
 31  15  16  ar  
 32  15  17  ar  
 33  16  18  1   
 34  16  19  ar  
 35  17  20  ar  
 36  17  37  1   
 37  18  21  1   
 38  19  22  ar  
 39  19  38  1   
 40  20  22  ar  
 41  20  39  1   
 42  21  40  1   
 43  21  41  1   
 44  21  42  1   
 45  22  43  1   
@<TRIPOS>SUBSTRUCTURE
  1 ****   9 GROUP 4 **** **** 0

# MOE 2024.06 (io_trps.svl 2023.06)
