@<TRIPOS>MOLECULE
NONAME
42 43 1 0 0 
SMALL
USER_CHARGES


@<TRIPOS>ATOM
  1 CL       0.1710    -0.7750    -0.2770 Cl    1 <1>  -0.1770 
  2 C       -1.5260    -1.1890    -0.3000 C.ar  1 <1>   0.1770 
  3 C       -1.9490    -2.4210     0.1650 C.ar  1 <1>   0.1600 
  4 C       -2.4430    -0.2840    -0.7850 C.ar  1 <1>  -0.1500 
  5 N       -3.2150    -2.8190     0.1850 N.ar  1 <1>  -0.6200 
  6 C       -3.7610    -0.6870    -0.7690 C.ar  1 <1>  -0.1500 
  7 C       -4.1040    -1.9490    -0.2780 C.ar  1 <1>   0.4270 
  8 N       -5.3880    -2.4460    -0.2190 N.am  1 <1>  -0.5470 
  9 C       -6.6120    -1.8970    -0.4760 C.2   1 <1>   0.5690 
 10 O       -6.7530    -0.7510    -0.8320 O.2   1 <1>  -0.5700 
 11 C       -7.8450    -2.8030    -0.2840 C.3   1 <1>   0.1710 
 12 N       -9.1610    -2.1130    -0.1290 N.3   1 <1>  -0.8100 
 13 C      -10.3130    -3.0410    -0.1510 C.3   1 <1>   0.1100 
 14 C       -9.2210    -1.2250     1.0590 C.3   1 <1>   0.1100 
 15 C      -11.6660    -2.2900    -0.0390 C.3   1 <1>   0.3430 
 16 C      -10.5430    -0.4210     1.1140 C.3   1 <1>   0.3430 
 17 N      -11.4620    -0.8040    -0.0130 N.4   1 <1>  -0.9590 
 18 C      -12.7330    -0.0370    -0.0750 C.3   1 <1>   0.3430 
 19 C      -12.4580     1.4270    -0.4240 C.3   1 <1>  -0.1600 
 20 C      -13.7680     2.2000    -0.6150 C.3   1 <1>  -0.2400 
 21 H       -1.2070    -3.1070     0.5370 H     1 <1>   0.1500 
 22 H       -2.1370     0.6790    -1.1540 H     1 <1>   0.1500 
 23 H       -4.5150    -0.0200    -1.1400 H     1 <1>   0.1500 
 24 H       -5.3640    -3.4100     0.1030 H     1 <1>   0.3700 
 25 H       -7.6770    -3.4280     0.5750 H     1 <1>   0.0800 
 26 H       -7.8970    -3.4410    -1.1480 H     1 <1>   0.0800 
 27 H      -10.2330    -3.7490     0.6560 H     1 <1>   0.0800 
 28 H      -10.3030    -3.5970    -1.0740 H     1 <1>   0.0800 
 29 H       -8.4050    -0.5220     1.0370 H     1 <1>   0.0800 
 30 H       -9.1200    -1.8070     1.9590 H     1 <1>   0.0800 
 31 H      -12.1730    -2.6060     0.8570 H     1 <1>   0.0800 
 32 H      -12.2840    -2.5610    -0.8790 H     1 <1>   0.0800 
 33 H      -10.3060     0.6280     1.0510 H     1 <1>   0.0800 
 34 H      -11.0250    -0.5920     2.0620 H     1 <1>   0.0800 
 35 H      -10.8940    -0.6180    -0.8560 H     1 <1>   0.4500 
 36 H      -13.2500    -0.0980     0.8690 H     1 <1>   0.0800 
 37 H      -13.3690    -0.4580    -0.8360 H     1 <1>   0.0800 
 38 H      -11.8910     1.4830    -1.3380 H     1 <1>   0.0800 
 39 H      -11.8970     1.9020     0.3610 H     1 <1>   0.0800 
 40 H      -14.3500     1.7770    -1.4150 H     1 <1>   0.0800 
 41 H      -13.5560     3.2270    -0.8620 H     1 <1>   0.0800 
 42 H      -14.3560     2.1880     0.2870 H     1 <1>   0.0800 
@<TRIPOS>BOND
  1   1   2  1   
  2   2   3  ar  
  3   2   4  ar  
  4   3   5  ar  
  5   3  21  1   
  6   4   6  ar  
  7   4  22  1   
  8   5   7  ar  
  9   6   7  ar  
 10   6  23  1   
 11   7   8  1   
 12   8   9  am  
 13   8  24  1   
 14   9  10  2   
 15   9  11  1   
 16  11  12  1   
 17  11  25  1   
 18  11  26  1   
 19  12  13  1   
 20  12  14  1   
 21  13  15  1   
 22  13  27  1   
 23  13  28  1   
 24  14  16  1   
 25  14  29  1   
 26  14  30  1   
 27  15  17  1   
 28  15  31  1   
 29  15  32  1   
 30  16  17  1   
 31  16  33  1   
 32  16  34  1   
 33  17  18  1   
 34  17  35  1   
 35  18  19  1   
 36  18  36  1   
 37  18  37  1   
 38  19  20  1   
 39  19  38  1   
 40  19  39  1   
 41  20  40  1   
 42  20  41  1   
 43  20  42  1   
@<TRIPOS>SUBSTRUCTURE
  1 ****  10 GROUP 4 **** **** 0

# MOE 2024.06 (io_trps.svl 2023.06)
