@<TRIPOS>MOLECULE
NONAME
32 33 1 0 0 
SMALL
USER_CHARGES


@<TRIPOS>ATOM
  1 N       -8.6870     3.8840     0.4020 N.1   1 <1>  -0.5570 
  2 C       -7.8040     3.1820     0.2470 C.1   1 <1>   0.5370 
  3 C       -6.5050     2.6250     0.0500 C.2   1 <1>  -0.1320 
  4 N       -5.3950     3.1780     0.6480 N.pl3 1 <1>   0.0480 
  5 C       -6.1090     1.5920    -0.7380 C.2   1 <1>  -0.1500 
  6 C       -4.2870     2.5000     0.2050 C.ar  1 <1>  -0.1520 
  7 C       -5.3800     4.3100     1.6070 C.3   1 <1>   0.0960 
  8 C       -4.7070     1.4960    -0.6620 C.ar  1 <1>   0.0000 
  9 C       -2.9250     2.6690     0.4840 C.ar  1 <1>  -0.1500 
 10 C       -5.2410     5.6770     0.9110 C.3   1 <1>   0.3430 
 11 C       -3.7690     0.6510    -1.2610 C.ar  1 <1>  -0.1500 
 12 C       -2.0120     1.8330    -0.1140 C.ar  1 <1>  -0.1500 
 13 N       -6.3200     5.9790    -0.0970 N.4   1 <1>  -0.9590 
 14 C       -2.4330     0.8230    -0.9870 C.ar  1 <1>  -0.1500 
 15 C       -5.9250     5.5420    -1.4780 C.3   1 <1>   0.2630 
 16 C       -6.6530     7.4370    -0.1080 C.3   1 <1>   0.2630 
 17 H       -6.7190     0.9430    -1.3440 H     1 <1>   0.1500 
 18 H       -4.5520     4.1720     2.2790 H     1 <1>   0.0800 
 19 H       -6.2760     4.2900     2.2010 H     1 <1>   0.0800 
 20 H       -2.5890     3.4350     1.1590 H     1 <1>   0.1500 
 21 H       -4.2740     5.7350     0.4380 H     1 <1>   0.0800 
 22 H       -5.2630     6.4310     1.6810 H     1 <1>   0.0800 
 23 H       -4.1040    -0.1240    -1.9280 H     1 <1>   0.1500 
 24 H       -0.9590     1.9410     0.0860 H     1 <1>   0.1500 
 25 H       -7.1920     5.4760     0.1650 H     1 <1>   0.4500 
 26 H       -1.6970     0.1810    -1.4390 H     1 <1>   0.1500 
 27 H       -5.0610     6.0920    -1.8140 H     1 <1>   0.0800 
 28 H       -6.7340     5.7170    -2.1690 H     1 <1>   0.0800 
 29 H       -5.6870     4.4910    -1.4940 H     1 <1>   0.0800 
 30 H       -5.7900     8.0190    -0.3880 H     1 <1>   0.0800 
 31 H       -6.9840     7.7540     0.8680 H     1 <1>   0.0800 
 32 H       -7.4450     7.6320    -0.8140 H     1 <1>   0.0800 
@<TRIPOS>BOND
  1   1   2  3   
  2   2   3  1   
  3   3   4  1   
  4   3   5  2   
  5   4   6  1   
  6   4   7  1   
  7   5   8  1   
  8   5  17  1   
  9   6   8  ar  
 10   6   9  ar  
 11   7  10  1   
 12   7  18  1   
 13   7  19  1   
 14   8  11  ar  
 15   9  12  ar  
 16   9  20  1   
 17  10  13  1   
 18  10  21  1   
 19  10  22  1   
 20  11  14  ar  
 21  11  23  1   
 22  12  14  ar  
 23  12  24  1   
 24  13  15  1   
 25  13  16  1   
 26  13  25  1   
 27  14  26  1   
 28  15  27  1   
 29  15  28  1   
 30  15  29  1   
 31  16  30  1   
 32  16  31  1   
 33  16  32  1   
@<TRIPOS>SUBSTRUCTURE
  1 ****   4 GROUP 4 **** **** 0

# MOE 2024.06 (io_trps.svl 2023.06)
