@<TRIPOS>MOLECULE
NONAME
48 49 1 0 0 
SMALL
USER_CHARGES


@<TRIPOS>ATOM
  1 O        0.7880    -0.8720    -0.5850 O.2   1 <1>  -0.5700 
  2 C        1.6080    -1.1610     0.2630 C.2   1 <1>   0.6340 
  3 O        1.2020    -1.8330     1.3470 O.3   1 <1>  -0.4300 
  4 C        3.0120    -0.8140     0.1590 C.ar  1 <1>   0.0860 
  5 C       -0.1480    -2.2100     1.5270 C.3   1 <1>   0.0400 
  6 C        3.4970    -0.1150    -0.9490 C.ar  1 <1>  -0.1500 
  7 C        3.9390    -1.1570     1.1480 C.ar  1 <1>  -0.1500 
  8 C        4.8310     0.2280    -1.0710 C.ar  1 <1>  -0.1500 
  9 C        5.2740    -0.8190     1.0350 C.ar  1 <1>  -0.1500 
 10 C        5.7330    -0.1250    -0.0720 C.ar  1 <1>   0.0830 
 11 O        7.0500     0.1690    -0.1100 O.3   1 <1>  -0.3620 
 12 C        7.6210     0.8850    -1.1990 C.3   1 <1>   0.1810 
 13 C        9.1150     1.0930    -1.0020 C.2   1 <1>   0.5690 
 14 O        9.7430     1.6000    -1.9000 O.2   1 <1>  -0.5700 
 15 N        9.6800     0.7000     0.1770 N.am  1 <1>  -0.5470 
 16 C       11.0300     0.7330     0.5580 C.ar  1 <1>   0.1170 
 17 C       11.6180     1.9270     0.9890 C.ar  1 <1>  -0.1430 
 18 C       11.7820    -0.4470     0.5330 C.ar  1 <1>  -0.1430 
 19 C       12.9400     1.9300     1.3970 C.ar  1 <1>  -0.1500 
 20 C       10.8520     3.2470     1.0330 C.3   1 <1>  -0.0170 
 21 C       13.1070    -0.4130     0.9480 C.ar  1 <1>  -0.1500 
 22 C       11.1230    -1.7430     0.0380 C.3   1 <1>  -0.0170 
 23 C       13.6830     0.7660     1.3790 C.ar  1 <1>  -0.1500 
 24 C       10.0300     3.3610     2.3200 C.3   1 <1>  -0.2400 
 25 C       12.0110    -2.9930     0.0290 C.3   1 <1>  -0.2400 
 26 H       -0.2340    -2.7340     2.4620 H     1 <1>   0.0800 
 27 H       -0.4420    -2.8500     0.7130 H     1 <1>   0.0800 
 28 H       -0.7580    -1.3230     1.5400 H     1 <1>   0.0800 
 29 H        2.8080     0.1640    -1.7290 H     1 <1>   0.1500 
 30 H        3.6090    -1.6960     2.0190 H     1 <1>   0.1500 
 31 H        5.1420     0.7660    -1.9470 H     1 <1>   0.1500 
 32 H        5.9690    -1.0930     1.8080 H     1 <1>   0.1500 
 33 H        7.1380     1.8420    -1.2700 H     1 <1>   0.0800 
 34 H        7.4590     0.3220    -2.0990 H     1 <1>   0.0800 
 35 H        9.0400     0.2450     0.8300 H     1 <1>   0.3700 
 36 H       13.4030     2.8410     1.7330 H     1 <1>   0.1500 
 37 H       10.2090     3.3360     0.1760 H     1 <1>   0.0800 
 38 H       11.5450     4.0680     0.9850 H     1 <1>   0.0800 
 39 H       13.7180    -1.2960     0.9440 H     1 <1>   0.1500 
 40 H       10.7700    -1.5770    -0.9650 H     1 <1>   0.0800 
 41 H       10.2650    -1.9470     0.6550 H     1 <1>   0.0800 
 42 H       14.7100     0.7790     1.6970 H     1 <1>   0.1500 
 43 H        9.3070     2.5670     2.3720 H     1 <1>   0.0800 
 44 H        9.5120     4.3030     2.3460 H     1 <1>   0.0800 
 45 H       10.6760     3.2960     3.1770 H     1 <1>   0.0800 
 46 H       12.8590    -2.8450    -0.6150 H     1 <1>   0.0800 
 47 H       11.4510    -3.8350    -0.3370 H     1 <1>   0.0800 
 48 H       12.3530    -3.2190     1.0240 H     1 <1>   0.0800 
@<TRIPOS>BOND
  1   1   2  2   
  2   2   3  1   
  3   2   4  1   
  4   3   5  1   
  5   4   6  ar  
  6   4   7  ar  
  7   5  26  1   
  8   5  27  1   
  9   5  28  1   
 10   6   8  ar  
 11   6  29  1   
 12   7   9  ar  
 13   7  30  1   
 14   8  10  ar  
 15   8  31  1   
 16   9  10  ar  
 17   9  32  1   
 18  10  11  1   
 19  11  12  1   
 20  12  13  1   
 21  12  33  1   
 22  12  34  1   
 23  13  14  2   
 24  13  15  am  
 25  15  16  1   
 26  15  35  1   
 27  16  17  ar  
 28  16  18  ar  
 29  17  19  ar  
 30  17  20  1   
 31  18  21  ar  
 32  18  22  1   
 33  19  23  ar  
 34  19  36  1   
 35  20  24  1   
 36  20  37  1   
 37  20  38  1   
 38  21  23  ar  
 39  21  39  1   
 40  22  25  1   
 41  22  40  1   
 42  22  41  1   
 43  23  42  1   
 44  24  43  1   
 45  24  44  1   
 46  24  45  1   
 47  25  46  1   
 48  25  47  1   
 49  25  48  1   
@<TRIPOS>SUBSTRUCTURE
  1 ****  11 GROUP 4 **** **** 0

# MOE 2024.06 (io_trps.svl 2023.06)
