@<TRIPOS>MOLECULE
NONAME
34 35 1 0 0 
SMALL
USER_CHARGES


@<TRIPOS>ATOM
  1 O        2.0530    -0.2140    -1.7960 O.2   1 <1>  -0.5700 
  2 C        1.9560    -0.1840    -0.5920 C.2   1 <1>   0.5690 
  3 N        1.1870    -1.1340    -0.0020 N.am  1 <1>  -0.8000 
  4 C        2.7230     0.8680     0.2820 C.3   1 <1>   0.4300 
  5 N        3.7580     0.1670     1.1190 N.pl3 1 <1>  -0.8690 
  6 C        1.7710     1.5330     1.3020 C.3   1 <1>  -0.1600 
  7 C        3.3670     1.9960    -0.5680 C.3   1 <1>  -0.1600 
  8 C        5.0820     0.1330     0.7020 C.ar  1 <1>   0.1000 
  9 C        0.7100     2.4290     0.6410 C.3   1 <1>  -0.1600 
 10 C        2.3370     2.9290    -1.2320 C.3   1 <1>  -0.1600 
 11 C        6.0270     0.9430     1.3170 C.ar  1 <1>  -0.1500 
 12 C        5.4850    -0.7120    -0.3250 C.ar  1 <1>  -0.1500 
 13 C        1.3740     3.5250    -0.1990 C.3   1 <1>  -0.1600 
 14 C        7.3500     0.9140     0.9140 C.ar  1 <1>  -0.1500 
 15 C        6.8060    -0.7440    -0.7310 C.ar  1 <1>  -0.1500 
 16 C        7.7410     0.0700    -0.1120 C.ar  1 <1>  -0.1500 
 17 H        0.7040    -1.8120    -0.5930 H     1 <1>   0.3700 
 18 H        1.0040    -1.1820     0.9990 H     1 <1>   0.3700 
 19 H        3.4190    -0.7840     1.2850 H     1 <1>   0.4000 
 20 H        2.3590     2.1410     1.9680 H     1 <1>   0.0800 
 21 H        1.2830     0.7850     1.8970 H     1 <1>   0.0800 
 22 H        3.9830     1.5630    -1.3360 H     1 <1>   0.0800 
 23 H        3.9980     2.5930     0.0660 H     1 <1>   0.0800 
 24 H        0.0990     2.8840     1.4020 H     1 <1>   0.0800 
 25 H        0.0660     1.8360     0.0130 H     1 <1>   0.0800 
 26 H        1.7740     2.3830    -1.9700 H     1 <1>   0.0800 
 27 H        2.8520     3.7230    -1.7430 H     1 <1>   0.0800 
 28 H        5.7120     1.5920     2.1130 H     1 <1>   0.1500 
 29 H        4.7590    -1.3390    -0.8110 H     1 <1>   0.1500 
 30 H        1.9190     4.1900     0.4500 H     1 <1>   0.0800 
 31 H        0.6190     4.1040    -0.7020 H     1 <1>   0.0800 
 32 H        8.0730     1.5470     1.3970 H     1 <1>   0.1500 
 33 H        7.1070    -1.3990    -1.5290 H     1 <1>   0.1500 
 34 H        8.7690     0.0460    -0.4280 H     1 <1>   0.1500 
@<TRIPOS>BOND
  1   1   2  2   
  2   2   3  am  
  3   2   4  1   
  4   3  17  1   
  5   3  18  1   
  6   4   5  1   
  7   4   6  1   
  8   4   7  1   
  9   5   8  1   
 10   5  19  1   
 11   6   9  1   
 12   6  20  1   
 13   6  21  1   
 14   7  10  1   
 15   7  22  1   
 16   7  23  1   
 17   8  11  ar  
 18   8  12  ar  
 19   9  13  1   
 20   9  24  1   
 21   9  25  1   
 22  10  13  1   
 23  10  26  1   
 24  10  27  1   
 25  11  14  ar  
 26  11  28  1   
 27  12  15  ar  
 28  12  29  1   
 29  13  30  1   
 30  13  31  1   
 31  14  16  ar  
 32  14  32  1   
 33  15  16  ar  
 34  15  33  1   
 35  16  34  1   
@<TRIPOS>SUBSTRUCTURE
  1 ****   4 GROUP 4 **** **** 0

# MOE 2024.06 (io_trps.svl 2023.06)
