@<TRIPOS>MOLECULE
NONAME
51 53 1 0 0 
SMALL
USER_CHARGES


@<TRIPOS>ATOM
  1 O       -0.0340     1.0340    -0.3540 O.3   1 <1>  -0.3630 
  2 C       -1.0700     1.1780     0.5160 C.ar  1 <1>   0.0830 
  3 C        1.2950     1.0110     0.1200 C.3   1 <1>   0.2640 
  4 C       -1.0650     2.0070     1.6490 C.ar  1 <1>   0.0830 
  5 C       -2.1980     0.4340     0.2130 C.ar  1 <1>  -0.1500 
  6 C        2.1500     0.2290    -0.8660 C.ar  1 <1>  -0.1440 
  7 O        0.0350     2.7670     1.9240 O.3   1 <1>  -0.3630 
  8 C       -2.2000     2.0440     2.4560 C.ar  1 <1>  -0.1500 
  9 C       -3.3260     0.4830     1.0150 C.ar  1 <1>  -0.1440 
 10 C        2.5320     0.8070    -2.0670 C.ar  1 <1>  -0.1500 
 11 C        2.5560    -1.0640    -0.5740 C.ar  1 <1>  -0.1500 
 12 C        0.0560     3.7000     2.9820 C.3   1 <1>   0.0400 
 13 C       -3.3170     1.2900     2.1400 C.ar  1 <1>  -0.1500 
 14 C       -4.5600    -0.3330     0.6610 C.3   1 <1>   0.2530 
 15 C        3.3160     0.1030    -2.9640 C.ar  1 <1>  -0.1500 
 16 C        3.3400    -1.7700    -1.4710 C.ar  1 <1>  -0.1500 
 17 N       -5.6630     0.5510     0.2330 N.3   1 <1>  -0.8100 
 18 C        3.7220    -1.1860    -2.6660 C.ar  1 <1>  -0.1500 
 19 C       -5.2960     1.3650    -0.9560 C.3   1 <1>   0.1100 
 20 C       -6.9040    -0.2150    -0.0220 C.3   1 <1>   0.1100 
 21 C       -6.4660     2.2410    -1.4660 C.3   1 <1>   0.3430 
 22 C       -8.0870     0.7010    -0.4270 C.3   1 <1>   0.3430 
 23 N       -7.6540     2.1330    -0.5570 N.4   1 <1>  -0.9590 
 24 C       -8.7630     3.0640    -0.9100 C.3   1 <1>   0.2630 
 25 H        1.6440     2.0240     0.1970 H     1 <1>   0.0800 
 26 H        1.3080     0.5460     1.0900 H     1 <1>   0.0800 
 27 H       -2.1740    -0.1870    -0.6640 H     1 <1>   0.1500 
 28 H       -2.2400     2.6550     3.3370 H     1 <1>   0.1500 
 29 H        2.2140     1.8070    -2.3050 H     1 <1>   0.1500 
 30 H        2.2600    -1.5280     0.3500 H     1 <1>   0.1500 
 31 H        1.0080     4.1990     2.9690 H     1 <1>   0.0800 
 32 H       -0.7330     4.4150     2.8330 H     1 <1>   0.0800 
 33 H       -0.0680     3.1750     3.9130 H     1 <1>   0.0800 
 34 H       -4.1870     1.3350     2.7720 H     1 <1>   0.1500 
 35 H       -4.8620    -0.8920     1.5300 H     1 <1>   0.0800 
 36 H       -4.3240    -1.0360    -0.1210 H     1 <1>   0.0800 
 37 H        3.6080     0.5590    -3.8940 H     1 <1>   0.1500 
 38 H        3.6520    -2.7730    -1.2390 H     1 <1>   0.1500 
 39 H        4.3310    -1.7330    -3.3640 H     1 <1>   0.1500 
 40 H       -4.9610     0.7240    -1.7540 H     1 <1>   0.0800 
 41 H       -4.4760     2.0180    -0.7060 H     1 <1>   0.0800 
 42 H       -7.1780    -0.7600     0.8660 H     1 <1>   0.0800 
 43 H       -6.7340    -0.9360    -0.8040 H     1 <1>   0.0800 
 44 H       -6.7350     1.9290    -2.4610 H     1 <1>   0.0800 
 45 H       -6.1350     3.2650    -1.5220 H     1 <1>   0.0800 
 46 H       -8.8590     0.6220     0.3210 H     1 <1>   0.0800 
 47 H       -8.4990     0.3530    -1.3590 H     1 <1>   0.0800 
 48 H       -7.2650     2.3580     0.3750 H     1 <1>   0.4500 
 49 H       -9.1590     2.8230    -1.8830 H     1 <1>   0.0800 
 50 H       -8.4060     4.0810    -0.9240 H     1 <1>   0.0800 
 51 H       -9.5580     2.9900    -0.1850 H     1 <1>   0.0800 
@<TRIPOS>BOND
  1   1   2  1   
  2   1   3  1   
  3   2   4  ar  
  4   2   5  ar  
  5   3   6  1   
  6   3  25  1   
  7   3  26  1   
  8   4   7  1   
  9   4   8  ar  
 10   5   9  ar  
 11   5  27  1   
 12   6  10  ar  
 13   6  11  ar  
 14   7  12  1   
 15   8  13  ar  
 16   8  28  1   
 17   9  13  ar  
 18   9  14  1   
 19  10  15  ar  
 20  10  29  1   
 21  11  16  ar  
 22  11  30  1   
 23  12  31  1   
 24  12  32  1   
 25  12  33  1   
 26  13  34  1   
 27  14  17  1   
 28  14  35  1   
 29  14  36  1   
 30  15  18  ar  
 31  15  37  1   
 32  16  18  ar  
 33  16  38  1   
 34  17  19  1   
 35  17  20  1   
 36  18  39  1   
 37  19  21  1   
 38  19  40  1   
 39  19  41  1   
 40  20  22  1   
 41  20  42  1   
 42  20  43  1   
 43  21  23  1   
 44  21  44  1   
 45  21  45  1   
 46  22  23  1   
 47  22  46  1   
 48  22  47  1   
 49  23  24  1   
 50  23  48  1   
 51  24  49  1   
 52  24  50  1   
 53  24  51  1   
@<TRIPOS>SUBSTRUCTURE
  1 ****   5 GROUP 4 **** **** 0

# MOE 2024.06 (io_trps.svl 2023.06)
