@<TRIPOS>MOLECULE
NONAME
28 28 1 0 0 
SMALL
USER_CHARGES


@<TRIPOS>ATOM
  1 BR       0.4150    -0.1930     0.0040 Br    1 <1>  -0.1110 
  2 C        0.2100     1.7270    -0.0010 C.ar  1 <1>   0.1110 
  3 C        1.3400     2.5350    -0.0040 C.ar  1 <1>   0.0830 
  4 C       -1.0720     2.2410    -0.0020 C.ar  1 <1>  -0.1500 
  5 O        2.5600     1.9330    -0.0030 O.3   1 <1>  -0.3630 
  6 C        1.1570     3.9160    -0.0070 C.ar  1 <1>  -0.1500 
  7 C       -1.2360     3.6160    -0.0050 C.ar  1 <1>  -0.1500 
  8 C        3.7530     2.6730    -0.0060 C.3   1 <1>   0.1200 
  9 C       -0.1250     4.4460    -0.0080 C.ar  1 <1>  -0.1500 
 10 C        4.8980     1.6570    -0.0040 C.3   1 <1>   0.3430 
 11 N        6.2370     2.3200    -0.0060 N.4   1 <1>  -0.9060 
 12 C        7.3390     1.3330    -0.0040 C.3   1 <1>   0.3430 
 13 C        8.6560     2.0950    -0.0070 C.3   1 <1>  -0.2400 
 14 H       -1.9220     1.5820     0.0010 H     1 <1>   0.1500 
 15 H        1.9860     4.5970    -0.0090 H     1 <1>   0.1500 
 16 H       -2.2260     4.0400    -0.0050 H     1 <1>   0.1500 
 17 H        3.7700     3.2820     0.8810 H     1 <1>   0.0800 
 18 H        3.7690     3.2780    -0.8950 H     1 <1>   0.0800 
 19 H       -0.2640     5.5150    -0.0100 H     1 <1>   0.1500 
 20 H        4.8020     1.0310    -0.8760 H     1 <1>   0.0800 
 21 H        4.8030     1.0360     0.8730 H     1 <1>   0.0800 
 22 H        6.3360     2.9250     0.8200 H     1 <1>   0.4500 
 23 H        6.3350     2.9200    -0.8350 H     1 <1>   0.4500 
 24 H        7.2790     0.7040    -0.8790 H     1 <1>   0.0800 
 25 H        7.2800     0.7080     0.8740 H     1 <1>   0.0800 
 26 H        8.7490     2.7040    -0.8880 H     1 <1>   0.0800 
 27 H        9.4710     1.3920    -0.0050 H     1 <1>   0.0800 
 28 H        8.7500     2.7090     0.8720 H     1 <1>   0.0800 
@<TRIPOS>BOND
  1   1   2  1   
  2   2   3  ar  
  3   2   4  ar  
  4   3   5  1   
  5   3   6  ar  
  6   4   7  ar  
  7   4  14  1   
  8   5   8  1   
  9   6   9  ar  
 10   6  15  1   
 11   7   9  ar  
 12   7  16  1   
 13   8  10  1   
 14   8  17  1   
 15   8  18  1   
 16   9  19  1   
 17  10  11  1   
 18  10  20  1   
 19  10  21  1   
 20  11  12  1   
 21  11  22  1   
 22  11  23  1   
 23  12  13  1   
 24  12  24  1   
 25  12  25  1   
 26  13  26  1   
 27  13  27  1   
 28  13  28  1   
@<TRIPOS>SUBSTRUCTURE
  1 ****   5 GROUP 4 **** **** 0

# MOE 2024.06 (io_trps.svl 2023.06)
