@<TRIPOS>MOLECULE
NONAME
44 45 1 0 0 
SMALL
USER_CHARGES


@<TRIPOS>ATOM
  1 CL       0.5900    -0.9300    -2.2270 Cl    1 <1>  -0.1770 
  2 C        1.6820    -1.3630    -0.9300 C.ar  1 <1>   0.1770 
  3 C        1.3950    -2.4400    -0.0990 C.ar  1 <1>   0.0820 
  4 C        2.8260    -0.6070    -0.7650 C.ar  1 <1>  -0.1500 
  5 O        0.2530    -3.1410    -0.3190 O.3   1 <1>  -0.3630 
  6 C        2.2970    -2.7440     0.9170 C.ar  1 <1>  -0.1500 
  7 C        3.7320    -0.9060     0.2450 C.ar  1 <1>  -0.0090 
  8 C       -0.1230    -4.2300     0.4910 C.3   1 <1>   0.1200 
  9 C        3.4440    -1.9840     1.0770 C.ar  1 <1>  -0.1500 
 10 S        5.2570     0.0510     0.4510 S.o2  1 <1>   1.4470 
 11 C       -1.4540    -4.7650    -0.0280 C.3   1 <1>  -0.2400 
 12 O        5.6560     0.1120     1.8380 O.2   1 <1>  -0.6500 
 13 O        5.2610     1.2380    -0.3680 O.2   1 <1>  -0.6500 
 14 N        6.4170    -0.8910    -0.3150 N.am  1 <1>  -0.9140 
 15 C        7.7710    -0.4940     0.0620 C.3   1 <1>   0.1960 
 16 C        8.8190    -1.4110    -0.5940 C.3   1 <1>   0.3430 
 17 N       10.2080    -1.1620    -0.0870 N.4   1 <1>  -0.9590 
 18 C       10.7510     0.2150    -0.3690 C.3   1 <1>   0.3430 
 19 C       11.1830    -2.2070    -0.5550 C.3   1 <1>   0.3430 
 20 C       12.2010     0.3690     0.1460 C.3   1 <1>   0.1200 
 21 C       12.6010    -1.9470     0.0060 C.3   1 <1>   0.1200 
 22 O       12.6290    -0.7940     0.8030 O.3   1 <1>  -0.5600 
 23 H        3.0030     0.2200    -1.4320 H     1 <1>   0.1500 
 24 H        2.1240    -3.5640     1.5890 H     1 <1>   0.1500 
 25 H       -0.2220    -3.8840     1.5050 H     1 <1>   0.0800 
 26 H        0.6410    -4.9850     0.4250 H     1 <1>   0.0800 
 27 H        4.1320    -2.2320     1.8690 H     1 <1>   0.1500 
 28 H       -2.2070    -3.9990     0.0260 H     1 <1>   0.0800 
 29 H       -1.7710    -5.6000     0.5700 H     1 <1>   0.0800 
 30 H       -1.3490    -5.0930    -1.0470 H     1 <1>   0.0800 
 31 H        6.2660    -0.6500    -1.2960 H     1 <1>   0.4200 
 32 H        7.8770    -0.5780     1.1320 H     1 <1>   0.0800 
 33 H        7.9350     0.5320    -0.2240 H     1 <1>   0.0800 
 34 H        8.7930    -1.2710    -1.6620 H     1 <1>   0.0800 
 35 H        8.5450    -2.4310    -0.3800 H     1 <1>   0.0800 
 36 H       10.2250    -1.2470     0.9440 H     1 <1>   0.4500 
 37 H       10.1350     0.9610     0.1060 H     1 <1>   0.0800 
 38 H       10.7360     0.4090    -1.4290 H     1 <1>   0.0800 
 39 H       11.2300    -2.2130    -1.6320 H     1 <1>   0.0800 
 40 H       10.8570    -3.1850    -0.2400 H     1 <1>   0.0800 
 41 H       12.2610     1.1830     0.8480 H     1 <1>   0.0800 
 42 H       12.8770     0.5750    -0.6660 H     1 <1>   0.0800 
 43 H       13.3140    -1.8320    -0.7930 H     1 <1>   0.0800 
 44 H       12.9160    -2.7750     0.6180 H     1 <1>   0.0800 
@<TRIPOS>BOND
  1   1   2  1   
  2   2   3  ar  
  3   2   4  ar  
  4   3   5  1   
  5   3   6  ar  
  6   4   7  ar  
  7   4  23  1   
  8   5   8  1   
  9   6   9  ar  
 10   6  24  1   
 11   7   9  ar  
 12   7  10  1   
 13   8  11  1   
 14   8  25  1   
 15   8  26  1   
 16   9  27  1   
 17  10  12  2   
 18  10  13  2   
 19  10  14  am  
 20  11  28  1   
 21  11  29  1   
 22  11  30  1   
 23  14  15  1   
 24  14  31  1   
 25  15  16  1   
 26  15  32  1   
 27  15  33  1   
 28  16  17  1   
 29  16  34  1   
 30  16  35  1   
 31  17  18  1   
 32  17  19  1   
 33  17  36  1   
 34  18  20  1   
 35  18  37  1   
 36  18  38  1   
 37  19  21  1   
 38  19  39  1   
 39  19  40  1   
 40  20  22  1   
 41  20  41  1   
 42  20  42  1   
 43  21  22  1   
 44  21  43  1   
 45  21  44  1   
@<TRIPOS>SUBSTRUCTURE
  1 ****  14 GROUP 4 **** **** 0

# MOE 2024.06 (io_trps.svl 2023.06)
