@<TRIPOS>MOLECULE
NONAME
26 26 1 0 0 
SMALL
USER_CHARGES


@<TRIPOS>ATOM
  1 F        0.1750     0.1420    -0.1270 F     1 <1>  -0.3400 
  2 C        0.6780    -1.0710     0.0680 C.3   1 <1>   1.1640 
  3 F        0.1950    -1.4920     1.2300 F     1 <1>  -0.3400 
  4 F        0.1420    -1.8510    -0.8610 F     1 <1>  -0.3400 
  5 C        2.2000    -1.1070     0.0370 C.ar  1 <1>  -0.1440 
  6 C        2.8350    -2.3240     0.2220 C.ar  1 <1>   0.1600 
  7 C        2.9830     0.0200    -0.1700 C.ar  1 <1>  -0.1500 
  8 N        4.1440    -2.5090     0.2230 N.ar  1 <1>  -0.6200 
  9 C        4.3460    -0.1590    -0.1740 C.ar  1 <1>  -0.1500 
 10 C        4.8780    -1.4290     0.0290 C.ar  1 <1>   0.4100 
 11 N        6.2190    -1.6680     0.0400 N.pl3 1 <1>  -0.8690 
 12 C        7.1430    -0.8100     0.8240 C.3   1 <1>   0.2090 
 13 C        8.0680    -0.0440    -0.1210 C.3   1 <1>   0.1200 
 14 O        8.8680     0.8110     0.6340 O.3   1 <1>  -0.5600 
 15 C        9.7630     1.5580    -0.1240 C.3   1 <1>   0.0400 
 16 H        2.2360    -3.2060     0.3820 H     1 <1>   0.1500 
 17 H        2.5550     0.9980    -0.3240 H     1 <1>   0.1500 
 18 H        5.0080     0.6690    -0.3360 H     1 <1>   0.1500 
 19 H        6.3820    -2.6680     0.1880 H     1 <1>   0.4000 
 20 H        7.7330    -1.4290     1.4780 H     1 <1>   0.0800 
 21 H        6.5820    -0.1130     1.4220 H     1 <1>   0.0800 
 22 H        7.4890     0.5450    -0.8090 H     1 <1>   0.0800 
 23 H        8.7000    -0.7310    -0.6560 H     1 <1>   0.0800 
 24 H       10.3300     2.1810     0.5450 H     1 <1>   0.0800 
 25 H        9.2160     2.1740    -0.8170 H     1 <1>   0.0800 
 26 H       10.4270     0.8930    -0.6490 H     1 <1>   0.0800 
@<TRIPOS>BOND
  1   1   2  1   
  2   2   3  1   
  3   2   4  1   
  4   2   5  1   
  5   5   6  ar  
  6   5   7  ar  
  7   6   8  ar  
  8   6  16  1   
  9   7   9  ar  
 10   7  17  1   
 11   8  10  ar  
 12   9  10  ar  
 13   9  18  1   
 14  10  11  1   
 15  11  12  1   
 16  11  19  1   
 17  12  13  1   
 18  12  20  1   
 19  12  21  1   
 20  13  14  1   
 21  13  22  1   
 22  13  23  1   
 23  14  15  1   
 24  15  24  1   
 25  15  25  1   
 26  15  26  1   
@<TRIPOS>SUBSTRUCTURE
  1 ****   9 GROUP 4 **** **** 0

# MOE 2024.06 (io_trps.svl 2023.06)
