@<TRIPOS>MOLECULE
NONAME
30 31 1 0 0 
SMALL
USER_CHARGES


@<TRIPOS>ATOM
  1 S       -0.2790    -0.1320     0.4410 S.3   1 <1>  -0.0800 
  2 C       -0.9580     1.4480     0.2200 C.2   1 <1>   0.4420 
  3 C        1.2670     0.5590     0.0890 C.2   1 <1>   0.1980 
  4 N       -0.0660     2.3200    -0.0780 N.2   1 <1>  -0.3380 
  5 N       -2.3230     1.5570     0.3860 N.am  1 <1>  -0.4940 
  6 N        1.2000     1.8060    -0.1510 N.2   1 <1>  -0.3380 
  7 C        2.4690    -0.3720     0.1080 C.3   1 <1>   0.0200 
  8 C       -3.1260     2.6590     0.2790 C.2   1 <1>   0.5770 
  9 C        3.7860     0.3470    -0.2190 C.3   1 <1>  -0.1600 
 10 O       -2.7110     3.7610     0.0300 O.2   1 <1>  -0.5700 
 11 C       -4.6190     2.4650     0.5140 C.3   1 <1>   0.0530 
 12 C        4.9790    -0.6150    -0.1930 C.3   1 <1>  -0.2400 
 13 C       -5.2560     1.2630    -0.2370 C.3   1 <1>   0.0000 
 14 C       -5.5580     3.3760    -0.3240 C.3   1 <1>   0.0000 
 15 C       -6.5070     2.1560    -0.4410 C.3   1 <1>   0.0000 
 16 H       -2.7940     0.6880     0.6170 H     1 <1>   0.3700 
 17 H        2.3040    -1.1570    -0.6080 H     1 <1>   0.0800 
 18 H        2.5390    -0.8180     1.0840 H     1 <1>   0.0800 
 19 H        3.9480     1.1370     0.4960 H     1 <1>   0.0800 
 20 H        3.7130     0.7980    -1.1950 H     1 <1>   0.0800 
 21 H       -4.8820     2.4700     1.5590 H     1 <1>   0.0000 
 22 H        5.0870    -1.0570     0.7820 H     1 <1>   0.0800 
 23 H        5.8840    -0.0810    -0.4250 H     1 <1>   0.0800 
 24 H        4.8510    -1.3980    -0.9190 H     1 <1>   0.0800 
 25 H       -5.4310     0.4030     0.3840 H     1 <1>   0.0000 
 26 H       -4.7620     1.0320    -1.1660 H     1 <1>   0.0000 
 27 H       -5.1400     3.6610    -1.2760 H     1 <1>   0.0000 
 28 H       -5.9740     4.2000     0.2280 H     1 <1>   0.0000 
 29 H       -7.2030     2.0900     0.3790 H     1 <1>   0.0000 
 30 H       -6.9660     2.0510    -1.4080 H     1 <1>   0.0000 
@<TRIPOS>BOND
  1   1   2  1   
  2   1   3  1   
  3   2   4  2   
  4   2   5  1   
  5   3   6  2   
  6   3   7  1   
  7   4   6  1   
  8   5   8  am  
  9   5  16  1   
 10   7   9  1   
 11   7  17  1   
 12   7  18  1   
 13   8  10  2   
 14   8  11  1   
 15   9  12  1   
 16   9  19  1   
 17   9  20  1   
 18  11  13  1   
 19  11  14  1   
 20  11  21  1   
 21  12  22  1   
 22  12  23  1   
 23  12  24  1   
 24  13  15  1   
 25  13  25  1   
 26  13  26  1   
 27  14  15  1   
 28  14  27  1   
 29  14  28  1   
 30  15  29  1   
 31  15  30  1   
@<TRIPOS>SUBSTRUCTURE
  1 ****   2 GROUP 4 **** **** 0

# MOE 2024.06 (io_trps.svl 2023.06)
