@<TRIPOS>MOLECULE
NONAME
38 40 1 0 0 
SMALL
USER_CHARGES


@<TRIPOS>ATOM
  1 O       -0.3070     0.9300    -1.5250 O.2   1 <1>  -0.5700 
  2 C       -1.2470     1.3100    -0.8510 C.2   1 <1>   0.5690 
  3 N       -2.4990     0.8190    -0.9810 N.am  1 <1>  -0.3250 
  4 C       -1.1470     2.3610     0.2560 C.3   1 <1>   0.1220 
  5 O       -2.9020    -0.1770    -1.9000 O.3   1 <1>  -0.4360 
  6 C       -3.4420     1.3370     0.0230 C.3   1 <1>   0.4990 
  7 C       -2.5950     2.3600     0.8030 C.2   1 <1>   0.3280 
  8 C       -0.7640     3.7430    -0.3400 C.3   1 <1>  -0.1600 
  9 C       -0.1340     1.9300     1.3510 C.3   1 <1>  -0.1600 
 10 C       -3.8880     0.1530     0.8880 C.2   1 <1>  -0.2880 
 11 C       -4.6490     1.9950    -0.6920 C.3   1 <1>  -0.1600 
 12 N       -3.0940     3.0880     1.7480 N.2   1 <1>  -0.8000 
 13 C        0.7120     3.8450    -0.7610 C.3   1 <1>  -0.1600 
 14 C        1.3380     2.0570     0.9220 C.3   1 <1>  -0.1600 
 15 C       -5.1610    -0.1710     1.1430 C.2   1 <1>  -0.2880 
 16 C       -5.9050     2.0430     0.1960 C.3   1 <1>  -0.1600 
 17 O       -2.3410     3.8910     2.3080 O.3   1 <1>  -0.6500 
 18 C        1.6400     3.4670     0.3990 C.3   1 <1>  -0.1600 
 19 C       -6.3430     0.6360     0.6340 C.3   1 <1>  -0.0220 
 20 H       -2.6650    -1.0630    -1.5610 H     1 <1>   0.4000 
 21 H       -1.4010     3.9630    -1.1760 H     1 <1>   0.0800 
 22 H       -0.9470     4.4990     0.4030 H     1 <1>   0.0800 
 23 H       -0.3420     0.9210     1.6570 H     1 <1>   0.0800 
 24 H       -0.2810     2.5560     2.2140 H     1 <1>   0.0800 
 25 H       -3.0550    -0.3960     1.2840 H     1 <1>   0.1500 
 26 H       -4.3810     2.9960    -0.9790 H     1 <1>   0.0800 
 27 H       -4.8940     1.4420    -1.5800 H     1 <1>   0.0800 
 28 H        0.9200     4.8530    -1.0720 H     1 <1>   0.0800 
 29 H        0.9010     3.1980    -1.6000 H     1 <1>   0.0800 
 30 H        1.9700     1.8460     1.7660 H     1 <1>   0.0800 
 31 H        1.5630     1.3350     0.1570 H     1 <1>   0.0800 
 32 H       -5.4450    -1.0200     1.7400 H     1 <1>   0.1500 
 33 H       -5.6810     2.6260     1.0750 H     1 <1>   0.0800 
 34 H       -6.7080     2.5310    -0.3250 H     1 <1>   0.0800 
 35 H        1.5070     4.1740     1.2000 H     1 <1>   0.0800 
 36 H        2.6640     3.5190     0.0740 H     1 <1>   0.0800 
 37 H       -6.7970     0.1160    -0.1910 H     1 <1>   0.0800 
 38 H       -7.0740     0.7330     1.4180 H     1 <1>   0.0800 
@<TRIPOS>BOND
  1   1   2  2   
  2   2   3  am  
  3   2   4  1   
  4   3   5  1   
  5   3   6  1   
  6   4   7  1   
  7   4   8  1   
  8   4   9  1   
  9   5  20  1   
 10   6   7  1   
 11   6  10  1   
 12   6  11  1   
 13   7  12  2   
 14   8  13  1   
 15   8  21  1   
 16   8  22  1   
 17   9  14  1   
 18   9  23  1   
 19   9  24  1   
 20  10  15  2   
 21  10  25  1   
 22  11  16  1   
 23  11  26  1   
 24  11  27  1   
 25  12  17  1   
 26  13  18  1   
 27  13  28  1   
 28  13  29  1   
 29  14  18  1   
 30  14  30  1   
 31  14  31  1   
 32  15  19  1   
 33  15  32  1   
 34  16  19  1   
 35  16  33  1   
 36  16  34  1   
 37  18  35  1   
 38  18  36  1   
 39  19  37  1   
 40  19  38  1   
@<TRIPOS>SUBSTRUCTURE
  1 ****   7 GROUP 4 **** **** 0

# MOE 2024.06 (io_trps.svl 2023.06)
