@<TRIPOS>MOLECULE
NONAME
56 58 1 0 0 
SMALL
USER_CHARGES


@<TRIPOS>ATOM
  1 O        0.1370    -0.6630    -1.5270 O.2   1 <1>  -0.5700 
  2 C       -0.0570    -1.7360    -0.9870 C.2   1 <1>   0.5440 
  3 N       -1.3520    -2.0980    -0.6840 N.am  1 <1>  -0.6600 
  4 C        1.0760    -2.5820    -0.6630 C.ar  1 <1>   0.0860 
  5 C       -1.6960    -3.1840     0.2930 C.3   1 <1>   0.1400 
  6 C       -2.5060    -1.2810    -1.1810 C.3   1 <1>   0.1400 
  7 C        1.0990    -3.9360    -0.9880 C.ar  1 <1>  -0.1500 
  8 C        2.1890    -2.0550    -0.0120 C.ar  1 <1>  -0.1500 
  9 C       -3.0370    -2.9390     1.0100 C.3   1 <1>   0.2090 
 10 C       -3.8140    -2.0890    -1.2510 C.3   1 <1>   0.2090 
 11 C        2.1650    -4.7510    -0.6600 C.ar  1 <1>   0.0820 
 12 C        3.2850    -2.8440     0.3170 C.ar  1 <1>   0.0820 
 13 N       -4.1680    -2.7360     0.0520 N.pl3 1 <1>  -0.8380 
 14 O        2.0250    -6.0600    -1.0140 O.3   1 <1>  -0.3630 
 15 C        3.2820    -4.2020    -0.0160 C.ar  1 <1>   0.0830 
 16 O        4.3780    -2.3390     0.9600 O.3   1 <1>  -0.3630 
 17 C       -5.1150    -3.7590    -0.0040 C.ar  1 <1>   0.1000 
 18 C        2.5420    -7.0840    -0.1910 C.3   1 <1>   0.0400 
 19 O        4.3630    -4.9670     0.2810 O.3   1 <1>  -0.3630 
 20 C        4.4740    -0.9730     1.3030 C.3   1 <1>   0.0400 
 21 C       -6.3790    -3.6000     0.5650 C.ar  1 <1>  -0.1430 
 22 C       -4.8080    -4.9640    -0.6260 C.ar  1 <1>  -0.1500 
 23 C        5.4710    -4.8300    -0.5790 C.3   1 <1>   0.0400 
 24 C       -7.2990    -4.6340     0.5020 C.ar  1 <1>  -0.1500 
 25 C       -6.7530    -2.2970     1.2550 C.3   1 <1>  -0.0970 
 26 C       -5.7310    -5.9900    -0.6860 C.ar  1 <1>  -0.1500 
 27 C       -6.9850    -5.8300    -0.1210 C.ar  1 <1>  -0.1430 
 28 C       -8.0050    -6.9530    -0.1800 C.3   1 <1>  -0.0970 
 29 H       -0.9200    -3.2660     1.0330 H     1 <1>   0.0800 
 30 H       -1.7580    -4.1210    -0.2310 H     1 <1>   0.0800 
 31 H       -2.2790    -0.8980    -2.1610 H     1 <1>   0.0800 
 32 H       -2.6480    -0.4400    -0.5250 H     1 <1>   0.0800 
 33 H        0.2640    -4.3650    -1.5130 H     1 <1>   0.1500 
 34 H        2.1650    -1.0080     0.2220 H     1 <1>   0.1500 
 35 H       -2.9490    -2.0670     1.6330 H     1 <1>   0.0800 
 36 H       -3.2560    -3.7770     1.6500 H     1 <1>   0.0800 
 37 H       -3.7170    -2.8400    -2.0150 H     1 <1>   0.0800 
 38 H       -4.6180    -1.4340    -1.5380 H     1 <1>   0.0800 
 39 H        2.0100    -7.9910    -0.4100 H     1 <1>   0.0800 
 40 H        2.4020    -6.8130     0.8410 H     1 <1>   0.0800 
 41 H        3.5860    -7.2140    -0.4110 H     1 <1>   0.0800 
 42 H        5.4230    -0.8170     1.7830 H     1 <1>   0.0800 
 43 H        3.6770    -0.7250     1.9810 H     1 <1>   0.0800 
 44 H        4.4180    -0.3820     0.4060 H     1 <1>   0.0800 
 45 H       -3.8380    -5.0930    -1.0660 H     1 <1>   0.1500 
 46 H        6.2330    -5.5160    -0.2580 H     1 <1>   0.0800 
 47 H        5.8390    -3.8210    -0.5230 H     1 <1>   0.0800 
 48 H        5.1610    -5.0620    -1.5830 H     1 <1>   0.0800 
 49 H       -8.2720    -4.5090     0.9430 H     1 <1>   0.1500 
 50 H       -6.6630    -1.4820     0.5600 H     1 <1>   0.0800 
 51 H       -6.0850    -2.1200     2.0780 H     1 <1>   0.0800 
 52 H       -7.7600    -2.3260     1.6270 H     1 <1>   0.0800 
 53 H       -5.4700    -6.9130    -1.1720 H     1 <1>   0.1500 
 54 H       -8.9970    -6.5510    -0.2740 H     1 <1>   0.0800 
 55 H       -7.9500    -7.5400     0.7190 H     1 <1>   0.0800 
 56 H       -7.8160    -7.5910    -1.0250 H     1 <1>   0.0800 
@<TRIPOS>BOND
  1   1   2  2   
  2   2   3  am  
  3   2   4  1   
  4   3   5  1   
  5   3   6  1   
  6   4   7  ar  
  7   4   8  ar  
  8   5   9  1   
  9   5  29  1   
 10   5  30  1   
 11   6  10  1   
 12   6  31  1   
 13   6  32  1   
 14   7  11  ar  
 15   7  33  1   
 16   8  12  ar  
 17   8  34  1   
 18   9  13  1   
 19   9  35  1   
 20   9  36  1   
 21  10  13  1   
 22  10  37  1   
 23  10  38  1   
 24  11  14  1   
 25  11  15  ar  
 26  12  15  ar  
 27  12  16  1   
 28  13  17  1   
 29  14  18  1   
 30  15  19  1   
 31  16  20  1   
 32  17  21  ar  
 33  17  22  ar  
 34  18  39  1   
 35  18  40  1   
 36  18  41  1   
 37  19  23  1   
 38  20  42  1   
 39  20  43  1   
 40  20  44  1   
 41  21  24  ar  
 42  21  25  1   
 43  22  26  ar  
 44  22  45  1   
 45  23  46  1   
 46  23  47  1   
 47  23  48  1   
 48  24  27  ar  
 49  24  49  1   
 50  25  50  1   
 51  25  51  1   
 52  25  52  1   
 53  26  27  ar  
 54  26  53  1   
 55  27  28  1   
 56  28  54  1   
 57  28  55  1   
 58  28  56  1   
@<TRIPOS>SUBSTRUCTURE
  1 ****   5 GROUP 4 **** **** 0

# MOE 2024.06 (io_trps.svl 2023.06)
