@<TRIPOS>MOLECULE
NONAME
31 33 1 0 0 
SMALL
USER_CHARGES


@<TRIPOS>ATOM
  1 S       -3.9990    -0.1910     2.1890 S.2   1 <1>  -0.0200 
  2 S       -2.8490    -1.8260     1.6590 S.3   1 <1>  -0.0040 
  3 C       -5.2530    -0.5680     1.1080 C.2   1 <1>   0.1450 
  4 C       -3.9890    -2.4870     0.5770 C.2   1 <1>  -0.1070 
  5 S       -6.3790     0.7370     0.8690 S.3   1 <1>  -0.2570 
  6 C       -5.1890    -1.8180     0.4760 C.2   1 <1>  -0.0180 
  7 C       -3.6340    -3.7500    -0.2090 C.3   1 <1>   0.5690 
  8 C       -7.0030     0.6510    -0.8730 C.3   1 <1>   0.0270 
  9 C       -6.2630    -2.4960    -0.2330 C.ar  1 <1>   0.0900 
 10 N       -4.6010    -3.9110    -1.3120 N.pl3 1 <1>  -0.8600 
 11 C       -3.7280    -4.9830     0.6840 C.3   1 <1>  -0.2100 
 12 C       -2.2600    -3.6370    -0.8630 C.3   1 <1>  -0.2100 
 13 C       -5.9250    -3.4970    -1.1590 C.ar  1 <1>   0.1340 
 14 C       -7.6140    -2.2620     0.0150 C.ar  1 <1>  -0.1170 
 15 C       -6.9220    -4.1210    -1.8980 C.ar  1 <1>  -0.1170 
 16 C       -8.6020    -2.9080    -0.7060 C.ar  1 <1>  -0.1170 
 17 C       -8.2540    -3.8270    -1.6800 C.ar  1 <1>  -0.1170 
 18 H       -6.9740     1.6500    -1.2720 H     1 <1>   0.1150 
 19 H       -8.0130     0.2860    -0.8560 H     1 <1>   0.1150 
 20 H       -6.3570     0.0050    -1.4400 H     1 <1>   0.1150 
 21 H       -4.4420    -4.7570    -1.8660 H     1 <1>   0.4250 
 22 H       -4.7150    -5.0580     1.1020 H     1 <1>   0.1150 
 23 H       -3.0270    -4.9060     1.4940 H     1 <1>   0.1150 
 24 H       -3.5100    -5.8750     0.1280 H     1 <1>   0.1150 
 25 H       -2.2200    -2.7490    -1.4670 H     1 <1>   0.1150 
 26 H       -2.0610    -4.4910    -1.4830 H     1 <1>   0.1150 
 27 H       -1.4860    -3.5770    -0.1200 H     1 <1>   0.1150 
 28 H       -7.9040    -1.5740     0.7890 H     1 <1>   0.1830 
 29 H       -6.6540    -4.8500    -2.6420 H     1 <1>   0.1830 
 30 H       -9.6430    -2.7020    -0.5100 H     1 <1>   0.1830 
 31 H       -9.0210    -4.3220    -2.2550 H     1 <1>   0.1830 
@<TRIPOS>BOND
  1   1   2  1   
  2   1   3  2   
  3   2   4  1   
  4   3   5  1   
  5   3   6  1   
  6   4   6  2   
  7   4   7  1   
  8   5   8  1   
  9   6   9  1   
 10   7  10  1   
 11   7  11  1   
 12   7  12  1   
 13   8  18  1   
 14   8  19  1   
 15   8  20  1   
 16   9  13  ar  
 17   9  14  ar  
 18  10  13  1   
 19  10  21  1   
 20  11  22  1   
 21  11  23  1   
 22  11  24  1   
 23  12  25  1   
 24  12  26  1   
 25  12  27  1   
 26  13  15  ar  
 27  14  16  ar  
 28  14  28  1   
 29  15  17  ar  
 30  15  29  1   
 31  16  17  ar  
 32  16  30  1   
 33  17  31  1   
@<TRIPOS>SUBSTRUCTURE
  1 ****   9 GROUP 4 **** **** 0

# MOE 2024.06 (io_trps.svl 2023.06)
