@<TRIPOS>MOLECULE
NONAME
41 41 1 0 0 
SMALL
USER_CHARGES


@<TRIPOS>ATOM
  1 CL      -0.3980     2.9310    -2.1160 Cl    1 <1>  -0.1770 
  2 C        0.8140     1.9550    -1.3240 C.ar  1 <1>   0.1770 
  3 C        1.1710     2.2140    -0.0020 C.ar  1 <1>   0.0860 
  4 C        1.3850     0.9250    -2.0490 C.ar  1 <1>  -0.1500 
  5 C        0.5650     3.2880     0.7480 C.2   1 <1>   0.5440 
  6 C        2.1370     1.3870     0.5720 C.ar  1 <1>  -0.1500 
  7 C        2.3400     0.1180    -1.4560 C.ar  1 <1>  -0.1500 
  8 O        0.8400     4.4490     0.5160 O.2   1 <1>  -0.5700 
  9 N       -0.3160     3.0500     1.7570 N.am  1 <1>  -0.4300 
 10 C        2.7140     0.3510    -0.1430 C.ar  1 <1>  -0.1500 
 11 N       -0.8000     1.7430     2.2360 N.am  1 <1>  -0.4300 
 12 C       -1.8670     1.0330     1.7950 C.2   1 <1>   0.5690 
 13 O       -2.1340    -0.0330     2.2980 O.2   1 <1>  -0.5700 
 14 C       -2.7430     1.5550     0.6690 C.3   1 <1>  -0.0990 
 15 C       -3.7700     2.5870     1.1620 C.3   1 <1>  -0.1600 
 16 C       -4.6180     3.1230     0.0020 C.3   1 <1>  -0.1600 
 17 C       -5.6370     4.1560     0.4970 C.3   1 <1>  -0.1600 
 18 C       -6.4840     4.6950    -0.6620 C.3   1 <1>  -0.1600 
 19 C       -7.5010     5.7290    -0.1670 C.3   1 <1>  -0.1600 
 20 C       -8.3470     6.2680    -1.3250 C.3   1 <1>  -0.2400 
 21 H        1.0830     0.7580    -3.0680 H     1 <1>   0.1500 
 22 H        2.4390     1.5630     1.5900 H     1 <1>   0.1500 
 23 H        2.7900    -0.6870    -2.0120 H     1 <1>   0.1500 
 24 H       -0.7030     3.8900     2.2030 H     1 <1>   0.3700 
 25 H        3.4580    -0.2750     0.3200 H     1 <1>   0.1500 
 26 H       -0.2770     1.3030     3.0020 H     1 <1>   0.3700 
 27 H       -3.2580     0.7210     0.2260 H     1 <1>   0.0800 
 28 H       -2.1210     1.9920    -0.0870 H     1 <1>   0.0800 
 29 H       -3.2560     3.4060     1.6350 H     1 <1>   0.0800 
 30 H       -4.4100     2.1250     1.8960 H     1 <1>   0.0800 
 31 H       -5.1370     2.3060    -0.4700 H     1 <1>   0.0800 
 32 H       -3.9740     3.5790    -0.7320 H     1 <1>   0.0800 
 33 H       -5.1180     4.9730     0.9690 H     1 <1>   0.0800 
 34 H       -6.2820     3.7010     1.2290 H     1 <1>   0.0800 
 35 H       -7.0040     3.8800    -1.1350 H     1 <1>   0.0800 
 36 H       -5.8390     5.1510    -1.3950 H     1 <1>   0.0800 
 37 H       -6.9850     6.5480     0.3040 H     1 <1>   0.0800 
 38 H       -8.1490     5.2770     0.5640 H     1 <1>   0.0800 
 39 H       -7.7200     6.7430    -2.0590 H     1 <1>   0.0800 
 40 H       -9.0530     6.9910    -0.9580 H     1 <1>   0.0800 
 41 H       -8.8900     5.4680    -1.7980 H     1 <1>   0.0800 
@<TRIPOS>BOND
  1   1   2  1   
  2   2   3  ar  
  3   2   4  ar  
  4   3   5  1   
  5   3   6  ar  
  6   4   7  ar  
  7   4  21  1   
  8   5   8  2   
  9   5   9  am  
 10   6  10  ar  
 11   6  22  1   
 12   7  10  ar  
 13   7  23  1   
 14   9  11  1   
 15   9  24  1   
 16  10  25  1   
 17  11  12  am  
 18  11  26  1   
 19  12  13  2   
 20  12  14  1   
 21  14  15  1   
 22  14  27  1   
 23  14  28  1   
 24  15  16  1   
 25  15  29  1   
 26  15  30  1   
 27  16  17  1   
 28  16  31  1   
 29  16  32  1   
 30  17  18  1   
 31  17  33  1   
 32  17  34  1   
 33  18  19  1   
 34  18  35  1   
 35  18  36  1   
 36  19  20  1   
 37  19  37  1   
 38  19  38  1   
 39  20  39  1   
 40  20  40  1   
 41  20  41  1   
@<TRIPOS>SUBSTRUCTURE
  1 ****  14 GROUP 4 **** **** 0

# MOE 2024.06 (io_trps.svl 2023.06)
