@<TRIPOS>MOLECULE
NONAME
30 31 1 0 0 
SMALL
USER_CHARGES


@<TRIPOS>ATOM
  1 F       -3.6360    -0.8660     2.1840 F     1 <1>  -0.1500 
  2 C       -3.0970    -1.3770     1.0980 C.2   1 <1>   0.1640 
  3 C       -2.6180    -0.4910     0.0870 C.2   1 <1>   0.4860 
  4 C       -3.0010    -2.7140     0.9480 C.2   1 <1>  -0.0410 
  5 N       -2.0730    -0.9230    -1.0020 N.2   1 <1>  -0.6610 
  6 N       -2.7050     0.8550     0.2080 N.pl3 1 <1>  -0.8500 
  7 N       -2.4220    -3.1770    -0.2200 N.am  1 <1>  -0.4690 
  8 C       -1.9660    -2.2700    -1.1690 C.2   1 <1>   0.8410 
  9 C       -2.2860    -4.6210    -0.5440 C.3   1 <1>   0.5000 
 10 O       -1.4250    -2.6890    -2.1840 O.2   1 <1>  -0.5700 
 11 O       -2.9790    -5.3860     0.3920 O.3   1 <1>  -0.5600 
 12 C       -0.8300    -5.1230    -0.5000 C.3   1 <1>   0.2000 
 13 C       -2.4530    -6.6840     0.3660 C.3   1 <1>   0.2000 
 14 O       -0.2620    -5.1700    -1.7860 O.3   1 <1>  -0.6800 
 15 C       -0.9490    -6.5120     0.1350 C.3   1 <1>   0.2000 
 16 C       -2.7950    -7.4270     1.6640 C.3   1 <1>   0.1200 
 17 O       -0.4800    -7.5000    -0.7200 O.3   1 <1>  -0.6800 
 18 O       -4.1510    -7.2990     1.9250 O.3   1 <1>  -0.6800 
 19 H       -3.3550    -3.4100     1.6890 H     1 <1>   0.1500 
 20 H       -2.3590     1.4490    -0.5480 H     1 <1>   0.4000 
 21 H       -3.1310     1.3220     1.0100 H     1 <1>   0.4000 
 22 H       -2.7180    -4.8290    -1.5100 H     1 <1>   0.0800 
 23 H       -0.2320    -4.4760     0.1180 H     1 <1>   0.0800 
 24 H       -2.8940    -7.1950    -0.4740 H     1 <1>   0.0800 
 25 H       -0.3690    -4.2860    -2.2220 H     1 <1>   0.4000 
 26 H       -0.4010    -6.5650     1.0590 H     1 <1>   0.0800 
 27 H       -2.2540    -7.0090     2.4940 H     1 <1>   0.0800 
 28 H       -2.5610    -8.4740     1.5800 H     1 <1>   0.0800 
 29 H       -0.1110    -7.0290    -1.5070 H     1 <1>   0.4000 
 30 H       -4.4270    -6.3880     1.6880 H     1 <1>   0.4000 
@<TRIPOS>BOND
  1   1   2  1   
  2   2   3  1   
  3   2   4  2   
  4   3   5  2   
  5   3   6  1   
  6   4   7  1   
  7   4  19  1   
  8   5   8  1   
  9   6  20  1   
 10   6  21  1   
 11   7   8  am  
 12   7   9  1   
 13   8  10  2   
 14   9  11  1   
 15   9  12  1   
 16   9  22  1   
 17  11  13  1   
 18  12  14  1   
 19  12  15  1   
 20  12  23  1   
 21  13  15  1   
 22  13  16  1   
 23  13  24  1   
 24  14  25  1   
 25  15  17  1   
 26  15  26  1   
 27  16  18  1   
 28  16  27  1   
 29  16  28  1   
 30  17  29  1   
 31  18  30  1   
@<TRIPOS>SUBSTRUCTURE
  1 ****   7 GROUP 4 **** **** 0

# MOE 2024.06 (io_trps.svl 2023.06)
