@<TRIPOS>MOLECULE
NONAME
50 52 1 0 0 
SMALL
USER_CHARGES


@<TRIPOS>ATOM
  1 CL       0.2270     0.0310    -0.0680 Cl    1 <1>  -0.1770 
  2 C        1.7620    -0.7920    -0.1360 C.ar  1 <1>   0.1770 
  3 C        2.3940    -1.1500     1.0400 C.ar  1 <1>  -0.1500 
  4 C        2.3270    -1.0790    -1.3640 C.ar  1 <1>  -0.1500 
  5 C        3.6140    -1.8000     0.9810 C.ar  1 <1>  -0.1500 
  6 C        3.5480    -1.7290    -1.4100 C.ar  1 <1>  -0.1500 
  7 C        4.2200    -2.0960    -0.2430 C.ar  1 <1>   0.0860 
  8 C        5.5020    -2.7720    -0.3080 C.2   1 <1>   0.5440 
  9 O        5.5750    -3.8280    -0.9080 O.2   1 <1>  -0.5700 
 10 N        6.6370    -2.2520     0.2830 N.am  1 <1>  -0.6600 
 11 C        7.9090    -3.0270     0.3400 C.3   1 <1>   0.1400 
 12 C        6.7560    -0.8410     0.7460 C.3   1 <1>   0.1400 
 13 C        8.9810    -2.3200    -0.4930 C.3   1 <1>  -0.1600 
 14 C        7.8250    -0.1180    -0.0770 C.3   1 <1>  -0.1600 
 15 C        9.1770    -0.8610    -0.0450 C.3   1 <1>  -0.0190 
 16 C       10.2520    -0.1710    -0.8850 C.2   1 <1>   0.5690 
 17 O        9.9460     0.5140    -1.8310 O.2   1 <1>  -0.5700 
 18 N       11.5490    -0.3530    -0.5420 N.am  1 <1>  -0.7300 
 19 C       12.6870     0.1890    -1.2980 C.3   1 <1>   0.2840 
 20 C       13.9320    -0.5560    -0.8540 C.ar  1 <1>  -0.1430 
 21 C       14.7420    -0.0390     0.1470 C.ar  1 <1>  -0.1500 
 22 C       14.2670    -1.7660    -1.4420 C.ar  1 <1>  -0.1500 
 23 C       15.8740    -0.7220     0.5570 C.ar  1 <1>  -0.1500 
 24 C       15.3980    -2.4500    -1.0340 C.ar  1 <1>  -0.1500 
 25 C       16.2090    -1.9370    -0.0350 C.ar  1 <1>   0.0830 
 26 O       17.2980    -2.6700     0.3050 O.3   1 <1>  -0.3630 
 27 C       18.2030    -2.2250     1.2910 C.3   1 <1>   0.0400 
 28 H        1.9310    -0.9220     1.9840 H     1 <1>   0.1500 
 29 H        1.8160    -0.7970    -2.2670 H     1 <1>   0.1500 
 30 H        4.1120    -2.0910     1.8900 H     1 <1>   0.1500 
 31 H        3.9970    -1.9660    -2.3600 H     1 <1>   0.1500 
 32 H        7.7650    -4.0280    -0.0310 H     1 <1>   0.0800 
 33 H        8.2270    -3.1000     1.3660 H     1 <1>   0.0800 
 34 H        7.0270    -0.8350     1.7880 H     1 <1>   0.0800 
 35 H        5.8220    -0.3170     0.6400 H     1 <1>   0.0800 
 36 H        8.6870    -2.3460    -1.5290 H     1 <1>   0.0800 
 37 H        9.9070    -2.8590    -0.4040 H     1 <1>   0.0800 
 38 H        7.9530     0.8810     0.3010 H     1 <1>   0.0800 
 39 H        7.4790    -0.0370    -1.0940 H     1 <1>   0.0800 
 40 H        9.5210    -0.8660     0.9740 H     1 <1>   0.0800 
 41 H       11.8150    -0.9670     0.2280 H     1 <1>   0.3700 
 42 H       12.7810     1.2420    -1.0990 H     1 <1>   0.0800 
 43 H       12.5210     0.0540    -2.3540 H     1 <1>   0.0800 
 44 H       14.4910     0.8980     0.6130 H     1 <1>   0.1500 
 45 H       13.6470    -2.1810    -2.2190 H     1 <1>   0.1500 
 46 H       16.4800    -0.2960     1.3330 H     1 <1>   0.1500 
 47 H       15.6610    -3.3880    -1.4880 H     1 <1>   0.1500 
 48 H       18.9830    -2.9590     1.3820 H     1 <1>   0.0800 
 49 H       17.6810    -2.1290     2.2270 H     1 <1>   0.0800 
 50 H       18.6210    -1.2840     0.9820 H     1 <1>   0.0800 
@<TRIPOS>BOND
  1   1   2  1   
  2   2   3  ar  
  3   2   4  ar  
  4   3   5  ar  
  5   3  28  1   
  6   4   6  ar  
  7   4  29  1   
  8   5   7  ar  
  9   5  30  1   
 10   6   7  ar  
 11   6  31  1   
 12   7   8  1   
 13   8   9  2   
 14   8  10  am  
 15  10  11  1   
 16  10  12  1   
 17  11  13  1   
 18  11  32  1   
 19  11  33  1   
 20  12  14  1   
 21  12  34  1   
 22  12  35  1   
 23  13  15  1   
 24  13  36  1   
 25  13  37  1   
 26  14  15  1   
 27  14  38  1   
 28  14  39  1   
 29  15  16  1   
 30  15  40  1   
 31  16  17  2   
 32  16  18  am  
 33  18  19  1   
 34  18  41  1   
 35  19  20  1   
 36  19  42  1   
 37  19  43  1   
 38  20  21  ar  
 39  20  22  ar  
 40  21  23  ar  
 41  21  44  1   
 42  22  24  ar  
 43  22  45  1   
 44  23  25  ar  
 45  23  46  1   
 46  24  25  ar  
 47  24  47  1   
 48  25  26  1   
 49  26  27  1   
 50  27  48  1   
 51  27  49  1   
 52  27  50  1   
@<TRIPOS>SUBSTRUCTURE
  1 ****  15 GROUP 4 **** **** 0

# MOE 2024.06 (io_trps.svl 2023.06)
