@<TRIPOS>MOLECULE
NONAME
41 42 1 0 0 
SMALL
USER_CHARGES


@<TRIPOS>ATOM
  1 O        1.5020     1.7830     0.4690 O.3   1 <1>   0.2420 
  2 N        0.3830     2.2650     0.9160 N.2   1 <1>  -0.4100 
  3 N        1.5430     1.5400    -0.8100 N.2   1 <1>  -0.4100 
  4 C       -0.3530     2.3380    -0.1330 C.2   1 <1>   0.2120 
  5 C        0.3880     1.8800    -1.2190 C.2   1 <1>   0.3720 
  6 N       -1.7010     2.7930    -0.2460 N.pl3 1 <1>   0.6470 
  7 N        0.0180     1.7820    -2.5540 N.pl3 1 <1>  -0.8830 
  8 N       -2.5890     2.0050    -0.8680 N.2   1 <1>  -0.4180 
  9 C       -2.2850     3.9960     0.0080 C.2   1 <1>  -0.3320 
 10 N       -3.6770     2.6440    -1.0240 N.2   1 <1>  -0.2270 
 11 C       -3.5470     3.8700    -0.4970 C.2   1 <1>   0.0460 
 12 C       -1.4760     5.1280     0.6760 C.3   1 <1>   0.4600 
 13 C       -4.7810     4.8030    -0.6490 C.3   1 <1>   0.4610 
 14 O       -0.8750     4.6050     1.7940 O.3   1 <1>  -0.6800 
 15 C       -2.2780     6.3340     1.2090 C.3   1 <1>  -0.1600 
 16 C       -0.3640     5.6120    -0.2620 C.3   1 <1>  -0.2400 
 17 O       -4.9800     5.5250     0.4970 O.3   1 <1>  -0.6800 
 18 C       -6.1260     4.0700    -0.8910 C.3   1 <1>  -0.1600 
 19 C       -4.5360     5.8040    -1.7790 C.3   1 <1>  -0.2400 
 20 C       -1.4870     7.4440     1.9320 C.3   1 <1>  -0.2400 
 21 C       -6.6190     3.1680     0.2610 C.3   1 <1>  -0.2400 
 22 H        0.6510     1.1550    -3.0590 H     1 <1>   0.4000 
 23 H       -0.9550     1.4710    -2.6730 H     1 <1>   0.4000 
 24 H       -0.2260     3.9110     1.5550 H     1 <1>   0.4000 
 25 H       -3.0050     5.9600     1.9050 H     1 <1>   0.0800 
 26 H       -2.7980     6.7970     0.3950 H     1 <1>   0.0800 
 27 H        0.2130     4.8090    -0.6720 H     1 <1>   0.0800 
 28 H        0.3110     6.2730     0.2500 H     1 <1>   0.0800 
 29 H       -0.8030     6.1490    -1.0830 H     1 <1>   0.0800 
 30 H       -5.1420     4.8920     1.2200 H     1 <1>   0.4000 
 31 H       -6.0410     3.4730    -1.7820 H     1 <1>   0.0800 
 32 H       -6.8860     4.8040    -1.0920 H     1 <1>   0.0800 
 33 H       -3.6090     6.3230    -1.6350 H     1 <1>   0.0800 
 34 H       -5.3380     6.5180    -1.8330 H     1 <1>   0.0800 
 35 H       -4.4790     5.2800    -2.7160 H     1 <1>   0.0800 
 36 H       -0.9100     7.0360     2.7430 H     1 <1>   0.0800 
 37 H       -2.1720     8.1660     2.3390 H     1 <1>   0.0800 
 38 H       -0.8280     7.9580     1.2570 H     1 <1>   0.0800 
 39 H       -5.8830     2.4260     0.5160 H     1 <1>   0.0800 
 40 H       -7.5170     2.6580    -0.0400 H     1 <1>   0.0800 
 41 H       -6.8470     3.7500     1.1360 H     1 <1>   0.0800 
@<TRIPOS>BOND
  1   1   2  1   
  2   1   3  1   
  3   2   4  2   
  4   3   5  2   
  5   4   5  1   
  6   4   6  1   
  7   5   7  1   
  8   6   8  1   
  9   6   9  1   
 10   7  22  1   
 11   7  23  1   
 12   8  10  2   
 13   9  11  2   
 14   9  12  1   
 15  10  11  1   
 16  11  13  1   
 17  12  14  1   
 18  12  15  1   
 19  12  16  1   
 20  13  17  1   
 21  13  18  1   
 22  13  19  1   
 23  14  24  1   
 24  15  20  1   
 25  15  25  1   
 26  15  26  1   
 27  16  27  1   
 28  16  28  1   
 29  16  29  1   
 30  17  30  1   
 31  18  21  1   
 32  18  31  1   
 33  18  32  1   
 34  19  33  1   
 35  19  34  1   
 36  19  35  1   
 37  20  36  1   
 38  20  37  1   
 39  20  38  1   
 40  21  39  1   
 41  21  40  1   
 42  21  41  1   
@<TRIPOS>SUBSTRUCTURE
  1 ****   9 GROUP 4 **** **** 0

# MOE 2024.06 (io_trps.svl 2023.06)
