@<TRIPOS>MOLECULE
NONAME
26 26 1 0 0 
SMALL
USER_CHARGES


@<TRIPOS>ATOM
  1 O       -0.1110    -0.8600    -0.1410 O.3   1 <1>  -0.5600 
  2 C        0.3470    -2.0680     0.4200 C.3   1 <1>   0.4800 
  3 C       -1.3860    -0.4260     0.2410 C.3   1 <1>   0.2000 
  4 O        1.1870    -2.6310    -0.5380 O.3   1 <1>  -0.5600 
  5 C       -0.7910    -3.0810     0.7390 C.3   1 <1>   0.2000 
  6 C       -2.4780    -1.4510    -0.2040 C.3   1 <1>   0.2000 
  7 C       -1.5800     0.9980    -0.3030 C.3   1 <1>   0.1200 
  8 C        2.3730    -1.9340    -0.7600 C.3   1 <1>   0.0400 
  9 O       -1.2630    -2.9330     2.0470 O.3   1 <1>  -0.6800 
 10 C       -1.9700    -2.9020    -0.2210 C.3   1 <1>  -0.1600 
 11 O       -2.9730    -1.1650    -1.4720 O.3   1 <1>  -0.6800 
 12 O       -2.8810     1.4260    -0.0670 O.3   1 <1>  -0.6800 
 13 H        0.9220    -1.8590     1.3060 H     1 <1>   0.0800 
 14 H       -1.3780    -0.3590     1.3130 H     1 <1>   0.0800 
 15 H       -0.3960    -4.0800     0.6700 H     1 <1>   0.0800 
 16 H       -3.3090    -1.3680     0.4770 H     1 <1>   0.0800 
 17 H       -1.4110     1.0210    -1.3660 H     1 <1>   0.0800 
 18 H       -0.9100     1.6820     0.1880 H     1 <1>   0.0800 
 19 H        2.9150    -1.8450     0.1650 H     1 <1>   0.0800 
 20 H        2.1470    -0.9610    -1.1620 H     1 <1>   0.0800 
 21 H        2.9580    -2.4890    -1.4730 H     1 <1>   0.0800 
 22 H       -1.6420    -2.0480     2.1920 H     1 <1>   0.4000 
 23 H       -2.7560    -3.5920     0.0260 H     1 <1>   0.0800 
 24 H       -1.6030    -3.1390    -1.2050 H     1 <1>   0.0800 
 25 H       -3.4690    -1.9320    -1.8210 H     1 <1>   0.4000 
 26 H       -3.4770     0.9120    -0.6560 H     1 <1>   0.4000 
@<TRIPOS>BOND
  1   1   2  1   
  2   1   3  1   
  3   2   4  1   
  4   2   5  1   
  5   2  13  1   
  6   3   6  1   
  7   3   7  1   
  8   3  14  1   
  9   4   8  1   
 10   5   9  1   
 11   5  10  1   
 12   5  15  1   
 13   6  10  1   
 14   6  11  1   
 15   6  16  1   
 16   7  12  1   
 17   7  17  1   
 18   7  18  1   
 19   8  19  1   
 20   8  20  1   
 21   8  21  1   
 22   9  22  1   
 23  10  23  1   
 24  10  24  1   
 25  11  25  1   
 26  12  26  1   
@<TRIPOS>SUBSTRUCTURE
  1 ****   1 GROUP 4 **** **** 0

# MOE 2024.06 (io_trps.svl 2023.06)
