@<TRIPOS>MOLECULE
NONAME
37 38 1 0 0 
SMALL
USER_CHARGES


@<TRIPOS>ATOM
  1 F       -1.5430    -0.4190     1.9690 F     1 <1>  -0.3400 
  2 C       -2.4960    -1.0730     1.3170 C.3   1 <1>   1.1640 
  3 F       -3.4270    -1.3740     2.2150 F     1 <1>  -0.3400 
  4 F       -1.9690    -2.2250     0.9290 F     1 <1>  -0.3400 
  5 C       -3.0890    -0.2880     0.1340 C.ar  1 <1>  -0.1440 
  6 C       -4.2160    -0.7720    -0.5220 C.ar  1 <1>  -0.1500 
  7 C       -2.5250     0.9050    -0.3080 C.ar  1 <1>  -0.1500 
  8 C       -4.7790    -0.0830    -1.5880 C.ar  1 <1>  -0.1440 
  9 C       -3.0740     1.5910    -1.3760 C.ar  1 <1>  -0.1500 
 10 C       -4.1960     1.0990    -2.0160 C.ar  1 <1>  -0.1500 
 11 C       -6.0230    -0.6140    -2.2780 C.3   1 <1>   0.4870 
 12 N       -7.1760    -0.4770    -1.3490 N.4   1 <1>  -0.9590 
 13 C       -8.3820    -1.1870    -1.8470 C.3   1 <1>   0.3430 
 14 C       -7.4870     0.9450    -1.0490 C.3   1 <1>   0.3430 
 15 C       -9.2830    -1.6180    -0.6860 C.3   1 <1>  -0.1600 
 16 C       -7.7230     1.1230     0.4510 C.3   1 <1>  -0.1600 
 17 C       -9.7240    -0.5060     0.2840 C.3   1 <1>  -0.1600 
 18 C       -8.5720     0.0390     1.1420 C.3   1 <1>  -0.1600 
 19 H       -4.6510    -1.7020    -0.1900 H     1 <1>   0.1500 
 20 H       -1.6480     1.3110     0.1720 H     1 <1>   0.1500 
 21 H       -2.6210     2.5100    -1.7090 H     1 <1>   0.1500 
 22 H       -4.6010     1.6510    -2.8480 H     1 <1>   0.1500 
 23 H       -5.8710    -1.6510    -2.5300 H     1 <1>   0.0800 
 24 H       -6.2060    -0.0640    -3.1860 H     1 <1>   0.0800 
 25 H       -6.9010    -0.9020    -0.4560 H     1 <1>   0.4500 
 26 H       -8.0890    -2.0690    -2.3940 H     1 <1>   0.0800 
 27 H       -8.9330    -0.5480    -2.5190 H     1 <1>   0.0800 
 28 H       -8.3680     1.2480    -1.5910 H     1 <1>   0.0800 
 29 H       -6.6740     1.5860    -1.3490 H     1 <1>   0.0800 
 30 H       -8.7960    -2.4040    -0.1350 H     1 <1>   0.0800 
 31 H      -10.1690    -2.0540    -1.1140 H     1 <1>   0.0800 
 32 H       -8.2080     2.0740     0.5850 H     1 <1>   0.0800 
 33 H       -6.7710     1.1940     0.9500 H     1 <1>   0.0800 
 34 H      -10.4540    -0.9330     0.9530 H     1 <1>   0.0800 
 35 H      -10.2180     0.2930    -0.2430 H     1 <1>   0.0800 
 36 H       -8.9870     0.4710     2.0390 H     1 <1>   0.0800 
 37 H       -7.9440    -0.7750     1.4620 H     1 <1>   0.0800 
@<TRIPOS>BOND
  1   1   2  1   
  2   2   3  1   
  3   2   4  1   
  4   2   5  1   
  5   5   6  ar  
  6   5   7  ar  
  7   6   8  ar  
  8   6  19  1   
  9   7   9  ar  
 10   7  20  1   
 11   8  10  ar  
 12   8  11  1   
 13   9  10  ar  
 14   9  21  1   
 15  10  22  1   
 16  11  12  1   
 17  11  23  1   
 18  11  24  1   
 19  12  13  1   
 20  12  14  1   
 21  12  25  1   
 22  13  15  1   
 23  13  26  1   
 24  13  27  1   
 25  14  16  1   
 26  14  28  1   
 27  14  29  1   
 28  15  17  1   
 29  15  30  1   
 30  15  31  1   
 31  16  18  1   
 32  16  32  1   
 33  16  33  1   
 34  17  18  1   
 35  17  34  1   
 36  17  35  1   
 37  18  36  1   
 38  18  37  1   
@<TRIPOS>SUBSTRUCTURE
  1 ****   6 GROUP 4 **** **** 0

# MOE 2024.06 (io_trps.svl 2023.06)
