@<TRIPOS>MOLECULE
NONAME
47 48 1 0 0 
SMALL
USER_CHARGES


@<TRIPOS>ATOM
  1 O        1.5440    -1.1300    -2.2650 O.3   1 <1>  -0.3630 
  2 C        0.8670    -1.8750    -1.3530 C.ar  1 <1>   0.0830 
  3 C        2.3580    -0.0360    -1.9100 C.3   1 <1>   0.1200 
  4 C        0.6860    -1.5090    -0.0220 C.ar  1 <1>  -0.1500 
  5 C        0.3320    -3.0710    -1.8040 C.ar  1 <1>  -0.1500 
  6 C        3.6750    -0.5650    -1.3240 C.3   1 <1>  -0.1600 
  7 C       -0.0140    -2.3400     0.8370 C.ar  1 <1>  -0.1500 
  8 C       -0.3670    -3.8980    -0.9440 C.ar  1 <1>  -0.1500 
  9 C        4.6530     0.5730    -1.0000 C.3   1 <1>  -0.1600 
 10 C       -0.5420    -3.5390     0.3840 C.ar  1 <1>  -0.1430 
 11 C        5.9650     0.0060    -0.4500 C.3   1 <1>   0.3430 
 12 C       -1.3110    -4.4470     1.3290 C.3   1 <1>  -0.0170 
 13 N        6.9620     1.0920    -0.2410 N.4   1 <1>  -0.9590 
 14 C       -2.7990    -4.0940     1.3220 C.3   1 <1>  -0.2400 
 15 C        8.3310     0.5150    -0.0920 C.3   1 <1>   0.3430 
 16 C        6.6150     1.9690     0.9190 C.3   1 <1>   0.3430 
 17 C        9.3630     1.6430    -0.0290 C.3   1 <1>  -0.1600 
 18 C        7.6100     3.1280     1.0060 C.3   1 <1>  -0.1600 
 19 C        9.0570     2.6300     1.1050 C.3   1 <1>  -0.1600 
 20 H        1.8230     0.6030    -1.2310 H     1 <1>   0.0800 
 21 H        2.5490     0.5140    -2.8150 H     1 <1>   0.0800 
 22 H        1.0720    -0.5880     0.3640 H     1 <1>   0.1500 
 23 H        0.4670    -3.3490    -2.8330 H     1 <1>   0.1500 
 24 H        4.1200    -1.2300    -2.0450 H     1 <1>   0.0800 
 25 H        3.4640    -1.1260    -0.4300 H     1 <1>   0.0800 
 26 H       -0.1520    -2.0490     1.8630 H     1 <1>   0.1500 
 27 H       -0.7760    -4.8220    -1.3120 H     1 <1>   0.1500 
 28 H        4.1950     1.2250    -0.2770 H     1 <1>   0.0800 
 29 H        4.8500     1.1290    -1.9000 H     1 <1>   0.0800 
 30 H        6.3540    -0.7060    -1.1600 H     1 <1>   0.0800 
 31 H        5.7820    -0.5140     0.4770 H     1 <1>   0.0800 
 32 H       -0.9200    -4.3470     2.3270 H     1 <1>   0.0800 
 33 H       -1.1820    -5.4730     1.0310 H     1 <1>   0.0800 
 34 H        6.9770     1.6840    -1.0810 H     1 <1>   0.4500 
 35 H       -2.9400    -3.0740     1.6340 H     1 <1>   0.0800 
 36 H       -3.3380    -4.7400     1.9920 H     1 <1>   0.0800 
 37 H       -3.2020    -4.2080     0.3310 H     1 <1>   0.0800 
 38 H        8.5560    -0.1280    -0.9280 H     1 <1>   0.0800 
 39 H        8.3840    -0.0710     0.8120 H     1 <1>   0.0800 
 40 H        6.6500     1.3960     1.8320 H     1 <1>   0.0800 
 41 H        5.6200     2.3650     0.8050 H     1 <1>   0.0800 
 42 H        9.3860     2.1610    -0.9720 H     1 <1>   0.0800 
 43 H       10.3400     1.2170     0.1260 H     1 <1>   0.0800 
 44 H        7.3800     3.7240     1.8730 H     1 <1>   0.0800 
 45 H        7.4970     3.7620     0.1440 H     1 <1>   0.0800 
 46 H        9.7370     3.4660     1.0570 H     1 <1>   0.0800 
 47 H        9.2060     2.1430     2.0550 H     1 <1>   0.0800 
@<TRIPOS>BOND
  1   1   2  1   
  2   1   3  1   
  3   2   4  ar  
  4   2   5  ar  
  5   3   6  1   
  6   3  20  1   
  7   3  21  1   
  8   4   7  ar  
  9   4  22  1   
 10   5   8  ar  
 11   5  23  1   
 12   6   9  1   
 13   6  24  1   
 14   6  25  1   
 15   7  10  ar  
 16   7  26  1   
 17   8  10  ar  
 18   8  27  1   
 19   9  11  1   
 20   9  28  1   
 21   9  29  1   
 22  10  12  1   
 23  11  13  1   
 24  11  30  1   
 25  11  31  1   
 26  12  14  1   
 27  12  32  1   
 28  12  33  1   
 29  13  15  1   
 30  13  16  1   
 31  13  34  1   
 32  14  35  1   
 33  14  36  1   
 34  14  37  1   
 35  15  17  1   
 36  15  38  1   
 37  15  39  1   
 38  16  18  1   
 39  16  40  1   
 40  16  41  1   
 41  17  19  1   
 42  17  42  1   
 43  17  43  1   
 44  18  19  1   
 45  18  44  1   
 46  18  45  1   
 47  19  46  1   
 48  19  47  1   
@<TRIPOS>SUBSTRUCTURE
  1 ****   6 GROUP 4 **** **** 0

# MOE 2024.06 (io_trps.svl 2023.06)
