@<TRIPOS>MOLECULE
NONAME
52 54 1 0 0 
SMALL
USER_CHARGES


@<TRIPOS>ATOM
  1 O       -1.0460    -0.0160    -0.6460 O.3   1 <1>  -0.5600 
  2 C       -2.1300    -0.4340     0.1380 C.3   1 <1>   0.1200 
  3 C       -0.8850     1.3750    -0.6790 C.3   1 <1>   0.1200 
  4 C       -3.4560     0.1360    -0.3970 C.3   1 <1>   0.2090 
  5 C       -2.1280     2.0640    -1.2700 C.3   1 <1>   0.2090 
  6 N       -3.3740     1.6210    -0.5660 N.pl3 1 <1>  -0.8380 
  7 C       -4.4510     2.4520    -0.3610 C.ar  1 <1>   0.7200 
  8 N       -4.2370     3.7410    -0.4500 N.ar  1 <1>  -0.6200 
  9 N       -5.6050     1.8990    -0.0890 N.ar  1 <1>  -0.6200 
 10 C       -5.3010     4.4750    -0.2570 C.ar  1 <1>   0.7030 
 11 C       -6.5800     2.7420     0.0800 C.ar  1 <1>   0.7200 
 12 O       -5.1850     5.8100    -0.3260 O.3   1 <1>  -0.1650 
 13 N       -6.4980     4.0430     0.0120 N.ar  1 <1>  -0.6200 
 14 N       -7.7660     2.1580     0.3640 N.pl3 1 <1>  -0.8690 
 15 C       -4.0040     6.4440    -0.1790 C.ar  1 <1>   0.3930 
 16 C       -9.1310     2.6600     0.2150 C.3   1 <1>   0.3690 
 17 N       -3.6920     7.3290    -1.1240 N.ar  1 <1>  -0.3100 
 18 C       -3.1970     6.1920     0.9160 C.ar  1 <1>  -0.1500 
 19 C      -10.0440     1.4570     0.4390 C.3   1 <1>  -0.2400 
 20 C       -9.3470     3.2030    -1.1980 C.3   1 <1>  -0.2400 
 21 C       -9.4140     3.7180     1.2800 C.3   1 <1>  -0.2400 
 22 N       -2.5600     7.9920    -1.0430 N.ar  1 <1>  -0.3100 
 23 C       -2.0140     6.8890     1.0010 C.ar  1 <1>  -0.1500 
 24 C       -1.7330     7.7870    -0.0170 C.ar  1 <1>   0.3930 
 25 O       -0.6000     8.5240    -0.0450 O.3   1 <1>  -0.3620 
 26 C        0.3870     8.4380     0.9560 C.3   1 <1>   0.1200 
 27 C        1.5120     9.4010     0.5920 C.3   1 <1>  -0.2400 
 28 H       -1.9670    -0.1110     1.1510 H     1 <1>   0.0800 
 29 H       -2.1550    -1.5080     0.1170 H     1 <1>   0.0800 
 30 H       -0.0220     1.5910    -1.2820 H     1 <1>   0.0800 
 31 H       -0.7050     1.7250     0.3220 H     1 <1>   0.0800 
 32 H       -4.2400    -0.1270     0.2910 H     1 <1>   0.0800 
 33 H       -3.6800    -0.3160    -1.3470 H     1 <1>   0.0800 
 34 H       -2.2060     1.8120    -2.3130 H     1 <1>   0.0800 
 35 H       -1.9960     3.1290    -1.1980 H     1 <1>   0.0800 
 36 H       -7.7050     1.1450     0.3470 H     1 <1>   0.4000 
 37 H       -3.4850     5.4800     1.6670 H     1 <1>   0.1500 
 38 H       -9.8540     0.6950    -0.2950 H     1 <1>   0.0800 
 39 H      -11.0740     1.7540     0.3560 H     1 <1>   0.0800 
 40 H       -9.8920     1.0480     1.4220 H     1 <1>   0.0800 
 41 H       -9.0780     2.4640    -1.9300 H     1 <1>   0.0800 
 42 H       -8.7590     4.0870    -1.3610 H     1 <1>   0.0800 
 43 H      -10.3790     3.4650    -1.3380 H     1 <1>   0.0800 
 44 H       -9.1990     3.3280     2.2590 H     1 <1>   0.0800 
 45 H      -10.4470     4.0100     1.2460 H     1 <1>   0.0800 
 46 H       -8.8180     4.5950     1.1160 H     1 <1>   0.0800 
 47 H       -1.3530     6.7260     1.8290 H     1 <1>   0.1500 
 48 H        0.7520     7.4260     0.9920 H     1 <1>   0.0800 
 49 H       -0.0560     8.7120     1.8980 H     1 <1>   0.0800 
 50 H        1.9380     9.1300    -0.3580 H     1 <1>   0.0800 
 51 H        2.2840     9.3610     1.3380 H     1 <1>   0.0800 
 52 H        1.1350    10.4070     0.5410 H     1 <1>   0.0800 
@<TRIPOS>BOND
  1   1   2  1   
  2   1   3  1   
  3   2   4  1   
  4   2  28  1   
  5   2  29  1   
  6   3   5  1   
  7   3  30  1   
  8   3  31  1   
  9   4   6  1   
 10   4  32  1   
 11   4  33  1   
 12   5   6  1   
 13   5  34  1   
 14   5  35  1   
 15   6   7  1   
 16   7   8  ar  
 17   7   9  ar  
 18   8  10  ar  
 19   9  11  ar  
 20  10  12  1   
 21  10  13  ar  
 22  11  13  ar  
 23  11  14  1   
 24  12  15  1   
 25  14  16  1   
 26  14  36  1   
 27  15  17  ar  
 28  15  18  ar  
 29  16  19  1   
 30  16  20  1   
 31  16  21  1   
 32  17  22  ar  
 33  18  23  ar  
 34  18  37  1   
 35  19  38  1   
 36  19  39  1   
 37  19  40  1   
 38  20  41  1   
 39  20  42  1   
 40  20  43  1   
 41  21  44  1   
 42  21  45  1   
 43  21  46  1   
 44  22  24  ar  
 45  23  24  ar  
 46  23  47  1   
 47  24  25  1   
 48  25  26  1   
 49  26  27  1   
 50  26  48  1   
 51  26  49  1   
 52  27  50  1   
 53  27  51  1   
 54  27  52  1   
@<TRIPOS>SUBSTRUCTURE
  1 ****   8 GROUP 4 **** **** 0

# MOE 2024.06 (io_trps.svl 2023.06)
