@<TRIPOS>MOLECULE
NONAME
51 53 1 0 0 
SMALL
USER_CHARGES


@<TRIPOS>ATOM
  1 O        0.0800    -0.5600    -1.1330 O.3   1 <1>  -0.3630 
  2 C       -1.1390    -0.9490    -0.6410 C.ar  1 <1>   0.0820 
  3 C        0.2080     0.5930    -1.9390 C.3   1 <1>   0.0400 
  4 C       -1.2030    -2.1200     0.1370 C.ar  1 <1>   0.1000 
  5 C       -2.3020    -0.2250    -0.8890 C.ar  1 <1>  -0.1500 
  6 N       -0.0920    -2.9190     0.4440 N.pl3 1 <1>  -0.8380 
  7 C       -2.4330    -2.5230     0.6390 C.ar  1 <1>  -0.1500 
  8 C       -3.5170    -0.6480    -0.3770 C.ar  1 <1>  -0.1500 
  9 C        0.9090    -2.2620     1.3360 C.3   1 <1>   0.2090 
 10 C        0.5090    -3.6160    -0.7320 C.3   1 <1>   0.2090 
 11 C       -3.5830    -1.7970     0.3880 C.ar  1 <1>  -0.1500 
 12 C        2.0090    -3.2560     1.7600 C.3   1 <1>   0.3430 
 13 C        1.6130    -4.5970    -0.2900 C.3   1 <1>   0.3430 
 14 N        2.6510    -3.9340     0.5770 N.4   1 <1>  -0.9590 
 15 C        3.7230    -4.8660     0.9720 C.3   1 <1>   0.4810 
 16 C        5.0250    -4.1470     0.6910 C.2   1 <1>  -0.2760 
 17 C        5.7490    -4.4210    -0.4110 C.2   1 <1>  -0.1780 
 18 C        5.4400    -3.1350     1.7590 C.3   1 <1>  -0.1020 
 19 C        6.9890    -3.8250    -0.8520 C.ar  1 <1>   0.0280 
 20 C        8.0710    -4.6320    -1.1880 C.ar  1 <1>  -0.1500 
 21 C        7.1370    -2.4470    -0.9760 C.ar  1 <1>  -0.1500 
 22 C        9.2640    -4.0830    -1.6230 C.ar  1 <1>  -0.1500 
 23 C        8.3270    -1.8910    -1.4100 C.ar  1 <1>  -0.1500 
 24 C        9.3940    -2.7100    -1.7340 C.ar  1 <1>  -0.1500 
 25 H        1.2410     0.6990    -2.2150 H     1 <1>   0.0800 
 26 H       -0.1070     1.4530    -1.3730 H     1 <1>   0.0800 
 27 H       -0.3950     0.4720    -2.8220 H     1 <1>   0.0800 
 28 H       -2.2950     0.6720    -1.4770 H     1 <1>   0.1500 
 29 H       -2.4840    -3.4160     1.2330 H     1 <1>   0.1500 
 30 H       -4.4120    -0.0820    -0.5730 H     1 <1>   0.1500 
 31 H        1.3560    -1.4230     0.8330 H     1 <1>   0.0800 
 32 H        0.4060    -1.8890     2.2120 H     1 <1>   0.0800 
 33 H       -0.2640    -4.1570    -1.2510 H     1 <1>   0.0800 
 34 H        0.9200    -2.8950    -1.4160 H     1 <1>   0.0800 
 35 H       -4.5260    -2.1270     0.7870 H     1 <1>   0.1500 
 36 H        1.5580    -3.9970     2.3990 H     1 <1>   0.0800 
 37 H        2.7520    -2.7300     2.3340 H     1 <1>   0.0800 
 38 H        2.0790    -5.0150    -1.1670 H     1 <1>   0.0800 
 39 H        1.1460    -5.4000     0.2550 H     1 <1>   0.0800 
 40 H        3.1140    -3.2120     0.0100 H     1 <1>   0.4500 
 41 H        3.6460    -5.1450     2.0110 H     1 <1>   0.0800 
 42 H        3.6750    -5.7580     0.3700 H     1 <1>   0.0800 
 43 H        5.4150    -5.1810    -1.0970 H     1 <1>   0.1500 
 44 H        5.3740    -3.5750     2.7390 H     1 <1>   0.0800 
 45 H        4.8190    -2.2590     1.7250 H     1 <1>   0.0800 
 46 H        6.4610    -2.8240     1.6220 H     1 <1>   0.0800 
 47 H        7.9830    -5.7000    -1.1040 H     1 <1>   0.1500 
 48 H        6.3130    -1.8010    -0.7350 H     1 <1>   0.1500 
 49 H       10.0920    -4.7220    -1.8760 H     1 <1>   0.1500 
 50 H        8.4260    -0.8230    -1.4990 H     1 <1>   0.1500 
 51 H       10.3210    -2.2810    -2.0720 H     1 <1>   0.1500 
@<TRIPOS>BOND
  1   1   2  1   
  2   1   3  1   
  3   2   4  ar  
  4   2   5  ar  
  5   3  25  1   
  6   3  26  1   
  7   3  27  1   
  8   4   6  1   
  9   4   7  ar  
 10   5   8  ar  
 11   5  28  1   
 12   6   9  1   
 13   6  10  1   
 14   7  11  ar  
 15   7  29  1   
 16   8  11  ar  
 17   8  30  1   
 18   9  12  1   
 19   9  31  1   
 20   9  32  1   
 21  10  13  1   
 22  10  33  1   
 23  10  34  1   
 24  11  35  1   
 25  12  14  1   
 26  12  36  1   
 27  12  37  1   
 28  13  14  1   
 29  13  38  1   
 30  13  39  1   
 31  14  15  1   
 32  14  40  1   
 33  15  16  1   
 34  15  41  1   
 35  15  42  1   
 36  16  17  2   
 37  16  18  1   
 38  17  19  1   
 39  17  43  1   
 40  18  44  1   
 41  18  45  1   
 42  18  46  1   
 43  19  20  ar  
 44  19  21  ar  
 45  20  22  ar  
 46  20  47  1   
 47  21  23  ar  
 48  21  48  1   
 49  22  24  ar  
 50  22  49  1   
 51  23  24  ar  
 52  23  50  1   
 53  24  51  1   
@<TRIPOS>SUBSTRUCTURE
  1 ****  14 GROUP 4 **** **** 0

# MOE 2024.06 (io_trps.svl 2023.06)
