@<TRIPOS>MOLECULE
NONAME
37 37 1 0 0 
SMALL
USER_CHARGES


@<TRIPOS>ATOM
  1 S       -0.0120    -0.7360    -0.9020 S.3   1 <1>  -0.3710 
  2 C       -1.0860     0.5780    -0.3190 C.2   1 <1>   0.6510 
  3 C        1.4400     0.1250    -1.7030 C.3   1 <1>   0.1310 
  4 N       -0.7030     1.7740    -0.5530 N.2   1 <1>  -0.6210 
  5 N       -2.2330     0.2040     0.3530 N.am  1 <1>  -0.4200 
  6 C        2.7430    -0.1720    -0.9650 C.2   1 <1>   0.5690 
  7 C       -1.4540     2.7970    -0.0600 C.2   1 <1>   0.0210 
  8 C       -3.0400     1.2340     0.8210 C.2   1 <1>   0.6160 
  9 C       -2.6180    -1.2120     0.5950 C.3   1 <1>   0.1400 
 10 O        3.3780    -1.1280    -1.3560 O.2   1 <1>  -0.5700 
 11 N        3.2060     0.6160     0.0680 N.am  1 <1>  -0.6600 
 12 O       -1.0240     3.9390    -0.2290 O.3   1 <1>  -0.8500 
 13 C       -2.6310     2.5390     0.6140 C.2   1 <1>  -0.1360 
 14 O       -4.0970     0.9510     1.4160 O.2   1 <1>  -0.5700 
 15 C       -3.4400    -1.7390    -0.5820 C.3   1 <1>  -0.2400 
 16 C        4.4690     0.2680     0.7720 C.3   1 <1>   0.1400 
 17 C        2.4270     1.7420     0.6610 C.3   1 <1>   0.1400 
 18 C        5.6440     0.9990     0.1280 C.3   1 <1>  -0.2400 
 19 C        2.6590     3.0400    -0.1100 C.3   1 <1>  -0.2400 
 20 H        1.2550     1.1770    -1.7660 H     1 <1>   0.0800 
 21 H        1.5020    -0.2660    -2.7000 H     1 <1>   0.0800 
 22 H       -3.2000    -1.2790     1.4980 H     1 <1>   0.0800 
 23 H       -1.7430    -1.8200     0.7420 H     1 <1>   0.0800 
 24 H       -3.2160     3.3560     0.9760 H     1 <1>   0.1500 
 25 H       -4.3330    -1.1510    -0.6990 H     1 <1>   0.0800 
 26 H       -3.7230    -2.7590    -0.3990 H     1 <1>   0.0800 
 27 H       -2.8650    -1.6990    -1.4900 H     1 <1>   0.0800 
 28 H        4.6350    -0.7950     0.7100 H     1 <1>   0.0800 
 29 H        4.3960     0.5250     1.8140 H     1 <1>   0.0800 
 30 H        2.7070     1.8870     1.6900 H     1 <1>   0.0800 
 31 H        1.3840     1.4990     0.6620 H     1 <1>   0.0800 
 32 H        5.6990     0.7520    -0.9170 H     1 <1>   0.0800 
 33 H        6.5590     0.6960     0.6000 H     1 <1>   0.0800 
 34 H        5.5370     2.0610     0.2410 H     1 <1>   0.0800 
 35 H        3.6620     3.3960     0.0250 H     1 <1>   0.0800 
 36 H        1.9760     3.7870     0.2580 H     1 <1>   0.0800 
 37 H        2.4570     2.9110    -1.1560 H     1 <1>   0.0800 
@<TRIPOS>BOND
  1   1   2  1   
  2   1   3  1   
  3   2   4  2   
  4   2   5  1   
  5   3   6  1   
  6   3  20  1   
  7   3  21  1   
  8   4   7  1   
  9   5   8  am  
 10   5   9  1   
 11   6  10  2   
 12   6  11  am  
 13   7  12  1   
 14   7  13  2   
 15   8  13  1   
 16   8  14  2   
 17   9  15  1   
 18   9  22  1   
 19   9  23  1   
 20  11  16  1   
 21  11  17  1   
 22  13  24  1   
 23  15  25  1   
 24  15  26  1   
 25  15  27  1   
 26  16  18  1   
 27  16  28  1   
 28  16  29  1   
 29  17  19  1   
 30  17  30  1   
 31  17  31  1   
 32  18  32  1   
 33  18  33  1   
 34  18  34  1   
 35  19  35  1   
 36  19  36  1   
 37  19  37  1   
@<TRIPOS>SUBSTRUCTURE
  1 ****   2 GROUP 4 **** **** 0

# MOE 2024.06 (io_trps.svl 2023.06)
