@<TRIPOS>MOLECULE
NONAME
37 38 1 0 0 
SMALL
USER_CHARGES


@<TRIPOS>ATOM
  1 O        5.1350    -4.4030    -1.0880 O.2   1 <1>  -0.5700 
  2 C        5.3020    -3.4120    -0.4200 C.2   1 <1>   0.6590 
  3 O        6.4980    -2.9240    -0.1500 O.3   1 <1>  -0.4300 
  4 C        4.0890    -2.6660     0.1710 C.3   1 <1>   0.4840 
  5 C        7.6750    -3.5290    -0.6440 C.3   1 <1>   0.2640 
  6 N        2.8170    -3.4780     0.0230 N.4   1 <1>  -0.9060 
  7 C        3.9160    -1.2770    -0.4660 C.3   1 <1>  -0.1600 
  8 C        8.8560    -2.7130    -0.1530 C.ar  1 <1>  -0.1430 
  9 C        1.5810    -2.7430    -0.3100 C.3   1 <1>   0.4230 
 10 C        2.7210    -0.5070     0.1260 C.3   1 <1>  -0.1600 
 11 C        9.2810    -1.6010    -0.8660 C.ar  1 <1>  -0.1500 
 12 C        9.5190    -3.0680     1.0120 C.ar  1 <1>  -0.1500 
 13 C        1.5410    -1.4310     0.4780 C.3   1 <1>  -0.1600 
 14 C        0.3990    -3.6430     0.0180 C.3   1 <1>  -0.2400 
 15 C       10.3560    -0.8530    -0.4190 C.ar  1 <1>  -0.1500 
 16 C       10.5950    -2.3200     1.4600 C.ar  1 <1>  -0.1500 
 17 C       11.0140    -1.2130     0.7440 C.ar  1 <1>  -0.1500 
 18 H        4.2830    -2.5200     1.2200 H     1 <1>   0.0800 
 19 H        7.6360    -3.5390    -1.7200 H     1 <1>   0.0800 
 20 H        7.7250    -4.5400    -0.2780 H     1 <1>   0.0800 
 21 H        2.6640    -4.0190     0.8780 H     1 <1>   0.4500 
 22 H        3.0090    -4.1740    -0.7160 H     1 <1>   0.4500 
 23 H        3.7880    -1.3920    -1.5300 H     1 <1>   0.0800 
 24 H        4.8130    -0.6990    -0.3190 H     1 <1>   0.0800 
 25 H        1.5720    -2.5110    -1.3650 H     1 <1>   0.0800 
 26 H        2.4020     0.2360    -0.5880 H     1 <1>   0.0800 
 27 H        3.0280     0.0200     1.0140 H     1 <1>   0.0800 
 28 H        8.7780    -1.3100    -1.7720 H     1 <1>   0.1500 
 29 H        9.2040    -3.9260     1.5790 H     1 <1>   0.1500 
 30 H        1.5490    -1.6470     1.5330 H     1 <1>   0.0800 
 31 H        0.6190    -0.9140     0.2710 H     1 <1>   0.0800 
 32 H        0.3640    -3.8790     1.0670 H     1 <1>   0.0800 
 33 H        0.4430    -4.5530    -0.5540 H     1 <1>   0.0800 
 34 H       -0.5170    -3.1410    -0.2390 H     1 <1>   0.0800 
 35 H       10.6820     0.0080    -0.9750 H     1 <1>   0.1500 
 36 H       11.1060    -2.6000     2.3640 H     1 <1>   0.1500 
 37 H       11.8500    -0.6320     1.0920 H     1 <1>   0.1500 
@<TRIPOS>BOND
  1   1   2  2   
  2   2   3  1   
  3   2   4  1   
  4   3   5  1   
  5   4   6  1   
  6   4   7  1   
  7   4  18  1   
  8   5   8  1   
  9   5  19  1   
 10   5  20  1   
 11   6   9  1   
 12   6  21  1   
 13   6  22  1   
 14   7  10  1   
 15   7  23  1   
 16   7  24  1   
 17   8  11  ar  
 18   8  12  ar  
 19   9  13  1   
 20   9  14  1   
 21   9  25  1   
 22  10  13  1   
 23  10  26  1   
 24  10  27  1   
 25  11  15  ar  
 26  11  28  1   
 27  12  16  ar  
 28  12  29  1   
 29  13  30  1   
 30  13  31  1   
 31  14  32  1   
 32  14  33  1   
 33  14  34  1   
 34  15  17  ar  
 35  15  35  1   
 36  16  17  ar  
 37  16  36  1   
 38  17  37  1   
@<TRIPOS>SUBSTRUCTURE
  1 ****   3 GROUP 4 **** **** 0

# MOE 2024.06 (io_trps.svl 2023.06)
