@<TRIPOS>MOLECULE
NONAME
34 35 1 0 0 
SMALL
USER_CHARGES


@<TRIPOS>ATOM
  1 BR       0.0810    -0.3860     0.4240 Br    1 <1>  -0.1110 
  2 C       -1.8240    -0.2050     0.2540 C.ar  1 <1>   0.1110 
  3 C       -2.5690    -1.3000    -0.1390 C.ar  1 <1>  -0.1500 
  4 C       -2.4080     1.0160     0.5250 C.ar  1 <1>  -0.1500 
  5 C       -3.9410    -1.1610    -0.2580 C.ar  1 <1>  -0.1500 
  6 C       -3.7810     1.1350     0.4010 C.ar  1 <1>  -0.1500 
  7 C       -4.5820     0.0550     0.0120 C.ar  1 <1>   0.0860 
  8 C       -6.0240     0.2070    -0.1030 C.2   1 <1>   0.5440 
  9 O       -6.5360     1.3050    -0.2030 O.2   1 <1>  -0.5700 
 10 N       -6.8520    -0.8750    -0.0950 N.am  1 <1>  -0.7300 
 11 C       -8.3370    -0.8130    -0.2040 C.3   1 <1>   0.2010 
 12 C       -9.0040    -2.1940    -0.1390 C.2   1 <1>   0.5690 
 13 O       -8.2940    -3.1590     0.0520 O.2   1 <1>  -0.5700 
 14 N      -10.3620    -2.3240    -0.2960 N.am  1 <1>  -0.6600 
 15 C      -11.0300    -3.6620    -0.2580 C.3   1 <1>   0.1400 
 16 C      -11.3260    -1.1990    -0.5020 C.3   1 <1>   0.1400 
 17 C      -12.2370    -3.6400     0.6930 C.3   1 <1>   0.1200 
 18 C      -12.5150    -1.3200     0.4670 C.3   1 <1>   0.1200 
 19 O      -13.1010    -2.5860     0.3710 O.3   1 <1>  -0.5600 
 20 H       -2.0830    -2.2360    -0.3460 H     1 <1>   0.1500 
 21 H       -1.8010     1.8520     0.8260 H     1 <1>   0.1500 
 22 H       -4.5190    -2.0110    -0.5740 H     1 <1>   0.1500 
 23 H       -4.2510     2.0820     0.6080 H     1 <1>   0.1500 
 24 H       -6.5040    -1.8240     0.0770 H     1 <1>   0.3700 
 25 H       -8.5930    -0.3430    -1.1360 H     1 <1>   0.0800 
 26 H       -8.7140    -0.2060     0.5990 H     1 <1>   0.0800 
 27 H      -10.3410    -4.4230     0.0660 H     1 <1>   0.0800 
 28 H      -11.3640    -3.9190    -1.2480 H     1 <1>   0.0800 
 29 H      -11.6960    -1.2330    -1.5120 H     1 <1>   0.0800 
 30 H      -10.8520    -0.2460    -0.3530 H     1 <1>   0.0800 
 31 H      -11.9140    -3.5240     1.7130 H     1 <1>   0.0800 
 32 H      -12.7920    -4.5570     0.6090 H     1 <1>   0.0800 
 33 H      -13.2680    -0.5920     0.2250 H     1 <1>   0.0800 
 34 H      -12.1960    -1.1640     1.4830 H     1 <1>   0.0800 
@<TRIPOS>BOND
  1   1   2  1   
  2   2   3  ar  
  3   2   4  ar  
  4   3   5  ar  
  5   3  20  1   
  6   4   6  ar  
  7   4  21  1   
  8   5   7  ar  
  9   5  22  1   
 10   6   7  ar  
 11   6  23  1   
 12   7   8  1   
 13   8   9  2   
 14   8  10  am  
 15  10  11  1   
 16  10  24  1   
 17  11  12  1   
 18  11  25  1   
 19  11  26  1   
 20  12  13  2   
 21  12  14  am  
 22  14  15  1   
 23  14  16  1   
 24  15  17  1   
 25  15  27  1   
 26  15  28  1   
 27  16  18  1   
 28  16  29  1   
 29  16  30  1   
 30  17  19  1   
 31  17  31  1   
 32  17  32  1   
 33  18  19  1   
 34  18  33  1   
 35  18  34  1   
@<TRIPOS>SUBSTRUCTURE
  1 ****  10 GROUP 4 **** **** 0

# MOE 2024.06 (io_trps.svl 2023.06)
