@<TRIPOS>MOLECULE
NONAME
45 47 1 0 0 
SMALL
USER_CHARGES


@<TRIPOS>ATOM
  1 O        0.0250     0.7810    -0.4990 O.2   1 <1>  -0.5700 
  2 C       -0.7020     1.6770    -0.1380 C.2   1 <1>   0.5690 
  3 N       -2.0040     1.4190     0.1480 N.am  1 <1>  -0.7300 
  4 C       -0.1740     3.1200     0.0080 C.3   1 <1>   0.0610 
  5 C       -2.6320     0.0650     0.0970 C.3   1 <1>   0.2010 
  6 C       -0.9470     4.0740    -0.9360 C.3   1 <1>  -0.1600 
  7 C        1.3340     3.2160    -0.3440 C.3   1 <1>  -0.1600 
  8 C       -0.3560     3.6160     1.4650 C.3   1 <1>  -0.1600 
  9 C       -4.0050     0.0090     0.7680 C.2   1 <1>   0.6590 
 10 C       -0.4500     5.5270    -0.7950 C.3   1 <1>   0.0000 
 11 C        1.8580     4.6580    -0.1980 C.3   1 <1>   0.0000 
 12 C        0.1480     5.0620     1.6190 C.3   1 <1>  -0.0800 
 13 O       -4.5550     1.0000     1.1830 O.2   1 <1>  -0.5700 
 14 O       -4.5570    -1.1960     0.8640 O.3   1 <1>  -0.4300 
 15 C        1.0520     5.5760    -1.1390 C.3   1 <1>  -0.1600 
 16 C       -0.6410     5.9780     0.6680 C.3   1 <1>  -0.1600 
 17 C       -1.2370     6.4470    -1.7370 C.3   1 <1>  -0.2400 
 18 C        1.6420     5.1200     1.2570 C.3   1 <1>  -0.1600 
 19 C        3.3490     4.7160    -0.5540 C.3   1 <1>  -0.2400 
 20 C       -5.8230    -1.3870     1.4620 C.3   1 <1>   0.0400 
 21 H       -2.6240     2.1630     0.4840 H     1 <1>   0.3700 
 22 H       -1.9820    -0.6410     0.5820 H     1 <1>   0.0800 
 23 H       -2.7400    -0.2310    -0.9300 H     1 <1>   0.0800 
 24 H       -1.9980     4.0360    -0.7140 H     1 <1>   0.0800 
 25 H       -0.8190     3.7440    -1.9530 H     1 <1>   0.0800 
 26 H        1.4860     2.8770    -1.3540 H     1 <1>   0.0800 
 27 H        1.8930     2.5610     0.3010 H     1 <1>   0.0800 
 28 H        0.1860     2.9710     2.1340 H     1 <1>   0.0800 
 29 H       -1.3940     3.5740     1.7450 H     1 <1>   0.0800 
 30 H        0.0090     5.3880     2.6360 H     1 <1>   0.0800 
 31 H        1.2000     5.2670    -2.1590 H     1 <1>   0.0800 
 32 H        1.4100     6.5870    -1.0500 H     1 <1>   0.0800 
 33 H       -1.6850     5.9540     0.9270 H     1 <1>   0.0800 
 34 H       -0.3010     6.9930     0.7840 H     1 <1>   0.0800 
 35 H       -1.1090     6.1370    -2.7590 H     1 <1>   0.0800 
 36 H       -0.8930     7.4620    -1.6450 H     1 <1>   0.0800 
 37 H       -2.2860     6.4210    -1.5020 H     1 <1>   0.0800 
 38 H        2.0030     6.1260     1.3790 H     1 <1>   0.0800 
 39 H        2.2000     4.4900     1.9280 H     1 <1>   0.0800 
 40 H        3.5060     4.3930    -1.5670 H     1 <1>   0.0800 
 41 H        3.9160     4.0760     0.0980 H     1 <1>   0.0800 
 42 H        3.7210     5.7200    -0.4540 H     1 <1>   0.0800 
 43 H       -6.0630    -2.4350     1.4260 H     1 <1>   0.0800 
 44 H       -6.5570    -0.8200     0.9150 H     1 <1>   0.0800 
 45 H       -5.7810    -1.0510     2.4830 H     1 <1>   0.0800 
@<TRIPOS>BOND
  1   1   2  2   
  2   2   3  am  
  3   2   4  1   
  4   3   5  1   
  5   3  21  1   
  6   4   6  1   
  7   4   7  1   
  8   4   8  1   
  9   5   9  1   
 10   5  22  1   
 11   5  23  1   
 12   6  10  1   
 13   6  24  1   
 14   6  25  1   
 15   7  11  1   
 16   7  26  1   
 17   7  27  1   
 18   8  12  1   
 19   8  28  1   
 20   8  29  1   
 21   9  13  2   
 22   9  14  1   
 23  10  15  1   
 24  10  16  1   
 25  10  17  1   
 26  11  15  1   
 27  11  18  1   
 28  11  19  1   
 29  12  16  1   
 30  12  18  1   
 31  12  30  1   
 32  14  20  1   
 33  15  31  1   
 34  15  32  1   
 35  16  33  1   
 36  16  34  1   
 37  17  35  1   
 38  17  36  1   
 39  17  37  1   
 40  18  38  1   
 41  18  39  1   
 42  19  40  1   
 43  19  41  1   
 44  19  42  1   
 45  20  43  1   
 46  20  44  1   
 47  20  45  1   
@<TRIPOS>SUBSTRUCTURE
  1 ****   4 GROUP 4 **** **** 0

# MOE 2024.06 (io_trps.svl 2023.06)
