@<TRIPOS>MOLECULE
NONAME
52 53 1 0 0 
SMALL
USER_CHARGES


@<TRIPOS>ATOM
  1 S        0.0620    -0.5890     1.3650 S.o2  1 <1>   1.3330 
  2 O        0.7880     0.3250     0.5090 O.2   1 <1>  -0.6500 
  3 O       -1.1690    -0.1470     1.9770 O.2   1 <1>  -0.6500 
  4 N       -0.2110    -2.0250     0.5040 N.am  1 <1>  -0.8490 
  5 C        1.1250    -1.1400     2.6830 C.3   1 <1>  -0.1350 
  6 C       -1.6310    -2.3140     0.2500 C.3   1 <1>   0.2760 
  7 C        0.6980    -2.2140    -0.6670 C.3   1 <1>   0.2570 
  8 C       -1.8620    -3.8160     0.0190 C.3   1 <1>  -0.1600 
  9 C       -2.2120    -1.4810    -0.9070 C.3   1 <1>  -0.1600 
 10 C        2.1980    -2.3480    -0.3530 C.2   1 <1>   0.5690 
 11 C       -3.3590    -4.1130    -0.1550 C.3   1 <1>  -0.1600 
 12 C       -3.7080    -1.7790    -1.0900 C.3   1 <1>  -0.1600 
 13 O        2.6720    -3.4500    -0.2090 O.2   1 <1>  -0.5700 
 14 N        2.9620    -1.2270    -0.2660 N.am  1 <1>  -0.7300 
 15 C       -3.9580    -3.2790    -1.2970 C.3   1 <1>  -0.1600 
 16 C        4.4200    -1.1760    -0.0790 C.3   1 <1>   0.2200 
 17 C        4.6920    -0.5410     1.2900 C.3   1 <1>  -0.1600 
 18 C        5.0150    -0.4180    -1.2740 C.3   1 <1>  -0.1600 
 19 C        6.1750    -0.2980     1.6180 C.3   1 <1>  -0.1600 
 20 C        6.5420    -0.5650    -1.3630 C.3   1 <1>  -0.1600 
 21 C        6.7720     0.8650     0.8140 C.3   1 <1>  -0.1600 
 22 C        7.3380     0.4760    -0.5600 C.3   1 <1>  -0.1600 
 23 H        2.0060    -1.6060     2.2900 H     1 <1>   0.0800 
 24 H        0.6080    -1.8530     3.2930 H     1 <1>   0.0800 
 25 H        1.4150    -0.3090     3.2940 H     1 <1>   0.0800 
 26 H       -2.1910    -2.0750     1.1380 H     1 <1>   0.0800 
 27 H        0.5740    -1.3940    -1.3520 H     1 <1>   0.0800 
 28 H        0.4300    -3.1070    -1.1970 H     1 <1>   0.0800 
 29 H       -1.4850    -4.3660     0.8630 H     1 <1>   0.0800 
 30 H       -1.3530    -4.1530    -0.8640 H     1 <1>   0.0800 
 31 H       -1.7070    -1.7120    -1.8260 H     1 <1>   0.0800 
 32 H       -2.0900    -0.4320    -0.6990 H     1 <1>   0.0800 
 33 H       -3.8780    -3.8880     0.7610 H     1 <1>   0.0800 
 34 H       -3.4970    -5.1610    -0.3620 H     1 <1>   0.0800 
 35 H       -4.0850    -1.2300    -1.9360 H     1 <1>   0.0800 
 36 H       -4.2460    -1.4450    -0.2180 H     1 <1>   0.0800 
 37 H        2.4850    -0.3130    -0.2670 H     1 <1>   0.3700 
 38 H       -5.0180    -3.4620    -1.3560 H     1 <1>   0.0800 
 39 H       -3.5200    -3.5880    -2.2310 H     1 <1>   0.0800 
 40 H        4.8070    -2.1820    -0.0790 H     1 <1>   0.0800 
 41 H        4.3000    -1.2070     2.0380 H     1 <1>   0.0800 
 42 H        4.1580     0.3900     1.3670 H     1 <1>   0.0800 
 43 H        4.7360     0.6200    -1.2470 H     1 <1>   0.0800 
 44 H        4.6010    -0.8490    -2.1690 H     1 <1>   0.0800 
 45 H        6.7510    -1.1970     1.4760 H     1 <1>   0.0800 
 46 H        6.2370    -0.0430     2.6620 H     1 <1>   0.0800 
 47 H        6.8370    -0.4780    -2.3950 H     1 <1>   0.0800 
 48 H        6.8240    -1.5550    -1.0450 H     1 <1>   0.0800 
 49 H        7.5740     1.3010     1.3850 H     1 <1>   0.0800 
 50 H        6.0290     1.6350     0.6910 H     1 <1>   0.0800 
 51 H        7.4220     1.3740    -1.1480 H     1 <1>   0.0800 
 52 H        8.3370     0.0960    -0.4280 H     1 <1>   0.0800 
@<TRIPOS>BOND
  1   1   2  2   
  2   1   3  2   
  3   1   4  am  
  4   1   5  1   
  5   4   6  1   
  6   4   7  1   
  7   5  23  1   
  8   5  24  1   
  9   5  25  1   
 10   6   8  1   
 11   6   9  1   
 12   6  26  1   
 13   7  10  1   
 14   7  27  1   
 15   7  28  1   
 16   8  11  1   
 17   8  29  1   
 18   8  30  1   
 19   9  12  1   
 20   9  31  1   
 21   9  32  1   
 22  10  13  2   
 23  10  14  am  
 24  11  15  1   
 25  11  33  1   
 26  11  34  1   
 27  12  15  1   
 28  12  35  1   
 29  12  36  1   
 30  14  16  1   
 31  14  37  1   
 32  15  38  1   
 33  15  39  1   
 34  16  17  1   
 35  16  18  1   
 36  16  40  1   
 37  17  19  1   
 38  17  41  1   
 39  17  42  1   
 40  18  20  1   
 41  18  43  1   
 42  18  44  1   
 43  19  21  1   
 44  19  45  1   
 45  19  46  1   
 46  20  22  1   
 47  20  47  1   
 48  20  48  1   
 49  21  22  1   
 50  21  49  1   
 51  21  50  1   
 52  22  51  1   
 53  22  52  1   
@<TRIPOS>SUBSTRUCTURE
  1 ****  10 GROUP 4 **** **** 0

# MOE 2024.06 (io_trps.svl 2023.06)
