@<TRIPOS>MOLECULE
NONAME
45 46 1 0 0 
SMALL
USER_CHARGES


@<TRIPOS>ATOM
  1 O       -2.5950     0.6050     1.9950 O.3   1 <1>  -0.3630 
  2 C       -2.7000     1.0890     0.7250 C.ar  1 <1>   0.0830 
  3 C       -1.3800     0.5940     2.7120 C.3   1 <1>   0.0400 
  4 C       -1.8020     1.9540     0.0740 C.ar  1 <1>   0.0830 
  5 C       -3.8320     0.6560     0.0560 C.ar  1 <1>  -0.1500 
  6 O       -0.6950     2.4140     0.7270 O.3   1 <1>  -0.3630 
  7 C       -2.0750     2.3380    -1.2370 C.ar  1 <1>  -0.1500 
  8 C       -4.1040     1.0560    -1.2420 C.ar  1 <1>  -0.1430 
  9 C        0.2520     3.2640     0.1170 C.3   1 <1>   0.0400 
 10 C       -3.2120     1.8950    -1.8890 C.ar  1 <1>  -0.1500 
 11 C       -5.3710     0.5900    -1.9350 C.3   1 <1>   0.4860 
 12 N       -6.5430     1.1560    -1.2200 N.4   1 <1>  -0.9590 
 13 C       -7.8680     0.6770    -1.7270 C.3   1 <1>   0.3430 
 14 C       -6.5240     2.6500    -1.0860 C.3   1 <1>   0.3430 
 15 C       -9.0330     1.2390    -0.8730 C.3   1 <1>   0.1100 
 16 C       -7.6790     3.1390    -0.1780 C.3   1 <1>   0.1100 
 17 N       -8.5530     2.0320     0.2880 N.3   1 <1>  -0.8100 
 18 C       -9.6650     2.5580     1.1080 C.3   1 <1>   0.1100 
 19 C      -10.3310     1.4550     1.9400 C.3   1 <1>   0.1200 
 20 O      -11.3310     2.0150     2.7180 O.3   1 <1>  -0.6800 
 21 H       -1.5070    -0.0290     3.5780 H     1 <1>   0.0800 
 22 H       -1.1480     1.5980     3.0180 H     1 <1>   0.0800 
 23 H       -0.6050     0.1960     2.0820 H     1 <1>   0.0800 
 24 H       -4.4950    -0.0080     0.5820 H     1 <1>   0.1500 
 25 H       -1.4110     2.9890    -1.7750 H     1 <1>   0.1500 
 26 H        1.0270     3.4680     0.8340 H     1 <1>   0.0800 
 27 H       -0.2310     4.1820    -0.1670 H     1 <1>   0.0800 
 28 H        0.6720     2.7640    -0.7390 H     1 <1>   0.0800 
 29 H       -3.3880     2.2150    -2.9030 H     1 <1>   0.1500 
 30 H       -5.4100    -0.4870    -1.9190 H     1 <1>   0.0800 
 31 H       -5.3680     0.9180    -2.9610 H     1 <1>   0.0800 
 32 H       -6.5120     0.8410    -0.2380 H     1 <1>   0.4500 
 33 H       -7.9040    -0.4000    -1.6940 H     1 <1>   0.0800 
 34 H       -8.0050     0.9790    -2.7520 H     1 <1>   0.0800 
 35 H       -6.6140     3.1100    -2.0560 H     1 <1>   0.0800 
 36 H       -5.5880     2.9720    -0.6570 H     1 <1>   0.0800 
 37 H       -9.6300     0.4120    -0.5300 H     1 <1>   0.0800 
 38 H       -9.6640     1.8510    -1.4970 H     1 <1>   0.0800 
 39 H       -8.2620     3.8680    -0.7150 H     1 <1>   0.0800 
 40 H       -7.2530     3.6360     0.6780 H     1 <1>   0.0800 
 41 H      -10.4010     3.0290     0.4770 H     1 <1>   0.0800 
 42 H       -9.2780     3.2960     1.7910 H     1 <1>   0.0800 
 43 H       -9.6200     0.9790     2.5920 H     1 <1>   0.0800 
 44 H      -10.7950     0.7200     1.3070 H     1 <1>   0.0800 
 45 H      -10.9540     2.5400     3.4520 H     1 <1>   0.4000 
@<TRIPOS>BOND
  1   1   2  1   
  2   1   3  1   
  3   2   4  ar  
  4   2   5  ar  
  5   3  21  1   
  6   3  22  1   
  7   3  23  1   
  8   4   6  1   
  9   4   7  ar  
 10   5   8  ar  
 11   5  24  1   
 12   6   9  1   
 13   7  10  ar  
 14   7  25  1   
 15   8  10  ar  
 16   8  11  1   
 17   9  26  1   
 18   9  27  1   
 19   9  28  1   
 20  10  29  1   
 21  11  12  1   
 22  11  30  1   
 23  11  31  1   
 24  12  13  1   
 25  12  14  1   
 26  12  32  1   
 27  13  15  1   
 28  13  33  1   
 29  13  34  1   
 30  14  16  1   
 31  14  35  1   
 32  14  36  1   
 33  15  17  1   
 34  15  37  1   
 35  15  38  1   
 36  16  17  1   
 37  16  39  1   
 38  16  40  1   
 39  17  18  1   
 40  18  19  1   
 41  18  41  1   
 42  18  42  1   
 43  19  20  1   
 44  19  43  1   
 45  19  44  1   
 46  20  45  1   
@<TRIPOS>SUBSTRUCTURE
  1 ****   5 GROUP 4 **** **** 0

# MOE 2024.06 (io_trps.svl 2023.06)
