@<TRIPOS>MOLECULE
NONAME
54 56 1 0 0 
SMALL
USER_CHARGES


@<TRIPOS>ATOM
  1 O       -1.7080     3.2880    -0.3640 O.2   1 <1>  -0.5700 
  2 C       -1.3220     2.4410    -1.1460 C.2   1 <1>   0.6900 
  3 N       -2.2380     1.8360    -1.9550 N.am  1 <1>  -0.6600 
  4 N       -0.0300     2.0280    -1.2300 N.am  1 <1>  -0.5470 
  5 C       -2.7500     0.5150    -1.5000 C.3   1 <1>   0.1400 
  6 C       -3.3040     2.7000    -2.5420 C.3   1 <1>   0.1400 
  7 C        1.1050     2.3540    -0.4700 C.ar  1 <1>   0.1170 
  8 C       -3.8970     0.7130    -0.4850 C.3   1 <1>   0.3430 
  9 C       -4.4580     2.8950    -1.5360 C.3   1 <1>   0.3430 
 10 C        2.3610     2.1220    -1.0180 C.ar  1 <1>  -0.1500 
 11 C        1.0330     2.8830     0.8150 C.ar  1 <1>  -0.1500 
 12 N       -5.0070     1.5810    -1.0290 N.4   1 <1>  -0.9590 
 13 C        3.5160     2.4080    -0.3110 C.ar  1 <1>  -0.1500 
 14 C        2.1840     3.1710     1.5260 C.ar  1 <1>  -0.1500 
 15 C       -6.0440     1.7870     0.0310 C.3   1 <1>   0.3430 
 16 C        3.4310     2.9370     0.9730 C.ar  1 <1>   0.0820 
 17 C       -7.3160     2.4390    -0.5150 C.3   1 <1>  -0.0170 
 18 O        4.5090     3.2480     1.7400 O.3   1 <1>  -0.3620 
 19 C       -8.3410     2.4970     0.5990 C.ar  1 <1>  -0.1440 
 20 C        5.8190     3.0750     1.2540 C.3   1 <1>   0.1200 
 21 C       -9.3010     1.5040     0.7250 C.ar  1 <1>  -0.1500 
 22 C       -8.3190     3.5420     1.5110 C.ar  1 <1>  -0.1500 
 23 C        6.7890     3.5280     2.3400 C.3   1 <1>  -0.2400 
 24 C      -10.2250     1.5520     1.7540 C.ar  1 <1>  -0.1500 
 25 C       -9.2430     3.5890     2.5410 C.ar  1 <1>  -0.1500 
 26 C      -10.1950     2.5940     2.6630 C.ar  1 <1>  -0.1500 
 27 H        0.1520     1.4710    -2.0600 H     1 <1>   0.3700 
 28 H       -1.9550    -0.0400    -1.0300 H     1 <1>   0.0800 
 29 H       -3.0930    -0.0540    -2.3460 H     1 <1>   0.0800 
 30 H       -3.6710     2.2580    -3.4510 H     1 <1>   0.0800 
 31 H       -2.8860     3.6620    -2.7890 H     1 <1>   0.0800 
 32 H       -3.4840     1.1730     0.3980 H     1 <1>   0.0800 
 33 H       -4.2890    -0.2500    -0.2030 H     1 <1>   0.0800 
 34 H       -5.2390     3.4670    -2.0080 H     1 <1>   0.0800 
 35 H       -4.0830     3.4740    -0.7070 H     1 <1>   0.0800 
 36 H        2.4430     1.7160    -2.0100 H     1 <1>   0.1500 
 37 H        0.0810     3.0720     1.2730 H     1 <1>   0.1500 
 38 H       -5.4370     1.0840    -1.8200 H     1 <1>   0.4500 
 39 H        4.4650     2.2140    -0.7730 H     1 <1>   0.1500 
 40 H        2.1220     3.5810     2.5180 H     1 <1>   0.1500 
 41 H       -5.6430     2.4000     0.8230 H     1 <1>   0.0800 
 42 H       -6.3140     0.8350     0.4600 H     1 <1>   0.0800 
 43 H       -7.7100     1.8620    -1.3330 H     1 <1>   0.0800 
 44 H       -7.1190     3.4380    -0.8580 H     1 <1>   0.0800 
 45 H        5.9350     3.6740     0.3670 H     1 <1>   0.0800 
 46 H        5.9630     2.0330     1.0260 H     1 <1>   0.0800 
 47 H       -9.3460     0.6860     0.0270 H     1 <1>   0.1500 
 48 H       -7.5910     4.3300     1.4330 H     1 <1>   0.1500 
 49 H        6.6250     4.5650     2.5730 H     1 <1>   0.0800 
 50 H        7.8010     3.4080     1.9990 H     1 <1>   0.0800 
 51 H        6.6530     2.9350     3.2270 H     1 <1>   0.0800 
 52 H      -10.9700     0.7800     1.8490 H     1 <1>   0.1500 
 53 H       -9.2240     4.4020     3.2470 H     1 <1>   0.1500 
 54 H      -10.9150     2.6310     3.4630 H     1 <1>   0.1500 
@<TRIPOS>BOND
  1   1   2  2   
  2   2   3  am  
  3   2   4  am  
  4   3   5  1   
  5   3   6  1   
  6   4   7  1   
  7   4  27  1   
  8   5   8  1   
  9   5  28  1   
 10   5  29  1   
 11   6   9  1   
 12   6  30  1   
 13   6  31  1   
 14   7  10  ar  
 15   7  11  ar  
 16   8  12  1   
 17   8  32  1   
 18   8  33  1   
 19   9  12  1   
 20   9  34  1   
 21   9  35  1   
 22  10  13  ar  
 23  10  36  1   
 24  11  14  ar  
 25  11  37  1   
 26  12  15  1   
 27  12  38  1   
 28  13  16  ar  
 29  13  39  1   
 30  14  16  ar  
 31  14  40  1   
 32  15  17  1   
 33  15  41  1   
 34  15  42  1   
 35  16  18  1   
 36  17  19  1   
 37  17  43  1   
 38  17  44  1   
 39  18  20  1   
 40  19  21  ar  
 41  19  22  ar  
 42  20  23  1   
 43  20  45  1   
 44  20  46  1   
 45  21  24  ar  
 46  21  47  1   
 47  22  25  ar  
 48  22  48  1   
 49  23  49  1   
 50  23  50  1   
 51  23  51  1   
 52  24  26  ar  
 53  24  52  1   
 54  25  26  ar  
 55  25  53  1   
 56  26  54  1   
@<TRIPOS>SUBSTRUCTURE
  1 ****   1 GROUP 4 **** **** 0

# MOE 2024.06 (io_trps.svl 2023.06)
