@<TRIPOS>MOLECULE
NONAME
52 55 1 0 0 
SMALL
USER_CHARGES


@<TRIPOS>ATOM
  1 S       -0.2870     0.4420    -0.2400 S.3   1 <1>  -0.0800 
  2 C       -0.6950     2.1350    -0.5080 C.2   1 <1>   0.1040 
  3 C        1.4210     0.8020    -0.2160 C.2   1 <1>  -0.1400 
  4 N       -2.0370     2.4710    -0.6490 N.am  1 <1>  -0.4940 
  5 C        0.4390     2.9040    -0.5800 C.2   1 <1>  -0.0860 
  6 C        1.6400     2.1070    -0.4240 C.2   1 <1>  -0.1810 
  7 C        2.4250    -0.3000     0.0260 C.3   1 <1>   0.0200 
  8 C       -3.1580     1.9490    -0.0430 C.2   1 <1>   0.5690 
  9 C        0.4780     4.3360    -0.7640 C.2   1 <1>   0.7160 
 10 C        3.0650     2.6470    -0.4530 C.3   1 <1>   0.0210 
 11 C        3.7870     0.3230     0.3990 C.3   1 <1>  -0.0800 
 12 O       -3.0740     1.0560     0.7690 O.2   1 <1>  -0.5700 
 13 C       -4.5760     2.4410    -0.4360 C.3   1 <1>  -0.0190 
 14 O        1.3210     4.8690    -1.4640 O.2   1 <1>  -0.5700 
 15 N       -0.3800     5.1790    -0.1550 N.am  1 <1>  -0.8000 
 16 C        4.1120     1.5150    -0.5330 C.3   1 <1>  -0.1600 
 17 C        4.8810    -0.7630     0.3780 C.3   1 <1>  -0.1600 
 18 C       -4.8300     3.9730    -0.6080 C.3   1 <1>  -0.1860 
 19 C       -5.6450     2.0790     0.6300 C.3   1 <1>  -0.0800 
 20 C        6.2230    -0.2920     0.9550 C.3   1 <1>  -0.2400 
 21 C       -3.5860     4.8290    -0.5420 C.2   1 <1>   0.9060 
 22 C       -5.8960     4.2940     0.4630 C.3   1 <1>  -0.0800 
 23 C       -5.5730     3.2850     1.5500 C.3   1 <1>  -0.1600 
 24 C       -7.0550     2.2340     0.0280 C.3   1 <1>  -0.1600 
 25 O       -3.1430     5.2650     0.5200 O.co2 1 <1>  -0.9000 
 26 O       -2.9200     4.9170    -1.5760 O.co2 1 <1>  -0.9000 
 27 C       -7.2450     3.7590    -0.0430 C.3   1 <1>  -0.1600 
 28 H       -2.2140     3.3570    -1.1600 H     1 <1>   0.3700 
 29 H        2.5090    -0.8900    -0.8690 H     1 <1>   0.0800 
 30 H        2.0820    -0.9320     0.8250 H     1 <1>   0.0800 
 31 H        3.2250     3.2330     0.4340 H     1 <1>   0.0800 
 32 H        3.2020     3.2870    -1.3060 H     1 <1>   0.0800 
 33 H        3.7030     0.7040     1.4040 H     1 <1>   0.0800 
 34 H       -4.8120     1.9420    -1.3580 H     1 <1>   0.0800 
 35 H       -0.4510     6.1140    -0.5420 H     1 <1>   0.3700 
 36 H       -1.3200     4.8840     0.1700 H     1 <1>   0.3700 
 37 H        5.0710     1.9340    -0.2950 H     1 <1>   0.0800 
 38 H        4.1520     1.1590    -1.5480 H     1 <1>   0.0800 
 39 H        5.0300    -1.1100    -0.6300 H     1 <1>   0.0800 
 40 H        4.5450    -1.6020     0.9630 H     1 <1>   0.0800 
 41 H       -5.2430     4.1520    -1.5830 H     1 <1>   0.0800 
 42 H       -5.5020     1.1290     1.1150 H     1 <1>   0.0800 
 43 H        6.6710     0.4600     0.3300 H     1 <1>   0.0800 
 44 H        6.9040    -1.1220     1.0160 H     1 <1>   0.0800 
 45 H        6.0870     0.1110     1.9430 H     1 <1>   0.0800 
 46 H       -5.9120     5.3240     0.7780 H     1 <1>   0.0800 
 47 H       -4.5920     3.4340     1.9730 H     1 <1>   0.0800 
 48 H       -6.3120     3.2620     2.3330 H     1 <1>   0.0800 
 49 H       -7.7890     1.8000     0.6830 H     1 <1>   0.0800 
 50 H       -7.1280     1.7730    -0.9420 H     1 <1>   0.0800 
 51 H       -7.4680     4.0970    -1.0400 H     1 <1>   0.0800 
 52 H       -8.0350     4.0670     0.6190 H     1 <1>   0.0800 
@<TRIPOS>BOND
  1   1   2  1   
  2   1   3  1   
  3   2   4  1   
  4   2   5  2   
  5   3   6  2   
  6   3   7  1   
  7   4   8  am  
  8   4  28  1   
  9   5   6  1   
 10   5   9  1   
 11   6  10  1   
 12   7  11  1   
 13   7  29  1   
 14   7  30  1   
 15   8  12  2   
 16   8  13  1   
 17   9  14  2   
 18   9  15  am  
 19  10  16  1   
 20  10  31  1   
 21  10  32  1   
 22  11  16  1   
 23  11  17  1   
 24  11  33  1   
 25  13  18  1   
 26  13  19  1   
 27  13  34  1   
 28  15  35  1   
 29  15  36  1   
 30  16  37  1   
 31  16  38  1   
 32  17  20  1   
 33  17  39  1   
 34  17  40  1   
 35  18  21  1   
 36  18  22  1   
 37  18  41  1   
 38  19  23  1   
 39  19  24  1   
 40  19  42  1   
 41  20  43  1   
 42  20  44  1   
 43  20  45  1   
 44  21  25  ar  
 45  21  26  ar  
 46  22  23  1   
 47  22  27  1   
 48  22  46  1   
 49  23  47  1   
 50  23  48  1   
 51  24  27  1   
 52  24  49  1   
 53  24  50  1   
 54  27  51  1   
 55  27  52  1   
@<TRIPOS>SUBSTRUCTURE
  1 ****   2 GROUP 4 **** **** 0

# MOE 2024.06 (io_trps.svl 2023.06)
