@<TRIPOS>MOLECULE
NONAME
50 53 1 0 0 
SMALL
USER_CHARGES


@<TRIPOS>ATOM
  1 O       -1.3870    -2.6050     2.3670 O.2   1 <1>  -0.5700 
  2 C       -0.9620    -2.7870     1.2470 C.2   1 <1>   0.7800 
  3 O        0.2160    -3.3850     1.1070 O.3   1 <1>  -0.4300 
  4 N       -1.6880    -2.4440     0.1330 N.am  1 <1>  -0.6600 
  5 C        1.2210    -2.7970     0.3150 C.3   1 <1>   0.1200 
  6 C       -1.8140    -3.3830    -1.0040 C.3   1 <1>   0.1400 
  7 C       -2.7860    -1.4560     0.2460 C.3   1 <1>   0.1400 
  8 C        2.4140    -3.7460     0.2880 C.3   1 <1>  -0.2400 
  9 C       -3.0980    -4.1920    -0.8050 C.3   1 <1>  -0.1600 
 10 C       -4.0940    -2.2130     0.4760 C.3   1 <1>  -0.1600 
 11 C       -4.3150    -3.2730    -0.6180 C.3   1 <1>   0.4230 
 12 N       -5.5260    -4.0990    -0.3500 N.4   1 <1>  -0.9590 
 13 C       -6.7890    -3.3470    -0.6070 C.3   1 <1>   0.5230 
 14 C       -5.5560    -4.7750     1.0030 C.3   1 <1>   0.3430 
 15 C       -7.9260    -4.3180    -0.3950 C.2   1 <1>  -0.3320 
 16 C       -6.5930    -5.9100     1.0370 C.3   1 <1>   0.0210 
 17 N       -9.1960    -4.1830    -0.8920 N.pl3 1 <1>   0.0330 
 18 C       -7.8490    -5.4560     0.3280 C.2   1 <1>  -0.1810 
 19 C       -9.9250    -5.2700    -0.4790 C.ar  1 <1>  -0.1520 
 20 C       -9.1060    -6.0920     0.2900 C.ar  1 <1>   0.0000 
 21 C      -11.2580    -5.6110    -0.7190 C.ar  1 <1>  -0.1500 
 22 C       -9.6210    -7.2740     0.8300 C.ar  1 <1>  -0.1500 
 23 C      -11.7530    -6.7770    -0.1810 C.ar  1 <1>  -0.1500 
 24 C      -10.9350    -7.6090     0.5930 C.ar  1 <1>  -0.1500 
 25 H        1.4910    -1.8550     0.7620 H     1 <1>   0.0800 
 26 H        0.8440    -2.6300    -0.6790 H     1 <1>   0.0800 
 27 H       -0.9680    -4.0500    -1.0380 H     1 <1>   0.0800 
 28 H       -1.8450    -2.8290    -1.9270 H     1 <1>   0.0800 
 29 H       -2.8330    -0.8680    -0.6550 H     1 <1>   0.0800 
 30 H       -2.5950    -0.7880     1.0710 H     1 <1>   0.0800 
 31 H        2.7780    -3.9070     1.2870 H     1 <1>   0.0800 
 32 H        3.2060    -3.3200    -0.3000 H     1 <1>   0.0800 
 33 H        2.1320    -4.6880    -0.1460 H     1 <1>   0.0800 
 34 H       -2.9530    -4.8200     0.0550 H     1 <1>   0.0800 
 35 H       -3.2430    -4.8220    -1.6640 H     1 <1>   0.0800 
 36 H       -4.9000    -1.5020     0.4810 H     1 <1>   0.0800 
 37 H       -4.0320    -2.6640     1.4500 H     1 <1>   0.0800 
 38 H       -4.4560    -2.7490    -1.5500 H     1 <1>   0.0800 
 39 H       -5.5530    -4.8620    -1.0360 H     1 <1>   0.4500 
 40 H       -6.8020    -2.9800    -1.6210 H     1 <1>   0.0800 
 41 H       -6.8840    -2.5150     0.0720 H     1 <1>   0.0800 
 42 H       -5.8160    -4.0480     1.7550 H     1 <1>   0.0800 
 43 H       -4.5880    -5.1770     1.2510 H     1 <1>   0.0800 
 44 H       -6.8170    -6.1640     2.0580 H     1 <1>   0.0800 
 45 H       -6.2010    -6.7860     0.5510 H     1 <1>   0.0800 
 46 H       -9.5840    -3.4270    -1.4680 H     1 <1>   0.2700 
 47 H      -11.8850    -4.9700    -1.3140 H     1 <1>   0.1500 
 48 H       -8.9880    -7.9080     1.4230 H     1 <1>   0.1500 
 49 H      -12.7770    -7.0630    -0.3510 H     1 <1>   0.1500 
 50 H      -11.3480    -8.5150     1.0010 H     1 <1>   0.1500 
@<TRIPOS>BOND
  1   1   2  2   
  2   2   3  1   
  3   2   4  am  
  4   3   5  1   
  5   4   6  1   
  6   4   7  1   
  7   5   8  1   
  8   5  25  1   
  9   5  26  1   
 10   6   9  1   
 11   6  27  1   
 12   6  28  1   
 13   7  10  1   
 14   7  29  1   
 15   7  30  1   
 16   8  31  1   
 17   8  32  1   
 18   8  33  1   
 19   9  11  1   
 20   9  34  1   
 21   9  35  1   
 22  10  11  1   
 23  10  36  1   
 24  10  37  1   
 25  11  12  1   
 26  11  38  1   
 27  12  13  1   
 28  12  14  1   
 29  12  39  1   
 30  13  15  1   
 31  13  40  1   
 32  13  41  1   
 33  14  16  1   
 34  14  42  1   
 35  14  43  1   
 36  15  17  1   
 37  15  18  2   
 38  16  18  1   
 39  16  44  1   
 40  16  45  1   
 41  17  19  1   
 42  17  46  1   
 43  18  20  1   
 44  19  20  ar  
 45  19  21  ar  
 46  20  22  ar  
 47  21  23  ar  
 48  21  47  1   
 49  22  24  ar  
 50  22  48  1   
 51  23  24  ar  
 52  23  49  1   
 53  24  50  1   
@<TRIPOS>SUBSTRUCTURE
  1 ****  12 GROUP 4 **** **** 0

# MOE 2024.06 (io_trps.svl 2023.06)
