@<TRIPOS>MOLECULE
NONAME
41 42 1 0 0 
SMALL
USER_CHARGES


@<TRIPOS>ATOM
  1 S       -0.6640     1.1910    -1.3580 S.o2  1 <1>   1.3330 
  2 O        0.6120     1.4060    -0.7160 O.2   1 <1>  -0.6500 
  3 O       -0.8070     0.2150    -2.4120 O.2   1 <1>  -0.6500 
  4 N       -1.7870     0.8110    -0.1500 N.am  1 <1>  -0.8490 
  5 C       -1.2120     2.7620    -2.0020 C.3   1 <1>  -0.1350 
  6 C       -1.7550     1.7110     1.0200 C.3   1 <1>   0.1960 
  7 C       -3.1460     0.5230    -0.6470 C.3   1 <1>   0.1960 
  8 C       -2.6860     1.2230     2.1400 C.3   1 <1>   0.1400 
  9 C       -4.0830     0.0490     0.4780 C.3   1 <1>   0.1400 
 10 N       -4.0650     1.0320     1.6030 N.am  1 <1>  -0.6600 
 11 C       -5.0330     1.9990     1.7610 C.2   1 <1>   0.5440 
 12 O       -4.7300     3.0510     2.2900 O.2   1 <1>  -0.5700 
 13 C       -6.3810     1.8050     1.2660 C.ar  1 <1>   0.0860 
 14 C       -6.9390     2.7010     0.3590 C.ar  1 <1>  -0.1500 
 15 C       -7.1550     0.7150     1.6620 C.ar  1 <1>  -0.1500 
 16 C       -8.2080     2.5130    -0.1590 C.ar  1 <1>   0.0820 
 17 C       -8.4280     0.5190     1.1590 C.ar  1 <1>  -0.1500 
 18 O       -8.6410     3.4370    -1.0500 O.3   1 <1>  -0.3630 
 19 C       -8.9580     1.4130     0.2460 C.ar  1 <1>  -0.1500 
 20 C       -9.9370     3.3790    -1.5980 C.3   1 <1>   0.1200 
 21 C      -10.1080     4.5720    -2.5330 C.3   1 <1>  -0.2400 
 22 H       -1.2120     3.5070    -1.2320 H     1 <1>   0.0800 
 23 H       -2.1980     2.6790    -2.4130 H     1 <1>   0.0800 
 24 H       -0.5470     3.0820    -2.7800 H     1 <1>   0.0800 
 25 H       -2.0560     2.7040     0.7350 H     1 <1>   0.0800 
 26 H       -0.7500     1.7620     1.4060 H     1 <1>   0.0800 
 27 H       -3.0960    -0.2460    -1.3990 H     1 <1>   0.0800 
 28 H       -3.5680     1.4040    -1.0970 H     1 <1>   0.0800 
 29 H       -2.6890     1.9370     2.9460 H     1 <1>   0.0800 
 30 H       -2.3200     0.2900     2.5290 H     1 <1>   0.0800 
 31 H       -3.7500    -0.9090     0.8380 H     1 <1>   0.0800 
 32 H       -5.0760    -0.0720     0.0850 H     1 <1>   0.0800 
 33 H       -6.3720     3.5610     0.0520 H     1 <1>   0.1500 
 34 H       -6.7460     0.0180     2.3740 H     1 <1>   0.1500 
 35 H       -9.0090    -0.3300     1.4790 H     1 <1>   0.1500 
 36 H       -9.9470     1.2390    -0.1340 H     1 <1>   0.1500 
 37 H      -10.6500     3.4220    -0.7920 H     1 <1>   0.0800 
 38 H      -10.0390     2.4540    -2.1390 H     1 <1>   0.0800 
 39 H       -9.9890     5.4900    -1.9850 H     1 <1>   0.0800 
 40 H      -11.0900     4.5570    -2.9680 H     1 <1>   0.0800 
 41 H       -9.3800     4.5290    -3.3230 H     1 <1>   0.0800 
@<TRIPOS>BOND
  1   1   2  2   
  2   1   3  2   
  3   1   4  am  
  4   1   5  1   
  5   4   6  1   
  6   4   7  1   
  7   5  22  1   
  8   5  23  1   
  9   5  24  1   
 10   6   8  1   
 11   6  25  1   
 12   6  26  1   
 13   7   9  1   
 14   7  27  1   
 15   7  28  1   
 16   8  10  1   
 17   8  29  1   
 18   8  30  1   
 19   9  10  1   
 20   9  31  1   
 21   9  32  1   
 22  10  11  am  
 23  11  12  2   
 24  11  13  1   
 25  13  14  ar  
 26  13  15  ar  
 27  14  16  ar  
 28  14  33  1   
 29  15  17  ar  
 30  15  34  1   
 31  16  18  1   
 32  16  19  ar  
 33  17  19  ar  
 34  17  35  1   
 35  18  20  1   
 36  19  36  1   
 37  20  21  1   
 38  20  37  1   
 39  20  38  1   
 40  21  39  1   
 41  21  40  1   
 42  21  41  1   
@<TRIPOS>SUBSTRUCTURE
  1 ****  11 GROUP 4 **** **** 0

# MOE 2024.06 (io_trps.svl 2023.06)
