@<TRIPOS>MOLECULE
NONAME
34 34 1 0 0 
SMALL
USER_CHARGES


@<TRIPOS>ATOM
  1 CL       0.6580    -0.7960    -0.1250 Cl    1 <1>  -0.1770 
  2 C       -0.5450     0.4590    -0.3630 C.ar  1 <1>   0.1770 
  3 C       -0.2480     1.8320    -0.4170 C.ar  1 <1>   0.0830 
  4 C       -1.8480     0.0050    -0.5000 C.ar  1 <1>  -0.1500 
  5 O        0.9740     2.4280    -0.3000 O.3   1 <1>  -0.3630 
  6 C       -1.2970     2.7210    -0.6120 C.ar  1 <1>  -0.1500 
  7 C       -2.8810     0.9060    -0.6940 C.ar  1 <1>  -0.1500 
  8 C        2.1780     1.7340    -0.0990 C.3   1 <1>   0.1200 
  9 C       -2.5910     2.2560    -0.7470 C.ar  1 <1>   0.1770 
 10 C        3.3040     2.7660    -0.0240 C.3   1 <1>   0.3430 
 11 CL      -3.8870     3.3970    -0.9900 Cl    1 <1>  -0.1770 
 12 N        4.6350     2.1120     0.1910 N.4   1 <1>  -0.9060 
 13 C        5.7930     3.0050     0.2800 C.3   1 <1>   0.5030 
 14 C        5.6280     3.9500     1.4700 C.3   1 <1>  -0.2400 
 15 C        5.9480     3.7840    -1.0250 C.3   1 <1>  -0.2400 
 16 C        7.0080     2.1080     0.4960 C.3   1 <1>  -0.2400 
 17 H       -2.0520    -1.0510    -0.4560 H     1 <1>   0.1500 
 18 H       -1.1090     3.7780    -0.6590 H     1 <1>   0.1500 
 19 H       -3.8980     0.5710    -0.8020 H     1 <1>   0.1500 
 20 H        2.3260     1.0730    -0.9350 H     1 <1>   0.0800 
 21 H        2.1000     1.1910     0.8270 H     1 <1>   0.0800 
 22 H        3.0950     3.4430     0.7890 H     1 <1>   0.0800 
 23 H        3.3170     3.3270    -0.9440 H     1 <1>   0.0800 
 24 H        4.8220     1.4540    -0.5730 H     1 <1>   0.4500 
 25 H        4.6130     1.5630     1.0570 H     1 <1>   0.4500 
 26 H        5.4690     3.4040     2.3820 H     1 <1>   0.0800 
 27 H        4.8170     4.6400     1.3210 H     1 <1>   0.0800 
 28 H        6.5220     4.5360     1.5920 H     1 <1>   0.0800 
 29 H        5.1370     4.4740    -1.1760 H     1 <1>   0.0800 
 30 H        6.0140     3.1210    -1.8690 H     1 <1>   0.0800 
 31 H        6.8540     4.3640    -0.9940 H     1 <1>   0.0800 
 32 H        6.9200     1.5450     1.4090 H     1 <1>   0.0800 
 33 H        7.8970     2.7090     0.5700 H     1 <1>   0.0800 
 34 H        7.1430     1.4300    -0.3280 H     1 <1>   0.0800 
@<TRIPOS>BOND
  1   1   2  1   
  2   2   3  ar  
  3   2   4  ar  
  4   3   5  1   
  5   3   6  ar  
  6   4   7  ar  
  7   4  17  1   
  8   5   8  1   
  9   6   9  ar  
 10   6  18  1   
 11   7   9  ar  
 12   7  19  1   
 13   8  10  1   
 14   8  20  1   
 15   8  21  1   
 16   9  11  1   
 17  10  12  1   
 18  10  22  1   
 19  10  23  1   
 20  12  13  1   
 21  12  24  1   
 22  12  25  1   
 23  13  14  1   
 24  13  15  1   
 25  13  16  1   
 26  14  26  1   
 27  14  27  1   
 28  14  28  1   
 29  15  29  1   
 30  15  30  1   
 31  15  31  1   
 32  16  32  1   
 33  16  33  1   
 34  16  34  1   
@<TRIPOS>SUBSTRUCTURE
  1 ****   5 GROUP 4 **** **** 0

# MOE 2024.06 (io_trps.svl 2023.06)
