@<TRIPOS>MOLECULE
NONAME
45 46 1 0 0 
SMALL
USER_CHARGES


@<TRIPOS>ATOM
  1 S        2.8400     0.2750    -2.9160 S.3   1 <1>  -0.3320 
  2 C        3.2980    -0.8810    -1.6320 C.ar  1 <1>   0.7220 
  3 C        4.2960     1.4000    -3.0930 C.3   1 <1>  -0.0100 
  4 N        4.4970    -0.7120    -1.1070 N.ar  1 <1>  -0.6200 
  5 N        2.3770    -1.7850    -1.3510 N.ar  1 <1>  -0.6200 
  6 C        4.7990    -1.5770    -0.1690 C.ar  1 <1>   0.3930 
  7 C        2.7070    -2.6360    -0.4090 C.ar  1 <1>   0.1660 
  8 O        6.0160    -1.4090     0.3710 O.3   1 <1>  -0.3620 
  9 C        3.9240    -2.5750     0.2240 C.ar  1 <1>  -0.1500 
 10 C        1.6790    -3.6900    -0.0540 C.3   1 <1>  -0.0960 
 11 C        6.5240    -2.2340     1.4100 C.3   1 <1>   0.1810 
 12 C        7.9250    -1.8000     1.8220 C.2   1 <1>   0.5690 
 13 O        8.5280    -2.4800     2.6160 O.2   1 <1>  -0.5700 
 14 N        8.4640    -0.6710     1.2910 N.am  1 <1>  -0.7300 
 15 C        9.7960    -0.1120     1.6320 C.3   1 <1>   0.1400 
 16 C       10.8820    -0.7750     0.7870 C.3   1 <1>   0.1200 
 17 O       12.0970    -0.0910     1.0030 O.3   1 <1>  -0.3630 
 18 C       13.2330    -0.4580     0.3580 C.ar  1 <1>   0.0820 
 19 C       14.3590     0.3140     0.5900 C.ar  1 <1>  -0.1500 
 20 C       13.3170    -1.5450    -0.5080 C.ar  1 <1>  -0.1500 
 21 C       15.5580     0.0110    -0.0320 C.ar  1 <1>  -0.1500 
 22 C       14.5180    -1.8450    -1.1280 C.ar  1 <1>  -0.1500 
 23 C       15.6440    -1.0710    -0.8930 C.ar  1 <1>  -0.1440 
 24 C       16.9580    -1.4020    -1.5770 C.3   1 <1>  -0.0970 
 25 H        4.0650     2.1180    -3.8580 H     1 <1>   0.0800 
 26 H        5.1450     0.8000    -3.3680 H     1 <1>   0.0800 
 27 H        4.4560     1.8830    -2.1450 H     1 <1>   0.0800 
 28 H        4.1700    -3.2820     0.9900 H     1 <1>   0.1500 
 29 H        0.7750    -3.2120     0.2790 H     1 <1>   0.0800 
 30 H        2.0370    -4.3390     0.7230 H     1 <1>   0.0800 
 31 H        1.4540    -4.2790    -0.9240 H     1 <1>   0.0800 
 32 H        6.5600    -3.2480     1.0550 H     1 <1>   0.0800 
 33 H        5.8680    -2.1600     2.2570 H     1 <1>   0.0800 
 34 H        7.9100    -0.1580     0.5960 H     1 <1>   0.3700 
 35 H       10.0020    -0.2880     2.6740 H     1 <1>   0.0800 
 36 H        9.7900     0.9490     1.4500 H     1 <1>   0.0800 
 37 H       10.6400    -0.7060    -0.2590 H     1 <1>   0.0800 
 38 H       11.0090    -1.8010     1.0850 H     1 <1>   0.0800 
 39 H       14.2910     1.1510     1.2590 H     1 <1>   0.1500 
 40 H       12.4670    -2.1670    -0.7090 H     1 <1>   0.1500 
 41 H       16.4230     0.6220     0.1590 H     1 <1>   0.1500 
 42 H       14.5740    -2.6860    -1.7960 H     1 <1>   0.1500 
 43 H       17.7880    -1.1050    -0.9610 H     1 <1>   0.0800 
 44 H       17.0200    -0.8830    -2.5170 H     1 <1>   0.0800 
 45 H       17.0320    -2.4590    -1.7580 H     1 <1>   0.0800 
@<TRIPOS>BOND
  1   1   2  1   
  2   1   3  1   
  3   2   4  ar  
  4   2   5  ar  
  5   3  25  1   
  6   3  26  1   
  7   3  27  1   
  8   4   6  ar  
  9   5   7  ar  
 10   6   8  1   
 11   6   9  ar  
 12   7   9  ar  
 13   7  10  1   
 14   8  11  1   
 15   9  28  1   
 16  10  29  1   
 17  10  30  1   
 18  10  31  1   
 19  11  12  1   
 20  11  32  1   
 21  11  33  1   
 22  12  13  2   
 23  12  14  am  
 24  14  15  1   
 25  14  34  1   
 26  15  16  1   
 27  15  35  1   
 28  15  36  1   
 29  16  17  1   
 30  16  37  1   
 31  16  38  1   
 32  17  18  1   
 33  18  19  ar  
 34  18  20  ar  
 35  19  21  ar  
 36  19  39  1   
 37  20  22  ar  
 38  20  40  1   
 39  21  23  ar  
 40  21  41  1   
 41  22  23  ar  
 42  22  42  1   
 43  23  24  1   
 44  24  43  1   
 45  24  44  1   
 46  24  45  1   
@<TRIPOS>SUBSTRUCTURE
  1 ****  14 GROUP 4 **** **** 0

# MOE 2024.06 (io_trps.svl 2023.06)
