@<TRIPOS>MOLECULE
NONAME
43 44 1 0 0 
SMALL
USER_CHARGES


@<TRIPOS>ATOM
  1 O       -0.0180    -0.0820     0.0260 O.2   1 <1>  -0.5700 
  2 C       -0.0880    -1.2810    -0.1590 C.2   1 <1>   0.5440 
  3 N       -1.3050    -1.8220    -0.4520 N.am  1 <1>  -0.7300 
  4 C        1.0940    -2.1220    -0.0840 C.ar  1 <1>   0.0860 
  5 C       -2.5770    -1.0980    -0.4200 C.3   1 <1>   0.3640 
  6 C        1.0290    -3.4610     0.2950 C.ar  1 <1>  -0.1500 
  7 C        2.3550    -1.6170    -0.3920 C.ar  1 <1>  -0.1500 
  8 C       -3.6430    -2.0550     0.1000 C.ar  1 <1>  -0.1430 
  9 C       -2.8860    -0.5780    -1.8210 C.3   1 <1>  -0.2400 
 10 C        2.1610    -4.2540     0.3460 C.ar  1 <1>  -0.1500 
 11 C        3.4880    -2.4080    -0.3420 C.ar  1 <1>  -0.1500 
 12 C       -4.1260    -3.1250    -0.6320 C.ar  1 <1>  -0.1500 
 13 C       -4.1770    -1.9000     1.3650 C.ar  1 <1>  -0.1500 
 14 C        3.4160    -3.7480     0.0260 C.ar  1 <1>  -0.1430 
 15 C       -5.0900    -3.9540    -0.0830 C.ar  1 <1>   0.1600 
 16 C       -5.1370    -2.7880     1.8210 C.ar  1 <1>   0.1600 
 17 C        4.6510    -4.6730     0.0960 C.3   1 <1>   0.1430 
 18 N       -5.6060    -3.8110     1.1260 N.ar  1 <1>  -0.6200 
 19 C        4.8160    -5.2020     1.5290 C.3   1 <1>  -0.2400 
 20 C        4.4620    -5.8550    -0.8660 C.3   1 <1>  -0.2400 
 21 C        5.9600    -3.9650    -0.2910 C.3   1 <1>  -0.2400 
 22 H       -1.3930    -2.8200    -0.6240 H     1 <1>   0.3700 
 23 H       -2.4930    -0.2570     0.2510 H     1 <1>   0.0800 
 24 H        0.0820    -3.8930     0.5640 H     1 <1>   0.1500 
 25 H        2.4420    -0.5830    -0.6780 H     1 <1>   0.1500 
 26 H       -2.8890    -1.3730    -2.5420 H     1 <1>   0.0800 
 27 H       -2.1470     0.1500    -2.1030 H     1 <1>   0.0800 
 28 H       -3.8500    -0.1010    -1.8240 H     1 <1>   0.0800 
 29 H        2.0530    -5.2810     0.6430 H     1 <1>   0.1500 
 30 H        4.4240    -1.9460    -0.5960 H     1 <1>   0.1500 
 31 H       -3.7670    -3.3250    -1.6240 H     1 <1>   0.1500 
 32 H       -3.8530    -1.0980     2.0030 H     1 <1>   0.1500 
 33 H       -5.4560    -4.7790    -0.6700 H     1 <1>   0.1500 
 34 H       -5.5400    -2.6480     2.8090 H     1 <1>   0.1500 
 35 H        3.9670    -5.7890     1.8270 H     1 <1>   0.0800 
 36 H        4.9150    -4.3790     2.2140 H     1 <1>   0.0800 
 37 H        5.6920    -5.8200     1.6070 H     1 <1>   0.0800 
 38 H        4.3110    -5.4930    -1.8680 H     1 <1>   0.0800 
 39 H        3.6110    -6.4490    -0.5910 H     1 <1>   0.0800 
 40 H        5.3280    -6.4920    -0.8600 H     1 <1>   0.0800 
 41 H        6.1560    -3.1420     0.3740 H     1 <1>   0.0800 
 42 H        5.9060    -3.5950    -1.2990 H     1 <1>   0.0800 
 43 H        6.7910    -4.6450    -0.2300 H     1 <1>   0.0800 
@<TRIPOS>BOND
  1   1   2  2   
  2   2   3  am  
  3   2   4  1   
  4   3   5  1   
  5   3  22  1   
  6   4   6  ar  
  7   4   7  ar  
  8   5   8  1   
  9   5   9  1   
 10   5  23  1   
 11   6  10  ar  
 12   6  24  1   
 13   7  11  ar  
 14   7  25  1   
 15   8  12  ar  
 16   8  13  ar  
 17   9  26  1   
 18   9  27  1   
 19   9  28  1   
 20  10  14  ar  
 21  10  29  1   
 22  11  14  ar  
 23  11  30  1   
 24  12  15  ar  
 25  12  31  1   
 26  13  16  ar  
 27  13  32  1   
 28  14  17  1   
 29  15  18  ar  
 30  15  33  1   
 31  16  18  ar  
 32  16  34  1   
 33  17  19  1   
 34  17  20  1   
 35  17  21  1   
 36  19  35  1   
 37  19  36  1   
 38  19  37  1   
 39  20  38  1   
 40  20  39  1   
 41  20  40  1   
 42  21  41  1   
 43  21  42  1   
 44  21  43  1   
@<TRIPOS>SUBSTRUCTURE
  1 ****   6 GROUP 4 **** **** 0

# MOE 2024.06 (io_trps.svl 2023.06)
