@<TRIPOS>MOLECULE
NONAME
31 31 1 0 0 
SMALL
USER_CHARGES


@<TRIPOS>ATOM
  1 F        0.2020    -0.3930    -0.2420 F     1 <1>  -0.3400 
  2 C       -0.9250    -0.9060     0.2410 C.3   1 <1>   1.1640 
  3 F       -1.9110    -0.2230    -0.3270 F     1 <1>  -0.3400 
  4 F       -0.9480    -0.5990     1.5310 F     1 <1>  -0.3400 
  5 C       -1.0270    -2.4230     0.0070 C.ar  1 <1>  -0.1440 
  6 C       -2.2670    -3.0340    -0.1330 C.ar  1 <1>  -0.1500 
  7 C        0.1140    -3.2160    -0.0610 C.ar  1 <1>  -0.1500 
  8 C       -2.3840    -4.4030    -0.3390 C.ar  1 <1>   0.1170 
  9 C        0.0320    -4.5890    -0.2680 C.ar  1 <1>  -0.1440 
 10 N       -3.6210    -5.0440    -0.4930 N.am  1 <1>  -0.5470 
 11 C       -1.2250    -5.1640    -0.4090 C.ar  1 <1>  -0.1500 
 12 C        1.3120    -5.4390    -0.3450 C.3   1 <1>   1.1640 
 13 C       -4.8620    -4.7040    -0.0210 C.2   1 <1>   0.5690 
 14 F        1.9010    -5.3350    -1.5280 F     1 <1>  -0.3400 
 15 F        1.0910    -6.7340    -0.1500 F     1 <1>  -0.3400 
 16 F        2.2150    -5.0770     0.5570 F     1 <1>  -0.3400 
 17 O       -5.0610    -3.7370     0.6730 O.2   1 <1>  -0.5700 
 18 C       -6.0370    -5.6160    -0.3900 C.3   1 <1>  -0.0190 
 19 C       -7.1130    -4.8550    -1.1820 C.3   1 <1>  -0.2400 
 20 C       -6.6620    -6.2620     0.8580 C.3   1 <1>  -0.2400 
 21 H       -3.1610    -2.4370    -0.0850 H     1 <1>   0.1500 
 22 H        1.0860    -2.7580     0.0510 H     1 <1>   0.1500 
 23 H       -3.5860    -5.9290    -0.9930 H     1 <1>   0.3700 
 24 H       -1.3170    -6.2240    -0.5720 H     1 <1>   0.1500 
 25 H       -5.6700    -6.4070    -1.0180 H     1 <1>   0.0800 
 26 H       -7.5250    -4.0600    -0.5830 H     1 <1>   0.0800 
 27 H       -7.9100    -5.5170    -1.4710 H     1 <1>   0.0800 
 28 H       -6.6850    -4.4230    -2.0700 H     1 <1>   0.0800 
 29 H       -7.0630    -5.5030     1.5080 H     1 <1>   0.0800 
 30 H       -5.9170    -6.8150     1.4030 H     1 <1>   0.0800 
 31 H       -7.4550    -6.9330     0.5810 H     1 <1>   0.0800 
@<TRIPOS>BOND
  1   1   2  1   
  2   2   3  1   
  3   2   4  1   
  4   2   5  1   
  5   5   6  ar  
  6   5   7  ar  
  7   6   8  ar  
  8   6  21  1   
  9   7   9  ar  
 10   7  22  1   
 11   8  10  1   
 12   8  11  ar  
 13   9  11  ar  
 14   9  12  1   
 15  10  13  am  
 16  10  23  1   
 17  11  24  1   
 18  12  14  1   
 19  12  15  1   
 20  12  16  1   
 21  13  17  2   
 22  13  18  1   
 23  18  19  1   
 24  18  20  1   
 25  18  25  1   
 26  19  26  1   
 27  19  27  1   
 28  19  28  1   
 29  20  29  1   
 30  20  30  1   
 31  20  31  1   
@<TRIPOS>SUBSTRUCTURE
  1 ****   8 GROUP 4 **** **** 0

# MOE 2024.06 (io_trps.svl 2023.06)
