@<TRIPOS>MOLECULE
NONAME
47 48 1 0 0 
SMALL
USER_CHARGES


@<TRIPOS>ATOM
  1 CL       0.5830    -0.7610     1.9670 Cl    1 <1>  -0.1770 
  2 C        1.9040    -0.2810     0.9310 C.ar  1 <1>   0.1770 
  3 C        2.6860     0.7990     1.2890 C.ar  1 <1>  -0.1500 
  4 C        2.1430    -0.9910    -0.2290 C.ar  1 <1>  -0.1500 
  5 C        3.7500     1.1880     0.4860 C.ar  1 <1>   0.1990 
  6 C        3.1880    -0.6050    -1.0510 C.ar  1 <1>  -0.1500 
  7 N        4.5290     2.2790     0.8930 N.am  1 <1>  -0.6930 
  8 C        3.9890     0.4760    -0.7010 C.ar  1 <1>   0.0830 
  9 S        4.1590     3.8600     0.3040 S.o2  1 <1>   1.3330 
 10 C        5.7840     2.1140     1.7030 C.3   1 <1>   0.3370 
 11 O        5.0010     0.8710    -1.5210 O.3   1 <1>  -0.3630 
 12 O        2.7280     3.9340     0.1380 O.2   1 <1>  -0.6500 
 13 O        4.8260     4.8010     1.1710 O.2   1 <1>  -0.6500 
 14 C        4.9230     3.9170    -1.3020 C.3   1 <1>  -0.1350 
 15 C        7.0830     2.0020     0.8530 C.2   1 <1>   0.5690 
 16 C        5.6400     0.9300     2.6760 C.3   1 <1>  -0.2400 
 17 C        5.8720    -0.1160    -2.0310 C.3   1 <1>   0.0400 
 18 O        7.3660     0.9070     0.4150 O.2   1 <1>  -0.5700 
 19 N        7.9250     3.0720     0.6090 N.am  1 <1>  -0.6600 
 20 C        9.0830     2.9190    -0.3220 C.3   1 <1>   0.1400 
 21 C        7.9480     4.3700     1.3530 C.3   1 <1>   0.1400 
 22 C        9.1120     4.0760    -1.3260 C.3   1 <1>  -0.1600 
 23 C        7.9770     5.5490     0.3730 C.3   1 <1>  -0.1600 
 24 C        9.1410     5.4370    -0.6190 C.3   1 <1>  -0.1600 
 25 H        2.4700     1.3420     2.1890 H     1 <1>   0.1500 
 26 H        1.5150    -1.8260    -0.4850 H     1 <1>   0.1500 
 27 H        3.3650    -1.1420    -1.9650 H     1 <1>   0.1500 
 28 H        5.8700     2.9710     2.3380 H     1 <1>   0.0800 
 29 H        4.4130     3.2590    -1.9760 H     1 <1>   0.0800 
 30 H        5.9500     3.6200    -1.2410 H     1 <1>   0.0800 
 31 H        4.8710     4.9120    -1.6980 H     1 <1>   0.0800 
 32 H        5.5510     0.0030     2.1380 H     1 <1>   0.0800 
 33 H        4.7830     1.0680     3.3090 H     1 <1>   0.0800 
 34 H        6.5140     0.8700     3.2980 H     1 <1>   0.0800 
 35 H        6.7570     0.3760    -2.3900 H     1 <1>   0.0800 
 36 H        5.3870    -0.6360    -2.8360 H     1 <1>   0.0800 
 37 H        6.1360    -0.7940    -1.2370 H     1 <1>   0.0800 
 38 H        9.0230     1.9900    -0.8630 H     1 <1>   0.0800 
 39 H        9.9940     2.9090     0.2510 H     1 <1>   0.0800 
 40 H        8.8360     4.3980     1.9610 H     1 <1>   0.0800 
 41 H        7.1080     4.4800     2.0090 H     1 <1>   0.0800 
 42 H        8.2460     4.0100    -1.9600 H     1 <1>   0.0800 
 43 H        9.9820     3.9780    -1.9520 H     1 <1>   0.0800 
 44 H        8.0650     6.4650     0.9290 H     1 <1>   0.0800 
 45 H        7.0460     5.5880    -0.1610 H     1 <1>   0.0800 
 46 H        9.0790     6.2290    -1.3460 H     1 <1>   0.0800 
 47 H       10.0720     5.5440    -0.0890 H     1 <1>   0.0800 
@<TRIPOS>BOND
  1   1   2  1   
  2   2   3  ar  
  3   2   4  ar  
  4   3   5  ar  
  5   3  25  1   
  6   4   6  ar  
  7   4  26  1   
  8   5   7  1   
  9   5   8  ar  
 10   6   8  ar  
 11   6  27  1   
 12   7   9  am  
 13   7  10  1   
 14   8  11  1   
 15   9  12  2   
 16   9  13  2   
 17   9  14  1   
 18  10  15  1   
 19  10  16  1   
 20  10  28  1   
 21  11  17  1   
 22  14  29  1   
 23  14  30  1   
 24  14  31  1   
 25  15  18  2   
 26  15  19  am  
 27  16  32  1   
 28  16  33  1   
 29  16  34  1   
 30  17  35  1   
 31  17  36  1   
 32  17  37  1   
 33  19  20  1   
 34  19  21  1   
 35  20  22  1   
 36  20  38  1   
 37  20  39  1   
 38  21  23  1   
 39  21  40  1   
 40  21  41  1   
 41  22  24  1   
 42  22  42  1   
 43  22  43  1   
 44  23  24  1   
 45  23  44  1   
 46  23  45  1   
 47  24  46  1   
 48  24  47  1   
@<TRIPOS>SUBSTRUCTURE
  1 ****   7 GROUP 4 **** **** 0

# MOE 2024.06 (io_trps.svl 2023.06)
