@<TRIPOS>MOLECULE
NONAME
50 51 1 0 0 
SMALL
USER_CHARGES


@<TRIPOS>ATOM
  1 S        1.1590     2.5110     1.9300 S.o2  1 <1>   1.3330 
  2 O        0.9170     1.0910     1.9810 O.2   1 <1>  -0.6500 
  3 O        2.4630     3.0340     2.2560 O.2   1 <1>  -0.6500 
  4 N        0.8500     3.0360     0.3180 N.am  1 <1>  -0.6930 
  5 C       -0.0770     3.3740     2.8750 C.3   1 <1>  -0.1350 
  6 C       -0.2880     2.6150    -0.3720 C.ar  1 <1>   0.1990 
  7 C        1.6200     4.2080    -0.2000 C.3   1 <1>   0.2570 
  8 C       -1.4580     3.3890    -0.4280 C.ar  1 <1>   0.0830 
  9 C       -0.2580     1.3910    -1.0240 C.ar  1 <1>  -0.1500 
 10 C        2.8410     3.8250    -1.0410 C.2   1 <1>   0.5690 
 11 O       -1.4650     4.5860     0.2380 O.3   1 <1>  -0.3630 
 12 C       -2.5590     2.9220    -1.1390 C.ar  1 <1>  -0.1500 
 13 C       -1.3560     0.9330    -1.7290 C.ar  1 <1>  -0.1500 
 14 O        3.0380     4.4640    -2.0480 O.2   1 <1>  -0.5700 
 15 N        3.6640     2.8090    -0.6200 N.am  1 <1>  -0.5470 
 16 C       -2.5390     5.4910     0.0980 C.3   1 <1>   0.0400 
 17 C       -2.5060     1.6990    -1.7870 C.ar  1 <1>  -0.1500 
 18 C        4.7570     2.1810    -1.2480 C.ar  1 <1>   0.1170 
 19 C        5.7540     1.5260    -0.5080 C.ar  1 <1>  -0.1430 
 20 C        4.8540     2.1790    -2.6390 C.ar  1 <1>  -0.1500 
 21 C        6.8060     0.9170    -1.1810 C.ar  1 <1>  -0.1500 
 22 C        5.7710     1.4210     1.0250 C.3   1 <1>   0.0630 
 23 C        5.9060     1.5700    -3.2920 C.ar  1 <1>  -0.1500 
 24 C        6.8890     0.9370    -2.5600 C.ar  1 <1>  -0.1500 
 25 C        4.6330     0.5370     1.5460 C.3   1 <1>  -0.2400 
 26 C        5.8250     2.7890     1.7170 C.3   1 <1>  -0.2400 
 27 H        0.0390     3.1560     3.9190 H     1 <1>   0.0800 
 28 H       -1.0570     3.0670     2.5670 H     1 <1>   0.0800 
 29 H        0.0150     4.4320     2.7290 H     1 <1>   0.0800 
 30 H        1.9440     4.8290     0.6140 H     1 <1>   0.0800 
 31 H        0.9740     4.8050    -0.8180 H     1 <1>   0.0800 
 32 H        0.6370     0.7960    -0.9730 H     1 <1>   0.1500 
 33 H       -3.4690     3.4860    -1.2030 H     1 <1>   0.1500 
 34 H       -1.3130    -0.0200    -2.2290 H     1 <1>   0.1500 
 35 H        3.4940     2.4940     0.3400 H     1 <1>   0.3700 
 36 H       -2.3000     6.3830     0.6500 H     1 <1>   0.0800 
 37 H       -3.4310     5.0430     0.5000 H     1 <1>   0.0800 
 38 H       -2.6640     5.7300    -0.9440 H     1 <1>   0.0800 
 39 H       -3.3600     1.3410    -2.3360 H     1 <1>   0.1500 
 40 H        4.0950     2.6560    -3.2300 H     1 <1>   0.1500 
 41 H        7.5830     0.4120    -0.6340 H     1 <1>   0.1500 
 42 H        6.6810     0.9230     1.3120 H     1 <1>   0.0800 
 43 H        5.9570     1.5900    -4.3670 H     1 <1>   0.1500 
 44 H        7.7130     0.4600    -3.0610 H     1 <1>   0.1500 
 45 H        3.6710     0.9160     1.2690 H     1 <1>   0.0800 
 46 H        4.6740     0.4650     2.6180 H     1 <1>   0.0800 
 47 H        4.7270    -0.4530     1.1350 H     1 <1>   0.0800 
 48 H        4.9280     3.3560     1.5650 H     1 <1>   0.0800 
 49 H        6.6520     3.3570     1.3320 H     1 <1>   0.0800 
 50 H        5.9620     2.6610     2.7760 H     1 <1>   0.0800 
@<TRIPOS>BOND
  1   1   2  2   
  2   1   3  2   
  3   1   4  am  
  4   1   5  1   
  5   4   6  1   
  6   4   7  1   
  7   5  27  1   
  8   5  28  1   
  9   5  29  1   
 10   6   8  ar  
 11   6   9  ar  
 12   7  10  1   
 13   7  30  1   
 14   7  31  1   
 15   8  11  1   
 16   8  12  ar  
 17   9  13  ar  
 18   9  32  1   
 19  10  14  2   
 20  10  15  am  
 21  11  16  1   
 22  12  17  ar  
 23  12  33  1   
 24  13  17  ar  
 25  13  34  1   
 26  15  18  1   
 27  15  35  1   
 28  16  36  1   
 29  16  37  1   
 30  16  38  1   
 31  17  39  1   
 32  18  19  ar  
 33  18  20  ar  
 34  19  21  ar  
 35  19  22  1   
 36  20  23  ar  
 37  20  40  1   
 38  21  24  ar  
 39  21  41  1   
 40  22  25  1   
 41  22  26  1   
 42  22  42  1   
 43  23  24  ar  
 44  23  43  1   
 45  24  44  1   
 46  25  45  1   
 47  25  46  1   
 48  25  47  1   
 49  26  48  1   
 50  26  49  1   
 51  26  50  1   
@<TRIPOS>SUBSTRUCTURE
  1 ****   4 GROUP 4 **** **** 0

# MOE 2024.06 (io_trps.svl 2023.06)
