@<TRIPOS>MOLECULE
NONAME
37 38 1 0 0 
SMALL
USER_CHARGES


@<TRIPOS>ATOM
  1 BR       1.0770    -0.6970     2.1130 Br    1 <1>  -0.1110 
  2 C        0.7890    -1.7110     0.4960 C.ar  1 <1>   0.1110 
  3 C        1.7720    -2.5910     0.0610 C.ar  1 <1>   0.0830 
  4 C       -0.3920    -1.5200    -0.1930 C.ar  1 <1>  -0.1500 
  5 O        2.9060    -2.7110     0.7970 O.3   1 <1>  -0.3630 
  6 C        1.5440    -3.3060    -1.1110 C.ar  1 <1>  -0.1500 
  7 C       -0.6030    -2.2350    -1.3600 C.ar  1 <1>  -0.1500 
  8 C        4.1200    -3.1000     0.1930 C.3   1 <1>   0.1200 
  9 C        0.3620    -3.1230    -1.8140 C.ar  1 <1>  -0.1500 
 10 C        5.2650    -2.8370     1.1840 C.3   1 <1>   0.2000 
 11 O        5.0890    -1.5780     1.7710 O.3   1 <1>  -0.6800 
 12 C        6.6670    -2.9000     0.5320 C.3   1 <1>   0.3430 
 13 N        7.1560    -1.5320     0.1640 N.4   1 <1>  -0.9590 
 14 C        6.6500    -1.0310    -1.1590 C.3   1 <1>   0.3430 
 15 C        8.6480    -1.3960     0.2710 C.3   1 <1>   0.3430 
 16 C        7.2220     0.3600    -1.4910 C.3   1 <1>   0.1200 
 17 C        9.1170     0.0140    -0.1380 C.3   1 <1>   0.1200 
 18 O        8.6180     0.3440    -1.4020 O.3   1 <1>  -0.5600 
 19 H       -1.1300    -0.8280     0.1750 H     1 <1>   0.1500 
 20 H        2.2610    -4.0120    -1.4840 H     1 <1>   0.1500 
 21 H       -1.5170    -2.1030    -1.9140 H     1 <1>   0.1500 
 22 H        4.2440    -2.5260    -0.7070 H     1 <1>   0.0800 
 23 H        4.0600    -4.1470    -0.0500 H     1 <1>   0.0800 
 24 H        0.1850    -3.6780    -2.7200 H     1 <1>   0.1500 
 25 H        5.2060    -3.5750     1.9660 H     1 <1>   0.0800 
 26 H        4.1480    -1.4990     2.0630 H     1 <1>   0.4000 
 27 H        6.6610    -3.5530    -0.3240 H     1 <1>   0.0800 
 28 H        7.3380    -3.3270     1.2590 H     1 <1>   0.0800 
 29 H        6.7170    -0.9300     0.8900 H     1 <1>   0.4500 
 30 H        5.5740    -0.9700    -1.1420 H     1 <1>   0.0800 
 31 H        6.9380    -1.7120    -1.9430 H     1 <1>   0.0800 
 32 H        9.1270    -2.1110    -0.3770 H     1 <1>   0.0800 
 33 H        8.9650    -1.5960     1.2810 H     1 <1>   0.0800 
 34 H        6.8390     1.1080    -0.8180 H     1 <1>   0.0800 
 35 H        6.9610     0.6390    -2.4970 H     1 <1>   0.0800 
 36 H       10.1910     0.0470    -0.1920 H     1 <1>   0.0800 
 37 H        8.7870     0.7550     0.5700 H     1 <1>   0.0800 
@<TRIPOS>BOND
  1   1   2  1   
  2   2   3  ar  
  3   2   4  ar  
  4   3   5  1   
  5   3   6  ar  
  6   4   7  ar  
  7   4  19  1   
  8   5   8  1   
  9   6   9  ar  
 10   6  20  1   
 11   7   9  ar  
 12   7  21  1   
 13   8  10  1   
 14   8  22  1   
 15   8  23  1   
 16   9  24  1   
 17  10  11  1   
 18  10  12  1   
 19  10  25  1   
 20  11  26  1   
 21  12  13  1   
 22  12  27  1   
 23  12  28  1   
 24  13  14  1   
 25  13  15  1   
 26  13  29  1   
 27  14  16  1   
 28  14  30  1   
 29  14  31  1   
 30  15  17  1   
 31  15  32  1   
 32  15  33  1   
 33  16  18  1   
 34  16  34  1   
 35  16  35  1   
 36  17  18  1   
 37  17  36  1   
 38  17  37  1   
@<TRIPOS>SUBSTRUCTURE
  1 ****   8 GROUP 4 **** **** 0

# MOE 2024.06 (io_trps.svl 2023.06)
