@<TRIPOS>MOLECULE
NONAME
52 55 1 0 0 
SMALL
USER_CHARGES


@<TRIPOS>ATOM
  1 O       -1.5260     4.9150    -1.6020 O.3   1 <1>  -0.6800 
  2 C       -2.3100     3.9210    -1.0420 C.3   1 <1>   0.1200 
  3 C       -3.7500     4.1180    -1.5380 C.3   1 <1>   0.3430 
  4 N       -4.6890     3.0840    -1.0080 N.4   1 <1>  -0.9590 
  5 C       -6.0170     3.1340    -1.6990 C.3   1 <1>   0.3430 
  6 C       -4.9180     3.1680     0.4710 C.3   1 <1>   0.3430 
  7 C       -6.9450     1.9920    -1.2280 C.3   1 <1>   0.1100 
  8 C       -5.8000     2.0030     0.9700 C.3   1 <1>   0.1100 
  9 N       -6.3750     1.1660    -0.1230 N.3   1 <1>  -0.8100 
 10 C       -7.3670     0.1880     0.3980 C.3   1 <1>   0.3100 
 11 C       -8.5290     0.9110     1.0010 C.1   1 <1>  -0.2000 
 12 C       -9.2830     1.7460     1.3830 C.1   1 <1>  -0.2000 
 13 C       -9.9710     3.0290     1.7050 C.3   1 <1>   0.2960 
 14 N       -9.1680     4.1370     1.1290 N.pl3 1 <1>   0.0480 
 15 C       -8.0720     4.7390     1.7230 C.ar  1 <1>  -0.1520 
 16 C       -9.2500     4.5940    -0.1750 C.ar  1 <1>  -0.1520 
 17 C       -7.4960     5.6210     0.8160 C.ar  1 <1>   0.0000 
 18 C       -7.5210     4.5760     2.9960 C.ar  1 <1>  -0.1500 
 19 C       -8.2440     5.5290    -0.3890 C.ar  1 <1>   0.0000 
 20 C      -10.1250     4.2500    -1.2070 C.ar  1 <1>  -0.1500 
 21 C       -6.3780     6.3700     1.1820 C.ar  1 <1>  -0.1500 
 22 C       -6.4060     5.3100     3.3430 C.ar  1 <1>  -0.1500 
 23 C       -8.1180     6.1490    -1.6310 C.ar  1 <1>  -0.1500 
 24 C       -9.9850     4.8590    -2.4360 C.ar  1 <1>  -0.1500 
 25 C       -5.8380     6.2090     2.4390 C.ar  1 <1>  -0.1500 
 26 C       -8.9850     5.8100    -2.6470 C.ar  1 <1>  -0.1500 
 27 H       -0.5840     4.8250    -1.3440 H     1 <1>   0.4000 
 28 H       -2.2470     4.0160     0.0280 H     1 <1>   0.0800 
 29 H       -1.9210     2.9700    -1.3600 H     1 <1>   0.0800 
 30 H       -3.7400     4.0720    -2.6150 H     1 <1>   0.0800 
 31 H       -4.0900     5.0970    -1.2440 H     1 <1>   0.0800 
 32 H       -4.3460     2.1280    -1.1790 H     1 <1>   0.4500 
 33 H       -5.8850     3.0590    -2.7660 H     1 <1>   0.0800 
 34 H       -6.4980     4.0760    -1.4970 H     1 <1>   0.0800 
 35 H       -5.4070     4.0960     0.7120 H     1 <1>   0.0800 
 36 H       -3.9810     3.1460     1.0010 H     1 <1>   0.0800 
 37 H       -7.1600     1.3530    -2.0660 H     1 <1>   0.0800 
 38 H       -7.8750     2.4400    -0.9320 H     1 <1>   0.0800 
 39 H       -6.5780     2.4300     1.5760 H     1 <1>   0.0800 
 40 H       -5.2120     1.3740     1.6160 H     1 <1>   0.0800 
 41 H       -6.9030    -0.4370     1.1420 H     1 <1>   0.0800 
 42 H       -7.7090    -0.4430    -0.4040 H     1 <1>   0.0800 
 43 H      -10.0470     3.1590     2.7680 H     1 <1>   0.0800 
 44 H      -10.9580     3.0440     1.2800 H     1 <1>   0.0800 
 45 H       -7.9620     3.8920     3.6990 H     1 <1>   0.1500 
 46 H      -10.9010     3.5220    -1.0480 H     1 <1>   0.1500 
 47 H       -5.9580     7.0720     0.4830 H     1 <1>   0.1500 
 48 H       -5.9730     5.2030     4.3240 H     1 <1>   0.1500 
 49 H       -7.3540     6.8900    -1.7810 H     1 <1>   0.1500 
 50 H      -10.6540     4.6100    -3.2420 H     1 <1>   0.1500 
 51 H       -4.9790     6.7860     2.7400 H     1 <1>   0.1500 
 52 H       -8.9050     6.2830    -3.6110 H     1 <1>   0.1500 
@<TRIPOS>BOND
  1   1   2  1   
  2   1  27  1   
  3   2   3  1   
  4   2  28  1   
  5   2  29  1   
  6   3   4  1   
  7   3  30  1   
  8   3  31  1   
  9   4   5  1   
 10   4   6  1   
 11   4  32  1   
 12   5   7  1   
 13   5  33  1   
 14   5  34  1   
 15   6   8  1   
 16   6  35  1   
 17   6  36  1   
 18   7   9  1   
 19   7  37  1   
 20   7  38  1   
 21   8   9  1   
 22   8  39  1   
 23   8  40  1   
 24   9  10  1   
 25  10  11  1   
 26  10  41  1   
 27  10  42  1   
 28  11  12  3   
 29  12  13  1   
 30  13  14  1   
 31  13  43  1   
 32  13  44  1   
 33  14  15  1   
 34  14  16  1   
 35  15  17  ar  
 36  15  18  ar  
 37  16  19  ar  
 38  16  20  ar  
 39  17  19  1   
 40  17  21  ar  
 41  18  22  ar  
 42  18  45  1   
 43  19  23  ar  
 44  20  24  ar  
 45  20  46  1   
 46  21  25  ar  
 47  21  47  1   
 48  22  25  ar  
 49  22  48  1   
 50  23  26  ar  
 51  23  49  1   
 52  24  26  ar  
 53  24  50  1   
 54  25  51  1   
 55  26  52  1   
@<TRIPOS>SUBSTRUCTURE
  1 ****  17 GROUP 4 **** **** 0

# MOE 2024.06 (io_trps.svl 2023.06)
