@<TRIPOS>MOLECULE
NONAME
34 35 1 0 0 
SMALL
USER_CHARGES


@<TRIPOS>ATOM
  1 I       -0.3010     0.2180    -0.8250 I     1 <1>  -0.0810 
  2 C        1.7990     0.2420    -0.4670 C.ar  1 <1>   0.0810 
  3 C        2.3820    -0.8620     0.1250 C.ar  1 <1>  -0.1500 
  4 C        2.5250     1.3610    -0.8340 C.ar  1 <1>  -0.1500 
  5 C        3.7450    -0.8070     0.3390 C.ar  1 <1>   0.1900 
  6 C        3.8920     1.3790    -0.6030 C.ar  1 <1>  -0.1500 
  7 F        4.3170    -1.8410     0.9070 F     1 <1>  -0.1900 
  8 C        4.5370     0.2900    -0.0150 C.ar  1 <1>   0.1170 
  9 N        5.9230     0.2610     0.2450 N.am  1 <1>  -0.5470 
 10 C        6.9580     0.9830    -0.2680 C.2   1 <1>   0.6900 
 11 O        6.8010     1.7930    -1.1590 O.2   1 <1>  -0.5700 
 12 N        8.1890     0.7560     0.2490 N.am  1 <1>  -0.7300 
 13 C        9.4260     1.4230    -0.1880 C.3   1 <1>   0.2200 
 14 C       10.4670     0.3540    -0.5370 C.3   1 <1>  -0.1600 
 15 C        9.9220     2.3360     0.9380 C.3   1 <1>  -0.1600 
 16 C       11.8170     0.9910    -0.8980 C.3   1 <1>  -0.1600 
 17 C       11.2710     2.9770     0.5800 C.3   1 <1>  -0.1600 
 18 C       12.3160     1.9100     0.2260 C.3   1 <1>  -0.1600 
 19 H        1.8080    -1.7240     0.4080 H     1 <1>   0.1500 
 20 H        2.0380     2.2040    -1.2920 H     1 <1>   0.1500 
 21 H        4.4550     2.2520    -0.8830 H     1 <1>   0.1500 
 22 H        6.2170    -0.5270     0.8140 H     1 <1>   0.3700 
 23 H        8.2890     0.1650     1.0680 H     1 <1>   0.3700 
 24 H        9.2310     2.0200    -1.0650 H     1 <1>   0.0800 
 25 H       10.1140    -0.2250    -1.3730 H     1 <1>   0.0800 
 26 H       10.6060    -0.3040     0.3020 H     1 <1>   0.0800 
 27 H       10.0350     1.7660     1.8430 H     1 <1>   0.0800 
 28 H        9.1950     3.1110     1.1090 H     1 <1>   0.0800 
 29 H       11.7080     1.5650    -1.8040 H     1 <1>   0.0800 
 30 H       12.5440     0.2190    -1.0830 H     1 <1>   0.0800 
 31 H       11.6220     3.5660     1.4090 H     1 <1>   0.0800 
 32 H       11.1380     3.6370    -0.2610 H     1 <1>   0.0800 
 33 H       13.2300     2.3890    -0.0800 H     1 <1>   0.0800 
 34 H       12.5310     1.3190     1.1000 H     1 <1>   0.0800 
@<TRIPOS>BOND
  1   1   2  1   
  2   2   3  ar  
  3   2   4  ar  
  4   3   5  ar  
  5   3  19  1   
  6   4   6  ar  
  7   4  20  1   
  8   5   7  1   
  9   5   8  ar  
 10   6   8  ar  
 11   6  21  1   
 12   8   9  1   
 13   9  10  am  
 14   9  22  1   
 15  10  11  2   
 16  10  12  am  
 17  12  13  1   
 18  12  23  1   
 19  13  14  1   
 20  13  15  1   
 21  13  24  1   
 22  14  16  1   
 23  14  25  1   
 24  14  26  1   
 25  15  17  1   
 26  15  27  1   
 27  15  28  1   
 28  16  18  1   
 29  16  29  1   
 30  16  30  1   
 31  17  18  1   
 32  17  31  1   
 33  17  32  1   
 34  18  33  1   
 35  18  34  1   
@<TRIPOS>SUBSTRUCTURE
  1 ****  10 GROUP 4 **** **** 0

# MOE 2024.06 (io_trps.svl 2023.06)
