@<TRIPOS>MOLECULE
NONAME
34 34 1 0 0 
SMALL
USER_CHARGES


@<TRIPOS>ATOM
  1 O       -0.9160    -0.1260     1.6410 O.2   1 <1>  -0.5700 
  2 C       -0.3770    -1.1230     1.2150 C.2   1 <1>   0.5690 
  3 N       -0.9240    -1.8490     0.1800 N.am  1 <1>  -0.6600 
  4 C        0.9180    -1.5490     1.8990 C.3   1 <1>   0.0440 
  5 C       -2.2150    -1.4210    -0.4270 C.3   1 <1>   0.1400 
  6 C       -0.2170    -2.9520    -0.5280 C.3   1 <1>   0.1400 
  7 C        2.1750    -1.2370     1.0900 C.ar  1 <1>  -0.1440 
  8 C       -3.3840    -1.9320     0.4120 C.3   1 <1>  -0.2400 
  9 C       -0.6920    -4.3050    -0.0070 C.3   1 <1>  -0.2400 
 10 C        3.1710    -2.1930     0.9460 C.ar  1 <1>  -0.1500 
 11 C        2.3360     0.0040     0.4940 C.ar  1 <1>  -0.1500 
 12 C        4.3120    -1.9210     0.2090 C.ar  1 <1>  -0.1440 
 13 C        3.4720     0.2810    -0.2450 C.ar  1 <1>  -0.1500 
 14 C        4.4570    -0.6800    -0.3880 C.ar  1 <1>  -0.1500 
 15 C        5.3930    -2.9750     0.0550 C.3   1 <1>  -0.0970 
 16 H        0.8610    -2.5980     2.1150 H     1 <1>   0.0800 
 17 H        0.9870    -1.0350     2.8400 H     1 <1>   0.0800 
 18 H       -2.2960    -1.7920    -1.4340 H     1 <1>   0.0800 
 19 H       -2.2480    -0.3440    -0.4690 H     1 <1>   0.0800 
 20 H        0.8450    -2.8670    -0.3920 H     1 <1>   0.0800 
 21 H       -0.4010    -2.8820    -1.5870 H     1 <1>   0.0800 
 22 H       -3.3850    -3.0040     0.4560 H     1 <1>   0.0800 
 23 H       -4.3100    -1.6070    -0.0250 H     1 <1>   0.0800 
 24 H       -3.3230    -1.5330     1.4090 H     1 <1>   0.0800 
 25 H       -0.5700    -4.3630     1.0590 H     1 <1>   0.0800 
 26 H       -0.1130    -5.0890    -0.4620 H     1 <1>   0.0800 
 27 H       -1.7240    -4.4630    -0.2580 H     1 <1>   0.0800 
 28 H        3.0600    -3.1570     1.4100 H     1 <1>   0.1500 
 29 H        1.5760     0.7600     0.6010 H     1 <1>   0.1500 
 30 H        3.5880     1.2450    -0.7070 H     1 <1>   0.1500 
 31 H        5.3360    -0.4550    -0.9660 H     1 <1>   0.1500 
 32 H        5.1780    -3.5940    -0.7970 H     1 <1>   0.0800 
 33 H        5.4420    -3.5940     0.9330 H     1 <1>   0.0800 
 34 H        6.3530    -2.5120    -0.0860 H     1 <1>   0.0800 
@<TRIPOS>BOND
  1   1   2  2   
  2   2   3  am  
  3   2   4  1   
  4   3   5  1   
  5   3   6  1   
  6   4   7  1   
  7   4  16  1   
  8   4  17  1   
  9   5   8  1   
 10   5  18  1   
 11   5  19  1   
 12   6   9  1   
 13   6  20  1   
 14   6  21  1   
 15   7  10  ar  
 16   7  11  ar  
 17   8  22  1   
 18   8  23  1   
 19   8  24  1   
 20   9  25  1   
 21   9  26  1   
 22   9  27  1   
 23  10  12  ar  
 24  10  28  1   
 25  11  13  ar  
 26  11  29  1   
 27  12  14  ar  
 28  12  15  1   
 29  13  14  ar  
 30  13  30  1   
 31  14  31  1   
 32  15  32  1   
 33  15  33  1   
 34  15  34  1   
@<TRIPOS>SUBSTRUCTURE
  1 ****   7 GROUP 4 **** **** 0

# MOE 2024.06 (io_trps.svl 2023.06)
