@<TRIPOS>MOLECULE
NONAME
47 49 1 0 0 
SMALL
USER_CHARGES


@<TRIPOS>ATOM
  1 CL      -0.0030    -0.5340    -1.8100 Cl    1 <1>  -0.1770 
  2 C       -1.2770    -1.0840    -0.7370 C.ar  1 <1>   0.1770 
  3 C       -1.0860    -2.1920     0.1030 C.ar  1 <1>   0.1000 
  4 C       -2.4680    -0.3800    -0.7580 C.ar  1 <1>  -0.1500 
  5 N        0.0880    -2.9470     0.1770 N.pl3 1 <1>  -0.8380 
  6 C       -2.1420    -2.5660     0.9240 C.ar  1 <1>  -0.1500 
  7 C       -3.5090    -0.7710     0.0690 C.ar  1 <1>  -0.1500 
  8 C        0.4310    -3.7880    -1.0100 C.3   1 <1>   0.2090 
  9 C        1.2920    -2.2810     0.7580 C.3   1 <1>   0.2090 
 10 C       -3.3300    -1.8620     0.9000 C.ar  1 <1>   0.1770 
 11 C        1.5600    -4.7820    -0.6730 C.3   1 <1>   0.1100 
 12 C        2.4010    -3.3090     1.0520 C.3   1 <1>   0.1100 
 13 CL      -4.6390    -2.3560     1.9430 Cl    1 <1>  -0.1770 
 14 N        2.7670    -4.0970    -0.1540 N.3   1 <1>  -0.8100 
 15 C        3.8480    -5.0790     0.1590 C.3   1 <1>   0.1710 
 16 C        5.2280    -4.4360     0.3190 C.2   1 <1>   0.5690 
 17 O        6.0690    -5.0050     0.9730 O.2   1 <1>  -0.5700 
 18 N        5.4050    -3.2330    -0.3010 N.am  1 <1>  -0.5470 
 19 C        6.4790    -2.3320    -0.3780 C.ar  1 <1>   0.1170 
 20 C        7.7540    -2.6190     0.1010 C.ar  1 <1>  -0.1500 
 21 C        6.2590    -1.0920    -0.9650 C.ar  1 <1>  -0.1500 
 22 C        8.7780    -1.6940     0.0030 C.ar  1 <1>  -0.1500 
 23 C        7.2790    -0.1630    -1.0660 C.ar  1 <1>  -0.1500 
 24 C        8.5440    -0.4540    -0.5830 C.ar  1 <1>   0.0830 
 25 O        9.4890     0.5140    -0.7190 O.3   1 <1>  -0.3630 
 26 C       10.8030     0.3120    -0.2510 C.3   1 <1>   0.0400 
 27 H       -2.5780     0.4640    -1.4160 H     1 <1>   0.1500 
 28 H       -2.0270    -3.4100     1.5790 H     1 <1>   0.1500 
 29 H       -4.4450    -0.2410     0.0720 H     1 <1>   0.1500 
 30 H        0.7500    -3.1600    -1.8230 H     1 <1>   0.0800 
 31 H       -0.4430    -4.3300    -1.3250 H     1 <1>   0.0800 
 32 H        1.0150    -1.7810     1.6700 H     1 <1>   0.0800 
 33 H        1.6710    -1.5440     0.0720 H     1 <1>   0.0800 
 34 H        1.8140    -5.3270    -1.5650 H     1 <1>   0.0800 
 35 H        1.1940    -5.4840     0.0570 H     1 <1>   0.0800 
 36 H        2.0560    -3.9680     1.8300 H     1 <1>   0.0800 
 37 H        3.2640    -2.7840     1.4220 H     1 <1>   0.0800 
 38 H        3.9270    -5.7890    -0.6440 H     1 <1>   0.0800 
 39 H        3.6080    -5.6210     1.0570 H     1 <1>   0.0800 
 40 H        4.5320    -2.9260    -0.7420 H     1 <1>   0.3700 
 41 H        7.9560    -3.5720     0.5550 H     1 <1>   0.1500 
 42 H        5.2850    -0.8470    -1.3460 H     1 <1>   0.1500 
 43 H        9.7450    -1.9580     0.3870 H     1 <1>   0.1500 
 44 H        7.1020     0.7950    -1.5200 H     1 <1>   0.1500 
 45 H       11.3720     1.2000    -0.4580 H     1 <1>   0.0800 
 46 H       11.2330    -0.5270    -0.7690 H     1 <1>   0.0800 
 47 H       10.7730     0.1360     0.8100 H     1 <1>   0.0800 
@<TRIPOS>BOND
  1   1   2  1   
  2   2   3  ar  
  3   2   4  ar  
  4   3   5  1   
  5   3   6  ar  
  6   4   7  ar  
  7   4  27  1   
  8   5   8  1   
  9   5   9  1   
 10   6  10  ar  
 11   6  28  1   
 12   7  10  ar  
 13   7  29  1   
 14   8  11  1   
 15   8  30  1   
 16   8  31  1   
 17   9  12  1   
 18   9  32  1   
 19   9  33  1   
 20  10  13  1   
 21  11  14  1   
 22  11  34  1   
 23  11  35  1   
 24  12  14  1   
 25  12  36  1   
 26  12  37  1   
 27  14  15  1   
 28  15  16  1   
 29  15  38  1   
 30  15  39  1   
 31  16  17  2   
 32  16  18  am  
 33  18  19  1   
 34  18  40  1   
 35  19  20  ar  
 36  19  21  ar  
 37  20  22  ar  
 38  20  41  1   
 39  21  23  ar  
 40  21  42  1   
 41  22  24  ar  
 42  22  43  1   
 43  23  24  ar  
 44  23  44  1   
 45  24  25  1   
 46  25  26  1   
 47  26  45  1   
 48  26  46  1   
 49  26  47  1   
@<TRIPOS>SUBSTRUCTURE
  1 ****  12 GROUP 4 **** **** 0

# MOE 2024.06 (io_trps.svl 2023.06)
