@<TRIPOS>MOLECULE
NONAME
32 34 1 0 0 
SMALL
USER_CHARGES


@<TRIPOS>ATOM
  1 O       -1.2620    -0.3280     0.3430 O.3   1 <1>  -0.3370 
  2 N       -1.1800    -1.5400    -0.1690 N.2   1 <1>  -0.5130 
  3 C       -2.2040    -2.2840    -0.2100 C.2   1 <1>   0.3280 
  4 C       -2.1790    -3.7130    -0.7440 C.3   1 <1>   0.0610 
  5 C       -3.5870    -1.9200     0.3060 C.3   1 <1>  -0.0190 
  6 C       -2.4860    -4.6380     0.4490 C.3   1 <1>   0.3430 
  7 C       -3.2370    -3.8360    -1.8550 C.3   1 <1>   0.1100 
  8 C       -0.8070    -4.1110    -1.3350 C.3   1 <1>  -0.2400 
  9 C       -3.8430    -2.7940     1.5310 C.3   1 <1>   0.3430 
 10 C       -4.6310    -2.0940    -0.8030 C.3   1 <1>   0.1100 
 11 N       -3.7030    -4.2700     1.2670 N.4   1 <1>  -0.9590 
 12 N       -4.5760    -3.4350    -1.4000 N.3   1 <1>  -0.8100 
 13 C       -4.9760    -4.8560     0.7170 C.3   1 <1>   0.3430 
 14 C       -5.3640    -4.4860    -0.7330 C.3   1 <1>   0.1100 
 15 H       -0.4420     0.2060     0.2630 H     1 <1>   0.4000 
 16 H       -3.6250    -0.8950     0.6230 H     1 <1>   0.0800 
 17 H       -1.6250    -4.6070     1.0970 H     1 <1>   0.0800 
 18 H       -2.5810    -5.6500     0.0920 H     1 <1>   0.0800 
 19 H       -2.9550    -3.1910    -2.6720 H     1 <1>   0.0800 
 20 H       -3.2680    -4.8410    -2.2410 H     1 <1>   0.0800 
 21 H       -0.8220    -5.1220    -1.7050 H     1 <1>   0.0800 
 22 H       -0.0320    -4.0310    -0.5910 H     1 <1>   0.0800 
 23 H       -0.5480    -3.4580    -2.1510 H     1 <1>   0.0800 
 24 H       -3.1260    -2.5080     2.2850 H     1 <1>   0.0800 
 25 H       -4.8250    -2.5820     1.9210 H     1 <1>   0.0800 
 26 H       -4.4290    -1.3730    -1.5790 H     1 <1>   0.0800 
 27 H       -5.6230    -1.8950    -0.4320 H     1 <1>   0.0800 
 28 H       -3.5720    -4.7110     2.1870 H     1 <1>   0.4500 
 29 H       -4.9190    -5.9310     0.7710 H     1 <1>   0.0800 
 30 H       -5.7940    -4.5660     1.3550 H     1 <1>   0.0800 
 31 H       -6.3980    -4.1850    -0.7350 H     1 <1>   0.0800 
 32 H       -5.3190    -5.3780    -1.3340 H     1 <1>   0.0800 
@<TRIPOS>BOND
  1   1   2  1   
  2   1  15  1   
  3   2   3  2   
  4   3   4  1   
  5   3   5  1   
  6   4   6  1   
  7   4   7  1   
  8   4   8  1   
  9   5   9  1   
 10   5  10  1   
 11   5  16  1   
 12   6  11  1   
 13   6  17  1   
 14   6  18  1   
 15   7  12  1   
 16   7  19  1   
 17   7  20  1   
 18   8  21  1   
 19   8  22  1   
 20   8  23  1   
 21   9  11  1   
 22   9  24  1   
 23   9  25  1   
 24  10  12  1   
 25  10  26  1   
 26  10  27  1   
 27  11  13  1   
 28  11  28  1   
 29  12  14  1   
 30  13  14  1   
 31  13  29  1   
 32  13  30  1   
 33  14  31  1   
 34  14  32  1   
@<TRIPOS>SUBSTRUCTURE
  1 ****   4 GROUP 4 **** **** 0

# MOE 2024.06 (io_trps.svl 2023.06)
