@<TRIPOS>MOLECULE
NONAME
53 56 1 0 0 
SMALL
USER_CHARGES


@<TRIPOS>ATOM
  1 O       -0.3460     1.3100     2.3330 O.2   1 <1>  -0.5700 
  2 C       -0.6460     2.0080     1.4010 C.2   1 <1>   0.5690 
  3 N       -1.6190     1.7340     0.4940 N.am  1 <1>  -0.4200 
  4 C        0.0350     3.3290     1.0840 C.3   1 <1>  -0.0190 
  5 C       -1.7160     2.7110    -0.4430 C.2   1 <1>   0.5690 
  6 C       -2.4790     0.5150     0.5380 C.3   1 <1>   0.2010 
  7 C       -0.7060     3.8160    -0.1850 C.3   1 <1>  -0.0190 
  8 C        1.5560     3.1760     0.8840 C.3   1 <1>  -0.1600 
  9 O       -2.5100     2.7190    -1.3500 O.2   1 <1>  -0.5700 
 10 C       -3.9250     0.8130     0.9230 C.2   1 <1>   0.5690 
 11 C        0.2280     4.0640    -1.3860 C.3   1 <1>  -0.1600 
 12 C        2.1720     4.4480     0.2740 C.3   1 <1>   0.0640 
 13 O       -4.3590     0.3100     1.9300 O.2   1 <1>  -0.5700 
 14 N       -4.6600     1.6260     0.1000 N.am  1 <1>  -0.5470 
 15 C        1.4210     4.9460    -0.9850 C.3   1 <1>  -0.1600 
 16 C        3.6570     4.2320    -0.0090 C.ar  1 <1>  -0.1440 
 17 C       -5.9890     2.0780     0.1490 C.ar  1 <1>   0.1170 
 18 C        4.6120     4.9500     0.6970 C.ar  1 <1>  -0.1500 
 19 C        4.0770     3.3200    -0.9680 C.ar  1 <1>  -0.1500 
 20 C       -6.3680     3.0820    -0.7360 C.ar  1 <1>  -0.1500 
 21 C       -6.9470     1.5750     1.0250 C.ar  1 <1>  -0.1500 
 22 C        5.9610     4.7610     0.4500 C.ar  1 <1>  -0.1500 
 23 C        5.4250     3.1290    -1.2170 C.ar  1 <1>  -0.1500 
 24 C       -7.6610     3.5760    -0.7500 C.ar  1 <1>  -0.1500 
 25 C       -8.2400     2.0660     1.0160 C.ar  1 <1>  -0.1500 
 26 C        6.3690     3.8490    -0.5080 C.ar  1 <1>  -0.1500 
 27 C       -8.6090     3.0670     0.1330 C.ar  1 <1>   0.0820 
 28 O       -9.8990     3.4910     0.1890 O.3   1 <1>  -0.3620 
 29 C      -10.3670     4.5080    -0.6670 C.3   1 <1>   0.0400 
 30 H       -0.1520     4.0090     1.8960 H     1 <1>   0.0800 
 31 H       -2.0740    -0.1830     1.2500 H     1 <1>   0.0800 
 32 H       -2.4690     0.0440    -0.4270 H     1 <1>   0.0800 
 33 H       -1.2440     4.7200     0.0410 H     1 <1>   0.0800 
 34 H        1.7490     2.3350     0.2410 H     1 <1>   0.0800 
 35 H        2.0260     2.9660     1.8300 H     1 <1>   0.0800 
 36 H       -0.3230     4.5340    -2.1830 H     1 <1>   0.0800 
 37 H        0.5950     3.1230    -1.7610 H     1 <1>   0.0800 
 38 H        2.0860     5.2230     1.0170 H     1 <1>   0.0800 
 39 H       -4.1160     2.0320    -0.6730 H     1 <1>   0.3700 
 40 H        1.0620     5.9430    -0.7930 H     1 <1>   0.0800 
 41 H        2.0970     5.0210    -1.8190 H     1 <1>   0.0800 
 42 H        4.3140     5.6620     1.4460 H     1 <1>   0.1500 
 43 H        3.3560     2.7530    -1.5290 H     1 <1>   0.1500 
 44 H       -5.6440     3.4820    -1.4220 H     1 <1>   0.1500 
 45 H       -6.6940     0.7970     1.7190 H     1 <1>   0.1500 
 46 H        6.6930     5.3220     1.0030 H     1 <1>   0.1500 
 47 H        5.7390     2.4190    -1.9620 H     1 <1>   0.1500 
 48 H       -7.9100     4.3500    -1.4490 H     1 <1>   0.1500 
 49 H       -8.9730     1.6730     1.6960 H     1 <1>   0.1500 
 50 H        7.4170     3.7020    -0.7000 H     1 <1>   0.1500 
 51 H      -11.4050     4.6800    -0.4450 H     1 <1>   0.0800 
 52 H      -10.2600     4.1830    -1.6870 H     1 <1>   0.0800 
 53 H       -9.8010     5.4050    -0.4850 H     1 <1>   0.0800 
@<TRIPOS>BOND
  1   1   2  2   
  2   2   3  am  
  3   2   4  1   
  4   3   5  am  
  5   3   6  1   
  6   4   7  1   
  7   4   8  1   
  8   4  30  1   
  9   5   7  1   
 10   5   9  2   
 11   6  10  1   
 12   6  31  1   
 13   6  32  1   
 14   7  11  1   
 15   7  33  1   
 16   8  12  1   
 17   8  34  1   
 18   8  35  1   
 19  10  13  2   
 20  10  14  am  
 21  11  15  1   
 22  11  36  1   
 23  11  37  1   
 24  12  15  1   
 25  12  16  1   
 26  12  38  1   
 27  14  17  1   
 28  14  39  1   
 29  15  40  1   
 30  15  41  1   
 31  16  18  ar  
 32  16  19  ar  
 33  17  20  ar  
 34  17  21  ar  
 35  18  22  ar  
 36  18  42  1   
 37  19  23  ar  
 38  19  43  1   
 39  20  24  ar  
 40  20  44  1   
 41  21  25  ar  
 42  21  45  1   
 43  22  26  ar  
 44  22  46  1   
 45  23  26  ar  
 46  23  47  1   
 47  24  27  ar  
 48  24  48  1   
 49  25  27  ar  
 50  25  49  1   
 51  26  50  1   
 52  27  28  1   
 53  28  29  1   
 54  29  51  1   
 55  29  52  1   
 56  29  53  1   
@<TRIPOS>SUBSTRUCTURE
  1 ****   5 GROUP 4 **** **** 0

# MOE 2024.06 (io_trps.svl 2023.06)
