@<TRIPOS>MOLECULE
NONAME
54 57 1 0 0 
SMALL
USER_CHARGES


@<TRIPOS>ATOM
  1 N       -0.8610     0.3390     1.3970 N.pl3 1 <1>  -0.7030 
  2 C        0.3000     0.4210     0.7370 C.cat 1 <1>   1.0690 
  3 C       -1.4680     1.5830     1.2900 C.ar  1 <1>   0.3030 
  4 N        0.4780     1.6210     0.2070 N.pl3 1 <1>  -0.6330 
  5 N        1.3330    -0.4010     0.4800 N.pl3 1 <1>  -0.5710 
  6 C       -0.6280     2.3950     0.5410 C.ar  1 <1>   0.3030 
  7 C       -2.6720     2.0750     1.7830 C.ar  1 <1>  -0.1160 
  8 C        1.7170     1.6130    -0.3950 C.2   1 <1>   0.2230 
  9 C        2.2620     0.3840    -0.2310 C.2   1 <1>   0.1580 
 10 C        1.4430    -1.8270     0.9210 C.3   1 <1>   0.1610 
 11 C       -0.9650     3.7120     0.2620 C.ar  1 <1>  -0.1160 
 12 C       -3.0090     3.3870     1.5070 C.ar  1 <1>  -0.1570 
 13 C        3.6690    -0.0440    -0.7140 C.3   1 <1>   0.1320 
 14 C        0.9230    -2.8070    -0.1560 C.3   1 <1>   0.3380 
 15 C       -2.1620     4.2000     0.7520 C.ar  1 <1>  -0.1570 
 16 C        4.6180    -0.1980     0.4850 C.3   1 <1>  -0.2460 
 17 C        4.2710     1.0380    -1.6320 C.3   1 <1>  -0.2460 
 18 C        3.6440    -1.3510    -1.5240 C.3   1 <1>  -0.2460 
 19 N        1.3910    -4.2150     0.0560 N.4   1 <1>  -0.9610 
 20 C        1.0740    -5.0500    -1.1430 C.3   1 <1>   0.3380 
 21 C        0.8440    -4.8520     1.2950 C.3   1 <1>   0.3380 
 22 C        1.7340    -6.4220    -1.0010 C.3   1 <1>  -0.1660 
 23 C        1.5000    -6.2180     1.4990 C.3   1 <1>  -0.1660 
 24 C        1.2950    -7.1310     0.2850 C.3   1 <1>  -0.1660 
 25 H       -1.2150    -0.4370     1.9500 H     1 <1>   0.4450 
 26 H       -3.3250     1.4490     2.3660 H     1 <1>   0.1430 
 27 H        2.1130     2.4910    -0.8810 H     1 <1>   0.1430 
 28 H        0.8800    -1.9610     1.8280 H     1 <1>   0.0730 
 29 H        2.4700    -2.0480     1.1400 H     1 <1>   0.0730 
 30 H       -0.3070     4.3320    -0.3200 H     1 <1>   0.1430 
 31 H       -3.9370     3.7960     1.8770 H     1 <1>   0.1430 
 32 H        1.2790    -2.4730    -1.1170 H     1 <1>   0.0730 
 33 H       -0.1540    -2.7870    -0.1750 H     1 <1>   0.0730 
 34 H       -2.4520     5.2200     0.5520 H     1 <1>   0.1430 
 35 H        5.6100    -0.4440     0.1490 H     1 <1>   0.0730 
 36 H        4.3000    -0.9700     1.1580 H     1 <1>   0.0730 
 37 H        4.6770     0.7240     1.0390 H     1 <1>   0.0730 
 38 H        3.6510     1.1980    -2.4970 H     1 <1>   0.0730 
 39 H        5.2460     0.7410    -1.9800 H     1 <1>   0.0730 
 40 H        4.3910     1.9710    -1.1110 H     1 <1>   0.0730 
 41 H        4.5940    -1.5070    -2.0070 H     1 <1>   0.0730 
 42 H        3.4760    -2.2030    -0.8990 H     1 <1>   0.0730 
 43 H        2.8890    -1.3070    -2.2900 H     1 <1>   0.0730 
 44 H        2.4170    -4.2390     0.1390 H     1 <1>   0.4450 
 45 H        1.4400    -4.5720    -2.0370 H     1 <1>   0.0730 
 46 H        0.0060    -5.1730    -1.2330 H     1 <1>   0.0730 
 47 H       -0.2230    -4.9780     1.2010 H     1 <1>   0.0730 
 48 H        1.0440    -4.2340     2.1540 H     1 <1>   0.0730 
 49 H        2.8040    -6.3090    -1.0120 H     1 <1>   0.0730 
 50 H        1.4670    -7.0290    -1.8480 H     1 <1>   0.0730 
 51 H        1.0730    -6.6870     2.3690 H     1 <1>   0.0730 
 52 H        2.5510    -6.0890     1.6890 H     1 <1>   0.0730 
 53 H        1.8580    -8.0420     0.4120 H     1 <1>   0.0730 
 54 H        0.2540    -7.3990     0.2090 H     1 <1>   0.0730 
@<TRIPOS>BOND
  1   1   2  ar  
  2   1   3  1   
  3   1  25  1   
  4   2   4  ar  
  5   2   5  ar  
  6   3   6  ar  
  7   3   7  ar  
  8   4   6  1   
  9   4   8  1   
 10   5   9  1   
 11   5  10  1   
 12   6  11  ar  
 13   7  12  ar  
 14   7  26  1   
 15   8   9  2   
 16   8  27  1   
 17   9  13  1   
 18  10  14  1   
 19  10  28  1   
 20  10  29  1   
 21  11  15  ar  
 22  11  30  1   
 23  12  15  ar  
 24  12  31  1   
 25  13  16  1   
 26  13  17  1   
 27  13  18  1   
 28  14  19  1   
 29  14  32  1   
 30  14  33  1   
 31  15  34  1   
 32  16  35  1   
 33  16  36  1   
 34  16  37  1   
 35  17  38  1   
 36  17  39  1   
 37  17  40  1   
 38  18  41  1   
 39  18  42  1   
 40  18  43  1   
 41  19  20  1   
 42  19  21  1   
 43  19  44  1   
 44  20  22  1   
 45  20  45  1   
 46  20  46  1   
 47  21  23  1   
 48  21  47  1   
 49  21  48  1   
 50  22  24  1   
 51  22  49  1   
 52  22  50  1   
 53  23  24  1   
 54  23  51  1   
 55  23  52  1   
 56  24  53  1   
 57  24  54  1   
@<TRIPOS>SUBSTRUCTURE
  1 ****   5 GROUP 4 **** **** 0

# MOE 2024.06 (io_trps.svl 2023.06)
