@<TRIPOS>MOLECULE
NONAME
42 43 1 0 0 
SMALL
USER_CHARGES


@<TRIPOS>ATOM
  1 CL       1.3310    -0.8200    -1.5170 Cl    1 <1>  -0.1770 
  2 C        0.7920    -2.2660    -0.6950 C.ar  1 <1>   0.1770 
  3 C        1.4890    -2.7150     0.4170 C.ar  1 <1>  -0.1440 
  4 C       -0.3140    -2.9370    -1.1790 C.ar  1 <1>  -0.1500 
  5 C        1.0660    -3.8790     1.0420 C.ar  1 <1>  -0.1500 
  6 C        2.6860    -1.9500     0.9320 C.3   1 <1>   0.4870 
  7 C       -0.7400    -4.0900    -0.5420 C.ar  1 <1>   0.0820 
  8 C       -0.0300    -4.5800     0.5620 C.ar  1 <1>   0.0820 
  9 N        3.8060    -2.1930    -0.0030 N.4   1 <1>  -0.9060 
 10 O       -1.8500    -4.6910    -1.0270 O.3   1 <1>  -0.3620 
 11 O       -0.3420    -5.7260     1.2190 O.3   1 <1>  -0.3620 
 12 C        5.0600    -1.5050     0.4010 C.3   1 <1>   0.3430 
 13 C       -3.0200    -4.5430    -0.2520 C.3   1 <1>   0.0400 
 14 C       -0.5290    -6.9070     0.4660 C.3   1 <1>   0.0400 
 15 C        6.1700    -1.7620    -0.6160 C.3   1 <1>  -0.0170 
 16 C        7.4220    -1.0500    -0.1440 C.ar  1 <1>  -0.1430 
 17 C        8.3310    -1.7020     0.6760 C.ar  1 <1>  -0.1500 
 18 C        7.6630     0.2640    -0.5200 C.ar  1 <1>  -0.1500 
 19 C        9.4640    -1.0440     1.1230 C.ar  1 <1>  -0.1500 
 20 C        8.7960     0.9200    -0.0730 C.ar  1 <1>  -0.1500 
 21 C        9.6960     0.2670     0.7500 C.ar  1 <1>  -0.1500 
 22 H       -0.8470    -2.5700    -2.0380 H     1 <1>   0.1500 
 23 H        1.5730    -4.2700     1.9090 H     1 <1>   0.1500 
 24 H        2.9410    -2.2920     1.9230 H     1 <1>   0.0800 
 25 H        2.4550    -0.8970     0.9770 H     1 <1>   0.0800 
 26 H        3.5040    -1.8660    -0.9320 H     1 <1>   0.4500 
 27 H        3.9510    -3.2070    -0.0820 H     1 <1>   0.4500 
 28 H        5.3820    -1.8580     1.3680 H     1 <1>   0.0800 
 29 H        4.8920    -0.4410     0.4720 H     1 <1>   0.0800 
 30 H       -2.8530    -4.9570     0.7270 H     1 <1>   0.0800 
 31 H       -3.2610    -3.4970    -0.1810 H     1 <1>   0.0800 
 32 H       -3.8180    -5.0710    -0.7430 H     1 <1>   0.0800 
 33 H       -1.5190    -6.9100     0.0480 H     1 <1>   0.0800 
 34 H        0.2080    -6.9500    -0.3160 H     1 <1>   0.0800 
 35 H       -0.4150    -7.7470     1.1260 H     1 <1>   0.0800 
 36 H        5.8890    -1.3850    -1.5840 H     1 <1>   0.0800 
 37 H        6.3700    -2.8160    -0.6990 H     1 <1>   0.0800 
 38 H        8.1750    -2.7240     0.9750 H     1 <1>   0.1500 
 39 H        6.9800     0.7910    -1.1630 H     1 <1>   0.1500 
 40 H       10.1690    -1.5520     1.7580 H     1 <1>   0.1500 
 41 H        8.9820     1.9390    -0.3660 H     1 <1>   0.1500 
 42 H       10.5790     0.7780     1.0960 H     1 <1>   0.1500 
@<TRIPOS>BOND
  1   1   2  1   
  2   2   3  ar  
  3   2   4  ar  
  4   3   5  ar  
  5   3   6  1   
  6   4   7  ar  
  7   4  22  1   
  8   5   8  ar  
  9   5  23  1   
 10   6   9  1   
 11   6  24  1   
 12   6  25  1   
 13   7   8  ar  
 14   7  10  1   
 15   8  11  1   
 16   9  12  1   
 17   9  26  1   
 18   9  27  1   
 19  10  13  1   
 20  11  14  1   
 21  12  15  1   
 22  12  28  1   
 23  12  29  1   
 24  13  30  1   
 25  13  31  1   
 26  13  32  1   
 27  14  33  1   
 28  14  34  1   
 29  14  35  1   
 30  15  16  1   
 31  15  36  1   
 32  15  37  1   
 33  16  17  ar  
 34  16  18  ar  
 35  17  19  ar  
 36  17  38  1   
 37  18  20  ar  
 38  18  39  1   
 39  19  21  ar  
 40  19  40  1   
 41  20  21  ar  
 42  20  41  1   
 43  21  42  1   
@<TRIPOS>SUBSTRUCTURE
  1 ****   9 GROUP 4 **** **** 0

# MOE 2024.06 (io_trps.svl 2023.06)
