@<TRIPOS>MOLECULE
NONAME
41 42 1 0 0 
SMALL
USER_CHARGES


@<TRIPOS>ATOM
  1 S        0.1780     0.0430    -0.1920 S.o2  1 <1>   1.2950 
  2 O        1.0360     0.1380    -1.3580 O.2   1 <1>  -0.6500 
  3 O        0.7610     0.1600     1.1310 O.2   1 <1>  -0.6500 
  4 N       -1.0230     1.3280    -0.3370 N.pl3 1 <1>   0.3170 
  5 C       -0.8250    -1.4680    -0.3000 C.ar  1 <1>  -0.0090 
  6 C       -1.4810     1.8660    -1.4940 C.2   1 <1>   0.0360 
  7 C       -1.8420     1.8580     0.6060 C.2   1 <1>  -0.3020 
  8 C       -0.2050    -2.7000    -0.1350 C.ar  1 <1>   0.0830 
  9 C       -2.1970    -1.4580    -0.5500 C.ar  1 <1>  -0.1500 
 10 N       -2.4940     2.6590    -1.3560 N.2   1 <1>  -0.5650 
 11 C       -2.7190     2.6620    -0.0300 C.2   1 <1>   0.0770 
 12 O        1.1300    -2.6970     0.0950 O.3   1 <1>  -0.3620 
 13 C       -0.9450    -3.8750    -0.2110 C.ar  1 <1>  -0.1500 
 14 C       -2.9580    -2.6190    -0.6310 C.ar  1 <1>  -0.1430 
 15 C        1.8710    -3.8760     0.3080 C.3   1 <1>   0.1200 
 16 C       -2.3030    -3.8310    -0.4550 C.ar  1 <1>  -0.1500 
 17 C       -4.4750    -2.5130    -0.9100 C.3   1 <1>   0.1440 
 18 C        3.3220    -3.4750     0.5500 C.3   1 <1>  -0.2400 
 19 C       -5.1760    -3.8800    -0.9710 C.3   1 <1>  -0.2400 
 20 C       -4.7040    -1.8160    -2.2600 C.3   1 <1>  -0.2400 
 21 C       -5.1490    -1.6970     0.2040 C.3   1 <1>  -0.2400 
 22 H       -1.0210     1.6270    -2.4380 H     1 <1>   0.1500 
 23 H       -1.7440     1.6300     1.6520 H     1 <1>   0.1500 
 24 H       -2.7090    -0.5260    -0.6900 H     1 <1>   0.1500 
 25 H       -3.5140     3.2520     0.4000 H     1 <1>   0.1500 
 26 H       -0.4820    -4.8350    -0.0840 H     1 <1>   0.1500 
 27 H        1.7880    -4.4950    -0.5690 H     1 <1>   0.0800 
 28 H        1.4670    -4.3820     1.1670 H     1 <1>   0.0800 
 29 H       -2.8290    -4.7670    -0.5040 H     1 <1>   0.1500 
 30 H        3.7080    -2.9530    -0.3070 H     1 <1>   0.0800 
 31 H        3.9210    -4.3510     0.7200 H     1 <1>   0.0800 
 32 H        3.3880    -2.8390     1.4150 H     1 <1>   0.0800 
 33 H       -4.7600    -4.4840    -1.7580 H     1 <1>   0.0800 
 34 H       -6.2270    -3.7590    -1.1660 H     1 <1>   0.0800 
 35 H       -5.0710    -4.4010    -0.0360 H     1 <1>   0.0800 
 36 H       -4.2020    -2.3570    -3.0430 H     1 <1>   0.0800 
 37 H       -4.3290    -0.8090    -2.2520 H     1 <1>   0.0800 
 38 H       -5.7530    -1.7750    -2.4930 H     1 <1>   0.0800 
 39 H       -4.9620    -2.1540     1.1600 H     1 <1>   0.0800 
 40 H       -6.2120    -1.6520     0.0500 H     1 <1>   0.0800 
 41 H       -4.7770    -0.6900     0.2330 H     1 <1>   0.0800 
@<TRIPOS>BOND
  1   1   2  2   
  2   1   3  2   
  3   1   4  1   
  4   1   5  1   
  5   4   6  1   
  6   4   7  1   
  7   5   8  ar  
  8   5   9  ar  
  9   6  10  2   
 10   6  22  1   
 11   7  11  2   
 12   7  23  1   
 13   8  12  1   
 14   8  13  ar  
 15   9  14  ar  
 16   9  24  1   
 17  10  11  1   
 18  11  25  1   
 19  12  15  1   
 20  13  16  ar  
 21  13  26  1   
 22  14  16  ar  
 23  14  17  1   
 24  15  18  1   
 25  15  27  1   
 26  15  28  1   
 27  16  29  1   
 28  17  19  1   
 29  17  20  1   
 30  17  21  1   
 31  18  30  1   
 32  18  31  1   
 33  18  32  1   
 34  19  33  1   
 35  19  34  1   
 36  19  35  1   
 37  20  36  1   
 38  20  37  1   
 39  20  38  1   
 40  21  39  1   
 41  21  40  1   
 42  21  41  1   
@<TRIPOS>SUBSTRUCTURE
  1 ****   5 GROUP 4 **** **** 0

# MOE 2024.06 (io_trps.svl 2023.06)
