@<TRIPOS>MOLECULE
NONAME
38 39 1 0 0 
SMALL
USER_CHARGES


@<TRIPOS>ATOM
  1 O        4.9820     5.3490     0.8720 O.2   1 <1>  -0.5700 
  2 C        4.9620     4.1710     0.5800 C.2   1 <1>   0.6340 
  3 O        3.7790     3.5790     0.3860 O.3   1 <1>  -0.4300 
  4 C        6.1600     3.3660     0.4280 C.ar  1 <1>   0.0860 
  5 C        2.5640     4.2880     0.5380 C.3   1 <1>   0.1200 
  6 C        7.4290     3.9260     0.6020 C.ar  1 <1>  -0.1500 
  7 C        6.1070     2.0060     0.1040 C.ar  1 <1>  -0.1500 
  8 C        1.4060     3.3590     0.1680 C.3   1 <1>   0.1100 
  9 C        8.5790     3.1730     0.4590 C.ar  1 <1>  -0.1500 
 10 C        7.2530     1.2460    -0.0410 C.ar  1 <1>  -0.1500 
 11 N        0.1010     4.0030     0.3950 N.3   1 <1>  -0.8100 
 12 C        8.5040     1.8280     0.1370 C.ar  1 <1>   0.0830 
 13 C       -0.2130     5.0720    -0.5700 C.3   1 <1>   0.1100 
 14 C       -0.9980     3.0100     0.4750 C.3   1 <1>   0.1100 
 15 O        9.6720     1.1600     0.0150 O.3   1 <1>  -0.3630 
 16 C       -1.5640     5.7490    -0.2390 C.3   1 <1>   0.1200 
 17 C       -2.3530     3.5200    -0.0650 C.3   1 <1>   0.1200 
 18 C        9.7160    -0.2120    -0.3090 C.3   1 <1>   0.0400 
 19 O       -2.5460     4.8680     0.2450 O.3   1 <1>  -0.5600 
 20 H        2.5950     5.1460    -0.1100 H     1 <1>   0.0800 
 21 H        2.4820     4.6030     1.5640 H     1 <1>   0.0800 
 22 H        7.5100     4.9700     0.8530 H     1 <1>   0.1500 
 23 H        5.1500     1.5350    -0.0380 H     1 <1>   0.1500 
 24 H        1.4740     2.4850     0.7940 H     1 <1>   0.0800 
 25 H        1.4900     3.0570    -0.8620 H     1 <1>   0.0800 
 26 H        9.5460     3.6230     0.5970 H     1 <1>   0.1500 
 27 H        7.1570     0.2060    -0.2900 H     1 <1>   0.1500 
 28 H       -0.2570     4.6610    -1.5640 H     1 <1>   0.0800 
 29 H        0.5550     5.8250    -0.5590 H     1 <1>   0.0800 
 30 H       -1.1220     2.7300     1.5070 H     1 <1>   0.0800 
 31 H       -0.7370     2.1200    -0.0710 H     1 <1>   0.0800 
 32 H       -1.9560     6.2360    -1.1140 H     1 <1>   0.0800 
 33 H       -1.4110     6.4940     0.5210 H     1 <1>   0.0800 
 34 H       -3.1610     2.9600     0.3680 H     1 <1>   0.0800 
 35 H       -2.3970     3.4120    -1.1340 H     1 <1>   0.0800 
 36 H       10.7470    -0.5120    -0.3480 H     1 <1>   0.0800 
 37 H        9.2560    -0.3580    -1.2710 H     1 <1>   0.0800 
 38 H        9.2020    -0.7680     0.4540 H     1 <1>   0.0800 
@<TRIPOS>BOND
  1   1   2  2   
  2   2   3  1   
  3   2   4  1   
  4   3   5  1   
  5   4   6  ar  
  6   4   7  ar  
  7   5   8  1   
  8   5  20  1   
  9   5  21  1   
 10   6   9  ar  
 11   6  22  1   
 12   7  10  ar  
 13   7  23  1   
 14   8  11  1   
 15   8  24  1   
 16   8  25  1   
 17   9  12  ar  
 18   9  26  1   
 19  10  12  ar  
 20  10  27  1   
 21  11  13  1   
 22  11  14  1   
 23  12  15  1   
 24  13  16  1   
 25  13  28  1   
 26  13  29  1   
 27  14  17  1   
 28  14  30  1   
 29  14  31  1   
 30  15  18  1   
 31  16  19  1   
 32  16  32  1   
 33  16  33  1   
 34  17  19  1   
 35  17  34  1   
 36  17  35  1   
 37  18  36  1   
 38  18  37  1   
 39  18  38  1   
@<TRIPOS>SUBSTRUCTURE
  1 ****   3 GROUP 4 **** **** 0

# MOE 2024.06 (io_trps.svl 2023.06)
