@<TRIPOS>MOLECULE
NONAME
47 48 1 0 0 
SMALL
USER_CHARGES


@<TRIPOS>ATOM
  1 BR       1.8090     3.2290    -4.2890 Br    1 <1>  -0.1110 
  2 C        0.9990     3.6690    -2.5990 C.ar  1 <1>   0.1110 
  3 C       -0.2420     4.2640    -2.5880 C.ar  1 <1>  -0.1500 
  4 C        1.6860     3.3760    -1.4400 C.ar  1 <1>  -0.1500 
  5 C       -0.8610     4.6000    -1.3810 C.ar  1 <1>   0.0860 
  6 C        1.0960     3.6940    -0.2330 C.ar  1 <1>  -0.1500 
  7 C       -0.1650     4.2960    -0.1900 C.ar  1 <1>   0.0830 
  8 C       -2.1730     5.2320    -1.4240 C.2   1 <1>   0.5440 
  9 O       -0.7480     4.5960     1.0000 O.3   1 <1>  -0.3630 
 10 O       -2.8790     5.1210    -2.4090 O.2   1 <1>  -0.5700 
 11 N       -2.6520     5.9720    -0.3820 N.am  1 <1>  -0.7300 
 12 C       -0.2160     4.2110     2.2470 C.3   1 <1>   0.1200 
 13 C       -3.9880     6.6040    -0.3060 C.3   1 <1>   0.1400 
 14 C       -1.1980     4.6520     3.3280 C.3   1 <1>  -0.2400 
 15 C       -4.9730     5.6430     0.3570 C.3   1 <1>  -0.0170 
 16 C       -6.3530     6.2760     0.4360 C.ar  1 <1>  -0.1430 
 17 C       -7.1740     6.2800    -0.6800 C.ar  1 <1>  -0.1500 
 18 C       -6.7980     6.8560     1.6130 C.ar  1 <1>  -0.1500 
 19 C       -8.4390     6.8600    -0.6320 C.ar  1 <1>   0.0830 
 20 C       -8.0530     7.4340     1.6760 C.ar  1 <1>  -0.1500 
 21 O       -9.2730     6.8850    -1.7120 O.3   1 <1>  -0.3630 
 22 C       -8.8830     7.4420     0.5590 C.ar  1 <1>   0.0830 
 23 C       -8.8890     6.3470    -2.9570 C.3   1 <1>   0.0400 
 24 O      -10.1280     8.0020     0.5750 O.3   1 <1>  -0.3630 
 25 C      -10.6620     8.5920     1.7380 C.3   1 <1>   0.0400 
 26 H       -0.7360     4.4710    -3.5220 H     1 <1>   0.1500 
 27 H        2.6560     2.9110    -1.4880 H     1 <1>   0.1500 
 28 H        1.6390     3.4630     0.6640 H     1 <1>   0.1500 
 29 H       -2.1150     5.9250     0.4910 H     1 <1>   0.3700 
 30 H        0.7370     4.6960     2.3780 H     1 <1>   0.0800 
 31 H       -0.0980     3.1410     2.2540 H     1 <1>   0.0800 
 32 H       -4.3300     6.8460    -1.2990 H     1 <1>   0.0800 
 33 H       -3.9210     7.5170     0.2590 H     1 <1>   0.0800 
 34 H       -1.3150     5.7210     3.3100 H     1 <1>   0.0800 
 35 H       -0.8250     4.3660     4.2950 H     1 <1>   0.0800 
 36 H       -2.1520     4.1800     3.1770 H     1 <1>   0.0800 
 37 H       -4.6270     5.3920     1.3430 H     1 <1>   0.0800 
 38 H       -5.0300     4.7380    -0.2220 H     1 <1>   0.0800 
 39 H       -6.8080     5.8250    -1.5810 H     1 <1>   0.1500 
 40 H       -6.1700     6.8600     2.4860 H     1 <1>   0.1500 
 41 H       -8.3630     7.8730     2.6040 H     1 <1>   0.1500 
 42 H       -9.7000     6.4960    -3.6470 H     1 <1>   0.0800 
 43 H       -8.6980     5.2960    -2.8390 H     1 <1>   0.0800 
 44 H       -8.0130     6.8640    -3.3060 H     1 <1>   0.0800 
 45 H      -11.6490     8.9510     1.5050 H     1 <1>   0.0800 
 46 H      -10.0350     9.4150     2.0310 H     1 <1>   0.0800 
 47 H      -10.7170     7.8480     2.5130 H     1 <1>   0.0800 
@<TRIPOS>BOND
  1   1   2  1   
  2   2   3  ar  
  3   2   4  ar  
  4   3   5  ar  
  5   3  26  1   
  6   4   6  ar  
  7   4  27  1   
  8   5   7  ar  
  9   5   8  1   
 10   6   7  ar  
 11   6  28  1   
 12   7   9  1   
 13   8  10  2   
 14   8  11  am  
 15   9  12  1   
 16  11  13  1   
 17  11  29  1   
 18  12  14  1   
 19  12  30  1   
 20  12  31  1   
 21  13  15  1   
 22  13  32  1   
 23  13  33  1   
 24  14  34  1   
 25  14  35  1   
 26  14  36  1   
 27  15  16  1   
 28  15  37  1   
 29  15  38  1   
 30  16  17  ar  
 31  16  18  ar  
 32  17  19  ar  
 33  17  39  1   
 34  18  20  ar  
 35  18  40  1   
 36  19  21  1   
 37  19  22  ar  
 38  20  22  ar  
 39  20  41  1   
 40  21  23  1   
 41  22  24  1   
 42  23  42  1   
 43  23  43  1   
 44  23  44  1   
 45  24  25  1   
 46  25  45  1   
 47  25  46  1   
 48  25  47  1   
@<TRIPOS>SUBSTRUCTURE
  1 ****  13 GROUP 4 **** **** 0

# MOE 2024.06 (io_trps.svl 2023.06)
