@<TRIPOS>MOLECULE
NONAME
50 52 1 0 0 
SMALL
USER_CHARGES


@<TRIPOS>ATOM
  1 F       -0.8070     0.4220     0.3670 F     1 <1>  -0.3400 
  2 C       -1.6980     0.3820    -0.6190 C.3   1 <1>   1.1640 
  3 F       -1.0050     0.1970    -1.7360 F     1 <1>  -0.3400 
  4 F       -2.2110     1.6050    -0.6970 F     1 <1>  -0.3400 
  5 C       -2.7620    -0.7050    -0.4120 C.ar  1 <1>  -0.1440 
  6 C       -4.0640    -0.5240    -0.8650 C.ar  1 <1>  -0.1500 
  7 C       -2.4410    -1.9010     0.2240 C.ar  1 <1>  -0.1500 
  8 C       -5.0390    -1.4970    -0.6940 C.ar  1 <1>   0.1000 
  9 C       -3.4020    -2.8820     0.4030 C.ar  1 <1>  -0.1500 
 10 N       -6.3280    -1.2590    -1.1650 N.pl3 1 <1>  -0.8380 
 11 C       -4.6910    -2.6800    -0.0520 C.ar  1 <1>  -0.1500 
 12 C       -7.1140    -2.3310    -1.8490 C.3   1 <1>   0.2090 
 13 C       -7.1760    -0.2570    -0.4520 C.3   1 <1>   0.2090 
 14 C       -8.2020    -2.9330    -0.9340 C.3   1 <1>   0.1100 
 15 C       -8.2360    -0.9400     0.4320 C.3   1 <1>   0.1100 
 16 N       -9.0730    -1.8990    -0.3330 N.3   1 <1>  -0.8100 
 17 C      -10.1200    -2.5180     0.5350 C.3   1 <1>   0.1710 
 18 C      -11.2620    -1.5690     0.9090 C.2   1 <1>   0.5690 
 19 O      -11.9230    -1.8070     1.8920 O.2   1 <1>  -0.5700 
 20 N      -11.4540    -0.4950     0.0910 N.am  1 <1>  -0.5470 
 21 C      -12.3240     0.6090     0.1070 C.ar  1 <1>   0.1170 
 22 C      -12.0580     1.6800    -0.7550 C.ar  1 <1>   0.0830 
 23 C      -13.4370     0.6760     0.9370 C.ar  1 <1>  -0.1500 
 24 O      -10.9550     1.5770    -1.5570 O.3   1 <1>  -0.3630 
 25 C      -12.9000     2.7880    -0.7690 C.ar  1 <1>  -0.1500 
 26 C      -14.2710     1.7790     0.9180 C.ar  1 <1>  -0.1500 
 27 C      -10.6450     2.5700    -2.5100 C.3   1 <1>   0.0400 
 28 C      -14.0030     2.8350     0.0660 C.ar  1 <1>  -0.1500 
 29 H       -4.3490     0.3800    -1.3730 H     1 <1>   0.1500 
 30 H       -1.4410    -2.0780     0.5830 H     1 <1>   0.1500 
 31 H       -3.1430    -3.8020     0.8970 H     1 <1>   0.1500 
 32 H       -5.4310    -3.4400     0.0970 H     1 <1>   0.1500 
 33 H       -6.4510    -3.1090    -2.1830 H     1 <1>   0.0800 
 34 H       -7.5870    -1.9090    -2.7180 H     1 <1>   0.0800 
 35 H       -7.6690     0.3660    -1.1770 H     1 <1>   0.0800 
 36 H       -6.5560     0.3730     0.1610 H     1 <1>   0.0800 
 37 H       -7.7270    -3.5030    -0.1550 H     1 <1>   0.0800 
 38 H       -8.8030    -3.6070    -1.5190 H     1 <1>   0.0800 
 39 H       -8.8580    -0.1760     0.8660 H     1 <1>   0.0800 
 40 H       -7.7330    -1.4520     1.2350 H     1 <1>   0.0800 
 41 H       -9.6730    -2.8940     1.4380 H     1 <1>   0.0800 
 42 H      -10.5630    -3.3480     0.0160 H     1 <1>   0.0800 
 43 H      -10.7370    -0.4380    -0.6420 H     1 <1>   0.3700 
 44 H      -13.6610    -0.1380     1.6020 H     1 <1>   0.1500 
 45 H      -12.7190     3.6220    -1.4180 H     1 <1>   0.1500 
 46 H      -15.1280     1.8130     1.5690 H     1 <1>   0.1500 
 47 H       -9.7640     2.2590    -3.0420 H     1 <1>   0.0800 
 48 H      -10.4540     3.4970    -1.9990 H     1 <1>   0.0800 
 49 H      -11.4690     2.6680    -3.1940 H     1 <1>   0.0800 
 50 H      -14.6540     3.6930     0.0540 H     1 <1>   0.1500 
@<TRIPOS>BOND
  1   1   2  1   
  2   2   3  1   
  3   2   4  1   
  4   2   5  1   
  5   5   6  ar  
  6   5   7  ar  
  7   6   8  ar  
  8   6  29  1   
  9   7   9  ar  
 10   7  30  1   
 11   8  10  1   
 12   8  11  ar  
 13   9  11  ar  
 14   9  31  1   
 15  10  12  1   
 16  10  13  1   
 17  11  32  1   
 18  12  14  1   
 19  12  33  1   
 20  12  34  1   
 21  13  15  1   
 22  13  35  1   
 23  13  36  1   
 24  14  16  1   
 25  14  37  1   
 26  14  38  1   
 27  15  16  1   
 28  15  39  1   
 29  15  40  1   
 30  16  17  1   
 31  17  18  1   
 32  17  41  1   
 33  17  42  1   
 34  18  19  2   
 35  18  20  am  
 36  20  21  1   
 37  20  43  1   
 38  21  22  ar  
 39  21  23  ar  
 40  22  24  1   
 41  22  25  ar  
 42  23  26  ar  
 43  23  44  1   
 44  24  27  1   
 45  25  28  ar  
 46  25  45  1   
 47  26  28  ar  
 48  26  46  1   
 49  27  47  1   
 50  27  48  1   
 51  27  49  1   
 52  28  50  1   
@<TRIPOS>SUBSTRUCTURE
  1 ****  13 GROUP 4 **** **** 0

# MOE 2024.06 (io_trps.svl 2023.06)
