@<TRIPOS>MOLECULE
NONAME
45 47 1 0 0 
SMALL
USER_CHARGES


@<TRIPOS>ATOM
  1 O       -3.7440    -3.3530     0.0030 O.3   1 <1>  -0.3630 
  2 C       -5.0970    -3.2850    -0.0530 C.ar  1 <1>   0.0830 
  3 C       -3.0730    -4.5620     0.2850 C.3   1 <1>   0.1200 
  4 C       -5.6650    -2.0460    -0.1780 C.ar  1 <1>  -0.1500 
  5 C       -5.9260    -4.4230     0.0140 C.ar  1 <1>  -0.1500 
  6 C       -1.5680    -4.2750     0.3560 C.3   1 <1>   0.2000 
  7 C       -7.0610    -1.8730    -0.2390 C.ar  1 <1>   0.0000 
  8 C       -7.2850    -4.2810    -0.0430 C.ar  1 <1>  -0.1500 
  9 O       -1.1780    -3.6050    -0.8050 O.3   1 <1>  -0.6800 
 10 C       -0.7240    -5.5600     0.4990 C.3   1 <1>   0.3430 
 11 C       -7.8890    -3.0140    -0.1690 C.ar  1 <1>   0.0000 
 12 C       -7.6660    -0.6050    -0.3660 C.ar  1 <1>  -0.1500 
 13 N        0.6730    -5.3240     0.0220 N.4   1 <1>  -0.9590 
 14 C       -9.2870    -2.8420    -0.2290 C.ar  1 <1>  -0.1500 
 15 C       -9.0250    -0.4680    -0.4210 C.ar  1 <1>  -0.1500 
 16 C        1.3250    -6.5620    -0.4870 C.3   1 <1>   0.3430 
 17 C        1.5090    -4.5940     1.0170 C.3   1 <1>   0.3430 
 18 C       -9.8450    -1.6000    -0.3520 C.ar  1 <1>  -0.1500 
 19 C        2.6610    -6.2070    -1.1440 C.3   1 <1>  -0.1600 
 20 C        2.8460    -4.2100     0.3810 C.3   1 <1>  -0.1600 
 21 C        3.5780    -5.4320    -0.1890 C.3   1 <1>  -0.1600 
 22 H       -3.2910    -5.2630    -0.5030 H     1 <1>   0.0800 
 23 H       -3.4350    -4.9400     1.2260 H     1 <1>   0.0800 
 24 H       -5.0390    -1.1750    -0.2310 H     1 <1>   0.1500 
 25 H       -5.5090    -5.4060     0.1060 H     1 <1>   0.1500 
 26 H       -1.3780    -3.6230     1.1900 H     1 <1>   0.0800 
 27 H       -7.9240    -5.1440     0.0060 H     1 <1>   0.1500 
 28 H       -1.8630    -2.9270    -1.0180 H     1 <1>   0.4000 
 29 H       -1.1790    -6.3240    -0.1080 H     1 <1>   0.0800 
 30 H       -0.7280    -5.9030     1.5210 H     1 <1>   0.0800 
 31 H       -7.0310     0.2610    -0.4190 H     1 <1>   0.1500 
 32 H        0.5420    -4.6730    -0.7780 H     1 <1>   0.4500 
 33 H       -9.9130    -3.7140    -0.1750 H     1 <1>   0.1500 
 34 H       -9.4800     0.5020    -0.5170 H     1 <1>   0.1500 
 35 H        0.6890    -7.0450    -1.2110 H     1 <1>   0.0800 
 36 H        1.4970    -7.2460     0.3290 H     1 <1>   0.0800 
 37 H        1.6860    -5.2200     1.8760 H     1 <1>   0.0800 
 38 H        1.0010    -3.7000     1.3420 H     1 <1>   0.0800 
 39 H      -10.9130    -1.4750    -0.3960 H     1 <1>   0.1500 
 40 H        2.4770    -5.6240    -2.0290 H     1 <1>   0.0800 
 41 H        3.1530    -7.1140    -1.4530 H     1 <1>   0.0800 
 42 H        3.4660    -3.7370     1.1230 H     1 <1>   0.0800 
 43 H        2.6730    -3.4890    -0.3990 H     1 <1>   0.0800 
 44 H        4.4660    -5.1150    -0.7120 H     1 <1>   0.0800 
 45 H        3.8870    -6.0760     0.6180 H     1 <1>   0.0800 
@<TRIPOS>BOND
  1   1   2  1   
  2   1   3  1   
  3   2   4  ar  
  4   2   5  ar  
  5   3   6  1   
  6   3  22  1   
  7   3  23  1   
  8   4   7  ar  
  9   4  24  1   
 10   5   8  ar  
 11   5  25  1   
 12   6   9  1   
 13   6  10  1   
 14   6  26  1   
 15   7  11  ar  
 16   7  12  ar  
 17   8  11  ar  
 18   8  27  1   
 19   9  28  1   
 20  10  13  1   
 21  10  29  1   
 22  10  30  1   
 23  11  14  ar  
 24  12  15  ar  
 25  12  31  1   
 26  13  16  1   
 27  13  17  1   
 28  13  32  1   
 29  14  18  ar  
 30  14  33  1   
 31  15  18  ar  
 32  15  34  1   
 33  16  19  1   
 34  16  35  1   
 35  16  36  1   
 36  17  20  1   
 37  17  37  1   
 38  17  38  1   
 39  18  39  1   
 40  19  21  1   
 41  19  40  1   
 42  19  41  1   
 43  20  21  1   
 44  20  42  1   
 45  20  43  1   
 46  21  44  1   
 47  21  45  1   
@<TRIPOS>SUBSTRUCTURE
  1 ****   1 GROUP 4 **** **** 0

# MOE 2024.06 (io_trps.svl 2023.06)
