@<TRIPOS>MOLECULE
NONAME
47 49 1 0 0 
SMALL
USER_CHARGES


@<TRIPOS>ATOM
  1 CL       1.2100     2.1990    -0.2900 Cl    1 <1>  -0.1770 
  2 C       -0.2710     2.9450     0.2760 C.ar  1 <1>   0.1770 
  3 C       -1.5110     2.4140    -0.0610 C.ar  1 <1>   0.0820 
  4 C       -0.1750     4.0760     1.0610 C.ar  1 <1>  -0.1500 
  5 O       -1.6390     1.3080    -0.8330 O.3   1 <1>  -0.3630 
  6 C       -2.6640     3.0390     0.3840 C.ar  1 <1>  -0.1500 
  7 C       -1.3250     4.7080     1.5130 C.ar  1 <1>   0.1170 
  8 C       -1.3990     0.0720    -0.1980 C.3   1 <1>   0.0400 
  9 C       -2.5780     4.1820     1.1730 C.ar  1 <1>   0.0830 
 10 N       -1.2300     5.8590     2.3120 N.am  1 <1>  -0.5470 
 11 O       -3.6790     4.8390     1.6420 O.3   1 <1>  -0.3630 
 12 C       -0.9000     7.1390     1.9790 C.2   1 <1>   0.5690 
 13 C       -4.9840     4.4180     1.3080 C.3   1 <1>   0.0400 
 14 O       -1.0340     7.9910     2.8250 O.2   1 <1>  -0.5700 
 15 C       -0.4200     7.5210     0.5530 C.3   1 <1>   0.3410 
 16 O        0.7520     6.8090     0.1620 O.3   1 <1>  -0.4300 
 17 C        0.0060     8.9910     0.2690 C.3   1 <1>   0.0000 
 18 C       -1.4410     7.2380    -0.5810 C.3   1 <1>  -0.1600 
 19 C        1.2890     7.4340    -0.8710 C.2   1 <1>   0.6590 
 20 C        0.4130     8.6460    -1.1770 C.3   1 <1>   0.0610 
 21 C       -1.1080    10.0670     0.3920 C.3   1 <1>  -0.2400 
 22 C        1.1900     9.4940     1.1440 C.3   1 <1>  -0.2400 
 23 C       -0.8710     8.0340    -1.7780 C.3   1 <1>  -0.1600 
 24 O        2.2890     7.0820    -1.4370 O.2   1 <1>  -0.5700 
 25 C        1.0450     9.7570    -2.0350 C.3   1 <1>  -0.2400 
 26 H        0.7950     4.4650     1.3140 H     1 <1>   0.1500 
 27 H       -3.6060     2.6130     0.0980 H     1 <1>   0.1500 
 28 H       -1.5730    -0.7120    -0.9130 H     1 <1>   0.0800 
 29 H       -2.0740    -0.0310     0.6330 H     1 <1>   0.0800 
 30 H       -0.3790     0.0360     0.1400 H     1 <1>   0.0800 
 31 H       -1.7130     5.8070     3.2100 H     1 <1>   0.3700 
 32 H       -5.6810     5.0940     1.7700 H     1 <1>   0.0800 
 33 H       -5.1390     3.4220     1.6840 H     1 <1>   0.0800 
 34 H       -5.1000     4.4490     0.2390 H     1 <1>   0.0800 
 35 H       -2.4200     7.5920    -0.3110 H     1 <1>   0.0800 
 36 H       -1.5040     6.1860    -0.7990 H     1 <1>   0.0800 
 37 H       -2.0020     9.8360    -0.1540 H     1 <1>   0.0800 
 38 H       -0.7450    11.0160     0.0370 H     1 <1>   0.0800 
 39 H       -1.3880    10.1910     1.4230 H     1 <1>   0.0800 
 40 H        2.0230     8.8150     1.1670 H     1 <1>   0.0800 
 41 H        0.8670     9.6360     2.1600 H     1 <1>   0.0800 
 42 H        1.5470    10.4420     0.7820 H     1 <1>   0.0800 
 43 H       -1.5580     8.7940    -2.1100 H     1 <1>   0.0800 
 44 H       -0.6400     7.3870    -2.6080 H     1 <1>   0.0800 
 45 H        1.2860     9.3710    -3.0090 H     1 <1>   0.0800 
 46 H        1.9530    10.1110    -1.5820 H     1 <1>   0.0800 
 47 H        0.3660    10.5820    -2.1490 H     1 <1>   0.0800 
@<TRIPOS>BOND
  1   1   2  1   
  2   2   3  ar  
  3   2   4  ar  
  4   3   5  1   
  5   3   6  ar  
  6   4   7  ar  
  7   4  26  1   
  8   5   8  1   
  9   6   9  ar  
 10   6  27  1   
 11   7   9  ar  
 12   7  10  1   
 13   8  28  1   
 14   8  29  1   
 15   8  30  1   
 16   9  11  1   
 17  10  12  am  
 18  10  31  1   
 19  11  13  1   
 20  12  14  2   
 21  12  15  1   
 22  13  32  1   
 23  13  33  1   
 24  13  34  1   
 25  15  16  1   
 26  15  17  1   
 27  15  18  1   
 28  16  19  1   
 29  17  20  1   
 30  17  21  1   
 31  17  22  1   
 32  18  23  1   
 33  18  35  1   
 34  18  36  1   
 35  19  20  1   
 36  19  24  2   
 37  20  23  1   
 38  20  25  1   
 39  21  37  1   
 40  21  38  1   
 41  21  39  1   
 42  22  40  1   
 43  22  41  1   
 44  22  42  1   
 45  23  43  1   
 46  23  44  1   
 47  25  45  1   
 48  25  46  1   
 49  25  47  1   
@<TRIPOS>SUBSTRUCTURE
  1 ****  15 GROUP 4 **** **** 0

# MOE 2024.06 (io_trps.svl 2023.06)
