@<TRIPOS>MOLECULE
NONAME
53 54 1 0 0 
SMALL
USER_CHARGES


@<TRIPOS>ATOM
  1 S        0.4920     0.3470     1.4500 S.o2  1 <1>   1.3330 
  2 O        1.7750     0.4050     2.1110 O.2   1 <1>  -0.6500 
  3 O        0.1640    -0.7810     0.6150 O.2   1 <1>  -0.6500 
  4 N        0.3920     1.7680     0.4770 N.am  1 <1>  -0.6930 
  5 C       -0.7910     0.6060     2.6550 C.3   1 <1>  -0.1350 
  6 C       -0.7340     2.0250    -0.3080 C.ar  1 <1>   0.1990 
  7 C        1.3820     2.8660     0.6980 C.3   1 <1>   0.2570 
  8 C       -1.7540     2.8880     0.1170 C.ar  1 <1>   0.0830 
  9 C       -0.8450     1.4050    -1.5430 C.ar  1 <1>  -0.1500 
 10 C        2.6870     2.6780    -0.0800 C.2   1 <1>   0.5690 
 11 O       -1.6250     3.4740     1.3480 O.3   1 <1>  -0.3630 
 12 C       -2.8500     3.1120    -0.7090 C.ar  1 <1>  -0.1500 
 13 C       -1.9380     1.6270    -2.3630 C.ar  1 <1>  -0.1440 
 14 O        2.9550     3.4730    -0.9490 O.2   1 <1>  -0.5700 
 15 N        3.4970     1.6250     0.2480 N.am  1 <1>  -0.5470 
 16 C       -2.5340     4.4630     1.7820 C.3   1 <1>   0.0400 
 17 C       -2.9380     2.4850    -1.9410 C.ar  1 <1>  -0.1500 
 18 C       -2.0300     0.9360    -3.7110 C.3   1 <1>  -0.0970 
 19 C        4.6130     1.1220    -0.4370 C.ar  1 <1>   0.1170 
 20 C        5.7990     1.8510    -0.5560 C.ar  1 <1>  -0.1430 
 21 C        4.5390    -0.1580    -0.9900 C.ar  1 <1>  -0.1430 
 22 C        6.8760     1.3050    -1.2340 C.ar  1 <1>  -0.1500 
 23 C        5.9560     3.2420     0.0460 C.3   1 <1>  -0.0970 
 24 C        5.6300    -0.6860    -1.6590 C.ar  1 <1>  -0.1500 
 25 C        3.2680    -0.9930    -0.8790 C.3   1 <1>  -0.0970 
 26 C        6.8010     0.0400    -1.7880 C.ar  1 <1>  -0.1430 
 27 C        7.9900    -0.5470    -2.5260 C.3   1 <1>  -0.0970 
 28 H       -0.8120    -0.2070     3.3520 H     1 <1>   0.0800 
 29 H       -1.7450     0.6680     2.1690 H     1 <1>   0.0800 
 30 H       -0.6190     1.5190     3.1900 H     1 <1>   0.0800 
 31 H        1.6070     2.9470     1.7450 H     1 <1>   0.0800 
 32 H        0.9460     3.7990     0.3880 H     1 <1>   0.0800 
 33 H       -0.0580     0.7420    -1.8580 H     1 <1>   0.1500 
 34 H       -3.6500     3.7660    -0.4190 H     1 <1>   0.1500 
 35 H        3.1130     0.9860     0.9570 H     1 <1>   0.3700 
 36 H       -2.2060     4.8230     2.7400 H     1 <1>   0.0800 
 37 H       -3.5120     4.0260     1.8730 H     1 <1>   0.0800 
 38 H       -2.5380     5.2710     1.0710 H     1 <1>   0.0800 
 39 H       -3.7910     2.6690    -2.5710 H     1 <1>   0.1500 
 40 H       -1.5680    -0.0340    -3.6670 H     1 <1>   0.0800 
 41 H       -1.5260     1.5260    -4.4560 H     1 <1>   0.0800 
 42 H       -3.0570     0.8100    -4.0030 H     1 <1>   0.0800 
 43 H        7.7860     1.8690    -1.3310 H     1 <1>   0.1500 
 44 H        5.5090     3.9700    -0.6070 H     1 <1>   0.0800 
 45 H        6.9930     3.4890     0.1750 H     1 <1>   0.0800 
 46 H        5.4770     3.2940     1.0060 H     1 <1>   0.0800 
 47 H        5.5720    -1.6720    -2.0850 H     1 <1>   0.1500 
 48 H        3.3460    -1.8980    -1.4530 H     1 <1>   0.0800 
 49 H        3.0890    -1.2580     0.1480 H     1 <1>   0.0800 
 50 H        2.4250    -0.4360    -1.2460 H     1 <1>   0.0800 
 51 H        8.5720     0.2340    -2.9810 H     1 <1>   0.0800 
 52 H        7.6590    -1.2170    -3.2990 H     1 <1>   0.0800 
 53 H        8.6120    -1.0900    -1.8370 H     1 <1>   0.0800 
@<TRIPOS>BOND
  1   1   2  2   
  2   1   3  2   
  3   1   4  am  
  4   1   5  1   
  5   4   6  1   
  6   4   7  1   
  7   5  28  1   
  8   5  29  1   
  9   5  30  1   
 10   6   8  ar  
 11   6   9  ar  
 12   7  10  1   
 13   7  31  1   
 14   7  32  1   
 15   8  11  1   
 16   8  12  ar  
 17   9  13  ar  
 18   9  33  1   
 19  10  14  2   
 20  10  15  am  
 21  11  16  1   
 22  12  17  ar  
 23  12  34  1   
 24  13  17  ar  
 25  13  18  1   
 26  15  19  1   
 27  15  35  1   
 28  16  36  1   
 29  16  37  1   
 30  16  38  1   
 31  17  39  1   
 32  18  40  1   
 33  18  41  1   
 34  18  42  1   
 35  19  20  ar  
 36  19  21  ar  
 37  20  22  ar  
 38  20  23  1   
 39  21  24  ar  
 40  21  25  1   
 41  22  26  ar  
 42  22  43  1   
 43  23  44  1   
 44  23  45  1   
 45  23  46  1   
 46  24  26  ar  
 47  24  47  1   
 48  25  48  1   
 49  25  49  1   
 50  25  50  1   
 51  26  27  1   
 52  27  51  1   
 53  27  52  1   
 54  27  53  1   
@<TRIPOS>SUBSTRUCTURE
  1 ****  10 GROUP 4 **** **** 0

# MOE 2024.06 (io_trps.svl 2023.06)
