@<TRIPOS>MOLECULE
NONAME
40 41 1 0 0 
SMALL
USER_CHARGES


@<TRIPOS>ATOM
  1 O       -0.0220     0.9760     1.0850 O.2   1 <1>  -0.5700 
  2 C        0.1560     1.8840     0.3100 C.2   1 <1>   0.5690 
  3 N        1.3620     2.1480    -0.2820 N.am  1 <1>  -0.5470 
  4 C       -1.0130     2.8110    -0.0300 C.3   1 <1>  -0.0190 
  5 C        2.5990     1.4890    -0.1990 C.ar  1 <1>   0.1170 
  6 C       -1.4650     3.6150     1.2050 C.3   1 <1>  -0.1600 
  7 C       -2.1990     2.0300    -0.6290 C.3   1 <1>  -0.1600 
  8 C        2.7340     0.1610     0.1910 C.ar  1 <1>  -0.1500 
  9 C        3.7450     2.1920    -0.5410 C.ar  1 <1>  -0.1500 
 10 C       -2.6430     4.5440     0.8740 C.3   1 <1>  -0.1600 
 11 C       -3.3770     2.9570    -0.9610 C.3   1 <1>  -0.1600 
 12 C        3.9760    -0.4490     0.2430 C.ar  1 <1>   0.0830 
 13 C        4.9950     1.6000    -0.4960 C.ar  1 <1>   0.0830 
 14 C       -3.8150     3.7580     0.2720 C.3   1 <1>  -0.1600 
 15 O        3.9980    -1.7490     0.6340 O.3   1 <1>  -0.3630 
 16 C        5.1150     0.2720    -0.1010 C.ar  1 <1>  -0.1500 
 17 O        6.0470     2.3820    -0.8510 O.3   1 <1>  -0.3630 
 18 C        5.2090    -2.4580     0.7770 C.3   1 <1>   0.0400 
 19 C        7.3690     1.8920    -0.8240 C.3   1 <1>   0.0400 
 20 H        1.3790     2.9900    -0.8520 H     1 <1>   0.3700 
 21 H       -0.6800     3.5130    -0.7730 H     1 <1>   0.0800 
 22 H       -0.6410     4.1980     1.5790 H     1 <1>   0.0800 
 23 H       -1.7610     2.9310     1.9830 H     1 <1>   0.0800 
 24 H       -2.5250     1.2840     0.0770 H     1 <1>   0.0800 
 25 H       -1.8810     1.5170    -1.5200 H     1 <1>   0.0800 
 26 H        1.8700    -0.4180     0.4570 H     1 <1>   0.1500 
 27 H        3.6780     3.2190    -0.8460 H     1 <1>   0.1500 
 28 H       -2.3220     5.2970     0.1760 H     1 <1>   0.0800 
 29 H       -2.9690     5.0430     1.7710 H     1 <1>   0.0800 
 30 H       -4.2050     2.3720    -1.3210 H     1 <1>   0.0800 
 31 H       -3.0890     3.6370    -1.7450 H     1 <1>   0.0800 
 32 H       -4.6030     4.4380     0.0000 H     1 <1>   0.0800 
 33 H       -4.2060     3.0810     1.0130 H     1 <1>   0.0800 
 34 H        6.0770    -0.1940    -0.0640 H     1 <1>   0.1500 
 35 H        4.9750    -3.4510     1.1160 H     1 <1>   0.0800 
 36 H        5.8220    -1.9580     1.5050 H     1 <1>   0.0800 
 37 H        5.7000    -2.5050    -0.1780 H     1 <1>   0.0800 
 38 H        8.0250     2.6850    -1.1350 H     1 <1>   0.0800 
 39 H        7.4490     1.0640    -1.5060 H     1 <1>   0.0800 
 40 H        7.6100     1.5910     0.1800 H     1 <1>   0.0800 
@<TRIPOS>BOND
  1   1   2  2   
  2   2   3  am  
  3   2   4  1   
  4   3   5  1   
  5   3  20  1   
  6   4   6  1   
  7   4   7  1   
  8   4  21  1   
  9   5   8  ar  
 10   5   9  ar  
 11   6  10  1   
 12   6  22  1   
 13   6  23  1   
 14   7  11  1   
 15   7  24  1   
 16   7  25  1   
 17   8  12  ar  
 18   8  26  1   
 19   9  13  ar  
 20   9  27  1   
 21  10  14  1   
 22  10  28  1   
 23  10  29  1   
 24  11  14  1   
 25  11  30  1   
 26  11  31  1   
 27  12  15  1   
 28  12  16  ar  
 29  13  16  ar  
 30  13  17  1   
 31  14  32  1   
 32  14  33  1   
 33  15  18  1   
 34  16  34  1   
 35  17  19  1   
 36  18  35  1   
 37  18  36  1   
 38  18  37  1   
 39  19  38  1   
 40  19  39  1   
 41  19  40  1   
@<TRIPOS>SUBSTRUCTURE
  1 ****   3 GROUP 4 **** **** 0

# MOE 2024.06 (io_trps.svl 2023.06)
