@<TRIPOS>MOLECULE
NONAME
55 57 1 0 0 
SMALL
USER_CHARGES


@<TRIPOS>ATOM
  1 O       -0.5130    -0.8430    -1.5910 O.2   1 <1>  -0.5700 
  2 C       -1.1860    -1.7740    -1.1980 C.2   1 <1>   0.6900 
  3 N       -0.5950    -2.7970    -0.4640 N.am  1 <1>  -0.4200 
  4 N       -2.5430    -1.8140    -1.4830 N.am  1 <1>  -0.4360 
  5 C       -1.3430    -3.8620     0.0190 C.2   1 <1>   0.7030 
  6 C        0.8710    -2.7190    -0.1700 C.3   1 <1>   0.0600 
  7 C       -3.2730    -2.8930    -1.0210 C.2   1 <1>   0.4260 
  8 C       -3.1780    -0.7410    -2.3070 C.3   1 <1>   0.0600 
  9 O       -0.8200    -4.7310     0.6950 O.2   1 <1>  -0.5700 
 10 C       -2.7450    -3.9050    -0.2920 C.2   1 <1>   0.2770 
 11 N       -4.5970    -3.1390    -1.1930 N.pl3 1 <1>  -0.7000 
 12 N       -3.7980    -4.7890    -0.0170 N.pl3 1 <1>  -0.7640 
 13 C       -4.8900    -4.2840    -0.5840 C.cat 1 <1>   0.6560 
 14 C       -3.6120    -6.0530     0.7510 C.3   1 <1>   0.3540 
 15 C       -6.3130    -4.8820    -0.5750 C.3   1 <1>   0.2540 
 16 C       -3.1520    -7.1600    -0.2000 C.3   1 <1>  -0.1600 
 17 N       -7.3860    -3.8850    -0.2670 N.3   1 <1>  -0.8100 
 18 C       -2.9700    -8.4930     0.5380 C.3   1 <1>  -0.1600 
 19 C       -8.7320    -4.4340    -0.5990 C.3   1 <1>   0.1100 
 20 C       -7.3560    -3.4510     1.1600 C.3   1 <1>   0.1100 
 21 C       -2.5110    -9.5920    -0.4240 C.3   1 <1>  -0.2400 
 22 C       -9.8940    -3.4570    -0.2750 C.3   1 <1>   0.3430 
 23 C       -8.5220    -2.5000     1.5420 C.3   1 <1>   0.3430 
 24 N       -9.3970    -2.1920     0.3640 N.4   1 <1>  -0.9590 
 25 C      -10.5070    -1.2500     0.7010 C.3   1 <1>   0.2630 
 26 H        1.4020    -2.3290    -1.0220 H     1 <1>   0.0800 
 27 H        1.2740    -3.6910     0.0590 H     1 <1>   0.0800 
 28 H        1.0360    -2.0660     0.6700 H     1 <1>   0.0800 
 29 H       -2.6000     0.1670    -2.2590 H     1 <1>   0.0800 
 30 H       -4.1670    -0.5230    -1.9450 H     1 <1>   0.0800 
 31 H       -3.2320    -1.0570    -3.3340 H     1 <1>   0.0800 
 32 H       -5.2640    -2.5570    -1.7010 H     1 <1>   0.4500 
 33 H       -4.5350    -6.3400     1.2240 H     1 <1>   0.0800 
 34 H       -2.8790    -5.9090     1.5280 H     1 <1>   0.0800 
 35 H       -6.3620    -5.6950     0.1270 H     1 <1>   0.0800 
 36 H       -6.4870    -5.2920    -1.5550 H     1 <1>   0.0800 
 37 H       -2.2120    -6.8790    -0.6430 H     1 <1>   0.0800 
 38 H       -3.8770    -7.2880    -0.9850 H     1 <1>   0.0800 
 39 H       -3.8960    -8.7950     0.9970 H     1 <1>   0.0800 
 40 H       -2.2310    -8.3820     1.3160 H     1 <1>   0.0800 
 41 H       -8.8980    -5.3510    -0.0570 H     1 <1>   0.0800 
 42 H       -8.7740    -4.6730    -1.6480 H     1 <1>   0.0800 
 43 H       -6.4270    -2.9460     1.3640 H     1 <1>   0.0800 
 44 H       -7.3990    -4.3130     1.8070 H     1 <1>   0.0800 
 45 H       -3.2390    -9.7490    -1.2010 H     1 <1>   0.0800 
 46 H       -2.3820   -10.5170     0.1100 H     1 <1>   0.0800 
 47 H       -1.5700    -9.3310    -0.8770 H     1 <1>   0.0800 
 48 H      -10.5920    -3.9500     0.3820 H     1 <1>   0.0800 
 49 H      -10.4190    -3.2230    -1.1870 H     1 <1>   0.0800 
 50 H       -8.1140    -1.5870     1.9440 H     1 <1>   0.0800 
 51 H       -9.1090    -2.9600     2.3210 H     1 <1>   0.0800 
 52 H       -8.7740    -1.7650    -0.3370 H     1 <1>   0.4500 
 53 H      -11.1670    -1.6910     1.4300 H     1 <1>   0.0800 
 54 H      -11.0780    -1.0130    -0.1820 H     1 <1>   0.0800 
 55 H      -10.1100    -0.3330     1.1060 H     1 <1>   0.0800 
@<TRIPOS>BOND
  1   1   2  2   
  2   2   3  am  
  3   2   4  am  
  4   3   5  am  
  5   3   6  1   
  6   4   7  1   
  7   4   8  1   
  8   5   9  2   
  9   5  10  1   
 10   6  26  1   
 11   6  27  1   
 12   6  28  1   
 13   7  10  2   
 14   7  11  1   
 15   8  29  1   
 16   8  30  1   
 17   8  31  1   
 18  10  12  1   
 19  11  13  ar  
 20  11  32  1   
 21  12  13  ar  
 22  12  14  1   
 23  13  15  1   
 24  14  16  1   
 25  14  33  1   
 26  14  34  1   
 27  15  17  1   
 28  15  35  1   
 29  15  36  1   
 30  16  18  1   
 31  16  37  1   
 32  16  38  1   
 33  17  19  1   
 34  17  20  1   
 35  18  21  1   
 36  18  39  1   
 37  18  40  1   
 38  19  22  1   
 39  19  41  1   
 40  19  42  1   
 41  20  23  1   
 42  20  43  1   
 43  20  44  1   
 44  21  45  1   
 45  21  46  1   
 46  21  47  1   
 47  22  24  1   
 48  22  48  1   
 49  22  49  1   
 50  23  24  1   
 51  23  50  1   
 52  23  51  1   
 53  24  25  1   
 54  24  52  1   
 55  25  53  1   
 56  25  54  1   
 57  25  55  1   
@<TRIPOS>SUBSTRUCTURE
  1 ****  13 GROUP 4 **** **** 0

# MOE 2024.06 (io_trps.svl 2023.06)
