@<TRIPOS>MOLECULE
NONAME
39 40 1 0 0 
SMALL
USER_CHARGES


@<TRIPOS>ATOM
  1 O       -1.5830     0.4120     0.6060 O.3   1 <1>  -0.3630 
  2 C       -0.9640     1.5050     0.0820 C.ar  1 <1>   0.0830 
  3 C       -0.9120    -0.4930     1.4570 C.3   1 <1>   0.0400 
  4 C       -1.7000     2.3090    -0.7990 C.ar  1 <1>   0.0280 
  5 C        0.3500     1.8390     0.4040 C.ar  1 <1>  -0.1500 
  6 C       -1.0800     3.4360    -1.3340 C.ar  1 <1>  -0.1500 
  7 C       -3.0650     1.9820    -1.1490 C.2   1 <1>  -0.1780 
  8 C        0.9390     2.9650    -0.1400 C.ar  1 <1>  -0.1500 
  9 C        0.2220     3.7650    -1.0100 C.ar  1 <1>  -0.1500 
 10 C       -4.0520     2.8360    -1.4690 C.2   1 <1>  -0.2880 
 11 C       -5.4610     2.4130    -1.7970 C.3   1 <1>   0.4810 
 12 N       -6.2400     2.5410    -0.5490 N.4   1 <1>  -0.9590 
 13 C       -7.4940     1.7380    -0.6040 C.3   1 <1>   0.3430 
 14 C       -6.4940     3.9650    -0.1810 C.3   1 <1>   0.3430 
 15 C       -8.1830     1.7640     0.7620 C.3   1 <1>  -0.1600 
 16 C       -7.1680     4.0310     1.1900 C.3   1 <1>  -0.1600 
 17 C       -8.4560     3.1980     1.2340 C.3   1 <1>  -0.1600 
 18 H       -1.5960    -1.2820     1.7140 H     1 <1>   0.0800 
 19 H       -0.6030     0.0260     2.3470 H     1 <1>   0.0800 
 20 H       -0.0650    -0.9020     0.9350 H     1 <1>   0.0800 
 21 H        0.9320     1.2390     1.0760 H     1 <1>   0.1500 
 22 H       -1.6160     4.0640    -2.0210 H     1 <1>   0.1500 
 23 H       -3.2590     0.9220    -1.1230 H     1 <1>   0.1500 
 24 H        1.9540     3.2190     0.1130 H     1 <1>   0.1500 
 25 H        0.6830     4.6400    -1.4360 H     1 <1>   0.1500 
 26 H       -3.9070     3.9010    -1.5020 H     1 <1>   0.1500 
 27 H       -5.4520     1.3820    -2.1140 H     1 <1>   0.0800 
 28 H       -5.8770     3.0170    -2.5880 H     1 <1>   0.0800 
 29 H       -5.6420     2.1460     0.1890 H     1 <1>   0.4500 
 30 H       -8.1570     2.1470    -1.3480 H     1 <1>   0.0800 
 31 H       -7.2690     0.7170    -0.8710 H     1 <1>   0.0800 
 32 H       -5.5660     4.5120    -0.1460 H     1 <1>   0.0800 
 33 H       -7.1330     4.4250    -0.9180 H     1 <1>   0.0800 
 34 H       -9.1150     1.2280     0.6960 H     1 <1>   0.0800 
 35 H       -7.5690     1.2520     1.4820 H     1 <1>   0.0800 
 36 H       -6.4800     3.6820     1.9410 H     1 <1>   0.0800 
 37 H       -7.3990     5.0570     1.4200 H     1 <1>   0.0800 
 38 H       -8.8490     3.1850     2.2380 H     1 <1>   0.0800 
 39 H       -9.1990     3.6520     0.5990 H     1 <1>   0.0800 
@<TRIPOS>BOND
  1   1   2  1   
  2   1   3  1   
  3   2   4  ar  
  4   2   5  ar  
  5   3  18  1   
  6   3  19  1   
  7   3  20  1   
  8   4   6  ar  
  9   4   7  1   
 10   5   8  ar  
 11   5  21  1   
 12   6   9  ar  
 13   6  22  1   
 14   7  10  2   
 15   7  23  1   
 16   8   9  ar  
 17   8  24  1   
 18   9  25  1   
 19  10  11  1   
 20  10  26  1   
 21  11  12  1   
 22  11  27  1   
 23  11  28  1   
 24  12  13  1   
 25  12  14  1   
 26  12  29  1   
 27  13  15  1   
 28  13  30  1   
 29  13  31  1   
 30  14  16  1   
 31  14  32  1   
 32  14  33  1   
 33  15  17  1   
 34  15  34  1   
 35  15  35  1   
 36  16  17  1   
 37  16  36  1   
 38  16  37  1   
 39  17  38  1   
 40  17  39  1   
@<TRIPOS>SUBSTRUCTURE
  1 ****   7 GROUP 4 **** **** 0

# MOE 2024.06 (io_trps.svl 2023.06)
