@<TRIPOS>MOLECULE
NONAME
45 45 1 0 0 
SMALL
USER_CHARGES


@<TRIPOS>ATOM
  1 BR       1.2420    -0.1710    -0.1360 Br    1 <1>  -0.1110 
  2 C        0.2420    -1.7840     0.1930 C.ar  1 <1>   0.1110 
  3 C        0.7210    -2.7420     1.0670 C.ar  1 <1>   0.1900 
  4 C       -0.9640    -1.9600    -0.4610 C.ar  1 <1>  -0.1500 
  5 F        1.8590    -2.5640     1.6820 F     1 <1>  -0.1900 
  6 C        0.0050    -3.9000     1.3030 C.ar  1 <1>  -0.1500 
  7 C       -1.7010    -3.1160    -0.2220 C.ar  1 <1>  -0.1440 
  8 C       -1.2070    -4.0840     0.6520 C.ar  1 <1>  -0.1500 
  9 C       -3.0360    -3.3220    -0.9160 C.3   1 <1>   0.4870 
 10 N       -4.1320    -3.0980     0.0820 N.4   1 <1>  -0.9590 
 11 C       -5.4330    -3.6870    -0.4200 C.3   1 <1>   0.3430 
 12 C       -4.1910    -1.6360     0.4100 C.3   1 <1>   0.3430 
 13 C       -6.3830    -4.2290     0.6910 C.3   1 <1>   0.3430 
 14 C       -5.0330    -1.3820     1.6540 C.3   1 <1>  -0.2400 
 15 N       -7.6470    -4.8960     0.1940 N.4   1 <1>  -0.9590 
 16 C       -7.3870    -6.2110    -0.4660 C.3   1 <1>   0.3430 
 17 C       -8.5400    -4.0280    -0.6390 C.3   1 <1>   0.3430 
 18 C       -8.6340    -7.0830    -0.3790 C.3   1 <1>  -0.2400 
 19 C       -9.0420    -2.8490     0.1870 C.3   1 <1>  -0.2400 
 20 H       -1.2980    -1.1940    -1.1410 H     1 <1>   0.1500 
 21 H        0.3990    -4.6400     1.9800 H     1 <1>   0.1500 
 22 H       -1.7470    -4.9980     0.8370 H     1 <1>   0.1500 
 23 H       -3.0740    -4.3300    -1.2970 H     1 <1>   0.0800 
 24 H       -3.1330    -2.6410    -1.7460 H     1 <1>   0.0800 
 25 H       -3.7980    -3.5760     0.9330 H     1 <1>   0.4500 
 26 H       -5.2050    -4.5110    -1.0750 H     1 <1>   0.0800 
 27 H       -5.9540    -2.9420    -0.9980 H     1 <1>   0.0800 
 28 H       -4.5840    -1.0740    -0.4230 H     1 <1>   0.0800 
 29 H       -3.1940    -1.2720     0.6090 H     1 <1>   0.0800 
 30 H       -6.6630    -3.4140     1.3360 H     1 <1>   0.0800 
 31 H       -5.8370    -4.9400     1.2900 H     1 <1>   0.0800 
 32 H       -6.0810    -1.4820     1.4510 H     1 <1>   0.0800 
 33 H       -4.8730    -0.3660     1.9710 H     1 <1>   0.0800 
 34 H       -4.7370    -2.0230     2.4660 H     1 <1>   0.0800 
 35 H       -8.2080    -5.1310     1.0300 H     1 <1>   0.4500 
 36 H       -6.5820    -6.7230     0.0380 H     1 <1>   0.0800 
 37 H       -7.1080    -6.0720    -1.4990 H     1 <1>   0.0800 
 38 H       -9.3950    -4.5970    -0.9700 H     1 <1>   0.0800 
 39 H       -8.0220    -3.6750    -1.5160 H     1 <1>   0.0800 
 40 H       -8.9360    -7.2260     0.6440 H     1 <1>   0.0800 
 41 H       -8.4140    -8.0520    -0.7910 H     1 <1>   0.0800 
 42 H       -9.4510    -6.6730    -0.9440 H     1 <1>   0.0800 
 43 H       -9.5370    -3.1880     1.0800 H     1 <1>   0.0800 
 44 H       -9.7630    -2.3000    -0.3940 H     1 <1>   0.0800 
 45 H       -8.2510    -2.1690     0.4420 H     1 <1>   0.0800 
@<TRIPOS>BOND
  1   1   2  1   
  2   2   3  ar  
  3   2   4  ar  
  4   3   5  1   
  5   3   6  ar  
  6   4   7  ar  
  7   4  20  1   
  8   6   8  ar  
  9   6  21  1   
 10   7   8  ar  
 11   7   9  1   
 12   8  22  1   
 13   9  10  1   
 14   9  23  1   
 15   9  24  1   
 16  10  11  1   
 17  10  12  1   
 18  10  25  1   
 19  11  13  1   
 20  11  26  1   
 21  11  27  1   
 22  12  14  1   
 23  12  28  1   
 24  12  29  1   
 25  13  15  1   
 26  13  30  1   
 27  13  31  1   
 28  14  32  1   
 29  14  33  1   
 30  14  34  1   
 31  15  16  1   
 32  15  17  1   
 33  15  35  1   
 34  16  18  1   
 35  16  36  1   
 36  16  37  1   
 37  17  19  1   
 38  17  38  1   
 39  17  39  1   
 40  18  40  1   
 41  18  41  1   
 42  18  42  1   
 43  19  43  1   
 44  19  44  1   
 45  19  45  1   
@<TRIPOS>SUBSTRUCTURE
  1 ****  10 GROUP 4 **** **** 0

# MOE 2024.06 (io_trps.svl 2023.06)
