@<TRIPOS>MOLECULE
NONAME
37 39 1 0 0 
SMALL
USER_CHARGES


@<TRIPOS>ATOM
  1 O        0.2540    -0.3170    -0.5540 O.3   1 <1>  -0.6800 
  2 C       -0.0360    -1.4180     0.2420 C.3   1 <1>   0.2000 
  3 C        1.2480    -2.2380     0.5550 C.3   1 <1>   0.2000 
  4 C       -1.1210    -2.2330    -0.4820 C.3   1 <1>  -0.1600 
  5 O        2.3860    -1.4500     0.4480 O.3   1 <1>  -0.6800 
  6 C        1.4160    -3.4280    -0.3930 C.3   1 <1>  -0.1600 
  7 C       -1.1370    -3.6960     0.0060 C.3   1 <1>  -0.0800 
  8 C        0.2110    -4.3860    -0.3220 C.3   1 <1>  -0.1600 
  9 C       -2.3310    -4.4860    -0.5840 C.3   1 <1>  -0.0800 
 10 C       -3.8080    -3.8910    -0.1830 C.3   1 <1>  -0.0800 
 11 C       -2.3260    -6.1100    -0.1600 C.3   1 <1>  -0.1600 
 12 C       -3.8350    -5.2130     0.0260 C.3   1 <1>  -0.1600 
 13 C       -5.3370    -4.3080     0.2150 C.3   1 <1>  -0.1600 
 14 C       -3.8520    -6.5290     0.2550 C.3   1 <1>  -0.0800 
 15 C       -5.3340    -5.9340     0.6090 C.3   1 <1>  -0.1600 
 16 H        0.9500     0.2050    -0.1050 H     1 <1>   0.4000 
 17 H       -0.4350    -1.0490     1.1710 H     1 <1>   0.0800 
 18 H        1.1970    -2.6030     1.5660 H     1 <1>   0.0800 
 19 H       -0.9330    -2.2260    -1.5420 H     1 <1>   0.0800 
 20 H       -2.0680    -1.7570    -0.3110 H     1 <1>   0.0800 
 21 H        2.4830    -1.1830    -0.4880 H     1 <1>   0.4000 
 22 H        2.3160    -3.9670    -0.1530 H     1 <1>   0.0800 
 23 H        1.5000    -3.0570    -1.4000 H     1 <1>   0.0800 
 24 H       -1.2500    -3.6840     1.0780 H     1 <1>   0.0800 
 25 H        0.4040    -5.1320     0.4300 H     1 <1>   0.0800 
 26 H        0.1420    -4.8980    -1.2670 H     1 <1>   0.0800 
 27 H       -2.2340    -4.4270    -1.6610 H     1 <1>   0.0800 
 28 H       -3.5750    -3.2070     0.6220 H     1 <1>   0.0800 
 29 H       -1.6720    -6.2850     0.6810 H     1 <1>   0.0800 
 30 H       -1.9660    -6.7120    -0.9790 H     1 <1>   0.0800 
 31 H       -3.5300    -5.0220     1.1470 H     1 <1>   0.0800 
 32 H       -4.1370    -5.4080    -1.0960 H     1 <1>   0.0800 
 33 H       -5.9980    -4.1300    -0.6200 H     1 <1>   0.0800 
 34 H       -5.6970    -3.7190     1.0440 H     1 <1>   0.0800 
 35 H       -4.0940    -7.2350    -0.5290 H     1 <1>   0.0800 
 36 H       -6.1030    -6.4570     0.0620 H     1 <1>   0.0800 
 37 H       -5.5400    -6.0610     1.6620 H     1 <1>   0.0800 
@<TRIPOS>BOND
  1   1   2  1   
  2   1  16  1   
  3   2   3  1   
  4   2   4  1   
  5   2  17  1   
  6   3   5  1   
  7   3   6  1   
  8   3  18  1   
  9   4   7  1   
 10   4  19  1   
 11   4  20  1   
 12   5  21  1   
 13   6   8  1   
 14   6  22  1   
 15   6  23  1   
 16   7   8  1   
 17   7   9  1   
 18   7  24  1   
 19   8  25  1   
 20   8  26  1   
 21   9  10  1   
 22   9  11  1   
 23   9  27  1   
 24  10  12  1   
 25  10  13  1   
 26  10  28  1   
 27  11  14  1   
 28  11  29  1   
 29  11  30  1   
 30  12  14  1   
 31  12  31  1   
 32  12  32  1   
 33  13  15  1   
 34  13  33  1   
 35  13  34  1   
 36  14  15  1   
 37  14  35  1   
 38  15  36  1   
 39  15  37  1   
@<TRIPOS>SUBSTRUCTURE
  1 ****   7 GROUP 4 **** **** 0

# MOE 2024.06 (io_trps.svl 2023.06)
