@<TRIPOS>MOLECULE
NONAME
40 42 1 0 0 
SMALL
USER_CHARGES


@<TRIPOS>ATOM
  1 O        0.4040    -2.0940    -0.5090 O.co2 1 <1>  -0.9000 
  2 C        0.0060    -2.5860     0.5450 C.2   1 <1>   0.9060 
  3 O        0.7920    -2.9950     1.4070 O.co2 1 <1>  -0.9000 
  4 C       -1.4720    -2.8300     0.7960 C.3   1 <1>  -0.1860 
  5 C       -2.0290    -4.4080     0.4490 C.3   1 <1>  -0.0190 
  6 C       -2.4830    -1.7750     0.0240 C.3   1 <1>   0.0580 
  7 C       -1.0540    -5.5000    -0.0350 C.2   1 <1>   0.5690 
  8 C       -3.3470    -4.2250    -0.5400 C.3   1 <1>   0.0580 
  9 C       -3.8860    -1.7780    -0.7950 C.2   1 <1>  -0.2880 
 10 C       -2.8740    -3.0160    -0.2520 C.3   1 <1>  -0.1600 
 11 O       -1.5010    -6.4080    -0.6980 O.2   1 <1>  -0.5700 
 12 N        0.2540    -5.4710     0.3530 N.am  1 <1>  -0.5470 
 13 C       -4.3410    -3.0650    -1.0900 C.2   1 <1>  -0.2880 
 14 C        1.3540    -6.2560    -0.0040 C.ar  1 <1>   0.1170 
 15 C        2.6070    -5.6620     0.0440 C.ar  1 <1>  -0.1500 
 16 C        1.2620    -7.5880    -0.3890 C.ar  1 <1>  -0.1500 
 17 C        3.7550    -6.3640    -0.2860 C.ar  1 <1>  -0.1430 
 18 C        2.3990    -8.3030    -0.7210 C.ar  1 <1>  -0.1500 
 19 C        3.6410    -7.6940    -0.6700 C.ar  1 <1>  -0.1500 
 20 C        5.1030    -5.6610    -0.2270 C.3   1 <1>   0.3430 
 21 O        5.7220    -5.8290    -1.4450 O.3   1 <1>  -0.6800 
 22 C        6.0200    -6.2330     0.8480 C.3   1 <1>  -0.2400 
 23 H       -1.5860    -2.6700     1.8560 H     1 <1>   0.0800 
 24 H       -2.3930    -4.8110     1.3820 H     1 <1>   0.0800 
 25 H       -1.8420    -1.2300    -0.6550 H     1 <1>   0.0800 
 26 H       -3.0610    -4.7070    -1.4650 H     1 <1>   0.0800 
 27 H       -4.3340    -0.8290    -1.0400 H     1 <1>   0.1500 
 28 H       -2.1940    -3.0350    -1.2000 H     1 <1>   0.0800 
 29 H       -3.5190    -3.0230     0.7810 H     1 <1>   0.0800 
 30 H        0.5340    -4.6050     0.8520 H     1 <1>   0.3700 
 31 H       -5.2290    -3.3620    -1.6210 H     1 <1>   0.1500 
 32 H        2.6650    -4.6260     0.3410 H     1 <1>   0.1500 
 33 H        0.3000    -8.0630    -0.4280 H     1 <1>   0.1500 
 34 H        2.3150    -9.3330    -1.0190 H     1 <1>   0.1500 
 35 H        4.5220    -8.2530    -0.9330 H     1 <1>   0.1500 
 36 H        4.9660    -4.6030    -0.0730 H     1 <1>   0.0800 
 37 H        5.0480    -5.6840    -2.1360 H     1 <1>   0.4000 
 38 H        6.2050    -7.2760     0.6690 H     1 <1>   0.0800 
 39 H        5.5510    -6.1260     1.8090 H     1 <1>   0.0800 
 40 H        6.9510    -5.6970     0.8580 H     1 <1>   0.0800 
@<TRIPOS>BOND
  1   1   2  ar  
  2   2   3  ar  
  3   2   4  1   
  4   4   5  1   
  5   4   6  1   
  6   4  23  1   
  7   5   7  1   
  8   5   8  1   
  9   5  24  1   
 10   6   9  1   
 11   6  10  1   
 12   6  25  1   
 13   7  11  2   
 14   7  12  am  
 15   8  10  1   
 16   8  13  1   
 17   8  26  1   
 18   9  13  2   
 19   9  27  1   
 20  10  28  1   
 21  10  29  1   
 22  12  14  1   
 23  12  30  1   
 24  13  31  1   
 25  14  15  ar  
 26  14  16  ar  
 27  15  17  ar  
 28  15  32  1   
 29  16  18  ar  
 30  16  33  1   
 31  17  19  ar  
 32  17  20  1   
 33  18  19  ar  
 34  18  34  1   
 35  19  35  1   
 36  20  21  1   
 37  20  22  1   
 38  20  36  1   
 39  21  37  1   
 40  22  38  1   
 41  22  39  1   
 42  22  40  1   
@<TRIPOS>SUBSTRUCTURE
  1 ****  12 GROUP 4 **** **** 0

# MOE 2024.06 (io_trps.svl 2023.06)
