@<TRIPOS>MOLECULE
NONAME
55 58 1 0 0 
SMALL
USER_CHARGES


@<TRIPOS>ATOM
  1 O       -0.7790     1.3640     0.6680 O.2   1 <1>  -0.5700 
  2 C       -0.4020     2.2330    -0.0970 C.2   1 <1>   0.5440 
  3 N       -1.3760     2.8880    -0.8170 N.am  1 <1>  -0.6600 
  4 C        0.9970     2.6100    -0.1830 C.ar  1 <1>   0.0860 
  5 C       -2.6170     2.1430    -1.1800 C.3   1 <1>   0.1400 
  6 C       -1.6220     4.3260    -0.5210 C.3   1 <1>   0.1400 
  7 C        1.8720     2.3930     0.8820 C.ar  1 <1>  -0.1500 
  8 C        1.5300     3.2100    -1.3260 C.ar  1 <1>  -0.1500 
  9 C       -3.6470     2.2530    -0.0400 C.3   1 <1>   0.3430 
 10 C       -2.6600     4.4550     0.6160 C.3   1 <1>   0.3430 
 11 C        3.1990     2.7710     0.8180 C.ar  1 <1>  -0.1500 
 12 C        2.8580     3.5870    -1.3930 C.ar  1 <1>  -0.1500 
 13 N       -3.9290     3.6910     0.3320 N.4   1 <1>  -0.9590 
 14 C        3.7160     3.3820    -0.3190 C.ar  1 <1>   0.1170 
 15 C       -4.8740     3.7630     1.4780 C.3   1 <1>   0.4860 
 16 N        5.0530     3.7760    -0.4310 N.am  1 <1>  -0.5470 
 17 C       -6.2110     3.2090     1.0280 C.ar  1 <1>  -0.1430 
 18 C        5.9670     4.1050     0.5330 C.2   1 <1>   0.5690 
 19 C       -7.0230     3.9620     0.1830 C.ar  1 <1>  -0.1500 
 20 C       -6.6280     1.9460     1.4550 C.ar  1 <1>  -0.1500 
 21 O        5.7130     4.1510     1.7100 O.2   1 <1>  -0.5700 
 22 C        7.3740     4.4490     0.0770 C.3   1 <1>  -0.0990 
 23 C       -8.2240     3.4160    -0.2210 C.ar  1 <1>   0.0830 
 24 C       -7.8430     1.4180     1.0370 C.ar  1 <1>  -0.1500 
 25 C        8.1210     3.2470    -0.5220 C.3   1 <1>  -0.2400 
 26 O       -9.1440     3.9530    -1.0260 O.3   1 <1>  -0.3620 
 27 C       -8.6240     2.1800     0.1930 C.ar  1 <1>   0.0830 
 28 C      -10.2100     3.0060    -1.1190 C.3   1 <1>   0.4000 
 29 O       -9.8160     1.8820    -0.3330 O.3   1 <1>  -0.3620 
 30 H       -2.3800     1.1050    -1.3440 H     1 <1>   0.0800 
 31 H       -3.0260     2.5360    -2.0940 H     1 <1>   0.0800 
 32 H       -1.9760     4.8230    -1.4070 H     1 <1>   0.0800 
 33 H       -0.7040     4.8020    -0.2200 H     1 <1>   0.0800 
 34 H        1.5040     1.9170     1.7750 H     1 <1>   0.1500 
 35 H        0.8940     3.3760    -2.1780 H     1 <1>   0.1500 
 36 H       -3.2530     1.7260     0.8140 H     1 <1>   0.0800 
 37 H       -4.5590     1.7620    -0.3400 H     1 <1>   0.0800 
 38 H       -2.8850     5.4980     0.7710 H     1 <1>   0.0800 
 39 H       -2.2100     4.0770     1.5200 H     1 <1>   0.0800 
 40 H        3.8400     2.5830     1.6610 H     1 <1>   0.1500 
 41 H        3.2330     4.0480    -2.2880 H     1 <1>   0.1500 
 42 H       -4.4060     4.1180    -0.4700 H     1 <1>   0.4500 
 43 H       -5.0030     4.7860     1.7920 H     1 <1>   0.0800 
 44 H       -4.4970     3.1930     2.3120 H     1 <1>   0.0800 
 45 H        5.4050     3.8460    -1.3830 H     1 <1>   0.3700 
 46 H       -6.7580     4.9450    -0.1620 H     1 <1>   0.1500 
 47 H       -6.0160     1.3580     2.1190 H     1 <1>   0.1500 
 48 H        7.9250     4.8160     0.9260 H     1 <1>   0.0800 
 49 H        7.3220     5.2450    -0.6430 H     1 <1>   0.0800 
 50 H       -8.1830     0.4470     1.3550 H     1 <1>   0.1500 
 51 H        8.1820     2.4530     0.2030 H     1 <1>   0.0800 
 52 H        9.1200     3.5340    -0.7990 H     1 <1>   0.0800 
 53 H        7.6160     2.8760    -1.3960 H     1 <1>   0.0800 
 54 H      -10.3400     2.7050    -2.1430 H     1 <1>   0.0800 
 55 H      -11.1100     3.4340    -0.7120 H     1 <1>   0.0800 
@<TRIPOS>BOND
  1   1   2  2   
  2   2   3  am  
  3   2   4  1   
  4   3   5  1   
  5   3   6  1   
  6   4   7  ar  
  7   4   8  ar  
  8   5   9  1   
  9   5  30  1   
 10   5  31  1   
 11   6  10  1   
 12   6  32  1   
 13   6  33  1   
 14   7  11  ar  
 15   7  34  1   
 16   8  12  ar  
 17   8  35  1   
 18   9  13  1   
 19   9  36  1   
 20   9  37  1   
 21  10  13  1   
 22  10  38  1   
 23  10  39  1   
 24  11  14  ar  
 25  11  40  1   
 26  12  14  ar  
 27  12  41  1   
 28  13  15  1   
 29  13  42  1   
 30  14  16  1   
 31  15  17  1   
 32  15  43  1   
 33  15  44  1   
 34  16  18  am  
 35  16  45  1   
 36  17  19  ar  
 37  17  20  ar  
 38  18  21  2   
 39  18  22  1   
 40  19  23  ar  
 41  19  46  1   
 42  20  24  ar  
 43  20  47  1   
 44  22  25  1   
 45  22  48  1   
 46  22  49  1   
 47  23  26  1   
 48  23  27  ar  
 49  24  27  ar  
 50  24  50  1   
 51  25  51  1   
 52  25  52  1   
 53  25  53  1   
 54  26  28  1   
 55  27  29  1   
 56  28  29  1   
 57  28  54  1   
 58  28  55  1   
@<TRIPOS>SUBSTRUCTURE
  1 ****   3 GROUP 4 **** **** 0

# MOE 2024.06 (io_trps.svl 2023.06)
