@<TRIPOS>MOLECULE
NONAME
35 35 1 0 0 
SMALL
USER_CHARGES


@<TRIPOS>ATOM
  1 O       -3.3340    -1.9840     0.7580 O.3   1 <1>  -0.3630 
  2 C       -3.1550    -3.2040     0.1750 C.ar  1 <1>   0.0830 
  3 C       -4.6010    -1.3840     0.9170 C.3   1 <1>   0.0400 
  4 C       -4.1410    -4.1760    -0.0770 C.ar  1 <1>   0.0830 
  5 C       -1.8420    -3.4600    -0.1810 C.ar  1 <1>  -0.1500 
  6 O       -5.4370    -3.9520     0.2870 O.3   1 <1>  -0.3630 
  7 C       -3.7640    -5.3680    -0.6920 C.ar  1 <1>  -0.1500 
  8 C       -1.4740    -4.6540    -0.7800 C.ar  1 <1>  -0.1430 
  9 C       -6.4720    -4.8800     0.0380 C.3   1 <1>   0.0400 
 10 C       -2.4450    -5.6060    -1.0390 C.ar  1 <1>  -0.1500 
 11 C       -0.0260    -4.9040    -1.1260 C.3   1 <1>   0.4860 
 12 N        0.6290    -5.3320     0.1270 N.4   1 <1>  -0.9060 
 13 C        2.0620    -5.6210     0.0160 C.3   1 <1>   0.4230 
 14 C        2.4850    -6.3180     1.3010 C.3   1 <1>  -0.2400 
 15 C        2.8290    -4.3140    -0.1680 C.3   1 <1>  -0.2400 
 16 H       -4.4540    -0.3650     1.2280 H     1 <1>   0.0800 
 17 H       -5.1470    -1.9180     1.6740 H     1 <1>   0.0800 
 18 H       -5.1220    -1.4090    -0.0230 H     1 <1>   0.0800 
 19 H       -1.1160    -2.6920     0.0210 H     1 <1>   0.1500 
 20 H       -4.4850    -6.1330    -0.9100 H     1 <1>   0.1500 
 21 H       -7.3910    -4.4610     0.4080 H     1 <1>   0.0800 
 22 H       -6.2550    -5.7960     0.5580 H     1 <1>   0.0800 
 23 H       -6.5490    -5.0430    -1.0230 H     1 <1>   0.0800 
 24 H       -2.1960    -6.5410    -1.5140 H     1 <1>   0.1500 
 25 H        0.4210    -3.9980    -1.5020 H     1 <1>   0.0800 
 26 H        0.0500    -5.6730    -1.8780 H     1 <1>   0.0800 
 27 H        0.1310    -6.1580     0.4740 H     1 <1>   0.4500 
 28 H        0.4750    -4.6030     0.8320 H     1 <1>   0.4500 
 29 H        2.2460    -6.2770    -0.8220 H     1 <1>   0.0800 
 30 H        2.3180    -5.6920     2.1610 H     1 <1>   0.0800 
 31 H        3.5350    -6.5480     1.2580 H     1 <1>   0.0800 
 32 H        1.9550    -7.2460     1.4250 H     1 <1>   0.0800 
 33 H        2.6410    -3.6330     0.6430 H     1 <1>   0.0800 
 34 H        2.5790    -3.8410    -1.1000 H     1 <1>   0.0800 
 35 H        3.8850    -4.5200    -0.1880 H     1 <1>   0.0800 
@<TRIPOS>BOND
  1   1   2  1   
  2   1   3  1   
  3   2   4  ar  
  4   2   5  ar  
  5   3  16  1   
  6   3  17  1   
  7   3  18  1   
  8   4   6  1   
  9   4   7  ar  
 10   5   8  ar  
 11   5  19  1   
 12   6   9  1   
 13   7  10  ar  
 14   7  20  1   
 15   8  10  ar  
 16   8  11  1   
 17   9  21  1   
 18   9  22  1   
 19   9  23  1   
 20  10  24  1   
 21  11  12  1   
 22  11  25  1   
 23  11  26  1   
 24  12  13  1   
 25  12  27  1   
 26  12  28  1   
 27  13  14  1   
 28  13  15  1   
 29  13  29  1   
 30  14  30  1   
 31  14  31  1   
 32  14  32  1   
 33  15  33  1   
 34  15  34  1   
 35  15  35  1   
@<TRIPOS>SUBSTRUCTURE
  1 ****   5 GROUP 4 **** **** 0

# MOE 2024.06 (io_trps.svl 2023.06)
