@<TRIPOS>MOLECULE
NONAME
42 43 1 0 0 
SMALL
USER_CHARGES


@<TRIPOS>ATOM
  1 CL       0.5000    -0.2070     1.1680 Cl    1 <1>  -0.1770 
  2 C        0.2470    -1.8080     0.5050 C.ar  1 <1>   0.1770 
  3 C        1.3280    -2.5360     0.0210 C.ar  1 <1>   0.0830 
  4 C       -1.0360    -2.3180     0.4820 C.ar  1 <1>  -0.1500 
  5 O        2.5620    -1.9660     0.0810 O.3   1 <1>  -0.3630 
  6 C        1.0940    -3.8080    -0.4980 C.ar  1 <1>  -0.1500 
  7 C       -1.2630    -3.5830    -0.0350 C.ar  1 <1>  -0.1430 
  8 C        3.7260    -2.6670    -0.2730 C.3   1 <1>   0.1200 
  9 C       -0.1930    -4.3210    -0.5210 C.ar  1 <1>  -0.1500 
 10 C       -2.6670    -4.1610    -0.0670 C.3   1 <1>  -0.0960 
 11 C        4.9030    -1.7210    -0.0210 C.3   1 <1>   0.3430 
 12 N        6.2290    -2.3510    -0.3180 N.4   1 <1>  -0.9590 
 13 C        6.6100    -3.4650     0.6140 C.3   1 <1>   0.3430 
 14 C        7.3400    -1.3330    -0.3470 C.3   1 <1>   0.3430 
 15 C        7.9070    -4.1670     0.1330 C.3   1 <1>   0.2000 
 16 C        8.7490    -1.9840    -0.4150 C.3   1 <1>   0.2000 
 17 O        8.6480    -3.3460    -0.7340 O.3   1 <1>  -0.5600 
 18 C        7.6000    -5.4400    -0.6530 C.3   1 <1>  -0.2400 
 19 C        9.5630    -1.8160     0.8740 C.3   1 <1>  -0.2400 
 20 H       -1.8460    -1.7240     0.8680 H     1 <1>   0.1500 
 21 H        1.8880    -4.4140    -0.8890 H     1 <1>   0.1500 
 22 H        3.6570    -2.9290    -1.3140 H     1 <1>   0.0800 
 23 H        3.7830    -3.5440     0.3480 H     1 <1>   0.0800 
 24 H       -0.3650    -5.3050    -0.9230 H     1 <1>   0.1500 
 25 H       -3.4010    -3.3750    -0.0580 H     1 <1>   0.0800 
 26 H       -2.8220    -4.7890     0.7910 H     1 <1>   0.0800 
 27 H       -2.8110    -4.7470    -0.9570 H     1 <1>   0.0800 
 28 H        4.8780    -1.4010     1.0080 H     1 <1>   0.0800 
 29 H        4.7720    -0.8530    -0.6470 H     1 <1>   0.0800 
 30 H        6.2260    -2.7670    -1.2620 H     1 <1>   0.4500 
 31 H        5.8210    -4.1950     0.6830 H     1 <1>   0.0800 
 32 H        6.7740    -3.0700     1.6030 H     1 <1>   0.0800 
 33 H        7.2930    -0.7110     0.5320 H     1 <1>   0.0800 
 34 H        7.2170    -0.6880    -1.2010 H     1 <1>   0.0800 
 35 H        8.5270    -4.4170     0.9780 H     1 <1>   0.0800 
 36 H        9.3000    -1.5220    -1.2170 H     1 <1>   0.0800 
 37 H        7.0100    -5.2220    -1.5250 H     1 <1>   0.0800 
 38 H        7.0650    -6.1420    -0.0390 H     1 <1>   0.0800 
 39 H        8.5200    -5.9050    -0.9630 H     1 <1>   0.0800 
 40 H        9.0400    -2.1860     1.7360 H     1 <1>   0.0800 
 41 H        9.7760    -0.7740     1.0360 H     1 <1>   0.0800 
 42 H       10.5030    -2.3320     0.7790 H     1 <1>   0.0800 
@<TRIPOS>BOND
  1   1   2  1   
  2   2   3  ar  
  3   2   4  ar  
  4   3   5  1   
  5   3   6  ar  
  6   4   7  ar  
  7   4  20  1   
  8   5   8  1   
  9   6   9  ar  
 10   6  21  1   
 11   7   9  ar  
 12   7  10  1   
 13   8  11  1   
 14   8  22  1   
 15   8  23  1   
 16   9  24  1   
 17  10  25  1   
 18  10  26  1   
 19  10  27  1   
 20  11  12  1   
 21  11  28  1   
 22  11  29  1   
 23  12  13  1   
 24  12  14  1   
 25  12  30  1   
 26  13  15  1   
 27  13  31  1   
 28  13  32  1   
 29  14  16  1   
 30  14  33  1   
 31  14  34  1   
 32  15  17  1   
 33  15  18  1   
 34  15  35  1   
 35  16  17  1   
 36  16  19  1   
 37  16  36  1   
 38  18  37  1   
 39  18  38  1   
 40  18  39  1   
 41  19  40  1   
 42  19  41  1   
 43  19  42  1   
@<TRIPOS>SUBSTRUCTURE
  1 ****   8 GROUP 4 **** **** 0

# MOE 2024.06 (io_trps.svl 2023.06)
