@<TRIPOS>MOLECULE
NONAME
26 26 1 0 0 
SMALL
USER_CHARGES


@<TRIPOS>ATOM
  1 O        0.3200    -1.7410     2.1900 O.2   1 <1>  -0.5700 
  2 C       -0.0680    -2.1480     1.1230 C.2   1 <1>   0.6590 
  3 O        0.6510    -2.0030     0.0150 O.3   1 <1>  -0.4300 
  4 C       -1.3900    -2.8830     0.9790 C.3   1 <1>   0.1810 
  5 C        1.8900    -1.3350     0.0240 C.3   1 <1>   0.1200 
  6 O       -2.3080    -2.1340     0.1990 O.3   1 <1>  -0.3630 
  7 C        2.4430    -1.3460    -1.3970 C.3   1 <1>  -0.2400 
  8 C       -3.5550    -2.5870    -0.1210 C.ar  1 <1>   0.0820 
  9 C       -4.1460    -3.7980     0.2820 C.ar  1 <1>   0.0820 
 10 C       -4.2830    -1.7310    -0.9320 C.ar  1 <1>  -0.1500 
 11 O       -3.5300    -4.7030     1.0730 O.3   1 <1>  -0.5320 
 12 C       -5.4320    -4.1120    -0.1330 C.ar  1 <1>  -0.1500 
 13 C       -5.5650    -2.0500    -1.3440 C.ar  1 <1>  -0.1500 
 14 C       -6.1400    -3.2420    -0.9440 C.ar  1 <1>  -0.1500 
 15 H       -1.8210    -3.0360     1.9510 H     1 <1>   0.0800 
 16 H       -1.2210    -3.8250     0.4920 H     1 <1>   0.0800 
 17 H        2.5510    -1.8500     0.7010 H     1 <1>   0.0800 
 18 H        1.7300    -0.3280     0.3700 H     1 <1>   0.0800 
 19 H        2.5860    -2.3580    -1.7320 H     1 <1>   0.0800 
 20 H        3.3910    -0.8390    -1.4220 H     1 <1>   0.0800 
 21 H        1.7660    -0.8390    -2.0610 H     1 <1>   0.0800 
 22 H       -3.8350    -0.8040    -1.2430 H     1 <1>   0.1500 
 23 H       -4.0910    -5.4750     1.2640 H     1 <1>   0.4500 
 24 H       -5.8930    -5.0340     0.1690 H     1 <1>   0.1500 
 25 H       -6.1120    -1.3700    -1.9740 H     1 <1>   0.1500 
 26 H       -7.1380    -3.4910    -1.2630 H     1 <1>   0.1500 
@<TRIPOS>BOND
  1   1   2  2   
  2   2   3  1   
  3   2   4  1   
  4   3   5  1   
  5   4   6  1   
  6   4  15  1   
  7   4  16  1   
  8   5   7  1   
  9   5  17  1   
 10   5  18  1   
 11   6   8  1   
 12   7  19  1   
 13   7  20  1   
 14   7  21  1   
 15   8   9  ar  
 16   8  10  ar  
 17   9  11  1   
 18   9  12  ar  
 19  10  13  ar  
 20  10  22  1   
 21  11  23  1   
 22  12  14  ar  
 23  12  24  1   
 24  13  14  ar  
 25  13  25  1   
 26  14  26  1   
@<TRIPOS>SUBSTRUCTURE
  1 ****   6 GROUP 4 **** **** 0

# MOE 2024.06 (io_trps.svl 2023.06)
