@<TRIPOS>MOLECULE
NONAME
41 41 1 0 0 
SMALL
USER_CHARGES


@<TRIPOS>ATOM
  1 N      -11.4600     4.0870     0.2660 N.ar  1 <1>  -0.6200 
  2 C      -10.7380     3.8640     1.3490 C.ar  1 <1>   0.1600 
  3 C      -11.1980     3.3100    -0.7700 C.ar  1 <1>   0.1600 
  4 C       -9.7460     2.9020     1.4450 C.ar  1 <1>  -0.1500 
  5 C      -10.2290     2.3200    -0.7810 C.ar  1 <1>  -0.1500 
  6 C       -9.4670     2.1020     0.3520 C.ar  1 <1>  -0.1430 
  7 C       -8.3820     1.0510     0.3920 C.3   1 <1>   0.4870 
  8 N       -7.1360     1.7220    -0.0430 N.4   1 <1>  -0.9060 
  9 C       -5.8850     0.9480    -0.0970 C.3   1 <1>   0.5030 
 10 C       -4.8290     1.9490    -0.6410 C.3   1 <1>  -0.1600 
 11 C       -5.5900     0.4380     1.3150 C.3   1 <1>  -0.2400 
 12 C       -6.1100    -0.2290    -1.0550 C.3   1 <1>  -0.2400 
 13 C       -3.2890     1.7260    -0.5530 C.3   1 <1>   0.0000 
 14 C       -2.6290     2.7660    -1.4750 C.3   1 <1>  -0.2400 
 15 C       -2.8300     0.3420    -1.0300 C.3   1 <1>  -0.2400 
 16 C       -2.7380     1.9830     0.8620 C.3   1 <1>  -0.2400 
 17 H      -10.9500     4.4830     2.2060 H     1 <1>   0.1500 
 18 H      -11.7880     3.4730    -1.6570 H     1 <1>   0.1500 
 19 H       -9.2160     2.7970     2.3750 H     1 <1>   0.1500 
 20 H      -10.0940     1.7380    -1.6750 H     1 <1>   0.1500 
 21 H       -8.6320     0.2400    -0.2710 H     1 <1>   0.0800 
 22 H       -8.2810     0.6680     1.3940 H     1 <1>   0.0800 
 23 H       -6.9870     2.5250     0.5740 H     1 <1>   0.4500 
 24 H       -7.3070     2.1200    -0.9710 H     1 <1>   0.4500 
 25 H       -5.0020     2.9010    -0.1690 H     1 <1>   0.0800 
 26 H       -5.0590     2.0900    -1.6830 H     1 <1>   0.0800 
 27 H       -6.3800    -0.1840     1.6940 H     1 <1>   0.0800 
 28 H       -4.7100    -0.1760     1.3050 H     1 <1>   0.0800 
 29 H       -5.4240     1.2550     1.9940 H     1 <1>   0.0800 
 30 H       -6.3740     0.1160    -2.0390 H     1 <1>   0.0800 
 31 H       -6.8730    -0.8960    -0.6970 H     1 <1>   0.0800 
 32 H       -5.2210    -0.8190    -1.1470 H     1 <1>   0.0800 
 33 H       -2.9280     2.6230    -2.4990 H     1 <1>   0.0800 
 34 H       -1.5550     2.6870    -1.4370 H     1 <1>   0.0800 
 35 H       -2.8950     3.7670    -1.1810 H     1 <1>   0.0800 
 36 H       -3.2040     0.1330    -2.0170 H     1 <1>   0.0800 
 37 H       -3.1450    -0.4350    -0.3590 H     1 <1>   0.0800 
 38 H       -1.7550     0.3020    -1.0740 H     1 <1>   0.0800 
 39 H       -3.0690     2.9350     1.2380 H     1 <1>   0.0800 
 40 H       -1.6620     1.9970     0.8420 H     1 <1>   0.0800 
 41 H       -3.0220     1.2200     1.5580 H     1 <1>   0.0800 
@<TRIPOS>BOND
  1   1   2  ar  
  2   1   3  ar  
  3   2   4  ar  
  4   2  17  1   
  5   3   5  ar  
  6   3  18  1   
  7   4   6  ar  
  8   4  19  1   
  9   5   6  ar  
 10   5  20  1   
 11   6   7  1   
 12   7   8  1   
 13   7  21  1   
 14   7  22  1   
 15   8   9  1   
 16   8  23  1   
 17   8  24  1   
 18   9  10  1   
 19   9  11  1   
 20   9  12  1   
 21  10  13  1   
 22  10  25  1   
 23  10  26  1   
 24  11  27  1   
 25  11  28  1   
 26  11  29  1   
 27  12  30  1   
 28  12  31  1   
 29  12  32  1   
 30  13  14  1   
 31  13  15  1   
 32  13  16  1   
 33  14  33  1   
 34  14  34  1   
 35  14  35  1   
 36  15  36  1   
 37  15  37  1   
 38  15  38  1   
 39  16  39  1   
 40  16  40  1   
 41  16  41  1   
@<TRIPOS>SUBSTRUCTURE
  1 ****   8 GROUP 4 **** **** 0

# MOE 2024.06 (io_trps.svl 2023.06)
