@<TRIPOS>MOLECULE
NONAME
43 44 1 0 0 
SMALL
USER_CHARGES


@<TRIPOS>ATOM
  1 S        0.2540    -0.1420    -0.0220 S.3   1 <1>  -0.0800 
  2 C       -0.6680     1.3590    -0.0820 C.2   1 <1>   0.3250 
  3 C        1.7200     0.7400    -0.3040 C.2   1 <1>  -0.1100 
  4 N        0.0880     2.3830    -0.2890 N.2   1 <1>  -0.5650 
  5 C       -2.1060     1.3250     0.0970 C.ar  1 <1>   0.0530 
  6 C        1.4230     2.0430    -0.4150 C.2   1 <1>   0.0460 
  7 C       -2.8440     2.5090     0.0300 C.ar  1 <1>  -0.1500 
  8 C       -2.8230     0.1490     0.3380 C.ar  1 <1>  -0.1500 
  9 C        2.4090     3.1770    -0.6660 C.3   1 <1>   0.3210 
 10 C       -4.2180     2.5330     0.1940 C.ar  1 <1>  -0.1440 
 11 C       -4.1960     0.1600     0.5030 C.ar  1 <1>  -0.1500 
 12 N        3.7860     2.7870    -0.2790 N.am  1 <1>  -0.7300 
 13 C       -4.8950     1.3500     0.4310 C.ar  1 <1>  -0.1500 
 14 C       -4.9890     3.8390     0.1150 C.3   1 <1>  -0.0970 
 15 C        4.8700     2.8830    -1.0850 C.2   1 <1>   0.5690 
 16 O        4.7830     3.2850    -2.2180 O.2   1 <1>  -0.5700 
 17 C        6.2210     2.4420    -0.5520 C.3   1 <1>  -0.0990 
 18 C        7.0250     3.5280     0.2020 C.3   1 <1>   0.0000 
 19 C        8.3710     2.9300     0.6350 C.3   1 <1>  -0.2400 
 20 C        7.2970     4.7340    -0.7080 C.3   1 <1>  -0.2400 
 21 C        6.2800     4.0060     1.4580 C.3   1 <1>  -0.2400 
 22 H        2.6420     0.1920    -0.3630 H     1 <1>   0.1500 
 23 H       -2.3190     3.4300    -0.1560 H     1 <1>   0.1500 
 24 H       -2.3140    -0.7950     0.4010 H     1 <1>   0.1500 
 25 H        2.1160     4.0320    -0.0810 H     1 <1>   0.0800 
 26 H        2.3700     3.4560    -1.7060 H     1 <1>   0.0800 
 27 H       -4.7240    -0.7600     0.6880 H     1 <1>   0.1500 
 28 H        3.8910     2.4710     0.6840 H     1 <1>   0.3700 
 29 H       -5.9630     1.3520     0.5600 H     1 <1>   0.1500 
 30 H       -4.3190     4.6790     0.0730 H     1 <1>   0.0800 
 31 H       -5.6170     3.9480     0.9810 H     1 <1>   0.0800 
 32 H       -5.6050     3.8460    -0.7660 H     1 <1>   0.0800 
 33 H        6.7990     2.1000    -1.3920 H     1 <1>   0.0800 
 34 H        6.0720     1.5940     0.0900 H     1 <1>   0.0800 
 35 H        8.2220     2.0880     1.2880 H     1 <1>   0.0800 
 36 H        8.9610     3.6620     1.1590 H     1 <1>   0.0800 
 37 H        8.9320     2.5990    -0.2220 H     1 <1>   0.0800 
 38 H        7.8080     4.4250    -1.6030 H     1 <1>   0.0800 
 39 H        7.9080     5.4620    -0.2030 H     1 <1>   0.0800 
 40 H        6.3780     5.2130    -0.9980 H     1 <1>   0.0800 
 41 H        6.0510     3.1770     2.1040 H     1 <1>   0.0800 
 42 H        5.3640     4.5060     1.1960 H     1 <1>   0.0800 
 43 H        6.8860     4.7030     2.0090 H     1 <1>   0.0800 
@<TRIPOS>BOND
  1   1   2  1   
  2   1   3  1   
  3   2   4  2   
  4   2   5  1   
  5   3   6  2   
  6   3  22  1   
  7   4   6  1   
  8   5   7  ar  
  9   5   8  ar  
 10   6   9  1   
 11   7  10  ar  
 12   7  23  1   
 13   8  11  ar  
 14   8  24  1   
 15   9  12  1   
 16   9  25  1   
 17   9  26  1   
 18  10  13  ar  
 19  10  14  1   
 20  11  13  ar  
 21  11  27  1   
 22  12  15  am  
 23  12  28  1   
 24  13  29  1   
 25  14  30  1   
 26  14  31  1   
 27  14  32  1   
 28  15  16  2   
 29  15  17  1   
 30  17  18  1   
 31  17  33  1   
 32  17  34  1   
 33  18  19  1   
 34  18  20  1   
 35  18  21  1   
 36  19  35  1   
 37  19  36  1   
 38  19  37  1   
 39  20  38  1   
 40  20  39  1   
 41  20  40  1   
 42  21  41  1   
 43  21  42  1   
 44  21  43  1   
@<TRIPOS>SUBSTRUCTURE
  1 ****   6 GROUP 4 **** **** 0

# MOE 2024.06 (io_trps.svl 2023.06)
