@<TRIPOS>MOLECULE
NONAME
26 28 1 0 0 
SMALL
USER_CHARGES


@<TRIPOS>ATOM
  1 S        0.1440    -0.2660    -0.0050 S.3   1 <1>  -0.1970 
  2 C       -1.5760    -0.5510    -0.0050 C.2   1 <1>   0.2420 
  3 C       -0.1800     1.4920    -0.0040 C.2   1 <1>   0.6760 
  4 N       -2.3470    -1.5770    -0.0050 N.2   1 <1>  -0.3380 
  5 N       -2.1930     0.6150    -0.0040 N.pl3 1 <1>   0.5050 
  6 N       -1.4340     1.7800    -0.0040 N.2   1 <1>  -0.6520 
  7 C        0.9320     2.4020    -0.0040 C.2   1 <1>  -0.0450 
  8 N       -3.5910    -1.0590    -0.0050 N.2   1 <1>  -0.3380 
  9 C       -3.4820     0.2370    -0.0040 C.2   1 <1>   0.0060 
 10 S        2.5890     1.7850    -0.0040 S.3   1 <1>  -0.0800 
 11 C        0.9800     3.7600    -0.0030 C.2   1 <1>  -0.1500 
 12 C       -4.6180     1.2520    -0.0040 C.3   1 <1>   0.0200 
 13 C        3.2700     3.3980    -0.0040 C.2   1 <1>  -0.1100 
 14 C        2.2900     4.3190    -0.0030 C.2   1 <1>  -0.1500 
 15 C       -6.0090     0.5980    -0.0040 C.3   1 <1>  -0.1600 
 16 C       -7.1270     1.6460    -0.0040 C.3   1 <1>  -0.2400 
 17 H        0.1110     4.3970    -0.0030 H     1 <1>   0.1500 
 18 H       -4.5210     1.8770    -0.8740 H     1 <1>   0.0800 
 19 H       -4.5210     1.8770     0.8660 H     1 <1>   0.0800 
 20 H        4.3430     3.4880    -0.0040 H     1 <1>   0.1500 
 21 H        2.4410     5.3860    -0.0030 H     1 <1>   0.1500 
 22 H       -6.1070    -0.0290     0.8660 H     1 <1>   0.0800 
 23 H       -6.1080    -0.0290    -0.8740 H     1 <1>   0.0800 
 24 H       -7.0620     2.2680     0.8720 H     1 <1>   0.0800 
 25 H       -8.0860     1.1570    -0.0040 H     1 <1>   0.0800 
 26 H       -7.0630     2.2690    -0.8790 H     1 <1>   0.0800 
@<TRIPOS>BOND
  1   1   2  1   
  2   1   3  1   
  3   2   4  2   
  4   2   5  1   
  5   3   6  2   
  6   3   7  1   
  7   4   8  1   
  8   5   6  1   
  9   5   9  1   
 10   7  10  1   
 11   7  11  2   
 12   8   9  2   
 13   9  12  1   
 14  10  13  1   
 15  11  14  1   
 16  11  17  1   
 17  12  15  1   
 18  12  18  1   
 19  12  19  1   
 20  13  14  2   
 21  13  20  1   
 22  14  21  1   
 23  15  16  1   
 24  15  22  1   
 25  15  23  1   
 26  16  24  1   
 27  16  25  1   
 28  16  26  1   
@<TRIPOS>SUBSTRUCTURE
  1 ****   6 GROUP 4 **** **** 0

# MOE 2024.06 (io_trps.svl 2023.06)
