@<TRIPOS>MOLECULE
NONAME
47 48 1 0 0 
SMALL
USER_CHARGES


@<TRIPOS>ATOM
  1 O        0.8420    -0.0050     0.2950 O.3   1 <1>  -0.3630 
  2 C       -0.3660     0.6050     0.4250 C.ar  1 <1>   0.0830 
  3 C        1.4850     0.0400    -0.9600 C.3   1 <1>   0.2000 
  4 C       -0.5520     1.9830     0.2560 C.ar  1 <1>   0.0830 
  5 C       -1.4480    -0.1970     0.7490 C.ar  1 <1>  -0.1500 
  6 C        0.8790    -1.0410    -1.8560 C.3   1 <1>  -0.2400 
  7 C        2.9730    -0.2020    -0.7170 C.3   1 <1>  -0.2400 
  8 O        0.4630     2.8370    -0.0250 O.3   1 <1>  -0.3630 
  9 C       -1.8240     2.5210     0.3690 C.ar  1 <1>  -0.1500 
 10 C       -2.7130     0.3520     0.8750 C.ar  1 <1>  -0.1500 
 11 C        1.4760     2.9790     0.9510 C.3   1 <1>   0.1200 
 12 C       -2.9020     1.7090     0.6790 C.ar  1 <1>  -0.1500 
 13 C        2.7170     3.5450     0.2720 C.3   1 <1>   0.1200 
 14 O        3.7900     3.4910     1.1890 O.3   1 <1>  -0.3630 
 15 C        5.0450     3.2640     0.7150 C.ar  1 <1>   0.0830 
 16 C        5.6040     3.9310    -0.3850 C.ar  1 <1>   0.0830 
 17 C        5.7850     2.3110     1.3920 C.ar  1 <1>  -0.1500 
 18 O        4.8780     4.8990    -1.0180 O.3   1 <1>  -0.3630 
 19 C        6.8940     3.5940    -0.7900 C.ar  1 <1>  -0.1500 
 20 C        7.0670     1.9920     0.9810 C.ar  1 <1>  -0.1500 
 21 C        5.4590     5.7530    -1.9780 C.3   1 <1>   0.0400 
 22 C        7.6260     2.6310    -0.1130 C.ar  1 <1>  -0.1430 
 23 C        9.0300     2.2780    -0.5680 C.3   1 <1>  -0.0970 
 24 H        1.3400     1.0110    -1.4010 H     1 <1>   0.0800 
 25 H       -1.2930    -1.2500     0.8970 H     1 <1>   0.1500 
 26 H        0.9840    -2.0080    -1.3990 H     1 <1>   0.0800 
 27 H        1.3810    -1.0510    -2.8060 H     1 <1>   0.0800 
 28 H       -0.1620    -0.8370    -2.0280 H     1 <1>   0.0800 
 29 H        3.1270    -1.1690    -0.2740 H     1 <1>   0.0800 
 30 H        3.3690     0.5540    -0.0640 H     1 <1>   0.0800 
 31 H        3.5090    -0.1590    -1.6480 H     1 <1>   0.0800 
 32 H       -1.9630     3.5760     0.2190 H     1 <1>   0.1500 
 33 H       -3.5500    -0.2790     1.1220 H     1 <1>   0.1500 
 34 H        1.6990     2.0190     1.3780 H     1 <1>   0.0800 
 35 H        1.1160     3.6450     1.7140 H     1 <1>   0.0800 
 36 H       -3.8870     2.1350     0.7700 H     1 <1>   0.1500 
 37 H        2.5660     4.5710    -0.0100 H     1 <1>   0.0800 
 38 H        2.9710     2.9530    -0.5890 H     1 <1>   0.0800 
 39 H        5.3500     1.8160     2.2400 H     1 <1>   0.1500 
 40 H        7.3480     4.0740    -1.6340 H     1 <1>   0.1500 
 41 H        7.6250     1.2450     1.5180 H     1 <1>   0.1500 
 42 H        4.7240     6.4850    -2.2610 H     1 <1>   0.0800 
 43 H        5.7450     5.1720    -2.8360 H     1 <1>   0.0800 
 44 H        6.3110     6.2430    -1.5390 H     1 <1>   0.0800 
 45 H        9.5320     3.1500    -0.9480 H     1 <1>   0.0800 
 46 H        8.9850     1.5360    -1.3450 H     1 <1>   0.0800 
 47 H        9.6070     1.8880     0.2510 H     1 <1>   0.0800 
@<TRIPOS>BOND
  1   1   2  1   
  2   1   3  1   
  3   2   4  ar  
  4   2   5  ar  
  5   3   6  1   
  6   3   7  1   
  7   3  24  1   
  8   4   8  1   
  9   4   9  ar  
 10   5  10  ar  
 11   5  25  1   
 12   6  26  1   
 13   6  27  1   
 14   6  28  1   
 15   7  29  1   
 16   7  30  1   
 17   7  31  1   
 18   8  11  1   
 19   9  12  ar  
 20   9  32  1   
 21  10  12  ar  
 22  10  33  1   
 23  11  13  1   
 24  11  34  1   
 25  11  35  1   
 26  12  36  1   
 27  13  14  1   
 28  13  37  1   
 29  13  38  1   
 30  14  15  1   
 31  15  16  ar  
 32  15  17  ar  
 33  16  18  1   
 34  16  19  ar  
 35  17  20  ar  
 36  17  39  1   
 37  18  21  1   
 38  19  22  ar  
 39  19  40  1   
 40  20  22  ar  
 41  20  41  1   
 42  21  42  1   
 43  21  43  1   
 44  21  44  1   
 45  22  23  1   
 46  23  45  1   
 47  23  46  1   
 48  23  47  1   
@<TRIPOS>SUBSTRUCTURE
  1 ****  13 GROUP 4 **** **** 0

# MOE 2024.06 (io_trps.svl 2023.06)
