@<TRIPOS>MOLECULE
NONAME
50 52 1 0 0 
SMALL
USER_CHARGES


@<TRIPOS>ATOM
  1 S       -0.5760     1.2610    -0.3650 S.o2  1 <1>   1.3330 
  2 O       -0.4420     1.0440    -1.7880 O.2   1 <1>  -0.6500 
  3 O       -0.8160     2.6040     0.1120 O.2   1 <1>  -0.6500 
  4 N        0.9020     0.7680     0.3260 N.am  1 <1>  -0.8490 
  5 C       -1.8450     0.1930     0.3390 C.3   1 <1>   0.0890 
  6 C        1.8330     1.9050     0.4740 C.3   1 <1>   0.1960 
  7 C        1.5400    -0.3320    -0.4330 C.3   1 <1>   0.1960 
  8 C       -1.5660    -1.2980     0.1920 C.ar  1 <1>  -0.1440 
  9 C        3.1670     1.4860     1.1280 C.3   1 <1>   0.3430 
 10 C        2.8510    -0.8020     0.2270 C.3   1 <1>   0.3430 
 11 C       -1.1770    -2.0500     1.2910 C.ar  1 <1>  -0.1500 
 12 C       -1.6810    -1.9090    -1.0470 C.ar  1 <1>  -0.1500 
 13 N        3.8220     0.3320     0.4120 N.4   1 <1>  -0.9590 
 14 C       -0.9000    -3.3990     1.1500 C.ar  1 <1>  -0.1500 
 15 C       -1.4030    -3.2570    -1.1880 C.ar  1 <1>  -0.1500 
 16 C        5.0660    -0.1160     1.0750 C.3   1 <1>   0.4810 
 17 C       -1.0110    -4.0030    -0.0900 C.ar  1 <1>  -0.1500 
 18 C        6.0960     0.9600     0.8410 C.2   1 <1>  -0.2880 
 19 C        7.0690     0.8990    -0.0850 C.2   1 <1>  -0.1780 
 20 C        8.0790     1.8950    -0.3670 C.ar  1 <1>   0.0280 
 21 C        8.7540     1.8740    -1.5850 C.ar  1 <1>  -0.1500 
 22 C        8.4160     2.8970     0.5420 C.ar  1 <1>  -0.1500 
 23 C        9.7180     2.8180    -1.8900 C.ar  1 <1>  -0.1500 
 24 C        9.3780     3.8440     0.2420 C.ar  1 <1>  -0.1500 
 25 C       10.0310     3.8070    -0.9760 C.ar  1 <1>  -0.1500 
 26 H       -1.9520     0.4250     1.3800 H     1 <1>   0.0800 
 27 H       -2.7850     0.4140    -0.1290 H     1 <1>   0.0800 
 28 H        2.0210     2.3520    -0.4880 H     1 <1>   0.0800 
 29 H        1.3850     2.6600     1.1000 H     1 <1>   0.0800 
 30 H        0.8760    -1.1750    -0.4940 H     1 <1>   0.0800 
 31 H        1.7500    -0.0150    -1.4420 H     1 <1>   0.0800 
 32 H        2.9660     1.2100     2.1500 H     1 <1>   0.0800 
 33 H        3.8300     2.3350     1.1390 H     1 <1>   0.0800 
 34 H        3.2940    -1.5710    -0.3840 H     1 <1>   0.0800 
 35 H        2.6080    -1.2370     1.1830 H     1 <1>   0.0800 
 36 H       -1.0910    -1.5960     2.2630 H     1 <1>   0.1500 
 37 H       -1.9850    -1.3410    -1.9120 H     1 <1>   0.1500 
 38 H        4.1050     0.6710    -0.5180 H     1 <1>   0.4500 
 39 H       -0.6060    -3.9830     2.0050 H     1 <1>   0.1500 
 40 H       -1.4970    -3.7280    -2.1520 H     1 <1>   0.1500 
 41 H        4.9110    -0.2810     2.1300 H     1 <1>   0.0800 
 42 H        5.4080    -1.0350     0.6270 H     1 <1>   0.0800 
 43 H       -0.8020    -5.0530    -0.2000 H     1 <1>   0.1500 
 44 H        5.9780     1.8040     1.4970 H     1 <1>   0.1500 
 45 H        7.1500     0.0340    -0.7230 H     1 <1>   0.1500 
 46 H        8.5270     1.1130    -2.3100 H     1 <1>   0.1500 
 47 H        7.9340     2.9420     1.4990 H     1 <1>   0.1500 
 48 H       10.2270     2.7840    -2.8380 H     1 <1>   0.1500 
 49 H        9.6250     4.6100     0.9570 H     1 <1>   0.1500 
 50 H       10.7800     4.5430    -1.2120 H     1 <1>   0.1500 
@<TRIPOS>BOND
  1   1   2  2   
  2   1   3  2   
  3   1   4  am  
  4   1   5  1   
  5   4   6  1   
  6   4   7  1   
  7   5   8  1   
  8   5  26  1   
  9   5  27  1   
 10   6   9  1   
 11   6  28  1   
 12   6  29  1   
 13   7  10  1   
 14   7  30  1   
 15   7  31  1   
 16   8  11  ar  
 17   8  12  ar  
 18   9  13  1   
 19   9  32  1   
 20   9  33  1   
 21  10  13  1   
 22  10  34  1   
 23  10  35  1   
 24  11  14  ar  
 25  11  36  1   
 26  12  15  ar  
 27  12  37  1   
 28  13  16  1   
 29  13  38  1   
 30  14  17  ar  
 31  14  39  1   
 32  15  17  ar  
 33  15  40  1   
 34  16  18  1   
 35  16  41  1   
 36  16  42  1   
 37  17  43  1   
 38  18  19  2   
 39  18  44  1   
 40  19  20  1   
 41  19  45  1   
 42  20  21  ar  
 43  20  22  ar  
 44  21  23  ar  
 45  21  46  1   
 46  22  24  ar  
 47  22  47  1   
 48  23  25  ar  
 49  23  48  1   
 50  24  25  ar  
 51  24  49  1   
 52  25  50  1   
@<TRIPOS>SUBSTRUCTURE
  1 ****  13 GROUP 4 **** **** 0

# MOE 2024.06 (io_trps.svl 2023.06)
