@<TRIPOS>MOLECULE
NONAME
43 44 1 0 0 
SMALL
USER_CHARGES


@<TRIPOS>ATOM
  1 S        0.3450     0.0070     1.0680 S.o2  1 <1>   1.4470 
  2 O        0.7970     0.2380     2.4200 O.2   1 <1>  -0.6500 
  3 O       -0.1960     1.0960     0.2890 O.2   1 <1>  -0.6500 
  4 N        1.6840    -0.4650     0.1900 N.am  1 <1>  -0.9140 
  5 C       -0.7490    -1.4370     0.9890 C.ar  1 <1>  -0.0090 
  6 C        2.8380     0.3490     0.5110 C.3   1 <1>   0.3760 
  7 C       -2.0950    -1.3020     0.6830 C.ar  1 <1>  -0.1500 
  8 C       -0.2700    -2.7140     1.2450 C.ar  1 <1>  -0.1500 
  9 C        3.8440     0.2580    -0.6230 C.2   1 <1>  -0.0400 
 10 C       -2.9670    -2.3880     0.6140 C.ar  1 <1>   0.0860 
 11 C       -1.1070    -3.8120     1.1890 C.ar  1 <1>  -0.1500 
 12 O        4.4020    -0.9050    -0.9050 O.3   1 <1>  -0.2800 
 13 C        4.3040     1.2150    -1.4590 C.2   1 <1>  -0.1500 
 14 C       -2.4460    -3.6610     0.8740 C.ar  1 <1>  -0.1430 
 15 C       -4.3580    -2.1580     0.2690 C.2   1 <1>   0.5440 
 16 C        5.2240    -0.7190    -1.9180 C.2   1 <1>  -0.0100 
 17 C        5.2110     0.5720    -2.3110 C.2   1 <1>  -0.1500 
 18 C       -3.3360    -4.8980     0.8190 C.3   1 <1>  -0.0970 
 19 O       -5.2490    -2.5210     1.0100 O.2   1 <1>  -0.5700 
 20 N       -4.6540    -1.5200    -0.9060 N.am  1 <1>  -0.7300 
 21 C       -5.9760    -1.1840    -1.4720 C.3   1 <1>   0.2200 
 22 C       -6.7250    -0.2290    -0.5460 C.3   1 <1>  -0.2400 
 23 C       -6.7680    -2.4590    -1.7510 C.3   1 <1>  -0.2400 
 24 H        1.4530    -0.2400    -0.7740 H     1 <1>   0.4200 
 25 H        3.2850     0.0050     1.4290 H     1 <1>   0.0800 
 26 H        2.5500     1.3810     0.6340 H     1 <1>   0.0800 
 27 H       -2.4890    -0.3170     0.4960 H     1 <1>   0.1500 
 28 H        0.7710    -2.8500     1.4910 H     1 <1>   0.1500 
 29 H       -0.7040    -4.7900     1.3940 H     1 <1>   0.1500 
 30 H        4.0530     2.2600    -1.4980 H     1 <1>   0.1500 
 31 H        5.7780    -1.5610    -2.2970 H     1 <1>   0.1500 
 32 H        5.7670     1.0400    -3.1040 H     1 <1>   0.1500 
 33 H       -3.8850    -4.9220    -0.1050 H     1 <1>   0.0800 
 34 H       -4.0390    -4.8770     1.6340 H     1 <1>   0.0800 
 35 H       -2.7560    -5.8000     0.8920 H     1 <1>   0.0800 
 36 H       -3.8740    -1.2870    -1.5200 H     1 <1>   0.3700 
 37 H       -5.8130    -0.6790    -2.4100 H     1 <1>   0.0800 
 38 H       -6.9590    -0.7070     0.3880 H     1 <1>   0.0800 
 39 H       -7.6460     0.0780    -1.0050 H     1 <1>   0.0800 
 40 H       -6.1300     0.6460    -0.3550 H     1 <1>   0.0800 
 41 H       -7.0020    -2.9710    -0.8350 H     1 <1>   0.0800 
 42 H       -6.2050    -3.1140    -2.3900 H     1 <1>   0.0800 
 43 H       -7.6920    -2.2140    -2.2430 H     1 <1>   0.0800 
@<TRIPOS>BOND
  1   1   2  2   
  2   1   3  2   
  3   1   4  am  
  4   1   5  1   
  5   4   6  1   
  6   4  24  1   
  7   5   7  ar  
  8   5   8  ar  
  9   6   9  1   
 10   6  25  1   
 11   6  26  1   
 12   7  10  ar  
 13   7  27  1   
 14   8  11  ar  
 15   8  28  1   
 16   9  12  1   
 17   9  13  2   
 18  10  14  ar  
 19  10  15  1   
 20  11  14  ar  
 21  11  29  1   
 22  12  16  1   
 23  13  17  1   
 24  13  30  1   
 25  14  18  1   
 26  15  19  2   
 27  15  20  am  
 28  16  17  2   
 29  16  31  1   
 30  17  32  1   
 31  18  33  1   
 32  18  34  1   
 33  18  35  1   
 34  20  21  1   
 35  20  36  1   
 36  21  22  1   
 37  21  23  1   
 38  21  37  1   
 39  22  38  1   
 40  22  39  1   
 41  22  40  1   
 42  23  41  1   
 43  23  42  1   
 44  23  43  1   
@<TRIPOS>SUBSTRUCTURE
  1 ****   5 GROUP 4 **** **** 0

# MOE 2024.06 (io_trps.svl 2023.06)
