@<TRIPOS>MOLECULE
NONAME
43 45 1 0 0 
SMALL
USER_CHARGES


@<TRIPOS>ATOM
  1 S       -1.2660     0.4690     0.6910 S.3   1 <1>  -0.0800 
  2 C       -1.7380     0.6250    -0.9950 C.2   1 <1>  -0.1400 
  3 C        0.2260     1.3440     0.4010 C.2   1 <1>  -0.1400 
  4 C       -0.7990     1.2970    -1.6880 C.2   1 <1>  -0.1500 
  5 C       -3.0660     0.0190    -1.3880 C.3   1 <1>   0.5230 
  6 C        0.3170     1.7060    -0.8920 C.2   1 <1>  -0.1500 
  7 C        1.1520     1.5520     1.5810 C.3   1 <1>  -0.0600 
  8 N       -4.1290     0.6650    -0.5800 N.4   1 <1>  -0.9590 
  9 C       -5.4430    -0.0110    -0.7280 C.3   1 <1>   0.4860 
 10 C       -4.2490     2.1290    -0.8450 C.3   1 <1>   0.3430 
 11 C       -6.4840     0.6690     0.1460 C.ar  1 <1>  -0.1430 
 12 C       -5.0950     2.7880     0.2470 C.3   1 <1>  -0.0170 
 13 C       -6.3360     1.9750     0.5930 C.ar  1 <1>  -0.1430 
 14 C       -7.6200    -0.0400     0.4970 C.ar  1 <1>  -0.1500 
 15 C       -7.3220     2.5480     1.3800 C.ar  1 <1>  -0.1500 
 16 C       -8.6150     0.5190     1.2810 C.ar  1 <1>   0.0830 
 17 C       -8.4690     1.8410     1.7360 C.ar  1 <1>   0.0830 
 18 O       -9.6580    -0.3290     1.5200 O.3   1 <1>  -0.3620 
 19 O       -9.4330     2.4140     2.5140 O.3   1 <1>  -0.3620 
 20 C      -10.8140     0.0350     2.2410 C.3   1 <1>   0.0400 
 21 C       -9.3380     3.7330     3.0100 C.3   1 <1>   0.0400 
 22 H       -0.8240     1.5340    -2.7390 H     1 <1>   0.1500 
 23 H       -3.0400    -1.0410    -1.1930 H     1 <1>   0.0800 
 24 H       -3.2440     0.1740    -2.4400 H     1 <1>   0.0800 
 25 H        1.1370     2.2500    -1.3290 H     1 <1>   0.1500 
 26 H        1.4580     0.6020     1.9810 H     1 <1>   0.0800 
 27 H        0.6500     2.1100     2.3520 H     1 <1>   0.0800 
 28 H        2.0270     2.0960     1.2750 H     1 <1>   0.0800 
 29 H       -3.8490     0.5660     0.4060 H     1 <1>   0.4500 
 30 H       -5.3610    -1.0460    -0.4380 H     1 <1>   0.0800 
 31 H       -5.7680     0.0310    -1.7550 H     1 <1>   0.0800 
 32 H       -4.7170     2.2870    -1.8030 H     1 <1>   0.0800 
 33 H       -3.2740     2.5920    -0.8620 H     1 <1>   0.0800 
 34 H       -5.3830     3.7710    -0.0830 H     1 <1>   0.0800 
 35 H       -4.4950     2.9070     1.1320 H     1 <1>   0.0800 
 36 H       -7.7630    -1.0530     0.1640 H     1 <1>   0.1500 
 37 H       -7.1790     3.5580     1.7130 H     1 <1>   0.1500 
 38 H      -11.4830    -0.8050     2.2470 H     1 <1>   0.0800 
 39 H      -11.2810     0.8720     1.7520 H     1 <1>   0.0800 
 40 H      -10.5330     0.2860     3.2480 H     1 <1>   0.0800 
 41 H      -10.2190     3.9340     3.5920 H     1 <1>   0.0800 
 42 H       -9.2860     4.4160     2.1810 H     1 <1>   0.0800 
 43 H       -8.4650     3.8100     3.6340 H     1 <1>   0.0800 
@<TRIPOS>BOND
  1   1   2  1   
  2   1   3  1   
  3   2   4  2   
  4   2   5  1   
  5   3   6  2   
  6   3   7  1   
  7   4   6  1   
  8   4  22  1   
  9   5   8  1   
 10   5  23  1   
 11   5  24  1   
 12   6  25  1   
 13   7  26  1   
 14   7  27  1   
 15   7  28  1   
 16   8   9  1   
 17   8  10  1   
 18   8  29  1   
 19   9  11  1   
 20   9  30  1   
 21   9  31  1   
 22  10  12  1   
 23  10  32  1   
 24  10  33  1   
 25  11  13  ar  
 26  11  14  ar  
 27  12  13  1   
 28  12  34  1   
 29  12  35  1   
 30  13  15  ar  
 31  14  16  ar  
 32  14  36  1   
 33  15  17  ar  
 34  15  37  1   
 35  16  17  ar  
 36  16  18  1   
 37  17  19  1   
 38  18  20  1   
 39  19  21  1   
 40  20  38  1   
 41  20  39  1   
 42  20  40  1   
 43  21  41  1   
 44  21  42  1   
 45  21  43  1   
@<TRIPOS>SUBSTRUCTURE
  1 ****  13 GROUP 4 **** **** 0

# MOE 2024.06 (io_trps.svl 2023.06)
