@<TRIPOS>MOLECULE
NONAME
46 47 1 0 0 
SMALL
USER_CHARGES


@<TRIPOS>ATOM
  1 CL      -0.7160    -2.4300     0.8240 Cl    1 <1>  -0.1770 
  2 C       -2.3590    -1.8950     0.5920 C.ar  1 <1>   0.1770 
  3 C       -2.8850    -1.8450    -0.6840 C.ar  1 <1>  -0.1500 
  4 C       -3.1150    -1.5250     1.6870 C.ar  1 <1>  -0.1500 
  5 C       -4.1900    -1.4170    -0.8610 C.ar  1 <1>  -0.1500 
  6 C       -4.4190    -1.0980     1.4960 C.ar  1 <1>  -0.1500 
  7 C       -4.9780    -1.0350     0.2210 C.ar  1 <1>  -0.0090 
  8 S       -6.6840    -0.4700    -0.0310 S.o2  1 <1>   1.4470 
  9 O       -7.2250     0.0960     1.1870 O.2   1 <1>  -0.6500 
 10 O       -7.4420    -1.5120    -0.6900 O.2   1 <1>  -0.6500 
 11 N       -6.5300     0.7920    -1.1500 N.am  1 <1>  -0.8490 
 12 C       -7.8240     1.1180    -1.8170 C.3   1 <1>   0.2570 
 13 C       -5.8730     1.9720    -0.5710 C.3   1 <1>   0.1960 
 14 C       -8.8960     1.8060    -0.9420 C.2   1 <1>   0.5690 
 15 C       -5.3850     2.9160    -1.6670 C.3   1 <1>  -0.2400 
 16 O       -8.8740     3.0140    -0.9070 O.2   1 <1>  -0.5700 
 17 N       -9.8440     1.1160    -0.2160 N.am  1 <1>  -0.6600 
 18 C      -10.5020     1.7830     0.9540 C.3   1 <1>   0.1400 
 19 C      -10.1560    -0.3430    -0.3480 C.3   1 <1>   0.1400 
 20 C      -12.0090     1.4820     1.0090 C.3   1 <1>   0.3430 
 21 C      -11.6690    -0.6160    -0.2590 C.3   1 <1>   0.3430 
 22 N      -12.2860     0.0030     0.9660 N.4   1 <1>  -0.9590 
 23 C      -13.7520    -0.2750     1.0360 C.3   1 <1>   0.2630 
 24 H       -2.2790    -2.1390    -1.5240 H     1 <1>   0.1500 
 25 H       -2.6870    -1.5720     2.6730 H     1 <1>   0.1500 
 26 H       -4.6050    -1.3760    -1.8550 H     1 <1>   0.1500 
 27 H       -5.0100    -0.8100     2.3500 H     1 <1>   0.1500 
 28 H       -8.2300     0.2290    -2.2580 H     1 <1>   0.0800 
 29 H       -7.6250     1.7760    -2.6430 H     1 <1>   0.0800 
 30 H       -5.0110     1.6570    -0.0050 H     1 <1>   0.0800 
 31 H       -6.5330     2.4890     0.1070 H     1 <1>   0.0800 
 32 H       -6.2090     3.4090    -2.1490 H     1 <1>   0.0800 
 33 H       -4.8040     2.3780    -2.3950 H     1 <1>   0.0800 
 34 H       -4.7640     3.6760    -1.2300 H     1 <1>   0.0800 
 35 H      -10.3670     2.8500     0.9100 H     1 <1>   0.0800 
 36 H      -10.0290     1.4400     1.8590 H     1 <1>   0.0800 
 37 H       -9.6570    -0.8840     0.4370 H     1 <1>   0.0800 
 38 H       -9.8020    -0.7240    -1.2890 H     1 <1>   0.0800 
 39 H      -12.4830     1.9670     0.1710 H     1 <1>   0.0800 
 40 H      -12.4170     1.9070     1.9110 H     1 <1>   0.0800 
 41 H      -11.8310    -1.6820    -0.2520 H     1 <1>   0.0800 
 42 H      -12.1400    -0.2170    -1.1420 H     1 <1>   0.0800 
 43 H      -11.8250    -0.4180     1.7860 H     1 <1>   0.4500 
 44 H      -14.2570     0.1570     0.1870 H     1 <1>   0.0800 
 45 H      -14.1700     0.1450     1.9370 H     1 <1>   0.0800 
 46 H      -13.9320    -1.3390     1.0400 H     1 <1>   0.0800 
@<TRIPOS>BOND
  1   1   2  1   
  2   2   3  ar  
  3   2   4  ar  
  4   3   5  ar  
  5   3  24  1   
  6   4   6  ar  
  7   4  25  1   
  8   5   7  ar  
  9   5  26  1   
 10   6   7  ar  
 11   6  27  1   
 12   7   8  1   
 13   8   9  2   
 14   8  10  2   
 15   8  11  am  
 16  11  12  1   
 17  11  13  1   
 18  12  14  1   
 19  12  28  1   
 20  12  29  1   
 21  13  15  1   
 22  13  30  1   
 23  13  31  1   
 24  14  16  2   
 25  14  17  am  
 26  15  32  1   
 27  15  33  1   
 28  15  34  1   
 29  17  18  1   
 30  17  19  1   
 31  18  20  1   
 32  18  35  1   
 33  18  36  1   
 34  19  21  1   
 35  19  37  1   
 36  19  38  1   
 37  20  22  1   
 38  20  39  1   
 39  20  40  1   
 40  21  22  1   
 41  21  41  1   
 42  21  42  1   
 43  22  23  1   
 44  22  43  1   
 45  23  44  1   
 46  23  45  1   
 47  23  46  1   
@<TRIPOS>SUBSTRUCTURE
  1 ****   8 GROUP 4 **** **** 0

# MOE 2024.06 (io_trps.svl 2023.06)
