@<TRIPOS>MOLECULE
NONAME
35 36 1 0 0 
SMALL
USER_CHARGES


@<TRIPOS>ATOM
  1 F        0.2000    -0.1480     0.8900 F     1 <1>  -0.3400 
  2 C       -0.4340     0.8930     0.3350 C.3   1 <1>   0.8180 
  3 F       -0.2840     1.8580     1.2480 F     1 <1>  -0.3400 
  4 C       -1.9520     0.5610     0.1760 C.2   1 <1>  -0.0380 
  5 C        0.3200     1.2980    -0.9590 C.3   1 <1>   0.6000 
  6 N       -2.3120    -0.7680     0.2680 N.pl3 1 <1>  -0.8690 
  7 C       -2.8150     1.6140    -0.0240 C.2   1 <1>  -0.1500 
  8 F       -0.1670     2.4160    -1.5040 F     1 <1>  -0.3400 
  9 F        0.2090     0.3820    -1.9220 F     1 <1>  -0.3400 
 10 C       -3.6760    -1.3460     0.1650 C.3   1 <1>   0.2090 
 11 C       -4.2190     1.7370    -0.2320 C.2   1 <1>   0.1000 
 12 C       -4.4810    -0.7000    -0.9630 C.3   1 <1>   0.2090 
 13 N       -4.9440     0.6520    -0.5860 N.pl3 1 <1>  -0.8690 
 14 C       -4.9120     2.9690    -0.0930 C.2   1 <1>   0.0140 
 15 C       -6.3070     3.0480     0.2450 C.2   1 <1>   0.5410 
 16 C       -4.2680     4.2210    -0.2960 C.2   1 <1>  -0.1500 
 17 O       -7.0540     2.0590     0.3640 O.2   1 <1>  -0.5700 
 18 C       -6.9070     4.3120     0.4570 C.2   1 <1>  -0.1360 
 19 C       -4.8780     5.4300    -0.1040 C.2   1 <1>  -0.1380 
 20 C       -6.2210     5.4750     0.2940 C.2   1 <1>  -0.1500 
 21 C       -4.1420     6.7410    -0.3200 C.3   1 <1>  -0.1020 
 22 H        1.3660     1.4540    -0.7770 H     1 <1>   0.0800 
 23 H       -1.5950    -1.4610     0.5280 H     1 <1>   0.4000 
 24 H       -2.3250     2.5610     0.0090 H     1 <1>   0.1500 
 25 H       -4.1960    -1.2230     1.0990 H     1 <1>   0.0800 
 26 H       -3.5850    -2.3980    -0.0380 H     1 <1>   0.0800 
 27 H       -5.3420    -1.3090    -1.1720 H     1 <1>   0.0800 
 28 H       -3.8790    -0.6440    -1.8530 H     1 <1>   0.0800 
 29 H       -5.9740     0.7530    -0.5450 H     1 <1>   0.4000 
 30 H       -3.2510     4.2300    -0.6360 H     1 <1>   0.1500 
 31 H       -7.9400     4.3090     0.7510 H     1 <1>   0.1500 
 32 H       -6.6930     6.4300     0.4560 H     1 <1>   0.1500 
 33 H       -4.6340     7.3160    -1.0840 H     1 <1>   0.0800 
 34 H       -3.1250     6.5690    -0.6250 H     1 <1>   0.0800 
 35 H       -4.1320     7.3110     0.5920 H     1 <1>   0.0800 
@<TRIPOS>BOND
  1   1   2  1   
  2   2   3  1   
  3   2   4  1   
  4   2   5  1   
  5   4   6  1   
  6   4   7  2   
  7   5   8  1   
  8   5   9  1   
  9   5  22  1   
 10   6  10  1   
 11   6  23  1   
 12   7  11  1   
 13   7  24  1   
 14  10  12  1   
 15  10  25  1   
 16  10  26  1   
 17  11  13  1   
 18  11  14  2   
 19  12  13  1   
 20  12  27  1   
 21  12  28  1   
 22  13  29  1   
 23  14  15  1   
 24  14  16  1   
 25  15  17  2   
 26  15  18  1   
 27  16  19  2   
 28  16  30  1   
 29  18  20  2   
 30  18  31  1   
 31  19  20  1   
 32  19  21  1   
 33  20  32  1   
 34  21  33  1   
 35  21  34  1   
 36  21  35  1   
@<TRIPOS>SUBSTRUCTURE
  1 ****   7 GROUP 4 **** **** 0

# MOE 2024.06 (io_trps.svl 2023.06)
