@<TRIPOS>MOLECULE
NONAME
43 44 1 0 0 
SMALL
USER_CHARGES


@<TRIPOS>ATOM
  1 O       -3.7610     2.1690     2.2600 O.2   1 <1>  -0.5700 
  2 C       -3.5050     2.8840     1.3070 C.2   1 <1>   0.5440 
  3 N       -4.5390     3.2970     0.5110 N.am  1 <1>  -0.7300 
  4 C       -2.1310     3.2920     0.9980 C.ar  1 <1>   0.3960 
  5 C       -5.9730     3.0380     0.7300 C.3   1 <1>   0.2200 
  6 N       -1.9080     4.0480    -0.0950 N.ar  1 <1>  -0.6200 
  7 C       -1.0820     2.8970     1.8320 C.ar  1 <1>  -0.1500 
  8 C       -6.3270     1.6870     0.1120 C.3   1 <1>  -0.1600 
  9 C       -6.7880     4.1950     0.1320 C.3   1 <1>  -0.1600 
 10 C       -0.6570     4.3940    -0.3390 C.ar  1 <1>   0.1600 
 11 C        0.2180     3.2660     1.5650 C.ar  1 <1>  -0.1500 
 12 C       -7.8130     1.3340     0.3470 C.3   1 <1>   0.2560 
 13 C       -8.1920     3.7940    -0.3850 C.3   1 <1>   0.2560 
 14 C        0.4260     4.0370     0.4440 C.ar  1 <1>  -0.1500 
 15 N       -8.6980     2.5760     0.3540 N.4   1 <1>  -0.1220 
 16 C       -7.9270     0.5430     1.6710 C.3   1 <1>  -0.2400 
 17 C       -8.3080     0.3830    -0.7560 C.3   1 <1>  -0.2400 
 18 C       -9.1680     4.9750    -0.1860 C.3   1 <1>  -0.2400 
 19 C       -8.1650     3.5420    -1.9070 C.3   1 <1>  -0.2400 
 20 O       -9.0030     2.9460     1.6420 O.2   1 <1>  -0.7500 
 21 H       -4.2880     3.8850    -0.2870 H     1 <1>   0.3700 
 22 H       -6.1680     2.9880     1.7910 H     1 <1>   0.0800 
 23 H       -1.3000     2.2940     2.6960 H     1 <1>   0.1500 
 24 H       -5.7050     0.9290     0.5540 H     1 <1>   0.0800 
 25 H       -6.0920     1.7000    -0.9340 H     1 <1>   0.0800 
 26 H       -6.2450     4.6720    -0.6630 H     1 <1>   0.0800 
 27 H       -6.8990     4.9240     0.9150 H     1 <1>   0.0800 
 28 H       -0.4790     4.9990    -1.2130 H     1 <1>   0.1500 
 29 H        1.0320     2.9640     2.2030 H     1 <1>   0.1500 
 30 H        1.4160     4.3590     0.1780 H     1 <1>   0.1500 
 31 H       -9.5890     2.3090    -0.0690 H     1 <1>   0.3600 
 32 H       -8.9560     0.3190     1.8910 H     1 <1>   0.0800 
 33 H       -7.5210     1.1130     2.4880 H     1 <1>   0.0800 
 34 H       -7.3810    -0.3810     1.6170 H     1 <1>   0.0800 
 35 H       -8.2430     0.8210    -1.7320 H     1 <1>   0.0800 
 36 H       -9.3270     0.0920    -0.5700 H     1 <1>   0.0800 
 37 H       -7.7080    -0.5100    -0.7640 H     1 <1>   0.0800 
 38 H      -10.1560     4.7120    -0.5160 H     1 <1>   0.0800 
 39 H       -8.8390     5.8370    -0.7380 H     1 <1>   0.0800 
 40 H       -9.2220     5.2600     0.8510 H     1 <1>   0.0800 
 41 H       -7.3980     2.8540    -2.1980 H     1 <1>   0.0800 
 42 H       -7.9590     4.4610    -2.4260 H     1 <1>   0.0800 
 43 H       -9.1180     3.1800    -2.2490 H     1 <1>   0.0800 
@<TRIPOS>BOND
  1   1   2  2   
  2   2   3  am  
  3   2   4  1   
  4   3   5  1   
  5   3  21  1   
  6   4   6  ar  
  7   4   7  ar  
  8   5   8  1   
  9   5   9  1   
 10   5  22  1   
 11   6  10  ar  
 12   7  11  ar  
 13   7  23  1   
 14   8  12  1   
 15   8  24  1   
 16   8  25  1   
 17   9  13  1   
 18   9  26  1   
 19   9  27  1   
 20  10  14  ar  
 21  10  28  1   
 22  11  14  ar  
 23  11  29  1   
 24  12  15  1   
 25  12  16  1   
 26  12  17  1   
 27  13  15  1   
 28  13  18  1   
 29  13  19  1   
 30  14  30  1   
 31  15  20  2   
 32  15  31  1   
 33  16  32  1   
 34  16  33  1   
 35  16  34  1   
 36  17  35  1   
 37  17  36  1   
 38  17  37  1   
 39  18  38  1   
 40  18  39  1   
 41  18  40  1   
 42  19  41  1   
 43  19  42  1   
 44  19  43  1   
@<TRIPOS>SUBSTRUCTURE
  1 ****   3 GROUP 4 **** **** 0

# MOE 2024.06 (io_trps.svl 2023.06)
