@<TRIPOS>MOLECULE
NONAME
54 56 1 0 0 
SMALL
USER_CHARGES


@<TRIPOS>ATOM
  1 O        1.3400    -3.5130     1.9760 O.2   1 <1>  -0.5700 
  2 C        1.1240    -3.4170     0.7860 C.2   1 <1>   0.5690 
  3 N        2.0850    -2.8990    -0.0530 N.am  1 <1>  -0.6600 
  4 C       -0.2370    -3.9160     0.2320 C.3   1 <1>   0.2610 
  5 C        1.9500    -2.7290    -1.5300 C.3   1 <1>   0.1400 
  6 C        3.4000    -2.4100     0.4510 C.3   1 <1>   0.1400 
  7 O       -0.9440    -2.8850    -0.4060 O.3   1 <1>  -0.5600 
  8 C       -1.2380    -4.4140     1.2760 C.3   1 <1>  -0.1600 
  9 C        3.1280    -3.3980    -2.2600 C.3   1 <1>   0.1100 
 10 C        4.5560    -3.0840    -0.3060 C.3   1 <1>   0.1100 
 11 C       -1.6880    -2.1730     0.5320 C.3   1 <1>   0.1200 
 12 C       -2.0000    -3.1550     1.6600 C.3   1 <1>  -0.1600 
 13 N        4.4390    -2.9150    -1.7750 N.3   1 <1>  -0.8100 
 14 C        5.5440    -3.5590    -2.5480 C.3   1 <1>   0.1710 
 15 C        6.9720    -3.0760    -2.2540 C.2   1 <1>   0.5690 
 16 O        7.5200    -2.3510    -3.0500 O.2   1 <1>  -0.5700 
 17 N        7.5730    -3.5330    -1.1140 N.am  1 <1>  -0.5470 
 18 C        8.8050    -3.2590    -0.4930 C.ar  1 <1>   0.1170 
 19 C        8.9540    -3.6250     0.8490 C.ar  1 <1>   0.0820 
 20 C        9.8700    -2.6540    -1.1480 C.ar  1 <1>  -0.1500 
 21 O        7.8790    -4.2180     1.4570 O.3   1 <1>  -0.3630 
 22 C       10.1540    -3.3800     1.5070 C.ar  1 <1>  -0.1500 
 23 C       11.0630    -2.4100    -0.4900 C.ar  1 <1>  -0.1500 
 24 C        7.9200    -4.5650     2.8250 C.3   1 <1>   0.0400 
 25 C       11.2080    -2.7740     0.8450 C.ar  1 <1>   0.0820 
 26 O       12.3430    -2.5720     1.5660 O.3   1 <1>  -0.3620 
 27 C       13.4700    -1.9540     0.9850 C.3   1 <1>   0.0400 
 28 H       -0.0460    -4.6860    -0.4920 H     1 <1>   0.0800 
 29 H        1.9410    -1.6790    -1.7630 H     1 <1>   0.0800 
 30 H        1.0310    -3.1520    -1.8910 H     1 <1>   0.0800 
 31 H        3.5030    -2.6080     1.5030 H     1 <1>   0.0800 
 32 H        3.4580    -1.3450     0.3080 H     1 <1>   0.0800 
 33 H       -0.7660    -4.8910     2.1180 H     1 <1>   0.0800 
 34 H       -1.9040    -5.1180     0.8090 H     1 <1>   0.0800 
 35 H        3.0400    -3.1870    -3.3120 H     1 <1>   0.0800 
 36 H        3.0580    -4.4640    -2.1250 H     1 <1>   0.0800 
 37 H        4.5750    -4.1300    -0.0530 H     1 <1>   0.0800 
 38 H        5.4690    -2.6310     0.0390 H     1 <1>   0.0800 
 39 H       -2.5780    -1.8010     0.0550 H     1 <1>   0.0800 
 40 H       -1.0860    -1.3530     0.8860 H     1 <1>   0.0800 
 41 H       -1.6390    -2.7570     2.5930 H     1 <1>   0.0800 
 42 H       -3.0570    -3.3370     1.7400 H     1 <1>   0.0800 
 43 H        5.3690    -3.3830    -3.5950 H     1 <1>   0.0800 
 44 H        5.5120    -4.6230    -2.3930 H     1 <1>   0.0800 
 45 H        6.9730    -4.0890    -0.5040 H     1 <1>   0.3700 
 46 H        9.7750    -2.3690    -2.1800 H     1 <1>   0.1500 
 47 H       10.3030    -3.6470     2.5340 H     1 <1>   0.1500 
 48 H       11.8600    -1.9400    -1.0340 H     1 <1>   0.1500 
 49 H        6.9680    -4.9870     3.0920 H     1 <1>   0.0800 
 50 H        8.1010    -3.6770     3.4050 H     1 <1>   0.0800 
 51 H        8.6980    -5.2910     2.9790 H     1 <1>   0.0800 
 52 H       14.2400    -1.8940     1.7330 H     1 <1>   0.0800 
 53 H       13.1980    -0.9640     0.6620 H     1 <1>   0.0800 
 54 H       13.8100    -2.5510     0.1580 H     1 <1>   0.0800 
@<TRIPOS>BOND
  1   1   2  2   
  2   2   3  am  
  3   2   4  1   
  4   3   5  1   
  5   3   6  1   
  6   4   7  1   
  7   4   8  1   
  8   4  28  1   
  9   5   9  1   
 10   5  29  1   
 11   5  30  1   
 12   6  10  1   
 13   6  31  1   
 14   6  32  1   
 15   7  11  1   
 16   8  12  1   
 17   8  33  1   
 18   8  34  1   
 19   9  13  1   
 20   9  35  1   
 21   9  36  1   
 22  10  13  1   
 23  10  37  1   
 24  10  38  1   
 25  11  12  1   
 26  11  39  1   
 27  11  40  1   
 28  12  41  1   
 29  12  42  1   
 30  13  14  1   
 31  14  15  1   
 32  14  43  1   
 33  14  44  1   
 34  15  16  2   
 35  15  17  am  
 36  17  18  1   
 37  17  45  1   
 38  18  19  ar  
 39  18  20  ar  
 40  19  21  1   
 41  19  22  ar  
 42  20  23  ar  
 43  20  46  1   
 44  21  24  1   
 45  22  25  ar  
 46  22  47  1   
 47  23  25  ar  
 48  23  48  1   
 49  24  49  1   
 50  24  50  1   
 51  24  51  1   
 52  25  26  1   
 53  26  27  1   
 54  27  52  1   
 55  27  53  1   
 56  27  54  1   
@<TRIPOS>SUBSTRUCTURE
  1 ****  10 GROUP 4 **** **** 0

# MOE 2024.06 (io_trps.svl 2023.06)
