@<TRIPOS>MOLECULE
NONAME
29 30 1 0 0 
SMALL
USER_CHARGES


@<TRIPOS>ATOM
  1 F        0.5580     0.8280     1.8740 F     1 <1>  -0.3400 
  2 C        0.6980     1.4530     0.7040 C.3   1 <1>   0.8180 
  3 F        1.7580     2.2380     0.9000 F     1 <1>  -0.3400 
  4 C       -0.5390     2.3330     0.4660 C.2   1 <1>  -0.0620 
  5 C        1.0390     0.4210    -0.4020 C.3   1 <1>   0.6000 
  6 O       -1.6890     1.6550     0.3760 O.3   1 <1>  -0.1590 
  7 C       -0.5450     3.6790     0.3480 C.2   1 <1>  -0.1360 
  8 F        1.1590     1.0040    -1.5960 F     1 <1>  -0.3400 
  9 F        0.0750    -0.4850    -0.5720 F     1 <1>  -0.3400 
 10 C       -2.8780     2.2600     0.1620 C.ar  1 <1>   0.0830 
 11 C       -1.7440     4.4130     0.1260 C.2   1 <1>   0.4690 
 12 C       -2.9760     3.6550     0.0270 C.ar  1 <1>   0.0860 
 13 C       -3.9930     1.4400     0.0810 C.ar  1 <1>  -0.1500 
 14 O       -1.6710     5.6230     0.0320 O.2   1 <1>  -0.5700 
 15 C       -4.2610     4.1900    -0.1920 C.ar  1 <1>  -0.1430 
 16 C       -5.2410     1.9820    -0.1340 C.ar  1 <1>  -0.1430 
 17 C       -5.3630     3.3560    -0.2690 C.ar  1 <1>  -0.1500 
 18 C       -4.5030     5.6880    -0.3550 C.3   1 <1>  -0.0960 
 19 C       -6.4750     1.1010    -0.2260 C.3   1 <1>  -0.0970 
 20 H        1.9520    -0.1060    -0.1990 H     1 <1>   0.0800 
 21 H        0.3480     4.2750     0.4140 H     1 <1>   0.1500 
 22 H       -3.8690     0.3770     0.1890 H     1 <1>   0.1500 
 23 H       -6.3420     3.7710    -0.4370 H     1 <1>   0.1500 
 24 H       -4.1820     6.2110     0.5280 H     1 <1>   0.0800 
 25 H       -5.5430     5.9050    -0.5140 H     1 <1>   0.0800 
 26 H       -3.9500     6.0610    -1.1980 H     1 <1>   0.0800 
 27 H       -6.2190     0.0650    -0.0940 H     1 <1>   0.0800 
 28 H       -6.9380     1.2200    -1.1890 H     1 <1>   0.0800 
 29 H       -7.1800     1.3790     0.5370 H     1 <1>   0.0800 
@<TRIPOS>BOND
  1   1   2  1   
  2   2   3  1   
  3   2   4  1   
  4   2   5  1   
  5   4   6  1   
  6   4   7  2   
  7   5   8  1   
  8   5   9  1   
  9   5  20  1   
 10   6  10  1   
 11   7  11  1   
 12   7  21  1   
 13  10  12  ar  
 14  10  13  ar  
 15  11  12  1   
 16  11  14  2   
 17  12  15  ar  
 18  13  16  ar  
 19  13  22  1   
 20  15  17  ar  
 21  15  18  1   
 22  16  17  ar  
 23  16  19  1   
 24  17  23  1   
 25  18  24  1   
 26  18  25  1   
 27  18  26  1   
 28  19  27  1   
 29  19  28  1   
 30  19  29  1   
@<TRIPOS>SUBSTRUCTURE
  1 ****   6 GROUP 4 **** **** 0

# MOE 2024.06 (io_trps.svl 2023.06)
