@<TRIPOS>MOLECULE
NONAME
42 43 1 0 0 
SMALL
USER_CHARGES


@<TRIPOS>ATOM
  1 O        0.5090    -1.3660     1.2830 O.2   1 <1>  -0.5700 
  2 C        0.4160    -1.1740     0.0870 C.2   1 <1>   0.6900 
  3 N       -0.7380    -0.7590    -0.5030 N.am  1 <1>  -0.5470 
  4 N        1.4870    -1.3720    -0.7200 N.am  1 <1>  -0.7300 
  5 C       -2.0080    -0.4070    -0.0100 C.ar  1 <1>   0.1170 
  6 C        2.8170    -1.8330    -0.2570 C.3   1 <1>   0.1400 
  7 C       -3.0500    -0.2450    -0.9310 C.ar  1 <1>   0.0830 
  8 C       -2.2710    -0.2010     1.3410 C.ar  1 <1>  -0.1500 
  9 C        3.7540    -0.6360    -0.0820 C.3   1 <1>  -0.0220 
 10 O       -2.7530    -0.4450    -2.2520 O.3   1 <1>  -0.3630 
 11 C       -4.3230     0.1060    -0.4900 C.ar  1 <1>  -0.1500 
 12 C       -3.5390     0.1470     1.7730 C.ar  1 <1>  -0.1500 
 13 C        5.1560    -1.0790     0.3150 C.2   1 <1>  -0.2760 
 14 C       -3.7510    -0.3620    -3.2460 C.3   1 <1>   0.0400 
 15 C       -4.5640     0.3000     0.8590 C.ar  1 <1>  -0.1500 
 16 C        6.1870    -1.0640    -0.5380 C.2   1 <1>  -0.2880 
 17 C        5.2990    -1.5230     1.7690 C.3   1 <1>  -0.0220 
 18 C        7.6080    -1.4640    -0.1760 C.3   1 <1>  -0.0220 
 19 C        6.6210    -2.2680     2.0110 C.3   1 <1>  -0.1600 
 20 C        7.7970    -1.5420     1.3460 C.3   1 <1>  -0.1600 
 21 H       -0.7320    -0.8020    -1.5180 H     1 <1>   0.3700 
 22 H        1.4330    -1.0820    -1.6930 H     1 <1>   0.3700 
 23 H        3.2300    -2.5160    -0.9790 H     1 <1>   0.0800 
 24 H        2.7120    -2.3580     0.6780 H     1 <1>   0.0800 
 25 H       -1.4880    -0.3100     2.0670 H     1 <1>   0.1500 
 26 H        3.3590     0.0280     0.6670 H     1 <1>   0.0800 
 27 H        3.8050    -0.0990    -1.0130 H     1 <1>   0.0800 
 28 H       -5.1390     0.2350    -1.1740 H     1 <1>   0.1500 
 29 H       -3.7230     0.2990     2.8220 H     1 <1>   0.1500 
 30 H       -3.2980    -0.5780    -4.1960 H     1 <1>   0.0800 
 31 H       -4.1560     0.6350    -3.2530 H     1 <1>   0.0800 
 32 H       -4.5170    -1.0880    -3.0340 H     1 <1>   0.0800 
 33 H       -5.5490     0.5710     1.1980 H     1 <1>   0.1500 
 34 H        6.0910    -0.7640    -1.5680 H     1 <1>   0.1500 
 35 H        4.4880    -2.1700     2.0510 H     1 <1>   0.0800 
 36 H        5.2570    -0.6510     2.3990 H     1 <1>   0.0800 
 37 H        8.2990    -0.7440    -0.5790 H     1 <1>   0.0800 
 38 H        7.8220    -2.4200    -0.6200 H     1 <1>   0.0800 
 39 H        6.5440    -3.2600     1.6010 H     1 <1>   0.0800 
 40 H        6.7930    -2.3570     3.0690 H     1 <1>   0.0800 
 41 H        7.8610    -0.5440     1.7430 H     1 <1>   0.0800 
 42 H        8.7190    -2.0490     1.5690 H     1 <1>   0.0800 
@<TRIPOS>BOND
  1   1   2  2   
  2   2   3  am  
  3   2   4  am  
  4   3   5  1   
  5   3  21  1   
  6   4   6  1   
  7   4  22  1   
  8   5   7  ar  
  9   5   8  ar  
 10   6   9  1   
 11   6  23  1   
 12   6  24  1   
 13   7  10  1   
 14   7  11  ar  
 15   8  12  ar  
 16   8  25  1   
 17   9  13  1   
 18   9  26  1   
 19   9  27  1   
 20  10  14  1   
 21  11  15  ar  
 22  11  28  1   
 23  12  15  ar  
 24  12  29  1   
 25  13  16  2   
 26  13  17  1   
 27  14  30  1   
 28  14  31  1   
 29  14  32  1   
 30  15  33  1   
 31  16  18  1   
 32  16  34  1   
 33  17  19  1   
 34  17  35  1   
 35  17  36  1   
 36  18  20  1   
 37  18  37  1   
 38  18  38  1   
 39  19  20  1   
 40  19  39  1   
 41  19  40  1   
 42  20  41  1   
 43  20  42  1   
@<TRIPOS>SUBSTRUCTURE
  1 ****   2 GROUP 4 **** **** 0

# MOE 2024.06 (io_trps.svl 2023.06)
