@<TRIPOS>MOLECULE
NONAME
42 43 1 0 0 
SMALL
USER_CHARGES


@<TRIPOS>ATOM
  1 O        0.4460     0.5550    -1.0450 O.2   1 <1>  -0.5700 
  2 C        0.4110     1.7230    -0.7060 C.2   1 <1>   0.7800 
  3 O       -0.7440     2.2650    -0.3200 O.3   1 <1>  -0.4300 
  4 N        1.5250     2.5170    -0.6930 N.am  1 <1>  -0.6600 
  5 C       -1.9310     1.5060    -0.3110 C.3   1 <1>   0.1200 
  6 C        2.8710     1.9980    -1.0750 C.3   1 <1>   0.1400 
  7 C        1.5330     3.9290    -0.2030 C.3   1 <1>   0.1400 
  8 C       -3.0630     2.4040     0.1790 C.3   1 <1>  -0.2400 
  9 C        3.8700     2.1680     0.0820 C.3   1 <1>   0.1400 
 10 C        2.5260     4.0870     0.9580 C.3   1 <1>   0.1400 
 11 N        3.8800     3.5820     0.5720 N.am  1 <1>  -0.6600 
 12 C        4.8860     4.4610     0.2690 C.2   1 <1>   0.6900 
 13 O        4.6320     5.6300     0.0510 O.2   1 <1>  -0.5700 
 14 N        6.1670     3.9920     0.2420 N.am  1 <1>  -0.5470 
 15 C        7.3640     4.5800    -0.1910 C.ar  1 <1>   0.1170 
 16 C        8.5690     4.0930     0.3030 C.ar  1 <1>  -0.1500 
 17 C        7.4000     5.6200    -1.1140 C.ar  1 <1>  -0.1500 
 18 C        9.7810     4.6240    -0.1050 C.ar  1 <1>  -0.1440 
 19 C        8.6060     6.1580    -1.5260 C.ar  1 <1>  -0.1500 
 20 C        9.7950     5.6610    -1.0230 C.ar  1 <1>  -0.1500 
 21 C       11.0920     4.0880     0.4430 C.3   1 <1>  -0.0970 
 22 H       -1.7920     0.6640     0.3470 H     1 <1>   0.0800 
 23 H       -2.1190     1.1570    -1.3120 H     1 <1>   0.0800 
 24 H        3.2260     2.5420    -1.9330 H     1 <1>   0.0800 
 25 H        2.8130     0.9580    -1.3450 H     1 <1>   0.0800 
 26 H        0.5530     4.2290     0.1250 H     1 <1>   0.0800 
 27 H        1.8260     4.5820    -1.0080 H     1 <1>   0.0800 
 28 H       -2.8550     2.7530     1.1740 H     1 <1>   0.0800 
 29 H       -3.9840     1.8490     0.1950 H     1 <1>   0.0800 
 30 H       -3.1810     3.2440    -0.4810 H     1 <1>   0.0800 
 31 H        4.8460     1.8730    -0.2590 H     1 <1>   0.0800 
 32 H        3.5880     1.5160     0.8910 H     1 <1>   0.0800 
 33 H        2.1700     3.5320     1.8070 H     1 <1>   0.0800 
 34 H        2.5790     5.1240     1.2440 H     1 <1>   0.0800 
 35 H        6.2670     3.1160     0.7400 H     1 <1>   0.3700 
 36 H        8.5550     3.2920     1.0180 H     1 <1>   0.1500 
 37 H        6.4840     6.0140    -1.5150 H     1 <1>   0.1500 
 38 H        8.6170     6.9650    -2.2380 H     1 <1>   0.1500 
 39 H       10.7290     6.0860    -1.3470 H     1 <1>   0.1500 
 40 H       10.9350     3.1850     1.0040 H     1 <1>   0.0800 
 41 H       11.5420     4.8210     1.0880 H     1 <1>   0.0800 
 42 H       11.7680     3.8740    -0.3650 H     1 <1>   0.0800 
@<TRIPOS>BOND
  1   1   2  2   
  2   2   3  1   
  3   2   4  am  
  4   3   5  1   
  5   4   6  1   
  6   4   7  1   
  7   5   8  1   
  8   5  22  1   
  9   5  23  1   
 10   6   9  1   
 11   6  24  1   
 12   6  25  1   
 13   7  10  1   
 14   7  26  1   
 15   7  27  1   
 16   8  28  1   
 17   8  29  1   
 18   8  30  1   
 19   9  11  1   
 20   9  31  1   
 21   9  32  1   
 22  10  11  1   
 23  10  33  1   
 24  10  34  1   
 25  11  12  am  
 26  12  13  2   
 27  12  14  am  
 28  14  15  1   
 29  14  35  1   
 30  15  16  ar  
 31  15  17  ar  
 32  16  18  ar  
 33  16  36  1   
 34  17  19  ar  
 35  17  37  1   
 36  18  20  ar  
 37  18  21  1   
 38  19  20  ar  
 39  19  38  1   
 40  20  39  1   
 41  21  40  1   
 42  21  41  1   
 43  21  42  1   
@<TRIPOS>SUBSTRUCTURE
  1 ****  11 GROUP 4 **** **** 0

# MOE 2024.06 (io_trps.svl 2023.06)
