@<TRIPOS>MOLECULE
NONAME
51 53 1 0 0 
SMALL
USER_CHARGES


@<TRIPOS>ATOM
  1 S       -0.3340     0.3050     1.8140 S.o2  1 <1>   1.4470 
  2 O        0.2650    -0.6470     2.7270 O.2   1 <1>  -0.6500 
  3 O       -1.1790     1.3520     2.3450 O.2   1 <1>  -0.6500 
  4 N        0.9550     1.0610     1.0090 N.am  1 <1>  -0.8490 
  5 C       -1.2100    -0.5610     0.4820 C.ar  1 <1>  -0.0090 
  6 C        1.9440     0.0910     0.5310 C.3   1 <1>   0.1960 
  7 C        1.5660     2.0950     1.8470 C.3   1 <1>   0.1960 
  8 C       -1.5640     0.1000    -0.6880 C.ar  1 <1>  -0.1500 
  9 C       -1.5500    -1.9040     0.5950 C.ar  1 <1>  -0.1500 
 10 C        3.0120     0.7940    -0.3100 C.3   1 <1>  -0.1600 
 11 C        2.6330     2.8590     1.0570 C.3   1 <1>  -0.1600 
 12 C       -2.2270    -0.5550    -1.7110 C.ar  1 <1>  -0.1500 
 13 C       -2.2130    -2.5650    -0.4250 C.ar  1 <1>  -0.1500 
 14 C        3.7020     1.9100     0.4910 C.3   1 <1>  -0.0190 
 15 C       -2.5560    -1.8930    -1.5850 C.ar  1 <1>  -0.1440 
 16 C        4.7340     2.6570    -0.3540 C.2   1 <1>   0.5690 
 17 C       -3.2820    -2.6140    -2.7060 C.3   1 <1>  -0.0970 
 18 O        4.3630     3.2410    -1.3420 O.2   1 <1>  -0.5700 
 19 N        6.0390     2.6130     0.0570 N.am  1 <1>  -0.5470 
 20 C        7.2060     3.1840    -0.4790 C.ar  1 <1>   0.1170 
 21 C        8.4330     2.6870    -0.0610 C.ar  1 <1>  -0.1500 
 22 C        7.1980     4.2330    -1.3940 C.ar  1 <1>  -0.1500 
 23 C        9.6230     3.2070    -0.5370 C.ar  1 <1>   0.0820 
 24 C        8.3820     4.7600    -1.8800 C.ar  1 <1>  -0.1500 
 25 O       10.7650     2.6460    -0.0640 O.3   1 <1>  -0.3630 
 26 C        9.5960     4.2520    -1.4560 C.ar  1 <1>  -0.1500 
 27 C       12.0310     3.0910    -0.4980 C.3   1 <1>   0.0400 
 28 H        1.4580    -0.6540    -0.0780 H     1 <1>   0.0800 
 29 H        2.4060    -0.4080     1.3670 H     1 <1>   0.0800 
 30 H        2.0000     1.6450     2.7250 H     1 <1>   0.0800 
 31 H        0.8130     2.7970     2.1680 H     1 <1>   0.0800 
 32 H       -1.3140     1.1430    -0.7970 H     1 <1>   0.1500 
 33 H       -1.2920    -2.4410     1.4920 H     1 <1>   0.1500 
 34 H        2.5460     1.2080    -1.1880 H     1 <1>   0.0800 
 35 H        3.7420     0.0740    -0.6360 H     1 <1>   0.0800 
 36 H        3.0960     3.5890     1.6970 H     1 <1>   0.0800 
 37 H        2.1520     3.3880     0.2520 H     1 <1>   0.0800 
 38 H       -2.4850    -0.0150    -2.6070 H     1 <1>   0.1500 
 39 H       -2.4610    -3.6060    -0.3100 H     1 <1>   0.1500 
 40 H        4.2100     1.4530     1.3220 H     1 <1>   0.0800 
 41 H       -3.9210    -1.9340    -3.2380 H     1 <1>   0.0800 
 42 H       -3.8890    -3.4090    -2.3110 H     1 <1>   0.0800 
 43 H       -2.5680    -3.0300    -3.3930 H     1 <1>   0.0800 
 44 H        6.2100     2.0360     0.8760 H     1 <1>   0.3700 
 45 H        8.4780     1.8790     0.6440 H     1 <1>   0.1500 
 46 H        6.2680     4.6490    -1.7350 H     1 <1>   0.1500 
 47 H        8.3540     5.5690    -2.5890 H     1 <1>   0.1500 
 48 H       10.5000     4.6790    -1.8470 H     1 <1>   0.1500 
 49 H       12.7800     2.5030     0.0020 H     1 <1>   0.0800 
 50 H       12.1460     4.1280    -0.2360 H     1 <1>   0.0800 
 51 H       12.1060     2.9500    -1.5610 H     1 <1>   0.0800 
@<TRIPOS>BOND
  1   1   2  2   
  2   1   3  2   
  3   1   4  am  
  4   1   5  1   
  5   4   6  1   
  6   4   7  1   
  7   5   8  ar  
  8   5   9  ar  
  9   6  10  1   
 10   6  28  1   
 11   6  29  1   
 12   7  11  1   
 13   7  30  1   
 14   7  31  1   
 15   8  12  ar  
 16   8  32  1   
 17   9  13  ar  
 18   9  33  1   
 19  10  14  1   
 20  10  34  1   
 21  10  35  1   
 22  11  14  1   
 23  11  36  1   
 24  11  37  1   
 25  12  15  ar  
 26  12  38  1   
 27  13  15  ar  
 28  13  39  1   
 29  14  16  1   
 30  14  40  1   
 31  15  17  1   
 32  16  18  2   
 33  16  19  am  
 34  17  41  1   
 35  17  42  1   
 36  17  43  1   
 37  19  20  1   
 38  19  44  1   
 39  20  21  ar  
 40  20  22  ar  
 41  21  23  ar  
 42  21  45  1   
 43  22  24  ar  
 44  22  46  1   
 45  23  25  1   
 46  23  26  ar  
 47  24  26  ar  
 48  24  47  1   
 49  25  27  1   
 50  26  48  1   
 51  27  49  1   
 52  27  50  1   
 53  27  51  1   
@<TRIPOS>SUBSTRUCTURE
  1 ****  10 GROUP 4 **** **** 0

# MOE 2024.06 (io_trps.svl 2023.06)
