@<TRIPOS>MOLECULE
NONAME
54 56 1 0 0 
SMALL
USER_CHARGES


@<TRIPOS>ATOM
  1 O        0.0110    -0.7160     0.6660 O.2   1 <1>  -0.5700 
  2 C       -0.0400    -1.4480    -0.2940 C.2   1 <1>   0.5690 
  3 N       -1.2010    -1.6650    -0.9730 N.am  1 <1>  -0.7300 
  4 C        1.2730    -2.1240    -0.7350 C.3   1 <1>   0.4040 
  5 C       -2.4980    -1.0200    -0.6340 C.3   1 <1>   0.1400 
  6 N        2.5060    -1.4060    -0.2350 N.4   1 <1>  -0.9590 
  7 C       -3.3910    -1.9940     0.1350 C.3   1 <1>  -0.0170 
  8 C        2.6680    -0.0720    -0.8840 C.3   1 <1>   0.3430 
  9 C        3.7350    -2.2420    -0.3180 C.3   1 <1>   0.3430 
 10 C       -4.7360    -1.3480     0.4190 C.ar  1 <1>  -0.1440 
 11 C        3.8170     0.6860    -0.2190 C.3   1 <1>  -0.1600 
 12 C        4.8970    -1.5140     0.3540 C.3   1 <1>  -0.1600 
 13 C       -4.8980    -0.5400     1.5340 C.ar  1 <1>  -0.1500 
 14 C       -5.8090    -1.5550    -0.4340 C.ar  1 <1>  -0.1500 
 15 C        5.1270    -0.1170    -0.2510 C.3   1 <1>  -0.0800 
 16 C       -6.1200     0.0570     1.7920 C.ar  1 <1>  -0.1500 
 17 C       -7.0310    -0.9580    -0.1760 C.ar  1 <1>  -0.1500 
 18 C        6.2540     0.6450     0.4730 C.3   1 <1>  -0.0170 
 19 C       -7.1870    -0.1520     0.9370 C.ar  1 <1>  -0.1500 
 20 C        7.5680    -0.1190     0.4170 C.ar  1 <1>  -0.1440 
 21 C        8.0420    -0.7880     1.5360 C.ar  1 <1>  -0.1500 
 22 C        8.3030    -0.1580    -0.7580 C.ar  1 <1>  -0.1500 
 23 C        9.2300    -1.4960     1.4770 C.ar  1 <1>  -0.1500 
 24 C        9.4910    -0.8660    -0.8180 C.ar  1 <1>  -0.1500 
 25 C        9.9540    -1.5370     0.2990 C.ar  1 <1>  -0.1500 
 26 H       -1.2570    -2.3150    -1.7630 H     1 <1>   0.3700 
 27 H        1.2940    -2.1790    -1.8090 H     1 <1>   0.0800 
 28 H        1.2640    -3.1270    -0.3470 H     1 <1>   0.0800 
 29 H       -2.9930    -0.7100    -1.5390 H     1 <1>   0.0800 
 30 H       -2.3300    -0.1410    -0.0320 H     1 <1>   0.0800 
 31 H        2.3110    -1.2010     0.7600 H     1 <1>   0.4500 
 32 H       -2.9190    -2.2590     1.0640 H     1 <1>   0.0800 
 33 H       -3.5380    -2.8910    -0.4400 H     1 <1>   0.0800 
 34 H        1.7590     0.5010    -0.7830 H     1 <1>   0.0800 
 35 H        2.8790    -0.1970    -1.9340 H     1 <1>   0.0800 
 36 H        3.9810    -2.4310    -1.3510 H     1 <1>   0.0800 
 37 H        3.5750    -3.1890     0.1730 H     1 <1>   0.0800 
 38 H        3.5440     0.9170     0.7960 H     1 <1>   0.0800 
 39 H        3.9560     1.6210    -0.7340 H     1 <1>   0.0800 
 40 H        5.7820    -2.1140     0.2290 H     1 <1>   0.0800 
 41 H        4.7080    -1.4370     1.4100 H     1 <1>   0.0800 
 42 H       -4.0750    -0.3690     2.2060 H     1 <1>   0.1500 
 43 H       -5.7030    -2.1800    -1.3030 H     1 <1>   0.1500 
 44 H        5.4230    -0.2400    -1.2810 H     1 <1>   0.0800 
 45 H       -6.2400     0.6840     2.6590 H     1 <1>   0.1500 
 46 H       -7.8610    -1.1220    -0.8410 H     1 <1>   0.1500 
 47 H        5.9810     0.8200     1.4990 H     1 <1>   0.0800 
 48 H        6.3970     1.6070     0.0110 H     1 <1>   0.0800 
 49 H       -8.1370     0.3120     1.1380 H     1 <1>   0.1500 
 50 H        7.4920    -0.7630     2.4600 H     1 <1>   0.1500 
 51 H        7.9570     0.3630    -1.6330 H     1 <1>   0.1500 
 52 H        9.5930    -2.0130     2.3480 H     1 <1>   0.1500 
 53 H       10.0570    -0.8920    -1.7330 H     1 <1>   0.1500 
 54 H       10.8780    -2.0870     0.2530 H     1 <1>   0.1500 
@<TRIPOS>BOND
  1   1   2  2   
  2   2   3  am  
  3   2   4  1   
  4   3   5  1   
  5   3  26  1   
  6   4   6  1   
  7   4  27  1   
  8   4  28  1   
  9   5   7  1   
 10   5  29  1   
 11   5  30  1   
 12   6   8  1   
 13   6   9  1   
 14   6  31  1   
 15   7  10  1   
 16   7  32  1   
 17   7  33  1   
 18   8  11  1   
 19   8  34  1   
 20   8  35  1   
 21   9  12  1   
 22   9  36  1   
 23   9  37  1   
 24  10  13  ar  
 25  10  14  ar  
 26  11  15  1   
 27  11  38  1   
 28  11  39  1   
 29  12  15  1   
 30  12  40  1   
 31  12  41  1   
 32  13  16  ar  
 33  13  42  1   
 34  14  17  ar  
 35  14  43  1   
 36  15  18  1   
 37  15  44  1   
 38  16  19  ar  
 39  16  45  1   
 40  17  19  ar  
 41  17  46  1   
 42  18  20  1   
 43  18  47  1   
 44  18  48  1   
 45  19  49  1   
 46  20  21  ar  
 47  20  22  ar  
 48  21  23  ar  
 49  21  50  1   
 50  22  24  ar  
 51  22  51  1   
 52  23  25  ar  
 53  23  52  1   
 54  24  25  ar  
 55  24  53  1   
 56  25  54  1   
@<TRIPOS>SUBSTRUCTURE
  1 ****   6 GROUP 4 **** **** 0

# MOE 2024.06 (io_trps.svl 2023.06)
