@<TRIPOS>MOLECULE
NONAME
45 48 1 0 0 
SMALL
USER_CHARGES


@<TRIPOS>ATOM
  1 O       -1.0900    -1.0300    -3.2890 O.2   1 <1>  -0.5700 
  2 C       -0.3680    -1.2360    -2.3430 C.2   1 <1>   0.5690 
  3 N       -0.7730    -1.2250    -1.0380 N.am  1 <1>  -0.5470 
  4 C        1.1130    -1.5320    -2.5850 C.3   1 <1>   0.1710 
  5 C       -2.0100    -1.0080    -0.4110 C.ar  1 <1>   0.1170 
  6 N        1.9860    -1.2100    -1.4160 N.3   1 <1>  -0.8100 
  7 C       -2.0260    -0.8770     0.9760 C.ar  1 <1>  -0.1500 
  8 C       -3.2180    -0.9240    -1.1160 C.ar  1 <1>  -0.1500 
  9 C        2.1820     0.2580    -1.2890 C.3   1 <1>   0.1100 
 10 C        3.3070    -1.8710    -1.5500 C.3   1 <1>   0.1100 
 11 C       -3.2330    -0.6670     1.6090 C.ar  1 <1>   0.0820 
 12 C       -4.4250    -0.7110    -0.4630 C.ar  1 <1>  -0.1500 
 13 C        3.1060     0.6270    -0.1110 C.3   1 <1>   0.2090 
 14 C        4.2460    -1.5420    -0.3750 C.3   1 <1>   0.2090 
 15 O       -3.4680    -0.5170     2.9170 O.3   1 <1>  -0.3630 
 16 C       -4.4010    -0.5850     0.9110 C.ar  1 <1>   0.0820 
 17 N        4.4180    -0.0670    -0.2230 N.pl3 1 <1>  -0.8380 
 18 C       -4.8760    -0.3300     3.0600 C.3   1 <1>   0.4000 
 19 O       -5.4280    -0.3790     1.7460 O.3   1 <1>  -0.3630 
 20 C        5.4180     0.3820     0.6170 C.ar  1 <1>   0.4100 
 21 N        5.6940    -0.3520     1.6900 N.ar  1 <1>  -0.6200 
 22 C        6.0750     1.5720     0.3170 C.ar  1 <1>  -0.1500 
 23 C        6.6460     0.1160     2.4790 C.ar  1 <1>   0.1600 
 24 C        7.0630     2.0480     1.1480 C.ar  1 <1>  -0.1500 
 25 C        7.3490     1.2880     2.2630 C.ar  1 <1>  -0.1500 
 26 H        0.0300    -1.3560    -0.4140 H     1 <1>   0.3700 
 27 H        1.4410    -0.9870    -3.4530 H     1 <1>   0.0800 
 28 H        1.1890    -2.5810    -2.8070 H     1 <1>   0.0800 
 29 H       -1.1240    -0.9370     1.5550 H     1 <1>   0.1500 
 30 H       -3.2240    -1.0270    -2.1850 H     1 <1>   0.1500 
 31 H        1.2320     0.7410    -1.1430 H     1 <1>   0.0800 
 32 H        2.6170     0.6480    -2.1940 H     1 <1>   0.0800 
 33 H        3.7820    -1.5590    -2.4650 H     1 <1>   0.0800 
 34 H        3.1700    -2.9380    -1.5900 H     1 <1>   0.0800 
 35 H       -5.3530    -0.6460    -1.0010 H     1 <1>   0.1500 
 36 H        2.6340     0.3460     0.8150 H     1 <1>   0.0800 
 37 H        3.2600     1.6920    -0.0980 H     1 <1>   0.0800 
 38 H        5.2080    -1.9950    -0.5420 H     1 <1>   0.0800 
 39 H        3.8380    -1.9510     0.5340 H     1 <1>   0.0800 
 40 H       -5.0690     0.6340     3.4970 H     1 <1>   0.0800 
 41 H       -5.2870    -1.1270     3.6540 H     1 <1>   0.0800 
 42 H        5.7990     2.1020    -0.5730 H     1 <1>   0.1500 
 43 H        6.8790    -0.4700     3.3520 H     1 <1>   0.1500 
 44 H        7.5870     2.9640     0.9390 H     1 <1>   0.1500 
 45 H        8.1100     1.5990     2.9550 H     1 <1>   0.1500 
@<TRIPOS>BOND
  1   1   2  2   
  2   2   3  am  
  3   2   4  1   
  4   3   5  1   
  5   3  26  1   
  6   4   6  1   
  7   4  27  1   
  8   4  28  1   
  9   5   7  ar  
 10   5   8  ar  
 11   6   9  1   
 12   6  10  1   
 13   7  11  ar  
 14   7  29  1   
 15   8  12  ar  
 16   8  30  1   
 17   9  13  1   
 18   9  31  1   
 19   9  32  1   
 20  10  14  1   
 21  10  33  1   
 22  10  34  1   
 23  11  15  1   
 24  11  16  ar  
 25  12  16  ar  
 26  12  35  1   
 27  13  17  1   
 28  13  36  1   
 29  13  37  1   
 30  14  17  1   
 31  14  38  1   
 32  14  39  1   
 33  15  18  1   
 34  16  19  1   
 35  17  20  1   
 36  18  19  1   
 37  18  40  1   
 38  18  41  1   
 39  20  21  ar  
 40  20  22  ar  
 41  21  23  ar  
 42  22  24  ar  
 43  22  42  1   
 44  23  25  ar  
 45  23  43  1   
 46  24  25  ar  
 47  24  44  1   
 48  25  45  1   
@<TRIPOS>SUBSTRUCTURE
  1 ****   9 GROUP 4 **** **** 0

# MOE 2024.06 (io_trps.svl 2023.06)
