@<TRIPOS>MOLECULE
NONAME
51 52 1 0 0 
SMALL
USER_CHARGES


@<TRIPOS>ATOM
  1 O        6.3870    -8.2610    -0.8620 O.3   1 <1>  -0.5600 
  2 C        6.4370    -7.2870     0.1390 C.3   1 <1>   0.1200 
  3 C        5.2340    -9.0520    -0.8570 C.3   1 <1>   0.1200 
  4 C        5.2450    -6.3210     0.0020 C.3   1 <1>   0.3430 
  5 C        3.9830    -8.1710    -1.0400 C.3   1 <1>   0.3430 
  6 N        3.9320    -7.0580    -0.0230 N.4   1 <1>  -0.9590 
  7 C        2.7990    -6.1190    -0.2590 C.3   1 <1>   0.3430 
  8 C        1.4690    -6.8050     0.0400 C.3   1 <1>  -0.1600 
  9 C        0.3070    -5.8240    -0.1070 C.3   1 <1>   0.1200 
 10 O       -0.8690    -6.5370     0.1720 O.3   1 <1>  -0.3630 
 11 C       -2.0930    -5.9470     0.1170 C.ar  1 <1>   0.0830 
 12 C       -3.2040    -6.7310     0.4040 C.ar  1 <1>  -0.1430 
 13 C       -2.2760    -4.6080    -0.2100 C.ar  1 <1>  -0.1500 
 14 C       -4.4720    -6.1730     0.3590 C.ar  1 <1>  -0.1500 
 15 C       -3.0410    -8.2010     0.7670 C.3   1 <1>  -0.0970 
 16 C       -3.5470    -4.0670    -0.2500 C.ar  1 <1>  -0.1500 
 17 C       -4.6720    -4.8340     0.0320 C.ar  1 <1>  -0.1430 
 18 C       -6.0710    -4.1790    -0.0270 C.3   1 <1>   0.1430 
 19 C       -6.1400    -3.0220     0.9800 C.3   1 <1>  -0.2400 
 20 C       -6.3270    -3.6400    -1.4420 C.3   1 <1>  -0.2400 
 21 C       -7.2130    -5.1530     0.3100 C.3   1 <1>  -0.2400 
 22 H        7.3640    -6.7510     0.0250 H     1 <1>   0.0800 
 23 H        6.4400    -7.7740     1.0990 H     1 <1>   0.0800 
 24 H        5.1930    -9.6030     0.0660 H     1 <1>   0.0800 
 25 H        5.3160    -9.7520    -1.6700 H     1 <1>   0.0800 
 26 H        5.3680    -5.7640    -0.9130 H     1 <1>   0.0800 
 27 H        5.2610    -5.6200     0.8200 H     1 <1>   0.0800 
 28 H        3.1040    -8.7890    -0.9600 H     1 <1>   0.0800 
 29 H        4.0050    -7.7550    -2.0340 H     1 <1>   0.0800 
 30 H        3.8040    -7.4900     0.9020 H     1 <1>   0.4500 
 31 H        2.8140    -5.7720    -1.2800 H     1 <1>   0.0800 
 32 H        2.9010    -5.2620     0.3890 H     1 <1>   0.0800 
 33 H        1.4700    -7.1780     1.0500 H     1 <1>   0.0800 
 34 H        1.3040    -7.6180    -0.6440 H     1 <1>   0.0800 
 35 H        0.2380    -5.4450    -1.1130 H     1 <1>   0.0800 
 36 H        0.3830    -5.0140     0.5980 H     1 <1>   0.0800 
 37 H       -1.4490    -3.9650    -0.4380 H     1 <1>   0.1500 
 38 H       -5.3050    -6.8100     0.5860 H     1 <1>   0.1500 
 39 H       -2.4350    -8.2910     1.6500 H     1 <1>   0.0800 
 40 H       -2.5610    -8.7230    -0.0400 H     1 <1>   0.0800 
 41 H       -3.9920    -8.6640     0.9560 H     1 <1>   0.0800 
 42 H       -3.6520    -3.0290    -0.5070 H     1 <1>   0.1500 
 43 H       -5.9260    -3.3840     1.9700 H     1 <1>   0.0800 
 44 H       -7.1190    -2.5760     0.9820 H     1 <1>   0.0800 
 45 H       -5.4260    -2.2560     0.7410 H     1 <1>   0.0800 
 46 H       -5.6140    -2.8800    -1.7030 H     1 <1>   0.0800 
 47 H       -7.3110    -3.2140    -1.5150 H     1 <1>   0.0800 
 48 H       -6.2440    -4.4380    -2.1590 H     1 <1>   0.0800 
 49 H       -7.0970    -5.5410     1.3060 H     1 <1>   0.0800 
 50 H       -7.2270    -5.9730    -0.3860 H     1 <1>   0.0800 
 51 H       -8.1650    -4.6550     0.2560 H     1 <1>   0.0800 
@<TRIPOS>BOND
  1   1   2  1   
  2   1   3  1   
  3   2   4  1   
  4   2  22  1   
  5   2  23  1   
  6   3   5  1   
  7   3  24  1   
  8   3  25  1   
  9   4   6  1   
 10   4  26  1   
 11   4  27  1   
 12   5   6  1   
 13   5  28  1   
 14   5  29  1   
 15   6   7  1   
 16   6  30  1   
 17   7   8  1   
 18   7  31  1   
 19   7  32  1   
 20   8   9  1   
 21   8  33  1   
 22   8  34  1   
 23   9  10  1   
 24   9  35  1   
 25   9  36  1   
 26  10  11  1   
 27  11  12  ar  
 28  11  13  ar  
 29  12  14  ar  
 30  12  15  1   
 31  13  16  ar  
 32  13  37  1   
 33  14  17  ar  
 34  14  38  1   
 35  15  39  1   
 36  15  40  1   
 37  15  41  1   
 38  16  17  ar  
 39  16  42  1   
 40  17  18  1   
 41  18  19  1   
 42  18  20  1   
 43  18  21  1   
 44  19  43  1   
 45  19  44  1   
 46  19  45  1   
 47  20  46  1   
 48  20  47  1   
 49  20  48  1   
 50  21  49  1   
 51  21  50  1   
 52  21  51  1   
@<TRIPOS>SUBSTRUCTURE
  1 ****  10 GROUP 4 **** **** 0

# MOE 2024.06 (io_trps.svl 2023.06)
