@<TRIPOS>MOLECULE
NONAME
47 48 1 0 0 
SMALL
USER_CHARGES


@<TRIPOS>ATOM
  1 O       -0.2220     0.3760    -0.9000 O.2   1 <1>  -0.5700 
  2 C       -0.2020     1.4170    -0.2740 C.2   1 <1>   0.6160 
  3 N        1.0040     1.8920     0.1620 N.am  1 <1>  -0.7300 
  4 C       -1.4130     2.1480    -0.0010 C.2   1 <1>   0.0790 
  5 C        2.3210     1.2850    -0.1210 C.3   1 <1>   0.2200 
  6 C       -2.5550     1.3100     0.2080 C.1   1 <1>   0.4920 
  7 C       -1.4600     3.5080     0.0680 C.2   1 <1>  -0.1780 
  8 C        3.2670     2.3370    -0.7400 C.3   1 <1>  -0.0800 
  9 C        2.8830     0.7270     1.1910 C.3   1 <1>  -0.1600 
 10 N       -3.5010     0.6950     0.3820 N.1   1 <1>  -0.5570 
 11 C       -2.5670     4.3940     0.3330 C.ar  1 <1>   0.0280 
 12 C        4.6750     1.7440    -0.9320 C.3   1 <1>  -0.1600 
 13 C        2.7420     2.8630    -2.0870 C.3   1 <1>  -0.2400 
 14 C        4.2890     0.1430     0.9920 C.3   1 <1>  -0.1600 
 15 C       -3.8690     4.1430    -0.0950 C.ar  1 <1>  -0.1500 
 16 C       -2.3410     5.5750     1.0350 C.ar  1 <1>  -0.1500 
 17 C        5.2360     1.1830     0.3810 C.3   1 <1>  -0.1600 
 18 C       -4.9140     5.0120     0.1980 C.ar  1 <1>   0.0830 
 19 C       -3.3670     6.4570     1.3160 C.ar  1 <1>  -0.1500 
 20 O       -6.1970     4.7670    -0.1800 O.3   1 <1>  -0.3630 
 21 C       -4.6600     6.1830     0.9040 C.ar  1 <1>  -0.1430 
 22 C       -6.6020     3.4850    -0.6110 C.3   1 <1>   0.0400 
 23 C       -5.7850     7.1570     1.2260 C.3   1 <1>  -0.0970 
 24 H        1.0400     2.7120     0.7660 H     1 <1>   0.3700 
 25 H        2.2060     0.4720    -0.8190 H     1 <1>   0.0800 
 26 H       -0.5440     4.0490    -0.0910 H     1 <1>   0.1500 
 27 H        3.3510     3.1650    -0.0580 H     1 <1>   0.0800 
 28 H        2.9310     1.5090     1.9280 H     1 <1>   0.0800 
 29 H        2.2300    -0.0470     1.5550 H     1 <1>   0.0800 
 30 H        4.6350     0.9540    -1.6640 H     1 <1>   0.0800 
 31 H        5.3410     2.5030    -1.3050 H     1 <1>   0.0800 
 32 H        2.6160     2.0520    -2.7840 H     1 <1>   0.0800 
 33 H        3.4330     3.5720    -2.5080 H     1 <1>   0.0800 
 34 H        1.7930     3.3530    -1.9630 H     1 <1>   0.0800 
 35 H        4.6800    -0.1910     1.9380 H     1 <1>   0.0800 
 36 H        4.2300    -0.7120     0.3400 H     1 <1>   0.0800 
 37 H       -4.0630     3.2650    -0.6750 H     1 <1>   0.1500 
 38 H       -1.3470     5.8110     1.3720 H     1 <1>   0.1500 
 39 H        6.1960     0.7310     0.1970 H     1 <1>   0.0800 
 40 H        5.3820     1.9890     1.0810 H     1 <1>   0.0800 
 41 H       -3.1560     7.3600     1.8620 H     1 <1>   0.1500 
 42 H       -7.6730     3.4880    -0.7090 H     1 <1>   0.0800 
 43 H       -6.3040     2.7570     0.1240 H     1 <1>   0.0800 
 44 H       -6.1500     3.2770    -1.5640 H     1 <1>   0.0800 
 45 H       -5.4200     8.0120     1.7650 H     1 <1>   0.0800 
 46 H       -6.5310     6.6650     1.8250 H     1 <1>   0.0800 
 47 H       -6.2450     7.4950     0.3150 H     1 <1>   0.0800 
@<TRIPOS>BOND
  1   1   2  2   
  2   2   3  am  
  3   2   4  1   
  4   3   5  1   
  5   3  24  1   
  6   4   6  1   
  7   4   7  2   
  8   5   8  1   
  9   5   9  1   
 10   5  25  1   
 11   6  10  3   
 12   7  11  1   
 13   7  26  1   
 14   8  12  1   
 15   8  13  1   
 16   8  27  1   
 17   9  14  1   
 18   9  28  1   
 19   9  29  1   
 20  11  15  ar  
 21  11  16  ar  
 22  12  17  1   
 23  12  30  1   
 24  12  31  1   
 25  13  32  1   
 26  13  33  1   
 27  13  34  1   
 28  14  17  1   
 29  14  35  1   
 30  14  36  1   
 31  15  18  ar  
 32  15  37  1   
 33  16  19  ar  
 34  16  38  1   
 35  17  39  1   
 36  17  40  1   
 37  18  20  1   
 38  18  21  ar  
 39  19  21  ar  
 40  19  41  1   
 41  20  22  1   
 42  21  23  1   
 43  22  42  1   
 44  22  43  1   
 45  22  44  1   
 46  23  45  1   
 47  23  46  1   
 48  23  47  1   
@<TRIPOS>SUBSTRUCTURE
  1 ****   7 GROUP 4 **** **** 0

# MOE 2024.06 (io_trps.svl 2023.06)
