@<TRIPOS>MOLECULE
NONAME
47 50 1 0 0 
SMALL
USER_CHARGES


@<TRIPOS>ATOM
  1 N        0.2280     0.5640     0.3870 N.ar  1 <1>  -0.1790 
  2 C        0.6500     1.8180     0.5720 C.ar  1 <1>   0.4610 
  3 C       -1.0440     0.2020    -0.0100 C.ar  1 <1>   0.3610 
  4 N        1.9540     1.9920     0.8730 N.pl3 1 <1>  -0.8380 
  5 C       -0.3200     2.8600     0.4090 C.ar  1 <1>  -0.1430 
  6 C       -1.9880     1.2160    -0.2220 C.ar  1 <1>   0.0000 
  7 C       -1.4010    -1.1350    -0.2150 C.ar  1 <1>  -0.1500 
  8 C        2.8110     3.0980     0.3090 C.3   1 <1>   0.2090 
  9 C        2.7630     1.1090     1.7960 C.3   1 <1>   0.2090 
 10 C       -1.5890     2.5580     0.0130 C.ar  1 <1>  -0.1500 
 11 C       -0.0080     4.3200     0.7320 C.3   1 <1>  -0.0970 
 12 C       -3.2750     0.8590    -0.6400 C.ar  1 <1>  -0.1500 
 13 C       -2.6710    -1.4690    -0.6260 C.ar  1 <1>  -0.1430 
 14 C        4.0940     2.5570    -0.3570 C.3   1 <1>   0.2090 
 15 C        4.0360     0.5610     1.1230 C.3   1 <1>   0.2090 
 16 C       -3.6090    -0.4590    -0.8380 C.ar  1 <1>  -0.1500 
 17 C       -3.0800    -2.9140    -0.8550 C.3   1 <1>  -0.0970 
 18 N        4.8660     1.6570     0.5480 N.pl3 1 <1>  -0.8380 
 19 C        6.0820     1.2580     0.0400 C.ar  1 <1>   0.4100 
 20 N        6.0560     0.3130    -0.8930 N.ar  1 <1>  -0.6200 
 21 C        7.2510     1.8520     0.5050 C.ar  1 <1>  -0.1500 
 22 C        7.2360    -0.0460    -1.3740 C.ar  1 <1>   0.1600 
 23 C        8.4690     1.4670    -0.0040 C.ar  1 <1>  -0.1500 
 24 C        8.4490     0.4860    -0.9750 C.ar  1 <1>  -0.1500 
 25 H        0.9360    -0.1560     0.4540 H     1 <1>   0.4570 
 26 H       -0.6760    -1.9120    -0.0520 H     1 <1>   0.1500 
 27 H        3.0880     3.7780     1.0960 H     1 <1>   0.0800 
 28 H        2.2710     3.6460    -0.4400 H     1 <1>   0.0800 
 29 H        2.1720     0.2920     2.1680 H     1 <1>   0.0800 
 30 H        3.0670     1.6920     2.6490 H     1 <1>   0.0800 
 31 H       -2.3360     3.3240    -0.1190 H     1 <1>   0.1500 
 32 H        0.4610     4.8050    -0.1040 H     1 <1>   0.0800 
 33 H        0.6320     4.3900     1.5940 H     1 <1>   0.0800 
 34 H       -0.9110     4.8600     0.9580 H     1 <1>   0.0800 
 35 H       -4.0100     1.6290    -0.8070 H     1 <1>   0.1500 
 36 H        4.7190     3.3850    -0.6460 H     1 <1>   0.0800 
 37 H        3.8320     2.0190    -1.2510 H     1 <1>   0.0800 
 38 H        3.7650    -0.1290     0.3430 H     1 <1>   0.0800 
 39 H        4.6230     0.0250     1.8490 H     1 <1>   0.0800 
 40 H       -4.6040    -0.7210    -1.1600 H     1 <1>   0.1500 
 41 H       -2.2630    -3.5880    -0.6660 H     1 <1>   0.0800 
 42 H       -3.4030    -3.0480    -1.8720 H     1 <1>   0.0800 
 43 H       -3.8930    -3.1740    -0.2000 H     1 <1>   0.0800 
 44 H        7.1800     2.6080     1.2630 H     1 <1>   0.1500 
 45 H        7.2370    -0.8100    -2.1320 H     1 <1>   0.1500 
 46 H        9.3900     1.9070     0.3350 H     1 <1>   0.1500 
 47 H        9.3650     0.1380    -1.4170 H     1 <1>   0.1500 
@<TRIPOS>BOND
  1   1   2  ar  
  2   1   3  ar  
  3   1  25  1   
  4   2   4  1   
  5   2   5  ar  
  6   3   6  ar  
  7   3   7  ar  
  8   4   8  1   
  9   4   9  1   
 10   5  10  ar  
 11   5  11  1   
 12   6  10  ar  
 13   6  12  ar  
 14   7  13  ar  
 15   7  26  1   
 16   8  14  1   
 17   8  27  1   
 18   8  28  1   
 19   9  15  1   
 20   9  29  1   
 21   9  30  1   
 22  10  31  1   
 23  11  32  1   
 24  11  33  1   
 25  11  34  1   
 26  12  16  ar  
 27  12  35  1   
 28  13  16  ar  
 29  13  17  1   
 30  14  18  1   
 31  14  36  1   
 32  14  37  1   
 33  15  18  1   
 34  15  38  1   
 35  15  39  1   
 36  16  40  1   
 37  17  41  1   
 38  17  42  1   
 39  17  43  1   
 40  18  19  1   
 41  19  20  ar  
 42  19  21  ar  
 43  20  22  ar  
 44  21  23  ar  
 45  21  44  1   
 46  22  24  ar  
 47  22  45  1   
 48  23  24  ar  
 49  23  46  1   
 50  24  47  1   
@<TRIPOS>SUBSTRUCTURE
  1 ****   4 GROUP 4 **** **** 0

# MOE 2024.06 (io_trps.svl 2023.06)
