@<TRIPOS>MOLECULE
NONAME
50 52 1 0 0 
SMALL
USER_CHARGES


@<TRIPOS>ATOM
  1 CL      -1.1450    -2.2440    -2.2860 Cl    1 <1>  -0.1770 
  2 C        0.3620    -2.4060    -1.4200 C.ar  1 <1>   0.1770 
  3 C        0.3940    -2.7240    -0.0700 C.ar  1 <1>  -0.0090 
  4 C        1.5230    -2.2050    -2.1450 C.ar  1 <1>  -0.1500 
  5 S       -1.1240    -2.9930     0.8730 S.o2  1 <1>   1.4470 
  6 C        1.6420    -2.8360     0.5320 C.ar  1 <1>  -0.1500 
  7 C        2.7490    -2.3260    -1.5200 C.ar  1 <1>  -0.1500 
  8 O       -1.9850    -1.8400     0.7350 O.2   1 <1>  -0.6500 
  9 O       -0.7880    -3.4470     2.2060 O.2   1 <1>  -0.6500 
 10 N       -1.8440    -4.3170     0.0910 N.am  1 <1>  -0.8490 
 11 C        2.8340    -2.6520    -0.1680 C.ar  1 <1>   0.0860 
 12 C       -3.2940    -4.3350     0.3100 C.3   1 <1>   0.1960 
 13 C       -1.1800    -5.5800     0.4340 C.3   1 <1>   0.1960 
 14 C        4.1130    -2.7880     0.5010 C.2   1 <1>   0.5440 
 15 C       -4.0340    -5.3680    -0.5500 C.3   1 <1>  -0.1600 
 16 C       -1.3310    -6.5920    -0.7050 C.3   1 <1>  -0.1600 
 17 O        4.3460    -2.0730     1.4560 O.2   1 <1>  -0.5700 
 18 N        5.0600    -3.7060     0.0920 N.am  1 <1>  -0.6600 
 19 C       -3.8430    -6.8150    -0.0730 C.3   1 <1>  -0.1600 
 20 C       -2.5750    -7.4890    -0.6140 C.3   1 <1>  -0.1600 
 21 C        6.4220    -3.7430     0.6980 C.3   1 <1>   0.1400 
 22 C        4.7860    -4.8280    -0.8490 C.3   1 <1>   0.1400 
 23 C        6.6220    -5.0700     1.4370 C.3   1 <1>  -0.1600 
 24 C        4.9740    -6.1660    -0.1260 C.3   1 <1>  -0.1600 
 25 C        6.3630    -6.2730     0.5190 C.3   1 <1>  -0.1600 
 26 H        1.4600    -1.9540    -3.1890 H     1 <1>   0.1500 
 27 H        1.7050    -3.0690     1.5830 H     1 <1>   0.1500 
 28 H        3.6580    -2.1630    -2.0760 H     1 <1>   0.1500 
 29 H       -3.6950    -3.3710     0.0450 H     1 <1>   0.0800 
 30 H       -3.5040    -4.4980     1.3540 H     1 <1>   0.0800 
 31 H       -1.5510    -5.9720     1.3670 H     1 <1>   0.0800 
 32 H       -0.1250    -5.4010     0.5590 H     1 <1>   0.0800 
 33 H       -3.7600    -5.2570    -1.5850 H     1 <1>   0.0800 
 34 H       -5.0830    -5.1390    -0.4770 H     1 <1>   0.0800 
 35 H       -0.4670    -7.2320    -0.7080 H     1 <1>   0.0800 
 36 H       -1.3290    -6.0610    -1.6420 H     1 <1>   0.0800 
 37 H       -4.6900    -7.4000    -0.3890 H     1 <1>   0.0800 
 38 H       -3.8350    -6.8360     1.0040 H     1 <1>   0.0800 
 39 H       -2.3540    -8.3350     0.0150 H     1 <1>   0.0800 
 40 H       -2.7790    -7.8740    -1.5980 H     1 <1>   0.0800 
 41 H        6.5610    -2.9240     1.3830 H     1 <1>   0.0800 
 42 H        7.1550    -3.6460    -0.0840 H     1 <1>   0.0800 
 43 H        5.4700    -4.7630    -1.6780 H     1 <1>   0.0800 
 44 H        3.7840    -4.7770    -1.2360 H     1 <1>   0.0800 
 45 H        5.9500    -5.0990     2.2770 H     1 <1>   0.0800 
 46 H        7.6260    -5.1150     1.8200 H     1 <1>   0.0800 
 47 H        4.8390    -6.9720    -0.8250 H     1 <1>   0.0800 
 48 H        4.2160    -6.2600     0.6330 H     1 <1>   0.0800 
 49 H        6.4330    -7.1850     1.0870 H     1 <1>   0.0800 
 50 H        7.1140    -6.3020    -0.2510 H     1 <1>   0.0800 
@<TRIPOS>BOND
  1   1   2  1   
  2   2   3  ar  
  3   2   4  ar  
  4   3   5  1   
  5   3   6  ar  
  6   4   7  ar  
  7   4  26  1   
  8   5   8  2   
  9   5   9  2   
 10   5  10  am  
 11   6  11  ar  
 12   6  27  1   
 13   7  11  ar  
 14   7  28  1   
 15  10  12  1   
 16  10  13  1   
 17  11  14  1   
 18  12  15  1   
 19  12  29  1   
 20  12  30  1   
 21  13  16  1   
 22  13  31  1   
 23  13  32  1   
 24  14  17  2   
 25  14  18  am  
 26  15  19  1   
 27  15  33  1   
 28  15  34  1   
 29  16  20  1   
 30  16  35  1   
 31  16  36  1   
 32  18  21  1   
 33  18  22  1   
 34  19  20  1   
 35  19  37  1   
 36  19  38  1   
 37  20  39  1   
 38  20  40  1   
 39  21  23  1   
 40  21  41  1   
 41  21  42  1   
 42  22  24  1   
 43  22  43  1   
 44  22  44  1   
 45  23  25  1   
 46  23  45  1   
 47  23  46  1   
 48  24  25  1   
 49  24  47  1   
 50  24  48  1   
 51  25  49  1   
 52  25  50  1   
@<TRIPOS>SUBSTRUCTURE
  1 ****   6 GROUP 4 **** **** 0

# MOE 2024.06 (io_trps.svl 2023.06)
