@<TRIPOS>MOLECULE
NONAME
33 34 1 0 0 
SMALL
USER_CHARGES


@<TRIPOS>ATOM
  1 S       -0.3590     0.8170    -1.1270 S.3   1 <1>  -0.2860 
  2 C       -0.6570     1.5550     0.4890 C.2   1 <1>   0.2420 
  3 C        1.4610     0.9920    -1.3860 C.3   1 <1>   0.0700 
  4 N        0.2390     2.1170     1.2020 N.2   1 <1>  -0.3380 
  5 N       -1.8480     1.5730     1.0750 N.pl3 1 <1>   0.5930 
  6 C        2.1620    -0.1410    -0.6370 C.3   1 <1>  -0.2400 
  7 N       -0.4090     2.5120     2.2950 N.2   1 <1>   0.0000 
  8 N       -1.6560     2.1950     2.2350 N.2   1 <1>  -0.4180 
  9 C       -3.0900     1.0520     0.6180 C.ar  1 <1>  -0.0230 
 10 C       -3.4420    -0.2720     0.8910 C.ar  1 <1>  -0.1440 
 11 C       -3.9650     1.8570    -0.1150 C.ar  1 <1>  -0.1430 
 12 C       -4.6480    -0.7720     0.4300 C.ar  1 <1>  -0.1500 
 13 C       -2.5220    -1.1870     1.6910 C.3   1 <1>  -0.0960 
 14 C       -5.1650     1.3360    -0.5660 C.ar  1 <1>  -0.1500 
 15 C       -3.6250     3.3090    -0.4330 C.3   1 <1>  -0.0970 
 16 C       -5.5120     0.0230    -0.3000 C.ar  1 <1>  -0.1430 
 17 C       -6.8320    -0.5370    -0.7990 C.3   1 <1>  -0.0970 
 18 H        1.7550     1.9610    -1.0220 H     1 <1>   0.0800 
 19 H        1.6360     0.9290    -2.4460 H     1 <1>   0.0800 
 20 H        1.9620    -0.0720     0.4170 H     1 <1>   0.0800 
 21 H        3.2240    -0.0750    -0.7890 H     1 <1>   0.0800 
 22 H        1.8200    -1.0940    -1.0000 H     1 <1>   0.0800 
 23 H       -4.9220    -1.7910     0.6380 H     1 <1>   0.1500 
 24 H       -2.3050    -0.7500     2.6500 H     1 <1>   0.0800 
 25 H       -1.5990    -1.3420     1.1600 H     1 <1>   0.0800 
 26 H       -2.9790    -2.1450     1.8570 H     1 <1>   0.0800 
 27 H       -5.8420     1.9530    -1.1310 H     1 <1>   0.1500 
 28 H       -2.7430     3.3580    -1.0460 H     1 <1>   0.0800 
 29 H       -3.4520     3.8580     0.4760 H     1 <1>   0.0800 
 30 H       -4.4290     3.7870    -0.9630 H     1 <1>   0.0800 
 31 H       -6.7440    -1.5910    -0.9930 H     1 <1>   0.0800 
 32 H       -7.1270    -0.0490    -1.7110 H     1 <1>   0.0800 
 33 H       -7.5950    -0.3820    -0.0590 H     1 <1>   0.0800 
@<TRIPOS>BOND
  1   1   2  1   
  2   1   3  1   
  3   2   4  2   
  4   2   5  1   
  5   3   6  1   
  6   3  18  1   
  7   3  19  1   
  8   4   7  1   
  9   5   8  1   
 10   5   9  1   
 11   6  20  1   
 12   6  21  1   
 13   6  22  1   
 14   7   8  2   
 15   9  10  ar  
 16   9  11  ar  
 17  10  12  ar  
 18  10  13  1   
 19  11  14  ar  
 20  11  15  1   
 21  12  16  ar  
 22  12  23  1   
 23  13  24  1   
 24  13  25  1   
 25  13  26  1   
 26  14  16  ar  
 27  14  27  1   
 28  15  28  1   
 29  15  29  1   
 30  15  30  1   
 31  16  17  1   
 32  17  31  1   
 33  17  32  1   
 34  17  33  1   
@<TRIPOS>SUBSTRUCTURE
  1 ****   9 GROUP 4 **** **** 0

# MOE 2024.06 (io_trps.svl 2023.06)
