@<TRIPOS>MOLECULE
NONAME
41 43 1 0 0 
SMALL
USER_CHARGES


@<TRIPOS>ATOM
  1 O        0.3300     0.5040    -0.8560 O.2   1 <1>  -0.5700 
  2 C        0.1110     1.6880    -0.6820 C.2   1 <1>   0.6900 
  3 N        1.1260     2.6060    -0.8070 N.am  1 <1>  -0.6600 
  4 N       -1.1470     2.1360    -0.3910 N.am  1 <1>  -0.5470 
  5 C        1.1070     3.9750    -0.2150 C.3   1 <1>   0.1400 
  6 C        2.4290     2.2310    -1.4260 C.3   1 <1>   0.1400 
  7 C       -2.3370     1.4580    -0.0930 C.ar  1 <1>   0.1170 
  8 C        2.2010     4.0820     0.8490 C.3   1 <1>  -0.1600 
  9 C        3.5380     2.3140    -0.3770 C.3   1 <1>  -0.1600 
 10 C       -3.5440     2.1190    -0.2810 C.ar  1 <1>  -0.1500 
 11 C       -2.3670     0.1580     0.4030 C.ar  1 <1>  -0.1500 
 12 C        3.5570     3.7010     0.2690 C.3   1 <1>   0.5600 
 13 C       -4.7520     1.5090     0.0090 C.ar  1 <1>   0.0820 
 14 C       -3.5680    -0.4630     0.6950 C.ar  1 <1>  -0.1500 
 15 O        4.5110     3.7610     1.2720 O.3   1 <1>  -0.5600 
 16 O        3.9390     4.6640    -0.6590 O.3   1 <1>  -0.5600 
 17 O       -5.8730     2.2430    -0.2110 O.3   1 <1>  -0.3630 
 18 C       -4.7630     0.2070     0.5000 C.ar  1 <1>  -0.1500 
 19 C        5.7040     4.2030     0.7340 C.3   1 <1>   0.1200 
 20 C        5.3050     4.8600    -0.5740 C.3   1 <1>   0.1200 
 21 C       -7.1550     1.7040     0.0230 C.3   1 <1>   0.0400 
 22 H       -1.2420     3.1330    -0.5360 H     1 <1>   0.3700 
 23 H        0.1570     4.1940     0.2380 H     1 <1>   0.0800 
 24 H        1.2860     4.6970    -0.9940 H     1 <1>   0.0800 
 25 H        2.6390     2.9090    -2.2350 H     1 <1>   0.0800 
 26 H        2.3870     1.2340    -1.8330 H     1 <1>   0.0800 
 27 H        1.9630     3.4170     1.6590 H     1 <1>   0.0800 
 28 H        2.2460     5.0840     1.2320 H     1 <1>   0.0800 
 29 H        4.4850     2.0980    -0.8340 H     1 <1>   0.0800 
 30 H        3.3490     1.5740     0.3780 H     1 <1>   0.0800 
 31 H       -3.5550     3.1220    -0.6620 H     1 <1>   0.1500 
 32 H       -1.4470    -0.3740     0.5640 H     1 <1>   0.1500 
 33 H       -3.5690    -1.4700     1.0740 H     1 <1>   0.1500 
 34 H       -5.6810    -0.2970     0.7350 H     1 <1>   0.1500 
 35 H        6.3500     3.3580     0.5710 H     1 <1>   0.0800 
 36 H        6.1620     4.8980     1.4150 H     1 <1>   0.0800 
 37 H        5.5060     5.9170    -0.5710 H     1 <1>   0.0800 
 38 H        5.7830     4.3920    -1.4160 H     1 <1>   0.0800 
 39 H       -7.8830     2.4530    -0.2300 H     1 <1>   0.0800 
 40 H       -7.2410     1.4470     1.0640 H     1 <1>   0.0800 
 41 H       -7.2890     0.8390    -0.6020 H     1 <1>   0.0800 
@<TRIPOS>BOND
  1   1   2  2   
  2   2   3  am  
  3   2   4  am  
  4   3   5  1   
  5   3   6  1   
  6   4   7  1   
  7   4  22  1   
  8   5   8  1   
  9   5  23  1   
 10   5  24  1   
 11   6   9  1   
 12   6  25  1   
 13   6  26  1   
 14   7  10  ar  
 15   7  11  ar  
 16   8  12  1   
 17   8  27  1   
 18   8  28  1   
 19   9  12  1   
 20   9  29  1   
 21   9  30  1   
 22  10  13  ar  
 23  10  31  1   
 24  11  14  ar  
 25  11  32  1   
 26  12  15  1   
 27  12  16  1   
 28  13  17  1   
 29  13  18  ar  
 30  14  18  ar  
 31  14  33  1   
 32  15  19  1   
 33  16  20  1   
 34  17  21  1   
 35  18  34  1   
 36  19  20  1   
 37  19  35  1   
 38  19  36  1   
 39  20  37  1   
 40  20  38  1   
 41  21  39  1   
 42  21  40  1   
 43  21  41  1   
@<TRIPOS>SUBSTRUCTURE
  1 ****   2 GROUP 4 **** **** 0

# MOE 2024.06 (io_trps.svl 2023.06)
