@<TRIPOS>MOLECULE
NONAME
39 40 1 0 0 
SMALL
USER_CHARGES


@<TRIPOS>ATOM
  1 BR       0.9930    -0.4350     1.4160 Br    1 <1>  -0.1110 
  2 C        0.1350    -1.8950     0.4970 C.ar  1 <1>   0.1110 
  3 C        0.7480    -2.5040    -0.5820 C.ar  1 <1>   0.1900 
  4 C       -1.1070    -2.3160     0.9390 C.ar  1 <1>  -0.1500 
  5 F        1.9190    -2.0950    -0.9920 F     1 <1>  -0.1900 
  6 C        0.1340    -3.5500    -1.2430 C.ar  1 <1>  -0.1500 
  7 C       -1.7400    -3.3630     0.2760 C.ar  1 <1>  -0.1440 
  8 C       -1.1140    -3.9770    -0.8070 C.ar  1 <1>  -0.1500 
  9 C       -3.1090    -3.8360     0.7370 C.3   1 <1>   0.4870 
 10 N       -4.1400    -3.3120    -0.2000 N.4   1 <1>  -0.9590 
 11 C       -4.2170    -1.8030    -0.1560 C.3   1 <1>   0.3430 
 12 C       -5.4850    -3.9480     0.0550 C.3   1 <1>   0.3430 
 13 C       -5.3000    -1.2480    -1.0980 C.3   1 <1>   0.1400 
 14 C       -6.5810    -3.4020    -0.8810 C.3   1 <1>   0.1400 
 15 N       -6.6080    -1.9120    -0.8270 N.am  1 <1>  -0.6600 
 16 C       -7.7010    -1.1930    -0.4140 C.2   1 <1>   0.7800 
 17 O       -7.6530     0.0060    -0.2360 O.2   1 <1>  -0.5700 
 18 O       -8.8270    -1.8620    -0.1780 O.3   1 <1>  -0.4300 
 19 C       -9.9950    -1.1870     0.2360 C.3   1 <1>   0.1200 
 20 C      -11.1000    -2.2220     0.4210 C.3   1 <1>  -0.2400 
 21 H       -1.5490    -1.8240     1.7880 H     1 <1>   0.1500 
 22 H        0.6290    -4.0180    -2.0770 H     1 <1>   0.1500 
 23 H       -1.5810    -4.8000    -1.3240 H     1 <1>   0.1500 
 24 H       -3.3020    -3.4880     1.7390 H     1 <1>   0.0800 
 25 H       -3.1250    -4.9140     0.7430 H     1 <1>   0.0800 
 26 H       -3.8380    -3.5660    -1.1490 H     1 <1>   0.4500 
 27 H       -3.2650    -1.3780    -0.4310 H     1 <1>   0.0800 
 28 H       -4.4440    -1.4790     0.8470 H     1 <1>   0.0800 
 29 H       -5.7880    -3.7550     1.0720 H     1 <1>   0.0800 
 30 H       -5.4180    -5.0160    -0.0710 H     1 <1>   0.0800 
 31 H       -5.0190    -1.4170    -2.1230 H     1 <1>   0.0800 
 32 H       -5.3770    -0.1820    -0.9560 H     1 <1>   0.0800 
 33 H       -7.5310    -3.8140    -0.5880 H     1 <1>   0.0800 
 34 H       -6.3910    -3.7160    -1.8930 H     1 <1>   0.0800 
 35 H      -10.2610    -0.4690    -0.5220 H     1 <1>   0.0800 
 36 H       -9.7860    -0.6750     1.1610 H     1 <1>   0.0800 
 37 H      -11.2930    -2.7290    -0.5080 H     1 <1>   0.0800 
 38 H      -12.0040    -1.7320     0.7350 H     1 <1>   0.0800 
 39 H      -10.8200    -2.9370     1.1730 H     1 <1>   0.0800 
@<TRIPOS>BOND
  1   1   2  1   
  2   2   3  ar  
  3   2   4  ar  
  4   3   5  1   
  5   3   6  ar  
  6   4   7  ar  
  7   4  21  1   
  8   6   8  ar  
  9   6  22  1   
 10   7   8  ar  
 11   7   9  1   
 12   8  23  1   
 13   9  10  1   
 14   9  24  1   
 15   9  25  1   
 16  10  11  1   
 17  10  12  1   
 18  10  26  1   
 19  11  13  1   
 20  11  27  1   
 21  11  28  1   
 22  12  14  1   
 23  12  29  1   
 24  12  30  1   
 25  13  15  1   
 26  13  31  1   
 27  13  32  1   
 28  14  15  1   
 29  14  33  1   
 30  14  34  1   
 31  15  16  am  
 32  16  17  2   
 33  16  18  1   
 34  18  19  1   
 35  19  20  1   
 36  19  35  1   
 37  19  36  1   
 38  20  37  1   
 39  20  38  1   
 40  20  39  1   
@<TRIPOS>SUBSTRUCTURE
  1 ****  11 GROUP 4 **** **** 0

# MOE 2024.06 (io_trps.svl 2023.06)
