@<TRIPOS>MOLECULE
NONAME
40 42 1 0 0 
SMALL
USER_CHARGES


@<TRIPOS>ATOM
  1 CL       0.8060     1.7460     2.2810 Cl    1 <1>  -0.1770 
  2 C        1.9000     1.6110     0.9280 C.ar  1 <1>   0.1770 
  3 C        3.0850     0.9220     1.0830 C.ar  1 <1>  -0.1500 
  4 C        1.5590     2.1980    -0.2770 C.ar  1 <1>  -0.1500 
  5 C        3.9620     0.8090     0.0140 C.ar  1 <1>   0.1000 
  6 C        2.4300     2.0890    -1.3490 C.ar  1 <1>  -0.1500 
  7 N        5.1540     0.1140     0.1760 N.pl3 1 <1>  -0.8380 
  8 C        3.6220     1.3990    -1.2010 C.ar  1 <1>  -0.1500 
  9 C        6.4040     0.9260     0.1730 C.3   1 <1>   0.2090 
 10 C        5.2610    -1.1960    -0.5290 C.3   1 <1>   0.2090 
 11 C        7.5900     0.0980     0.7120 C.3   1 <1>   0.3430 
 12 C        6.4550    -2.0090     0.0160 C.3   1 <1>   0.3430 
 13 N        7.7490    -1.2280     0.0000 N.4   1 <1>  -0.9590 
 14 C        8.8720    -2.0250     0.5630 C.3   1 <1>   0.4860 
 15 C       10.1720    -1.2710     0.3390 C.ar  1 <1>  -0.1430 
 16 C       10.7270    -1.1990    -0.9350 C.ar  1 <1>  -0.1500 
 17 C       10.8140    -0.6490     1.4090 C.ar  1 <1>  -0.1500 
 18 C       11.9050    -0.4970    -1.1170 C.ar  1 <1>   0.1900 
 19 C       11.9970     0.0520     1.2200 C.ar  1 <1>  -0.1500 
 20 F       12.4100    -0.4280    -2.3210 F     1 <1>  -0.1900 
 21 C       12.5340     0.1230    -0.0520 C.ar  1 <1>   0.1900 
 22 F       13.6460     0.7880    -0.2320 F     1 <1>  -0.1900 
 23 H        3.3280     0.4760     2.0280 H     1 <1>   0.1500 
 24 H        0.6290     2.7290    -0.3700 H     1 <1>   0.1500 
 25 H        2.1770     2.5410    -2.2930 H     1 <1>   0.1500 
 26 H        4.2920     1.3190    -2.0360 H     1 <1>   0.1500 
 27 H        6.2630     1.7950     0.7950 H     1 <1>   0.0800 
 28 H        6.6160     1.2660    -0.8260 H     1 <1>   0.0800 
 29 H        5.3780    -1.0310    -1.5860 H     1 <1>   0.0800 
 30 H        4.3500    -1.7520    -0.3800 H     1 <1>   0.0800 
 31 H        7.4210    -0.0750     1.7620 H     1 <1>   0.0800 
 32 H        8.4920     0.6790     0.6150 H     1 <1>   0.0800 
 33 H        6.5590    -2.9090    -0.5670 H     1 <1>   0.0800 
 34 H        6.2210    -2.2970     1.0280 H     1 <1>   0.0800 
 35 H        7.9830    -1.0150    -0.9760 H     1 <1>   0.4500 
 36 H        8.9300    -2.9840     0.0730 H     1 <1>   0.0800 
 37 H        8.7190    -2.1920     1.6180 H     1 <1>   0.0800 
 38 H       10.2760    -1.6760    -1.7870 H     1 <1>   0.1500 
 39 H       10.4060    -0.7050     2.4060 H     1 <1>   0.1500 
 40 H       12.5020     0.5350     2.0400 H     1 <1>   0.1500 
@<TRIPOS>BOND
  1   1   2  1   
  2   2   3  ar  
  3   2   4  ar  
  4   3   5  ar  
  5   3  23  1   
  6   4   6  ar  
  7   4  24  1   
  8   5   7  1   
  9   5   8  ar  
 10   6   8  ar  
 11   6  25  1   
 12   7   9  1   
 13   7  10  1   
 14   8  26  1   
 15   9  11  1   
 16   9  27  1   
 17   9  28  1   
 18  10  12  1   
 19  10  29  1   
 20  10  30  1   
 21  11  13  1   
 22  11  31  1   
 23  11  32  1   
 24  12  13  1   
 25  12  33  1   
 26  12  34  1   
 27  13  14  1   
 28  13  35  1   
 29  14  15  1   
 30  14  36  1   
 31  14  37  1   
 32  15  16  ar  
 33  15  17  ar  
 34  16  18  ar  
 35  16  38  1   
 36  17  19  ar  
 37  17  39  1   
 38  18  20  1   
 39  18  21  ar  
 40  19  21  ar  
 41  19  40  1   
 42  21  22  1   
@<TRIPOS>SUBSTRUCTURE
  1 ****  11 GROUP 4 **** **** 0

# MOE 2024.06 (io_trps.svl 2023.06)
