@<TRIPOS>MOLECULE
NONAME
43 44 1 0 0 
SMALL
USER_CHARGES


@<TRIPOS>ATOM
  1 S        0.1080     0.3750     1.2000 S.o2  1 <1>   1.4470 
  2 O        0.3660     1.5860     1.9510 O.2   1 <1>  -0.6500 
  3 O       -0.4360    -0.7670     1.9060 O.2   1 <1>  -0.6500 
  4 N       -0.9850     0.7110    -0.0560 N.am  1 <1>  -0.8490 
  5 C        1.6440    -0.1250     0.3780 C.ar  1 <1>  -0.0090 
  6 C       -2.0970     1.5750     0.3920 C.3   1 <1>   0.2760 
  7 C       -1.3070    -0.5000    -0.8270 C.3   1 <1>   0.1960 
  8 C        2.2880     0.7080    -0.5390 C.ar  1 <1>   0.0830 
  9 C        2.2270    -1.3570     0.6530 C.ar  1 <1>  -0.1500 
 10 C       -3.3850     0.8230     0.7690 C.3   1 <1>  -0.1600 
 11 C       -2.3650     2.6870    -0.6300 C.3   1 <1>  -0.1600 
 12 C       -1.7980    -0.1770    -2.2360 C.3   1 <1>  -0.2400 
 13 O        1.7600     1.9070    -0.8520 O.3   1 <1>  -0.3630 
 14 C        3.4650     0.3260    -1.1720 C.ar  1 <1>  -0.1500 
 15 C        3.4000    -1.7210     0.0210 C.ar  1 <1>   0.1900 
 16 C       -4.4520     1.8000     1.2870 C.3   1 <1>  -0.1600 
 17 C       -3.4390     3.6580    -0.1150 C.3   1 <1>  -0.1600 
 18 C        2.3410     3.0360    -0.2380 C.3   1 <1>   0.0400 
 19 C        4.0350    -0.9020    -0.8920 C.ar  1 <1>  -0.1500 
 20 F        3.9270    -2.8840     0.2940 F     1 <1>  -0.1900 
 21 C       -4.7270     2.9130     0.2660 C.3   1 <1>  -0.1600 
 22 H       -1.7930     2.0960     1.2840 H     1 <1>   0.0800 
 23 H       -2.0160    -1.1170    -0.3010 H     1 <1>   0.0800 
 24 H       -0.4120    -1.0880    -0.9430 H     1 <1>   0.0800 
 25 H        1.7740    -2.0340     1.3580 H     1 <1>   0.1500 
 26 H       -3.1680     0.1000     1.5360 H     1 <1>   0.0800 
 27 H       -3.7890     0.3150    -0.0870 H     1 <1>   0.0800 
 28 H       -2.7000     2.2760    -1.5610 H     1 <1>   0.0800 
 29 H       -1.4520     3.2260    -0.8080 H     1 <1>   0.0800 
 30 H       -2.8090     0.1810    -2.2200 H     1 <1>   0.0800 
 31 H       -1.7800    -1.0710    -2.8310 H     1 <1>   0.0800 
 32 H       -1.1540     0.5520    -2.6950 H     1 <1>   0.0800 
 33 H        3.9250     0.9900    -1.8830 H     1 <1>   0.1500 
 34 H       -4.1160     2.2390     2.2110 H     1 <1>   0.0800 
 35 H       -5.3630     1.2640     1.4910 H     1 <1>   0.0800 
 36 H       -3.6550     4.3910    -0.8730 H     1 <1>   0.0800 
 37 H       -3.0610     4.1800     0.7480 H     1 <1>   0.0800 
 38 H        1.7750     3.9030    -0.5270 H     1 <1>   0.0800 
 39 H        3.3600     3.1320    -0.5680 H     1 <1>   0.0800 
 40 H        2.3010     2.9150     0.8300 H     1 <1>   0.0800 
 41 H        4.9460    -1.2210    -1.3660 H     1 <1>   0.1500 
 42 H       -5.4360     3.6110     0.6760 H     1 <1>   0.0800 
 43 H       -5.1630     2.4840    -0.6200 H     1 <1>   0.0800 
@<TRIPOS>BOND
  1   1   2  2   
  2   1   3  2   
  3   1   4  am  
  4   1   5  1   
  5   4   6  1   
  6   4   7  1   
  7   5   8  ar  
  8   5   9  ar  
  9   6  10  1   
 10   6  11  1   
 11   6  22  1   
 12   7  12  1   
 13   7  23  1   
 14   7  24  1   
 15   8  13  1   
 16   8  14  ar  
 17   9  15  ar  
 18   9  25  1   
 19  10  16  1   
 20  10  26  1   
 21  10  27  1   
 22  11  17  1   
 23  11  28  1   
 24  11  29  1   
 25  12  30  1   
 26  12  31  1   
 27  12  32  1   
 28  13  18  1   
 29  14  19  ar  
 30  14  33  1   
 31  15  19  ar  
 32  15  20  1   
 33  16  21  1   
 34  16  34  1   
 35  16  35  1   
 36  17  21  1   
 37  17  36  1   
 38  17  37  1   
 39  18  38  1   
 40  18  39  1   
 41  18  40  1   
 42  19  41  1   
 43  21  42  1   
 44  21  43  1   
@<TRIPOS>SUBSTRUCTURE
  1 ****   4 GROUP 4 **** **** 0

# MOE 2024.06 (io_trps.svl 2023.06)
