@<TRIPOS>MOLECULE
NONAME
39 39 1 0 0 
SMALL
USER_CHARGES


@<TRIPOS>ATOM
  1 O       -0.0430    -0.0070     0.5230 O.2   1 <1>  -0.5700 
  2 C        0.5840     0.9290     0.0690 C.2   1 <1>   0.6900 
  3 N        1.9260     0.8500    -0.1590 N.am  1 <1>  -0.5470 
  4 N       -0.0070     2.1160    -0.2220 N.am  1 <1>  -0.7300 
  5 C        2.8670    -0.1840    -0.0510 C.ar  1 <1>   0.1170 
  6 C       -1.4080     2.5350    -0.0700 C.3   1 <1>   0.3000 
  7 C        4.2410     0.1170     0.0700 C.ar  1 <1>   0.0860 
  8 C        2.4630    -1.5180    -0.0760 C.ar  1 <1>  -0.1500 
  9 C       -1.4590     3.9980    -0.5620 C.3   1 <1>  -0.1600 
 10 C       -1.8020     2.4390     1.4080 C.3   1 <1>  -0.2400 
 11 C       -2.2950     1.6340    -0.9360 C.3   1 <1>  -0.2400 
 12 C        4.7440     1.4800     0.0800 C.2   1 <1>   0.6340 
 13 C        5.1360    -0.9550     0.1820 C.ar  1 <1>  -0.1500 
 14 C        3.3690    -2.5510     0.0340 C.ar  1 <1>  -0.1500 
 15 C       -2.8330     4.6920    -0.5100 C.3   1 <1>  -0.2400 
 16 O        4.1060     2.4510    -0.2860 O.2   1 <1>  -0.5700 
 17 O        5.9940     1.6820     0.5160 O.3   1 <1>  -0.4300 
 18 C        4.7150    -2.2680     0.1660 C.ar  1 <1>  -0.1500 
 19 C        6.5760     2.9700     0.5660 C.3   1 <1>   0.0400 
 20 H        2.3550     1.7650    -0.3270 H     1 <1>   0.3700 
 21 H        0.5740     2.8310    -0.6480 H     1 <1>   0.3700 
 22 H        1.4210    -1.7610    -0.1850 H     1 <1>   0.1500 
 23 H       -1.1160     4.0300    -1.5810 H     1 <1>   0.0800 
 24 H       -0.7760     4.5830     0.0310 H     1 <1>   0.0800 
 25 H       -1.1700     3.0680     2.0070 H     1 <1>   0.0800 
 26 H       -1.7190     1.4270     1.7590 H     1 <1>   0.0800 
 27 H       -2.8220     2.7420     1.5480 H     1 <1>   0.0800 
 28 H       -2.0080     1.7040    -1.9690 H     1 <1>   0.0800 
 29 H       -3.3260     1.9180    -0.8450 H     1 <1>   0.0800 
 30 H       -2.2180     0.6090    -0.6220 H     1 <1>   0.0800 
 31 H        6.1900    -0.7590     0.2810 H     1 <1>   0.1500 
 32 H        3.0290    -3.5730     0.0170 H     1 <1>   0.1500 
 33 H       -3.5500     4.1810    -1.1270 H     1 <1>   0.0800 
 34 H       -2.7410     5.6990    -0.8760 H     1 <1>   0.0800 
 35 H       -3.2080     4.7390     0.4960 H     1 <1>   0.0800 
 36 H        5.4270    -3.0710     0.2550 H     1 <1>   0.1500 
 37 H        7.5770     2.8780     0.9480 H     1 <1>   0.0800 
 38 H        5.9870     3.5930     1.2180 H     1 <1>   0.0800 
 39 H        6.5940     3.3840    -0.4270 H     1 <1>   0.0800 
@<TRIPOS>BOND
  1   1   2  2   
  2   2   3  am  
  3   2   4  am  
  4   3   5  1   
  5   3  20  1   
  6   4   6  1   
  7   4  21  1   
  8   5   7  ar  
  9   5   8  ar  
 10   6   9  1   
 11   6  10  1   
 12   6  11  1   
 13   7  12  1   
 14   7  13  ar  
 15   8  14  ar  
 16   8  22  1   
 17   9  15  1   
 18   9  23  1   
 19   9  24  1   
 20  10  25  1   
 21  10  26  1   
 22  10  27  1   
 23  11  28  1   
 24  11  29  1   
 25  11  30  1   
 26  12  16  2   
 27  12  17  1   
 28  13  18  ar  
 29  13  31  1   
 30  14  18  ar  
 31  14  32  1   
 32  15  33  1   
 33  15  34  1   
 34  15  35  1   
 35  17  19  1   
 36  18  36  1   
 37  19  37  1   
 38  19  38  1   
 39  19  39  1   
@<TRIPOS>SUBSTRUCTURE
  1 ****   3 GROUP 4 **** **** 0

# MOE 2024.06 (io_trps.svl 2023.06)
