@<TRIPOS>MOLECULE
NONAME
51 52 1 0 0 
SMALL
USER_CHARGES


@<TRIPOS>ATOM
  1 BR       0.5630     0.0830     1.6160 Br    1 <1>  -0.1110 
  2 C        2.2270     0.8770     1.0470 C.ar  1 <1>   0.1110 
  3 C        2.2350     1.8140     0.0230 C.ar  1 <1>  -0.1440 
  4 C        3.3800     0.4740     1.6940 C.ar  1 <1>  -0.1500 
  5 C        3.4540     2.3570    -0.3530 C.ar  1 <1>  -0.1500 
  6 C        0.9500     2.2390    -0.6730 C.3   1 <1>  -0.0960 
  7 C        4.5870     1.0260     1.3060 C.ar  1 <1>  -0.1500 
  8 C        4.6320     1.9660     0.2860 C.ar  1 <1>   0.0830 
  9 O        5.8580     2.4550    -0.0300 O.3   1 <1>  -0.3630 
 10 C        6.0180     3.4280    -1.0570 C.3   1 <1>   0.1810 
 11 C        7.4810     3.8180    -1.2230 C.2   1 <1>   0.5690 
 12 O        7.7720     4.6860    -2.0110 O.2   1 <1>  -0.5700 
 13 N        8.4360     3.1950    -0.4810 N.am  1 <1>  -0.7300 
 14 C        9.8720     3.4780    -0.5760 C.3   1 <1>   0.2200 
 15 C       10.6620     2.1960    -0.3400 C.3   1 <1>  -0.1600 
 16 C       10.2430     4.5140     0.4790 C.3   1 <1>  -0.1600 
 17 C       12.1770     2.4450    -0.3770 C.3   1 <1>   0.5030 
 18 C       11.7410     4.8360     0.4630 C.3   1 <1>   0.5030 
 19 N       12.5530     3.6060     0.4480 N.4   1 <1>  -0.9060 
 20 C       12.9040     1.2520     0.2390 C.3   1 <1>  -0.2400 
 21 C       12.6950     2.6290    -1.8060 C.3   1 <1>  -0.2400 
 22 C       12.1250     5.7340    -0.7170 C.3   1 <1>  -0.2400 
 23 C       12.1200     5.5620     1.7530 C.3   1 <1>  -0.2400 
 24 H        3.3300    -0.2560     2.4820 H     1 <1>   0.1500 
 25 H        3.4680     3.0830    -1.1440 H     1 <1>   0.1500 
 26 H        0.2710     2.6690     0.0420 H     1 <1>   0.0800 
 27 H        0.4810     1.3870    -1.1300 H     1 <1>   0.0800 
 28 H        1.1460     2.9700    -1.4360 H     1 <1>   0.0800 
 29 H        5.4970     0.7290     1.7940 H     1 <1>   0.1500 
 30 H        5.4460     4.2980    -0.7940 H     1 <1>   0.0800 
 31 H        5.6560     3.0120    -1.9790 H     1 <1>   0.0800 
 32 H        8.1160     2.4920     0.1920 H     1 <1>   0.3700 
 33 H       10.0780     3.8630    -1.5610 H     1 <1>   0.0800 
 34 H       10.4010     1.4740    -1.0940 H     1 <1>   0.0800 
 35 H       10.3880     1.7840     0.6150 H     1 <1>   0.0800 
 36 H        9.9590     4.1460     1.4490 H     1 <1>   0.0800 
 37 H        9.6840     5.4160     0.2980 H     1 <1>   0.0800 
 38 H       13.5110     3.8660     0.2080 H     1 <1>   0.4500 
 39 H       12.5810     3.2740     1.4140 H     1 <1>   0.4500 
 40 H       12.5990     1.0890     1.2580 H     1 <1>   0.0800 
 41 H       13.9710     1.3860     0.2080 H     1 <1>   0.0800 
 42 H       12.6740     0.3570    -0.3130 H     1 <1>   0.0800 
 43 H       12.1390     3.3620    -2.3550 H     1 <1>   0.0800 
 44 H       12.5930     1.7050    -2.3490 H     1 <1>   0.0800 
 45 H       13.7370     2.8960    -1.8140 H     1 <1>   0.0800 
 46 H       11.7650     5.3600    -1.6540 H     1 <1>   0.0800 
 47 H       13.1900     5.8720    -0.7750 H     1 <1>   0.0800 
 48 H       11.6780     6.7050    -0.5900 H     1 <1>   0.0800 
 49 H       11.8950     4.9660     2.6200 H     1 <1>   0.0800 
 50 H       11.5580     6.4760     1.8360 H     1 <1>   0.0800 
 51 H       13.1640     5.8210     1.7630 H     1 <1>   0.0800 
@<TRIPOS>BOND
  1   1   2  1   
  2   2   3  ar  
  3   2   4  ar  
  4   3   5  ar  
  5   3   6  1   
  6   4   7  ar  
  7   4  24  1   
  8   5   8  ar  
  9   5  25  1   
 10   6  26  1   
 11   6  27  1   
 12   6  28  1   
 13   7   8  ar  
 14   7  29  1   
 15   8   9  1   
 16   9  10  1   
 17  10  11  1   
 18  10  30  1   
 19  10  31  1   
 20  11  12  2   
 21  11  13  am  
 22  13  14  1   
 23  13  32  1   
 24  14  15  1   
 25  14  16  1   
 26  14  33  1   
 27  15  17  1   
 28  15  34  1   
 29  15  35  1   
 30  16  18  1   
 31  16  36  1   
 32  16  37  1   
 33  17  19  1   
 34  17  20  1   
 35  17  21  1   
 36  18  19  1   
 37  18  22  1   
 38  18  23  1   
 39  19  38  1   
 40  19  39  1   
 41  20  40  1   
 42  20  41  1   
 43  20  42  1   
 44  21  43  1   
 45  21  44  1   
 46  21  45  1   
 47  22  46  1   
 48  22  47  1   
 49  22  48  1   
 50  23  49  1   
 51  23  50  1   
 52  23  51  1   
@<TRIPOS>SUBSTRUCTURE
  1 ****  13 GROUP 4 **** **** 0

# MOE 2024.06 (io_trps.svl 2023.06)
