@<TRIPOS>MOLECULE
NONAME
47 49 1 0 0 
SMALL
USER_CHARGES


@<TRIPOS>ATOM
  1 BR      -0.4690    -0.0890     1.3510 Br    1 <1>  -0.1110 
  2 C       -1.9340     0.8650     0.5470 C.ar  1 <1>   0.1110 
  3 C       -3.1960     0.3060     0.5960 C.ar  1 <1>  -0.1500 
  4 C       -1.6820     2.0820    -0.0560 C.ar  1 <1>  -0.1500 
  5 C       -4.2640     0.9830     0.0190 C.ar  1 <1>   0.1170 
  6 C       -2.7430     2.7600    -0.6300 C.ar  1 <1>  -0.1500 
  7 N       -5.5430     0.4120     0.0910 N.am  1 <1>  -0.5470 
  8 C       -4.0170     2.2140    -0.5890 C.ar  1 <1>  -0.1500 
  9 C       -6.6480     0.5690    -0.7160 C.2   1 <1>   0.5440 
 10 O       -6.5580     1.1890    -1.7560 O.2   1 <1>  -0.5700 
 11 C       -7.9110    -0.0400    -0.3350 C.ar  1 <1>   0.0860 
 12 C       -8.8270    -0.4500    -1.3020 C.ar  1 <1>  -0.1500 
 13 C       -8.2710    -0.2410     0.9990 C.ar  1 <1>  -0.1500 
 14 C      -10.0290    -1.0430    -0.9580 C.ar  1 <1>  -0.1500 
 15 C       -9.4730    -0.8360     1.3400 C.ar  1 <1>  -0.1500 
 16 C      -10.3750    -1.2550     0.3700 C.ar  1 <1>  -0.0090 
 17 S      -11.9560    -2.0400     0.8120 S.o2  1 <1>   1.4470 
 18 O      -11.9080    -2.4470     2.2010 O.2   1 <1>  -0.6500 
 19 O      -12.9950    -1.1400     0.3640 O.2   1 <1>  -0.6500 
 20 N      -11.9760    -3.4710    -0.1110 N.am  1 <1>  -0.8490 
 21 C      -13.2030    -4.2840     0.0600 C.3   1 <1>   0.2760 
 22 C      -10.7960    -4.2910     0.2270 C.3   1 <1>   0.1960 
 23 C      -13.1440    -5.5270    -0.8500 C.3   1 <1>  -0.1600 
 24 C      -14.4830    -3.5240    -0.3040 C.3   1 <1>  -0.2400 
 25 C      -10.6640    -5.4940    -0.7050 C.3   1 <1>  -0.1600 
 26 C      -11.9000    -6.3830    -0.6060 C.3   1 <1>  -0.1600 
 27 H       -3.3350    -0.6440     1.0740 H     1 <1>   0.1500 
 28 H       -0.6850     2.4850    -0.0760 H     1 <1>   0.1500 
 29 H       -2.5820     3.7100    -1.1090 H     1 <1>   0.1500 
 30 H       -5.6480    -0.2980     0.8120 H     1 <1>   0.3700 
 31 H       -4.8280     2.7590    -1.0370 H     1 <1>   0.1500 
 32 H       -8.5900    -0.2970    -2.3430 H     1 <1>   0.1500 
 33 H       -7.6120     0.0840     1.7850 H     1 <1>   0.1500 
 34 H      -10.7160    -1.3460    -1.7320 H     1 <1>   0.1500 
 35 H       -9.7210    -0.9750     2.3810 H     1 <1>   0.1500 
 36 H      -13.2760    -4.6070     1.0870 H     1 <1>   0.0800 
 37 H      -10.8660    -4.6310     1.2490 H     1 <1>   0.0800 
 38 H       -9.8950    -3.7110     0.1340 H     1 <1>   0.0800 
 39 H      -13.1590    -5.2070    -1.8770 H     1 <1>   0.0800 
 40 H      -14.0160    -6.1350    -0.6860 H     1 <1>   0.0800 
 41 H      -14.3560    -2.9910    -1.2300 H     1 <1>   0.0800 
 42 H      -14.7580    -2.8390     0.4760 H     1 <1>   0.0800 
 43 H      -15.3070    -4.2040    -0.4140 H     1 <1>   0.0800 
 44 H       -9.7900    -6.0610    -0.4390 H     1 <1>   0.0800 
 45 H      -10.5380    -5.1440    -1.7150 H     1 <1>   0.0800 
 46 H      -11.8470    -7.1750    -1.3330 H     1 <1>   0.0800 
 47 H      -11.9520    -6.8260     0.3740 H     1 <1>   0.0800 
@<TRIPOS>BOND
  1   1   2  1   
  2   2   3  ar  
  3   2   4  ar  
  4   3   5  ar  
  5   3  27  1   
  6   4   6  ar  
  7   4  28  1   
  8   5   7  1   
  9   5   8  ar  
 10   6   8  ar  
 11   6  29  1   
 12   7   9  am  
 13   7  30  1   
 14   8  31  1   
 15   9  10  2   
 16   9  11  1   
 17  11  12  ar  
 18  11  13  ar  
 19  12  14  ar  
 20  12  32  1   
 21  13  15  ar  
 22  13  33  1   
 23  14  16  ar  
 24  14  34  1   
 25  15  16  ar  
 26  15  35  1   
 27  16  17  1   
 28  17  18  2   
 29  17  19  2   
 30  17  20  am  
 31  20  21  1   
 32  20  22  1   
 33  21  23  1   
 34  21  24  1   
 35  21  36  1   
 36  22  25  1   
 37  22  37  1   
 38  22  38  1   
 39  23  26  1   
 40  23  39  1   
 41  23  40  1   
 42  24  41  1   
 43  24  42  1   
 44  24  43  1   
 45  25  26  1   
 46  25  44  1   
 47  25  45  1   
 48  26  46  1   
 49  26  47  1   
@<TRIPOS>SUBSTRUCTURE
  1 ****  11 GROUP 4 **** **** 0

# MOE 2024.06 (io_trps.svl 2023.06)
