@<TRIPOS>MOLECULE
NONAME
37 39 1 0 0 
SMALL
USER_CHARGES


@<TRIPOS>ATOM
  1 O        3.3580     0.4950    -2.1430 O.2   1 <1>  -0.5700 
  2 C        3.6680     0.3940    -0.9810 C.2   1 <1>   0.6590 
  3 O        4.0280    -0.7760    -0.4570 O.3   1 <1>  -0.4300 
  4 C        3.6380     1.5970    -0.0090 C.3   1 <1>   0.2510 
  5 C        4.0830    -1.9530    -1.2360 C.3   1 <1>   0.0400 
  6 N        2.4940     2.5140    -0.2630 N.3   1 <1>  -0.9900 
  7 C        4.9840     2.3870     0.0200 C.3   1 <1>   0.0000 
  8 C        4.9320     3.4930     1.1080 C.3   1 <1>  -0.1600 
  9 C        5.2930     3.0650    -1.3420 C.3   1 <1>  -0.1600 
 10 C        6.1690     1.4450     0.3660 C.3   1 <1>  -0.1600 
 11 C        6.2560     4.2760     1.1750 C.3   1 <1>  -0.0800 
 12 C        6.6210     3.8440    -1.2830 C.3   1 <1>  -0.0800 
 13 C        7.4990     2.2170     0.4320 C.3   1 <1>  -0.0800 
 14 C        6.5250     4.9280    -0.1930 C.3   1 <1>  -0.1600 
 15 C        7.4010     3.3070     1.5130 C.3   1 <1>  -0.1600 
 16 C        7.7660     2.8760    -0.9340 C.3   1 <1>  -0.1600 
 17 H        3.4930     1.1830     0.9740 H     1 <1>   0.0800 
 18 H        4.7880    -1.8070    -2.0370 H     1 <1>   0.0800 
 19 H        3.1040    -2.1520    -1.6360 H     1 <1>   0.0800 
 20 H        4.3990    -2.7650    -0.6060 H     1 <1>   0.0800 
 21 H        1.6350     1.9550    -0.3050 H     1 <1>   0.3600 
 22 H        2.6230     2.8880    -1.2110 H     1 <1>   0.3600 
 23 H        4.7280     3.0510     2.0680 H     1 <1>   0.0800 
 24 H        4.1340     4.1820     0.8980 H     1 <1>   0.0800 
 25 H        5.3560     2.3260    -2.1220 H     1 <1>   0.0800 
 26 H        4.5020     3.7450    -1.6030 H     1 <1>   0.0800 
 27 H        6.2670     0.6740    -0.3780 H     1 <1>   0.0800 
 28 H        5.9900     0.9630     1.3110 H     1 <1>   0.0800 
 29 H        6.1890     5.0380     1.9330 H     1 <1>   0.0800 
 30 H        6.8140     4.3050    -2.2360 H     1 <1>   0.0800 
 31 H        8.3010     1.5400     0.6710 H     1 <1>   0.0800 
 32 H        7.4430     5.4890    -0.1550 H     1 <1>   0.0800 
 33 H        5.7320     5.6150    -0.4320 H     1 <1>   0.0800 
 34 H        7.2250     2.8540     2.4730 H     1 <1>   0.0800 
 35 H        8.3300     3.8470     1.5720 H     1 <1>   0.0800 
 36 H        8.6980     3.4110    -0.9040 H     1 <1>   0.0800 
 37 H        7.8470     2.1190    -1.6950 H     1 <1>   0.0800 
@<TRIPOS>BOND
  1   1   2  2   
  2   2   3  1   
  3   2   4  1   
  4   3   5  1   
  5   4   6  1   
  6   4   7  1   
  7   4  17  1   
  8   5  18  1   
  9   5  19  1   
 10   5  20  1   
 11   6  21  1   
 12   6  22  1   
 13   7   8  1   
 14   7   9  1   
 15   7  10  1   
 16   8  11  1   
 17   8  23  1   
 18   8  24  1   
 19   9  12  1   
 20   9  25  1   
 21   9  26  1   
 22  10  13  1   
 23  10  27  1   
 24  10  28  1   
 25  11  14  1   
 26  11  15  1   
 27  11  29  1   
 28  12  14  1   
 29  12  16  1   
 30  12  30  1   
 31  13  15  1   
 32  13  16  1   
 33  13  31  1   
 34  14  32  1   
 35  14  33  1   
 36  15  34  1   
 37  15  35  1   
 38  16  36  1   
 39  16  37  1   
@<TRIPOS>SUBSTRUCTURE
  1 ****   7 GROUP 4 **** **** 0

# MOE 2024.06 (io_trps.svl 2023.06)
