@<TRIPOS>MOLECULE
NONAME
38 38 1 0 0 
SMALL
USER_CHARGES


@<TRIPOS>ATOM
  1 S        0.0100    -0.0420    -1.0130 S.3   1 <1>  -0.2420 
  2 C       -1.3910     0.9290    -0.5140 C.2   1 <1>   0.6510 
  3 C        1.2080     1.0090    -0.2200 C.2   1 <1>   0.1150 
  4 N       -2.5570     0.5600    -0.8900 N.2   1 <1>  -0.5120 
  5 N       -0.9220     2.0000     0.2560 N.am  1 <1>  -0.4200 
  6 C        0.4460     2.0540     0.4180 C.2   1 <1>   0.6160 
  7 C        2.5470     0.7930    -0.2530 C.2   1 <1>  -0.4000 
  8 N       -3.7330     1.2920    -0.6300 N.am  1 <1>  -0.3680 
  9 C       -1.7990     2.9090     1.0230 C.3   1 <1>   0.2780 
 10 O        0.9530     2.9390     1.0870 O.2   1 <1>  -0.5700 
 11 C        3.3450    -0.2230    -0.8590 C.2   1 <1>   1.0500 
 12 C       -5.0360     0.9380    -0.8550 C.2   1 <1>   0.7800 
 13 C       -2.2660     4.0510     0.1320 C.2   1 <1>  -0.2880 
 14 O        4.5760    -0.1660    -0.7210 O.co2 1 <1>  -0.9000 
 15 O        2.8530    -1.1520    -1.5120 O.co2 1 <1>  -0.9000 
 16 O       -5.3850    -0.1430    -1.2850 O.2   1 <1>  -0.5700 
 17 O       -5.9210     1.8900    -0.5510 O.3   1 <1>  -0.4300 
 18 C       -2.2960     5.3370     0.4950 C.2   1 <1>  -0.3000 
 19 C       -7.3250     1.8180    -0.6730 C.3   1 <1>   0.2800 
 20 C       -7.8810     0.7180     0.2380 C.3   1 <1>  -0.2400 
 21 C       -7.7220     1.6200    -2.1400 C.3   1 <1>  -0.2400 
 22 C       -7.8370     3.1770    -0.1920 C.3   1 <1>  -0.2400 
 23 H        3.1780     1.4900     0.2600 H     1 <1>   0.1500 
 24 H       -3.6440     2.2490    -0.2890 H     1 <1>   0.3700 
 25 H       -2.6380     2.3570     1.4070 H     1 <1>   0.0800 
 26 H       -1.2750     3.3080     1.8750 H     1 <1>   0.0800 
 27 H       -2.5690     3.7370    -0.8530 H     1 <1>   0.1500 
 28 H       -2.6220     6.1370    -0.1480 H     1 <1>   0.1500 
 29 H       -1.9930     5.7050     1.4620 H     1 <1>   0.1500 
 30 H       -8.9550     0.7590     0.2480 H     1 <1>   0.0800 
 31 H       -7.5270     0.8470     1.2450 H     1 <1>   0.0800 
 32 H       -7.6000    -0.2580    -0.1140 H     1 <1>   0.0800 
 33 H       -7.4390     0.6450    -2.4920 H     1 <1>   0.0800 
 34 H       -7.2580     2.3670    -2.7590 H     1 <1>   0.0800 
 35 H       -8.7880     1.7040    -2.2460 H     1 <1>   0.0800 
 36 H       -8.9100     3.2140    -0.2500 H     1 <1>   0.0800 
 37 H       -7.4380     3.9650    -0.8040 H     1 <1>   0.0800 
 38 H       -7.5480     3.3450     0.8300 H     1 <1>   0.0800 
@<TRIPOS>BOND
  1   1   2  1   
  2   1   3  1   
  3   2   4  2   
  4   2   5  1   
  5   3   6  1   
  6   3   7  2   
  7   4   8  1   
  8   5   6  am  
  9   5   9  1   
 10   6  10  2   
 11   7  11  1   
 12   7  23  1   
 13   8  12  am  
 14   8  24  1   
 15   9  13  1   
 16   9  25  1   
 17   9  26  1   
 18  11  14  ar  
 19  11  15  ar  
 20  12  16  2   
 21  12  17  1   
 22  13  18  2   
 23  13  27  1   
 24  17  19  1   
 25  18  28  1   
 26  18  29  1   
 27  19  20  1   
 28  19  21  1   
 29  19  22  1   
 30  20  30  1   
 31  20  31  1   
 32  20  32  1   
 33  21  33  1   
 34  21  34  1   
 35  21  35  1   
 36  22  36  1   
 37  22  37  1   
 38  22  38  1   
@<TRIPOS>SUBSTRUCTURE
  1 ****   2 GROUP 4 **** **** 0

# MOE 2024.06 (io_trps.svl 2023.06)
