@<TRIPOS>MOLECULE
NONAME
41 42 1 0 0 
SMALL
USER_CHARGES


@<TRIPOS>ATOM
  1 O        0.8420    -0.2080     0.5910 O.2   1 <1>  -0.5700 
  2 C        0.6760    -1.2570     0.0100 C.2   1 <1>   0.4950 
  3 C        1.7190    -2.0440    -0.5750 C.2   1 <1>   0.0290 
  4 C       -0.7530    -1.8070    -0.1120 C.3   1 <1>  -0.0190 
  5 C        1.4650    -3.4560    -0.5120 C.2   1 <1>   0.4950 
  6 C        2.8680    -1.5170    -1.1500 C.2   1 <1>  -0.0380 
  7 C       -0.8660    -3.2200     0.4950 C.3   1 <1>  -0.1600 
  8 C       -1.8480    -0.8870     0.4590 C.3   1 <1>  -0.2400 
  9 O        1.9720    -4.2870    -1.2360 O.2   1 <1>  -0.5700 
 10 C        0.4920    -3.9490     0.5730 C.3   1 <1>  -0.0190 
 11 N        3.8230    -2.2860    -1.7200 N.pl3 1 <1>  -0.9000 
 12 C        3.1640    -0.0190    -1.2250 C.3   1 <1>  -0.0220 
 13 C        0.2720    -5.4740     0.5990 C.3   1 <1>  -0.2400 
 14 C        3.9170     0.5050     0.0160 C.3   1 <1>  -0.0800 
 15 C        4.0330     2.0420    -0.0310 C.3   1 <1>  -0.0990 
 16 C        5.3140    -0.1320     0.1800 C.3   1 <1>  -0.0990 
 17 C        4.8870     2.5900     1.1000 C.2   1 <1>   0.5690 
 18 C        6.1120     0.5130     1.2990 C.2   1 <1>   0.5690 
 19 O        4.7290     3.7150     1.4870 O.2   1 <1>  -0.5700 
 20 N        5.8380     1.7940     1.6460 N.am  1 <1>  -0.4900 
 21 O        6.9810    -0.1030     1.8540 O.2   1 <1>  -0.5700 
 22 H       -0.9400    -1.8950    -1.1690 H     1 <1>   0.0800 
 23 H       -1.5580    -3.7880    -0.1040 H     1 <1>   0.0800 
 24 H       -1.2740    -3.1670     1.4910 H     1 <1>   0.0800 
 25 H       -1.7030    -0.7370     1.5150 H     1 <1>   0.0800 
 26 H       -2.8230    -1.3140     0.2990 H     1 <1>   0.0800 
 27 H       -1.8140     0.0740    -0.0250 H     1 <1>   0.0800 
 28 H        0.9470    -3.6850     1.5130 H     1 <1>   0.0800 
 29 H        3.7010    -3.3140    -1.7830 H     1 <1>   0.4000 
 30 H        4.6780    -1.9510    -2.1750 H     1 <1>   0.4000 
 31 H        3.7410     0.1860    -2.1100 H     1 <1>   0.0800 
 32 H        2.2440     0.5250    -1.3410 H     1 <1>   0.0800 
 33 H       -0.1550    -5.8090    -0.3300 H     1 <1>   0.0800 
 34 H       -0.3850    -5.7490     1.4050 H     1 <1>   0.0800 
 35 H        1.2120    -5.9790     0.7390 H     1 <1>   0.0800 
 36 H        3.3430     0.2530     0.8920 H     1 <1>   0.0800 
 37 H        3.0530     2.4810     0.0370 H     1 <1>   0.0800 
 38 H        4.4740     2.3550    -0.9590 H     1 <1>   0.0800 
 39 H        5.8760    -0.0320    -0.7300 H     1 <1>   0.0800 
 40 H        5.2140    -1.1800     0.3970 H     1 <1>   0.0800 
 41 H        6.3900     2.1920     2.4000 H     1 <1>   0.3700 
@<TRIPOS>BOND
  1   1   2  2   
  2   2   3  1   
  3   2   4  1   
  4   3   5  1   
  5   3   6  2   
  6   4   7  1   
  7   4   8  1   
  8   4  22  1   
  9   5   9  2   
 10   5  10  1   
 11   6  11  1   
 12   6  12  1   
 13   7  10  1   
 14   7  23  1   
 15   7  24  1   
 16   8  25  1   
 17   8  26  1   
 18   8  27  1   
 19  10  13  1   
 20  10  28  1   
 21  11  29  1   
 22  11  30  1   
 23  12  14  1   
 24  12  31  1   
 25  12  32  1   
 26  13  33  1   
 27  13  34  1   
 28  13  35  1   
 29  14  15  1   
 30  14  16  1   
 31  14  36  1   
 32  15  17  1   
 33  15  37  1   
 34  15  38  1   
 35  16  18  1   
 36  16  39  1   
 37  16  40  1   
 38  17  19  2   
 39  17  20  am  
 40  18  20  am  
 41  18  21  2   
 42  20  41  1   
@<TRIPOS>SUBSTRUCTURE
  1 ****   6 GROUP 4 **** **** 0

# MOE 2024.06 (io_trps.svl 2023.06)
