@<TRIPOS>MOLECULE
NONAME
39 39 1 0 0 
SMALL
USER_CHARGES


@<TRIPOS>ATOM
  1 O       -1.2180     1.6940    -1.2210 O.2   1 <1>  -0.5700 
  2 C       -2.0440     1.1070    -0.5570 C.2   1 <1>   0.7800 
  3 O       -2.8070     0.1950    -1.1590 O.3   1 <1>  -0.4300 
  4 N       -2.2300     1.3790     0.7590 N.am  1 <1>  -0.7300 
  5 C       -3.8130    -0.5620    -0.5200 C.3   1 <1>   0.1200 
  6 C       -1.6240     2.5520     1.4500 C.3   1 <1>   0.1400 
  7 C       -5.0890     0.2790    -0.3910 C.3   1 <1>  -0.1600 
  8 C       -2.1440     3.8880     0.8870 C.3   1 <1>   0.3440 
  9 C       -6.2230    -0.5290     0.2520 C.3   1 <1>  -0.1600 
 10 O       -1.7750     4.9090     1.7430 O.3   1 <1>  -0.6800 
 11 C       -3.6640     3.9240     0.7450 C.ar  1 <1>  -0.1440 
 12 C       -7.4810     0.3310     0.4170 C.3   1 <1>  -0.1600 
 13 C       -4.2330     3.9030    -0.5210 C.ar  1 <1>  -0.1500 
 14 C       -4.4940     3.9650     1.8570 C.ar  1 <1>  -0.1500 
 15 C       -8.6220    -0.4750     1.0430 C.3   1 <1>  -0.2400 
 16 C       -5.6090     3.9240    -0.6730 C.ar  1 <1>  -0.1500 
 17 C       -5.8700     3.9850     1.7070 C.ar  1 <1>  -0.1500 
 18 C       -6.4280     3.9660     0.4410 C.ar  1 <1>  -0.1500 
 19 H       -3.0970     1.0400     1.1720 H     1 <1>   0.3700 
 20 H       -3.4510    -0.8990     0.4360 H     1 <1>   0.0800 
 21 H       -4.0020    -1.4220    -1.1380 H     1 <1>   0.0800 
 22 H       -0.5550     2.5160     1.3320 H     1 <1>   0.0800 
 23 H       -1.8590     2.4930     2.4980 H     1 <1>   0.0800 
 24 H       -5.3940     0.6040    -1.3710 H     1 <1>   0.0800 
 25 H       -4.8990     1.1500     0.2110 H     1 <1>   0.0800 
 26 H       -1.6750     4.0800    -0.0630 H     1 <1>   0.0800 
 27 H       -5.9090    -0.8880     1.2170 H     1 <1>   0.0800 
 28 H       -6.4510    -1.3810    -0.3660 H     1 <1>   0.0800 
 29 H       -2.2770     5.7090     1.4950 H     1 <1>   0.4000 
 30 H       -7.7950     0.7030    -0.5430 H     1 <1>   0.0800 
 31 H       -7.2600     1.1770     1.0460 H     1 <1>   0.0800 
 32 H       -3.6070     3.8620    -1.3970 H     1 <1>   0.1500 
 33 H       -4.0690     3.9830     2.8470 H     1 <1>   0.1500 
 34 H       -8.8760    -1.3150     0.4200 H     1 <1>   0.0800 
 35 H       -9.4940     0.1450     1.1520 H     1 <1>   0.0800 
 36 H       -8.3370    -0.8380     2.0160 H     1 <1>   0.0800 
 37 H       -6.0400     3.9070    -1.6590 H     1 <1>   0.1500 
 38 H       -6.5060     4.0190     2.5740 H     1 <1>   0.1500 
 39 H       -7.4980     3.9830     0.3230 H     1 <1>   0.1500 
@<TRIPOS>BOND
  1   1   2  2   
  2   2   3  1   
  3   2   4  am  
  4   3   5  1   
  5   4   6  1   
  6   4  19  1   
  7   5   7  1   
  8   5  20  1   
  9   5  21  1   
 10   6   8  1   
 11   6  22  1   
 12   6  23  1   
 13   7   9  1   
 14   7  24  1   
 15   7  25  1   
 16   8  10  1   
 17   8  11  1   
 18   8  26  1   
 19   9  12  1   
 20   9  27  1   
 21   9  28  1   
 22  10  29  1   
 23  11  13  ar  
 24  11  14  ar  
 25  12  15  1   
 26  12  30  1   
 27  12  31  1   
 28  13  16  ar  
 29  13  32  1   
 30  14  17  ar  
 31  14  33  1   
 32  15  34  1   
 33  15  35  1   
 34  15  36  1   
 35  16  18  ar  
 36  16  37  1   
 37  17  18  ar  
 38  17  38  1   
 39  18  39  1   
@<TRIPOS>SUBSTRUCTURE
  1 ****  11 GROUP 4 **** **** 0

# MOE 2024.06 (io_trps.svl 2023.06)
