@<TRIPOS>MOLECULE
NONAME
41 42 1 0 0 
SMALL
USER_CHARGES


@<TRIPOS>ATOM
  1 I       -0.1380     0.1440     0.4740 I     1 <1>  -0.0810 
  2 C        1.8300     0.9290     0.2520 C.ar  1 <1>   0.0810 
  3 C        1.9830     2.1910    -0.2910 C.ar  1 <1>  -0.1500 
  4 C        2.9020     0.1550     0.6570 C.ar  1 <1>  -0.1500 
  5 C        3.2660     2.6910    -0.4300 C.ar  1 <1>  -0.1500 
  6 C        4.1810     0.6680     0.5120 C.ar  1 <1>  -0.1500 
  7 C        4.3650     1.9400    -0.0330 C.ar  1 <1>   0.0830 
  8 O        5.5820     2.5140    -0.2090 O.3   1 <1>  -0.3630 
  9 C        6.7680     1.8490     0.1520 C.3   1 <1>   0.1200 
 10 C        7.9350     2.7800    -0.1830 C.3   1 <1>  -0.1600 
 11 C        9.2910     2.1500     0.1660 C.3   1 <1>  -0.1600 
 12 C       10.4300     3.1130    -0.1780 C.3   1 <1>   0.3430 
 13 N       11.7410     2.5550     0.2530 N.4   1 <1>  -0.9590 
 14 C       12.7760     3.6310     0.2890 C.3   1 <1>   0.3430 
 15 C       12.1820     1.4100    -0.6010 C.3   1 <1>   0.3430 
 16 C       14.0770     3.0790     0.8750 C.3   1 <1>  -0.1600 
 17 C       13.4700     0.8090    -0.0360 C.3   1 <1>  -0.1600 
 18 C       14.5800     1.8600     0.0920 C.3   1 <1>  -0.1600 
 19 H        1.1280     2.7680    -0.5960 H     1 <1>   0.1500 
 20 H        2.7430    -0.8230     1.0750 H     1 <1>   0.1500 
 21 H        3.4250     3.6690    -0.8480 H     1 <1>   0.1500 
 22 H        5.0110     0.0660     0.8270 H     1 <1>   0.1500 
 23 H        6.8270     0.9340    -0.4120 H     1 <1>   0.0800 
 24 H        6.7290     1.6400     1.2070 H     1 <1>   0.0800 
 25 H        7.8070     3.6970     0.3670 H     1 <1>   0.0800 
 26 H        7.9000     3.0050    -1.2360 H     1 <1>   0.0800 
 27 H        9.3970     1.2340    -0.3870 H     1 <1>   0.0800 
 28 H        9.3110     1.9280     1.2200 H     1 <1>   0.0800 
 29 H       10.2530     4.0480     0.3310 H     1 <1>   0.0800 
 30 H       10.4400     3.3080    -1.2380 H     1 <1>   0.0800 
 31 H       11.6430     2.2030     1.2140 H     1 <1>   0.4500 
 32 H       12.4340     4.4560     0.8930 H     1 <1>   0.0800 
 33 H       12.9590     3.9950    -0.7100 H     1 <1>   0.0800 
 34 H       12.3570     1.7530    -1.6090 H     1 <1>   0.0800 
 35 H       11.4200     0.6490    -0.6300 H     1 <1>   0.0800 
 36 H       13.9210     2.8150     1.9070 H     1 <1>   0.0800 
 37 H       14.8280     3.8500     0.8520 H     1 <1>   0.0800 
 38 H       13.8040     0.0180    -0.6860 H     1 <1>   0.0800 
 39 H       13.2680     0.3690     0.9250 H     1 <1>   0.0800 
 40 H       15.4350     1.4310     0.5900 H     1 <1>   0.0800 
 41 H       14.8970     2.1690    -0.8900 H     1 <1>   0.0800 
@<TRIPOS>BOND
  1   1   2  1   
  2   2   3  ar  
  3   2   4  ar  
  4   3   5  ar  
  5   3  19  1   
  6   4   6  ar  
  7   4  20  1   
  8   5   7  ar  
  9   5  21  1   
 10   6   7  ar  
 11   6  22  1   
 12   7   8  1   
 13   8   9  1   
 14   9  10  1   
 15   9  23  1   
 16   9  24  1   
 17  10  11  1   
 18  10  25  1   
 19  10  26  1   
 20  11  12  1   
 21  11  27  1   
 22  11  28  1   
 23  12  13  1   
 24  12  29  1   
 25  12  30  1   
 26  13  14  1   
 27  13  15  1   
 28  13  31  1   
 29  14  16  1   
 30  14  32  1   
 31  14  33  1   
 32  15  17  1   
 33  15  34  1   
 34  15  35  1   
 35  16  18  1   
 36  16  36  1   
 37  16  37  1   
 38  17  18  1   
 39  17  38  1   
 40  17  39  1   
 41  18  40  1   
 42  18  41  1   
@<TRIPOS>SUBSTRUCTURE
  1 ****   9 GROUP 4 **** **** 0

# MOE 2024.06 (io_trps.svl 2023.06)
