@<TRIPOS>MOLECULE
NONAME
26 26 1 0 0 
SMALL
USER_CHARGES


@<TRIPOS>ATOM
  1 CL      -0.2310    -0.2340    -0.1960 Cl    1 <1>  -0.1770 
  2 C        1.3730    -0.9090    -0.3230 C.ar  1 <1>   0.1770 
  3 C        1.7690    -1.4940    -1.5120 C.ar  1 <1>  -0.1500 
  4 C        2.2190    -0.8480     0.7710 C.ar  1 <1>  -0.1500 
  5 C        3.0430    -2.0280    -1.6100 C.ar  1 <1>  -0.1500 
  6 C        3.4950    -1.3820     0.6750 C.ar  1 <1>  -0.1500 
  7 C        3.8960    -1.9670    -0.5190 C.ar  1 <1>   0.1020 
  8 S        5.5340    -2.6820    -0.7340 S.3   1 <1>  -0.3320 
  9 C        6.4550    -2.3950     0.8570 C.3   1 <1>   0.1310 
 10 C        7.8670    -2.9640     0.7940 C.2   1 <1>   0.5690 
 11 O        8.1160    -3.8760     1.5500 O.2   1 <1>  -0.5700 
 12 N        8.8220    -2.4460    -0.0540 N.am  1 <1>  -0.6600 
 13 C       10.1810    -3.0510    -0.1500 C.3   1 <1>   0.0600 
 14 C        8.5950    -1.3220    -1.0060 C.3   1 <1>   0.0600 
 15 H        1.0900    -1.5280    -2.3450 H     1 <1>   0.1500 
 16 H        1.8800    -0.3880     1.6810 H     1 <1>   0.1500 
 17 H        3.3770    -2.4890    -2.5230 H     1 <1>   0.1500 
 18 H        4.1450    -1.3350     1.5250 H     1 <1>   0.1500 
 19 H        5.8990    -2.8890     1.6330 H     1 <1>   0.0800 
 20 H        6.4810    -1.3380     1.0370 H     1 <1>   0.0800 
 21 H       10.2780    -3.8930     0.5130 H     1 <1>   0.0800 
 22 H       10.9240    -2.3200     0.1150 H     1 <1>   0.0800 
 23 H       10.3570    -3.3890    -1.1560 H     1 <1>   0.0800 
 24 H        7.7360    -0.7400    -0.7300 H     1 <1>   0.0800 
 25 H        8.4440    -1.7170    -1.9960 H     1 <1>   0.0800 
 26 H        9.4530    -0.6730    -1.0150 H     1 <1>   0.0800 
@<TRIPOS>BOND
  1   1   2  1   
  2   2   3  ar  
  3   2   4  ar  
  4   3   5  ar  
  5   3  15  1   
  6   4   6  ar  
  7   4  16  1   
  8   5   7  ar  
  9   5  17  1   
 10   6   7  ar  
 11   6  18  1   
 12   7   8  1   
 13   8   9  1   
 14   9  10  1   
 15   9  19  1   
 16   9  20  1   
 17  10  11  2   
 18  10  12  am  
 19  12  13  1   
 20  12  14  1   
 21  13  21  1   
 22  13  22  1   
 23  13  23  1   
 24  14  24  1   
 25  14  25  1   
 26  14  26  1   
@<TRIPOS>SUBSTRUCTURE
  1 ****   8 GROUP 4 **** **** 0

# MOE 2024.06 (io_trps.svl 2023.06)
