@<TRIPOS>MOLECULE
NONAME
46 46 1 0 0 
SMALL
USER_CHARGES


@<TRIPOS>ATOM
  1 O       -0.7110     3.9590    -2.2660 O.2   1 <1>  -0.5700 
  2 C       -0.8280     3.3910    -1.2070 C.2   1 <1>   0.5690 
  3 N        0.1720     2.5640    -0.8070 N.am  1 <1>  -0.7300 
  4 C       -2.0820     3.6130    -0.3400 C.3   1 <1>   0.1250 
  5 C        0.2030     1.6490     0.3560 C.3   1 <1>   0.1400 
  6 C       -2.8410     2.3100    -0.0790 C.ar  1 <1>  -0.1440 
  7 C       -3.0600     4.6520    -0.9180 C.3   1 <1>  -0.2400 
  8 C        1.6530     1.3240     0.7500 C.3   1 <1>  -0.0800 
  9 C       -3.2520     1.9840     1.2050 C.ar  1 <1>  -0.1500 
 10 C       -3.1230     1.4350    -1.1170 C.ar  1 <1>  -0.1500 
 11 C        2.4120     0.6010    -0.3750 C.3   1 <1>  -0.2400 
 12 C        1.6660     0.4560     2.0150 C.3   1 <1>  -0.2400 
 13 C       -3.9230     0.7980     1.4480 C.ar  1 <1>  -0.1500 
 14 C       -3.7940     0.2500    -0.8740 C.ar  1 <1>  -0.1500 
 15 C       -4.1980    -0.0780     0.4110 C.ar  1 <1>  -0.1430 
 16 C       -4.9370    -1.3810     0.6830 C.3   1 <1>  -0.0170 
 17 C       -6.4470    -1.1690     0.8940 C.3   1 <1>  -0.0800 
 18 C       -7.1230    -2.4920     1.2750 C.3   1 <1>  -0.2400 
 19 C       -7.1230    -0.5860    -0.3550 C.3   1 <1>  -0.2400 
 20 H        0.9390     2.4550    -1.4710 H     1 <1>   0.3700 
 21 H       -1.7300     3.9990     0.5980 H     1 <1>   0.0800 
 22 H       -0.3210     0.7420     0.1040 H     1 <1>   0.0800 
 23 H       -0.3000     2.1070     1.1890 H     1 <1>   0.0800 
 24 H       -3.4310     4.3210    -1.8720 H     1 <1>   0.0800 
 25 H       -2.5610     5.5950    -1.0540 H     1 <1>   0.0800 
 26 H       -3.8930     4.7900    -0.2530 H     1 <1>   0.0800 
 27 H        2.1580     2.2490     0.9760 H     1 <1>   0.0800 
 28 H       -3.0530     2.6500     2.0260 H     1 <1>   0.1500 
 29 H       -2.8190     1.6720    -2.1230 H     1 <1>   0.1500 
 30 H        1.9050    -0.3070    -0.6500 H     1 <1>   0.0800 
 31 H        3.4070     0.3520    -0.0510 H     1 <1>   0.0800 
 32 H        2.4960     1.2260    -1.2460 H     1 <1>   0.0800 
 33 H        1.1680    -0.4810     1.8380 H     1 <1>   0.0800 
 34 H        1.1680     0.9630     2.8220 H     1 <1>   0.0800 
 35 H        2.6780     0.2550     2.3190 H     1 <1>   0.0800 
 36 H       -4.2350     0.5600     2.4490 H     1 <1>   0.1500 
 37 H       -4.0040    -0.4160    -1.6920 H     1 <1>   0.1500 
 38 H       -4.5140    -1.8340     1.5620 H     1 <1>   0.0800 
 39 H       -4.7800    -2.0640    -0.1330 H     1 <1>   0.0800 
 40 H       -6.5830    -0.4750     1.7070 H     1 <1>   0.0800 
 41 H       -7.0160    -3.2150     0.4850 H     1 <1>   0.0800 
 42 H       -8.1710    -2.3360     1.4570 H     1 <1>   0.0800 
 43 H       -6.6830    -2.8940     2.1710 H     1 <1>   0.0800 
 44 H       -6.9820    -1.2350    -1.2010 H     1 <1>   0.0800 
 45 H       -6.7100     0.3790    -0.5900 H     1 <1>   0.0800 
 46 H       -8.1780    -0.4630    -0.1870 H     1 <1>   0.0800 
@<TRIPOS>BOND
  1   1   2  2   
  2   2   3  am  
  3   2   4  1   
  4   3   5  1   
  5   3  20  1   
  6   4   6  1   
  7   4   7  1   
  8   4  21  1   
  9   5   8  1   
 10   5  22  1   
 11   5  23  1   
 12   6   9  ar  
 13   6  10  ar  
 14   7  24  1   
 15   7  25  1   
 16   7  26  1   
 17   8  11  1   
 18   8  12  1   
 19   8  27  1   
 20   9  13  ar  
 21   9  28  1   
 22  10  14  ar  
 23  10  29  1   
 24  11  30  1   
 25  11  31  1   
 26  11  32  1   
 27  12  33  1   
 28  12  34  1   
 29  12  35  1   
 30  13  15  ar  
 31  13  36  1   
 32  14  15  ar  
 33  14  37  1   
 34  15  16  1   
 35  16  17  1   
 36  16  38  1   
 37  16  39  1   
 38  17  18  1   
 39  17  19  1   
 40  17  40  1   
 41  18  41  1   
 42  18  42  1   
 43  18  43  1   
 44  19  44  1   
 45  19  45  1   
 46  19  46  1   
@<TRIPOS>SUBSTRUCTURE
  1 ****   6 GROUP 4 **** **** 0

# MOE 2024.06 (io_trps.svl 2023.06)
