@<TRIPOS>MOLECULE
NONAME
44 45 1 0 0 
SMALL
USER_CHARGES


@<TRIPOS>ATOM
  1 O        9.3160    -3.9370     0.6980 O.3   1 <1>  -0.5600 
  2 C        8.6120    -2.8350     0.2060 C.3   1 <1>   0.1200 
  3 C        8.8640    -5.1560     0.1890 C.3   1 <1>   0.1200 
  4 C        7.1170    -2.9610     0.5530 C.3   1 <1>   0.1100 
  5 C        7.3790    -5.3600     0.5400 C.3   1 <1>   0.1100 
  6 N        6.5460    -4.2330     0.0500 N.3   1 <1>  -0.8100 
  7 C        5.1360    -4.3620     0.4240 C.3   1 <1>   0.1100 
  8 C        4.4420    -5.3650    -0.5070 C.3   1 <1>   0.3430 
  9 N        2.9740    -5.4100    -0.2590 N.4   1 <1>  -0.9060 
 10 C        2.2580    -6.3430    -1.1520 C.3   1 <1>   0.4860 
 11 C        0.8030    -6.2670    -0.7530 C.ar  1 <1>  -0.1430 
 12 C        0.3140    -7.0850     0.2560 C.ar  1 <1>  -0.1500 
 13 C       -0.0510    -5.3710    -1.3820 C.ar  1 <1>  -0.1500 
 14 C       -1.0120    -6.9960     0.6370 C.ar  1 <1>  -0.1500 
 15 C       -1.3780    -5.2840    -0.9990 C.ar  1 <1>  -0.1500 
 16 C       -1.8650    -6.0980     0.0190 C.ar  1 <1>   0.0820 
 17 O       -3.1460    -6.0770     0.4590 O.3   1 <1>  -0.3630 
 18 C       -4.1220    -5.2570    -0.1410 C.3   1 <1>   0.1200 
 19 C       -5.4490    -5.5070     0.5690 C.3   1 <1>  -0.2400 
 20 H        8.7530    -2.7810    -0.8590 H     1 <1>   0.0800 
 21 H        9.0280    -1.9520     0.6570 H     1 <1>   0.0800 
 22 H        9.4640    -5.9350     0.6240 H     1 <1>   0.0800 
 23 H        9.0100    -5.1600    -0.8780 H     1 <1>   0.0800 
 24 H        6.5920    -2.1300     0.1150 H     1 <1>   0.0800 
 25 H        7.0080    -2.9020     1.6230 H     1 <1>   0.0800 
 26 H        7.2940    -5.4460     1.6110 H     1 <1>   0.0800 
 27 H        7.0490    -6.2830     0.0990 H     1 <1>   0.0800 
 28 H        4.6590    -3.4030     0.3080 H     1 <1>   0.0800 
 29 H        5.0560    -4.6690     1.4540 H     1 <1>   0.0800 
 30 H        4.8710    -6.3410    -0.3520 H     1 <1>   0.0800 
 31 H        4.6300    -5.0660    -1.5250 H     1 <1>   0.0800 
 32 H        2.5550    -4.4810    -0.3850 H     1 <1>   0.4500 
 33 H        2.7670    -5.6840     0.7090 H     1 <1>   0.4500 
 34 H        2.6240    -7.3490    -1.0250 H     1 <1>   0.0800 
 35 H        2.3760    -6.0520    -2.1830 H     1 <1>   0.0800 
 36 H        0.9460    -7.8010     0.7550 H     1 <1>   0.1500 
 37 H        0.2980    -4.7320    -2.1760 H     1 <1>   0.1500 
 38 H       -1.4020    -7.6250     1.4190 H     1 <1>   0.1500 
 39 H       -2.0190    -4.5820    -1.5000 H     1 <1>   0.1500 
 40 H       -4.1930    -5.5180    -1.1830 H     1 <1>   0.0800 
 41 H       -3.8210    -4.2300    -0.0310 H     1 <1>   0.0800 
 42 H       -5.7330    -6.5390     0.4670 H     1 <1>   0.0800 
 43 H       -6.2170    -4.8950     0.1330 H     1 <1>   0.0800 
 44 H       -5.3620    -5.2610     1.6120 H     1 <1>   0.0800 
@<TRIPOS>BOND
  1   1   2  1   
  2   1   3  1   
  3   2   4  1   
  4   2  20  1   
  5   2  21  1   
  6   3   5  1   
  7   3  22  1   
  8   3  23  1   
  9   4   6  1   
 10   4  24  1   
 11   4  25  1   
 12   5   6  1   
 13   5  26  1   
 14   5  27  1   
 15   6   7  1   
 16   7   8  1   
 17   7  28  1   
 18   7  29  1   
 19   8   9  1   
 20   8  30  1   
 21   8  31  1   
 22   9  10  1   
 23   9  32  1   
 24   9  33  1   
 25  10  11  1   
 26  10  34  1   
 27  10  35  1   
 28  11  12  ar  
 29  11  13  ar  
 30  12  14  ar  
 31  12  36  1   
 32  13  15  ar  
 33  13  37  1   
 34  14  16  ar  
 35  14  38  1   
 36  15  16  ar  
 37  15  39  1   
 38  16  17  1   
 39  17  18  1   
 40  18  19  1   
 41  18  40  1   
 42  18  41  1   
 43  19  42  1   
 44  19  43  1   
 45  19  44  1   
@<TRIPOS>SUBSTRUCTURE
  1 ****   9 GROUP 4 **** **** 0

# MOE 2024.06 (io_trps.svl 2023.06)
