@<TRIPOS>MOLECULE
NONAME
29 29 1 0 0 
SMALL
USER_CHARGES


@<TRIPOS>ATOM
  1 CL      -0.8940    -0.6830     2.2340 Cl    1 <1>  -0.1770 
  2 C       -0.4540    -1.9100     1.0680 C.ar  1 <1>   0.1770 
  3 C       -1.3530    -2.3220     0.0920 C.ar  1 <1>  -0.1440 
  4 C        0.8190    -2.4450     1.1500 C.ar  1 <1>  -0.1500 
  5 C       -0.9400    -3.2900    -0.8140 C.ar  1 <1>  -0.1500 
  6 C       -2.7540    -1.7310    -0.0120 C.3   1 <1>   0.2140 
  7 C        1.2150    -3.4100     0.2420 C.ar  1 <1>  -0.1500 
  8 C        0.3330    -3.8310    -0.7390 C.ar  1 <1>  -0.1500 
  9 S       -3.9730    -3.0770     0.0480 S.3   1 <1>  -0.4600 
 10 C       -5.5560    -2.2090    -0.1410 C.3   1 <1>   0.0700 
 11 C       -6.6820    -3.2080     0.1200 C.3   1 <1>   0.1400 
 12 N       -7.9970    -2.6140    -0.2260 N.am  1 <1>  -0.7300 
 13 C       -8.6080    -1.6320     0.4800 C.2   1 <1>   0.5690 
 14 O       -8.0930    -1.1040     1.4330 O.2   1 <1>  -0.5700 
 15 C       -9.9780    -1.1880     0.0430 C.3   1 <1>  -0.1790 
 16 H        1.4910    -2.1060     1.9180 H     1 <1>   0.1500 
 17 H       -1.6150    -3.6320    -1.5810 H     1 <1>   0.1500 
 18 H       -2.8860    -1.2220    -0.9500 H     1 <1>   0.0800 
 19 H       -2.9900    -1.0650     0.7970 H     1 <1>   0.0800 
 20 H        2.2030    -3.8330     0.2970 H     1 <1>   0.1500 
 21 H        0.6370    -4.5830    -1.4470 H     1 <1>   0.1500 
 22 H       -5.5920    -1.8270    -1.1450 H     1 <1>   0.0800 
 23 H       -5.5760    -1.4070     0.5750 H     1 <1>   0.0800 
 24 H       -6.6780    -3.4840     1.1620 H     1 <1>   0.0800 
 25 H       -6.5270    -4.0940    -0.4710 H     1 <1>   0.0800 
 26 H       -8.4800    -3.0330    -1.0220 H     1 <1>   0.3700 
 27 H       -9.9360    -0.8150    -0.9630 H     1 <1>   0.0800 
 28 H      -10.3290    -0.4060     0.6910 H     1 <1>   0.0800 
 29 H      -10.6610    -2.0150     0.0940 H     1 <1>   0.0800 
@<TRIPOS>BOND
  1   1   2  1   
  2   2   3  ar  
  3   2   4  ar  
  4   3   5  ar  
  5   3   6  1   
  6   4   7  ar  
  7   4  16  1   
  8   5   8  ar  
  9   5  17  1   
 10   6   9  1   
 11   6  18  1   
 12   6  19  1   
 13   7   8  ar  
 14   7  20  1   
 15   8  21  1   
 16   9  10  1   
 17  10  11  1   
 18  10  22  1   
 19  10  23  1   
 20  11  12  1   
 21  11  24  1   
 22  11  25  1   
 23  12  13  am  
 24  12  26  1   
 25  13  14  2   
 26  13  15  1   
 27  15  27  1   
 28  15  28  1   
 29  15  29  1   
@<TRIPOS>SUBSTRUCTURE
  1 ****   9 GROUP 4 **** **** 0

# MOE 2024.06 (io_trps.svl 2023.06)
