@<TRIPOS>MOLECULE
NONAME
29 29 1 0 0 
SMALL
USER_CHARGES


@<TRIPOS>ATOM
  1 S       -0.1230     0.0710    -0.0630 S.o2  1 <1>   1.4470 
  2 O       -0.1100     0.6230     1.2700 O.2   1 <1>  -0.6500 
  3 O       -0.5150     0.8820    -1.1920 O.2   1 <1>  -0.6500 
  4 N       -1.2530    -1.1600     0.0750 N.am  1 <1>  -0.9140 
  5 C        1.4220    -0.7940    -0.4280 C.ar  1 <1>  -0.0090 
  6 C       -2.6000    -0.7320    -0.2670 C.3   1 <1>   0.1960 
  7 C        2.6330    -0.1240    -0.3290 C.ar  1 <1>   0.1900 
  8 C        1.4700    -2.1250    -0.8360 C.ar  1 <1>  -0.1500 
  9 C       -3.6150    -1.8260     0.1040 C.3   1 <1>  -0.0800 
 10 F        2.6380     1.1310     0.0320 F     1 <1>  -0.1900 
 11 C        3.8600    -0.7110    -0.5970 C.ar  1 <1>  -0.1500 
 12 C        2.6920    -2.7160    -1.1040 C.ar  1 <1>   0.1900 
 13 C       -5.0250    -1.4000    -0.3260 C.3   1 <1>  -0.2400 
 14 C       -3.6120    -2.1390     1.6100 C.3   1 <1>  -0.2400 
 15 C        3.8920    -2.0370    -0.9930 C.ar  1 <1>  -0.1500 
 16 F        2.7140    -3.9650    -1.4800 F     1 <1>  -0.1900 
 17 H       -1.2670    -1.3370     1.0780 H     1 <1>   0.4200 
 18 H       -2.6540    -0.5340    -1.3260 H     1 <1>   0.0800 
 19 H       -2.8410     0.1790     0.2580 H     1 <1>   0.0800 
 20 H        0.5700    -2.7050    -0.9490 H     1 <1>   0.1500 
 21 H       -3.3590    -2.7200    -0.4390 H     1 <1>   0.0800 
 22 H        4.7650    -0.1370    -0.4990 H     1 <1>   0.1500 
 23 H       -5.3290    -0.5080     0.1940 H     1 <1>   0.0800 
 24 H       -5.7330    -2.1800    -0.1110 H     1 <1>   0.0800 
 25 H       -5.0510    -1.2060    -1.3840 H     1 <1>   0.0800 
 26 H       -3.8060    -1.2500     2.1840 H     1 <1>   0.0800 
 27 H       -2.6670    -2.5500     1.9160 H     1 <1>   0.0800 
 28 H       -4.3730    -2.8650     1.8390 H     1 <1>   0.0800 
 29 H        4.8200    -2.5360    -1.2110 H     1 <1>   0.1500 
@<TRIPOS>BOND
  1   1   2  2   
  2   1   3  2   
  3   1   4  am  
  4   1   5  1   
  5   4   6  1   
  6   4  17  1   
  7   5   7  ar  
  8   5   8  ar  
  9   6   9  1   
 10   6  18  1   
 11   6  19  1   
 12   7  10  1   
 13   7  11  ar  
 14   8  12  ar  
 15   8  20  1   
 16   9  13  1   
 17   9  14  1   
 18   9  21  1   
 19  11  15  ar  
 20  11  22  1   
 21  12  15  ar  
 22  12  16  1   
 23  13  23  1   
 24  13  24  1   
 25  13  25  1   
 26  14  26  1   
 27  14  27  1   
 28  14  28  1   
 29  15  29  1   
@<TRIPOS>SUBSTRUCTURE
  1 ****   5 GROUP 4 **** **** 0

# MOE 2024.06 (io_trps.svl 2023.06)
