@<TRIPOS>MOLECULE
NONAME
48 50 1 0 0 
SMALL
USER_CHARGES


@<TRIPOS>ATOM
  1 S        0.2710    -0.0810     1.0960 S.o2  1 <1>   1.4470 
  2 O        0.7200    -0.0400     2.4720 O.2   1 <1>  -0.6500 
  3 O       -0.5750     0.9790     0.5930 O.2   1 <1>  -0.6500 
  4 N        1.6650    -0.1050     0.1300 N.am  1 <1>  -0.8490 
  5 C       -0.5100    -1.6810     0.7340 C.ar  1 <1>  -0.0090 
  6 C        2.6490    -1.0940     0.6060 C.3   1 <1>   0.1960 
  7 C        2.2720     1.2280     0.0590 C.3   1 <1>   0.1960 
  8 C       -0.5840    -2.6830     1.7010 C.ar  1 <1>  -0.1500 
  9 C       -1.0360    -1.9410    -0.5300 C.ar  1 <1>  -0.1500 
 10 C        3.8260    -1.2020    -0.3750 C.3   1 <1>  -0.0190 
 11 C        3.4480     1.2270    -0.9250 C.3   1 <1>  -0.1600 
 12 C       -1.1650    -3.9100     1.4210 C.ar  1 <1>  -0.1500 
 13 C       -1.6210    -3.1600    -0.8300 C.ar  1 <1>  -0.1500 
 14 C        4.8270    -2.2510     0.0880 C.2   1 <1>   0.5690 
 15 C        4.4980     0.1710    -0.5540 C.3   1 <1>  -0.1600 
 16 C       -1.6740    -4.1250     0.1560 C.ar  1 <1>   0.1900 
 17 O        4.9150    -2.5180     1.2620 O.2   1 <1>  -0.5700 
 18 N        5.6130    -2.8510    -0.8430 N.am  1 <1>  -0.7300 
 19 F       -2.2220    -5.2770    -0.1170 F     1 <1>  -0.1900 
 20 C        6.6420    -3.8890    -0.5490 C.3   1 <1>   0.1400 
 21 C        8.0550    -3.2880    -0.5320 C.3   1 <1>   0.2000 
 22 O        8.9890    -4.3070    -0.3460 O.3   1 <1>  -0.5600 
 23 C        8.3040    -2.2910     0.5940 C.3   1 <1>  -0.1600 
 24 C       10.0330    -3.9120     0.4930 C.3   1 <1>   0.1200 
 25 C        9.7890    -2.4490     0.8420 C.3   1 <1>  -0.1600 
 26 H        2.1840    -2.0620     0.6940 H     1 <1>   0.0800 
 27 H        3.0120    -0.8110     1.5820 H     1 <1>   0.0800 
 28 H        2.6070     1.5300     1.0380 H     1 <1>   0.0800 
 29 H        1.5400     1.9440    -0.2800 H     1 <1>   0.0800 
 30 H       -0.1830    -2.5010     2.6850 H     1 <1>   0.1500 
 31 H       -0.9840    -1.1740    -1.2850 H     1 <1>   0.1500 
 32 H        3.4280    -1.5250    -1.3200 H     1 <1>   0.0800 
 33 H        3.9030     2.2020    -0.9330 H     1 <1>   0.0800 
 34 H        3.0680     1.0350    -1.9140 H     1 <1>   0.0800 
 35 H       -1.2230    -4.6840     2.1650 H     1 <1>   0.1500 
 36 H       -2.0280    -3.3610    -1.8040 H     1 <1>   0.1500 
 37 H        5.2530     0.1200    -1.3190 H     1 <1>   0.0800 
 38 H        4.9760     0.4530     0.3690 H     1 <1>   0.0800 
 39 H        5.5270    -2.5840    -1.8250 H     1 <1>   0.3700 
 40 H        6.5930    -4.6550    -1.3020 H     1 <1>   0.0800 
 41 H        6.4390    -4.3390     0.4080 H     1 <1>   0.0800 
 42 H        8.2790    -2.8370    -1.4830 H     1 <1>   0.0800 
 43 H        7.7460    -2.5800     1.4690 H     1 <1>   0.0800 
 44 H        8.0290    -1.2900     0.3150 H     1 <1>   0.0800 
 45 H       10.9690    -4.0590    -0.0170 H     1 <1>   0.0800 
 46 H        9.9920    -4.5300     1.3730 H     1 <1>   0.0800 
 47 H       10.0670    -2.2240     1.8560 H     1 <1>   0.0800 
 48 H       10.3510    -1.8250     0.1700 H     1 <1>   0.0800 
@<TRIPOS>BOND
  1   1   2  2   
  2   1   3  2   
  3   1   4  am  
  4   1   5  1   
  5   4   6  1   
  6   4   7  1   
  7   5   8  ar  
  8   5   9  ar  
  9   6  10  1   
 10   6  26  1   
 11   6  27  1   
 12   7  11  1   
 13   7  28  1   
 14   7  29  1   
 15   8  12  ar  
 16   8  30  1   
 17   9  13  ar  
 18   9  31  1   
 19  10  14  1   
 20  10  15  1   
 21  10  32  1   
 22  11  15  1   
 23  11  33  1   
 24  11  34  1   
 25  12  16  ar  
 26  12  35  1   
 27  13  16  ar  
 28  13  36  1   
 29  14  17  2   
 30  14  18  am  
 31  15  37  1   
 32  15  38  1   
 33  16  19  1   
 34  18  20  1   
 35  18  39  1   
 36  20  21  1   
 37  20  40  1   
 38  20  41  1   
 39  21  22  1   
 40  21  23  1   
 41  21  42  1   
 42  22  24  1   
 43  23  25  1   
 44  23  43  1   
 45  23  44  1   
 46  24  25  1   
 47  24  45  1   
 48  24  46  1   
 49  25  47  1   
 50  25  48  1   
@<TRIPOS>SUBSTRUCTURE
  1 ****   6 GROUP 4 **** **** 0

# MOE 2024.06 (io_trps.svl 2023.06)
