@<TRIPOS>MOLECULE
NONAME
36 35 1 0 0 
SMALL
USER_CHARGES


@<TRIPOS>ATOM
  1 S       -0.0660     0.2950     0.5750 S.3   1 <1>  -0.4600 
  2 C       -1.4100    -0.8150     0.1120 C.3   1 <1>   0.0700 
  3 C        1.3960    -0.7790     0.5760 C.3   1 <1>  -0.0100 
  4 C       -2.6800     0.0370     0.0940 C.3   1 <1>  -0.1600 
  5 C       -3.9010    -0.7970    -0.2860 C.3   1 <1>   0.3430 
  6 N       -5.1470     0.0350    -0.1930 N.4   1 <1>  -0.9590 
  7 C       -6.3650    -0.8590    -0.1330 C.3   1 <1>   0.3430 
  8 C       -5.1970     1.0270    -1.3260 C.3   1 <1>   0.2630 
  9 C       -7.6980    -0.1180     0.1840 C.3   1 <1>   0.3430 
 10 N       -8.8970    -1.0220     0.3610 N.4   1 <1>  -0.9590 
 11 C       -9.2920    -1.7590    -0.8890 C.3   1 <1>   0.2630 
 12 C      -10.0790    -0.2280     0.8450 C.3   1 <1>   0.2630 
 13 H       -1.4470    -1.5980     0.8510 H     1 <1>   0.0800 
 14 H       -1.1710    -1.2190    -0.8570 H     1 <1>   0.0800 
 15 H        2.2440    -0.1740     0.8460 H     1 <1>   0.0800 
 16 H        1.5170    -1.1830    -0.4130 H     1 <1>   0.0800 
 17 H        1.2400    -1.5590     1.2990 H     1 <1>   0.0800 
 18 H       -2.5300     0.8340    -0.6120 H     1 <1>   0.0800 
 19 H       -2.8140     0.4580     1.0760 H     1 <1>   0.0800 
 20 H       -3.9680    -1.6310     0.3940 H     1 <1>   0.0800 
 21 H       -3.7830    -1.1860    -1.2860 H     1 <1>   0.0800 
 22 H       -5.0530     0.5650     0.6900 H     1 <1>   0.4500 
 23 H       -6.2060    -1.6000     0.6330 H     1 <1>   0.0800 
 24 H       -6.4660    -1.3720    -1.0750 H     1 <1>   0.0800 
 25 H       -5.2230     0.5160    -2.2760 H     1 <1>   0.0800 
 26 H       -4.3260     1.6630    -1.3090 H     1 <1>   0.0800 
 27 H       -6.0680     1.6570    -1.2470 H     1 <1>   0.0800 
 28 H       -7.9060     0.5810    -0.6100 H     1 <1>   0.0800 
 29 H       -7.5600     0.4450     1.0930 H     1 <1>   0.0800 
 30 H       -8.7060    -1.7240     1.0980 H     1 <1>   0.4500 
 31 H       -9.5360    -1.0650    -1.6770 H     1 <1>   0.0800 
 32 H      -10.1590    -2.3740    -0.7000 H     1 <1>   0.0800 
 33 H       -8.4940    -2.4010    -1.2250 H     1 <1>   0.0800 
 34 H      -10.3590     0.5170     0.1170 H     1 <1>   0.0800 
 35 H       -9.8490     0.2670     1.7750 H     1 <1>   0.0800 
 36 H      -10.9250    -0.8770     1.0090 H     1 <1>   0.0800 
@<TRIPOS>BOND
  1   1   2  1   
  2   1   3  1   
  3   2   4  1   
  4   2  13  1   
  5   2  14  1   
  6   3  15  1   
  7   3  16  1   
  8   3  17  1   
  9   4   5  1   
 10   4  18  1   
 11   4  19  1   
 12   5   6  1   
 13   5  20  1   
 14   5  21  1   
 15   6   7  1   
 16   6   8  1   
 17   6  22  1   
 18   7   9  1   
 19   7  23  1   
 20   7  24  1   
 21   8  25  1   
 22   8  26  1   
 23   8  27  1   
 24   9  10  1   
 25   9  28  1   
 26   9  29  1   
 27  10  11  1   
 28  10  12  1   
 29  10  30  1   
 30  11  31  1   
 31  11  32  1   
 32  11  33  1   
 33  12  34  1   
 34  12  35  1   
 35  12  36  1   
@<TRIPOS>SUBSTRUCTURE
  1 ****   6 GROUP 4 **** **** 0

# MOE 2024.06 (io_trps.svl 2023.06)
