@<TRIPOS>MOLECULE
NONAME
44 46 1 0 0 
SMALL
USER_CHARGES


@<TRIPOS>ATOM
  1 O        0.2640     0.3840    -2.3930 O.2   1 <1>  -0.5700 
  2 C        0.1290    -0.6190    -1.7350 C.2   1 <1>   0.5690 
  3 N        1.1320    -1.2350    -1.0420 N.am  1 <1>  -0.5470 
  4 C       -1.2460    -1.2800    -1.6320 C.3   1 <1>   0.1710 
  5 C        2.4910    -0.9570    -0.8310 C.ar  1 <1>   0.1170 
  6 N       -1.4350    -2.0910    -0.3820 N.3   1 <1>  -0.8100 
  7 C        3.1760    -1.6400     0.2150 C.ar  1 <1>   0.0000 
  8 C        3.1720    -0.0530    -1.6140 C.ar  1 <1>  -0.1500 
  9 C       -2.6550    -2.9230    -0.4700 C.3   1 <1>   0.1100 
 10 C       -1.5310    -1.2360     0.8270 C.3   1 <1>   0.1100 
 11 C        4.5500    -1.3700     0.4200 C.ar  1 <1>   0.0000 
 12 C        2.5600    -2.5810     1.0750 C.ar  1 <1>  -0.1500 
 13 C        4.5260     0.2120    -1.4050 C.ar  1 <1>  -0.1500 
 14 C       -3.9870    -2.1830    -0.1560 C.3   1 <1>   0.2000 
 15 C       -2.8330    -0.3940     0.9240 C.3   1 <1>   0.2000 
 16 C        5.1990    -0.4350    -0.4080 C.ar  1 <1>  -0.1500 
 17 C        5.2400    -2.0420     1.4490 C.ar  1 <1>  -0.1500 
 18 C        3.2550    -3.2180     2.0670 C.ar  1 <1>  -0.1500 
 19 O       -3.8060    -0.8040     0.0020 O.3   1 <1>  -0.5600 
 20 C       -4.7060    -2.7350     1.0790 C.3   1 <1>  -0.2400 
 21 C       -2.5880     1.0930     0.6680 C.3   1 <1>  -0.2400 
 22 C        4.6120    -2.9460     2.2570 C.ar  1 <1>  -0.1500 
 23 H        0.7540    -2.0220    -0.5090 H     1 <1>   0.3700 
 24 H       -1.3430    -1.9260    -2.4860 H     1 <1>   0.0800 
 25 H       -2.0050    -0.5240    -1.7160 H     1 <1>   0.0800 
 26 H        2.6750     0.4690    -2.4100 H     1 <1>   0.1500 
 27 H       -2.5510    -3.7420     0.2210 H     1 <1>   0.0800 
 28 H       -2.7230    -3.3670    -1.4470 H     1 <1>   0.0800 
 29 H       -0.6750    -0.5870     0.8960 H     1 <1>   0.0800 
 30 H       -1.4920    -1.8750     1.6920 H     1 <1>   0.0800 
 31 H        1.5180    -2.8080     0.9550 H     1 <1>   0.1500 
 32 H        5.0230     0.9270    -2.0370 H     1 <1>   0.1500 
 33 H       -4.6440    -2.3020    -1.0000 H     1 <1>   0.0800 
 34 H       -3.2500    -0.5020     1.9100 H     1 <1>   0.0800 
 35 H        6.2420    -0.2360    -0.2420 H     1 <1>   0.1500 
 36 H        6.2840    -1.8270     1.5900 H     1 <1>   0.1500 
 37 H        2.7710    -3.9310     2.7120 H     1 <1>   0.1500 
 38 H       -4.0700    -2.7070     1.9440 H     1 <1>   0.0800 
 39 H       -4.9920    -3.7560     0.9060 H     1 <1>   0.0800 
 40 H       -5.5970    -2.1630     1.2690 H     1 <1>   0.0800 
 41 H       -2.1750     1.2490    -0.3110 H     1 <1>   0.0800 
 42 H       -1.8990     1.4830     1.3940 H     1 <1>   0.0800 
 43 H       -3.5130     1.6340     0.7520 H     1 <1>   0.0800 
 44 H        5.1460    -3.4550     3.0410 H     1 <1>   0.1500 
@<TRIPOS>BOND
  1   1   2  2   
  2   2   3  am  
  3   2   4  1   
  4   3   5  1   
  5   3  23  1   
  6   4   6  1   
  7   4  24  1   
  8   4  25  1   
  9   5   7  ar  
 10   5   8  ar  
 11   6   9  1   
 12   6  10  1   
 13   7  11  ar  
 14   7  12  ar  
 15   8  13  ar  
 16   8  26  1   
 17   9  14  1   
 18   9  27  1   
 19   9  28  1   
 20  10  15  1   
 21  10  29  1   
 22  10  30  1   
 23  11  16  ar  
 24  11  17  ar  
 25  12  18  ar  
 26  12  31  1   
 27  13  16  ar  
 28  13  32  1   
 29  14  19  1   
 30  14  20  1   
 31  14  33  1   
 32  15  19  1   
 33  15  21  1   
 34  15  34  1   
 35  16  35  1   
 36  17  22  ar  
 37  17  36  1   
 38  18  22  ar  
 39  18  37  1   
 40  20  38  1   
 41  20  39  1   
 42  20  40  1   
 43  21  41  1   
 44  21  42  1   
 45  21  43  1   
 46  22  44  1   
@<TRIPOS>SUBSTRUCTURE
  1 ****   3 GROUP 4 **** **** 0

# MOE 2024.06 (io_trps.svl 2023.06)
