@<TRIPOS>MOLECULE
NONAME
26 26 1 0 0 
SMALL
USER_CHARGES


@<TRIPOS>ATOM
  1 O       -1.6450    -1.8260    -0.5440 O.co2 1 <1>  -0.9000 
  2 C       -2.3060    -1.9310     0.5000 C.2   1 <1>   0.9060 
  3 O       -1.8080    -2.1580     1.5960 O.co2 1 <1>  -0.9000 
  4 C       -3.7810    -1.6170     0.4100 C.3   1 <1>  -0.1860 
  5 C       -3.9570    -0.1860    -0.1120 C.3   1 <1>   0.5030 
  6 C       -4.5500    -2.6830    -0.4210 C.3   1 <1>  -0.1600 
  7 N       -3.4280    -0.1420    -1.4640 N.4   1 <1>  -0.8530 
  8 C       -5.4540     0.1980    -0.1580 C.3   1 <1>  -0.1600 
  9 C       -3.1840     0.8590     0.6990 C.3   1 <1>  -0.2400 
 10 C       -5.8260    -2.1550    -1.1010 C.3   1 <1>  -0.1600 
 11 C       -6.4350    -0.9800    -0.3320 C.3   1 <1>  -0.1600 
 12 H       -4.1630    -1.6440     1.4140 H     1 <1>   0.0800 
 13 H       -3.9040    -3.1030    -1.1750 H     1 <1>   0.0800 
 14 H       -4.8080    -3.4920     0.2430 H     1 <1>   0.0800 
 15 H       -3.2500     0.7990    -1.8000 H     1 <1>   0.4500 
 16 H       -4.0140    -0.6990    -2.0800 H     1 <1>   0.4500 
 17 H       -2.5180    -0.6620    -1.3920 H     1 <1>   0.4500 
 18 H       -5.7170     0.6760     0.7700 H     1 <1>   0.0800 
 19 H       -5.6210     0.9280    -0.9320 H     1 <1>   0.0800 
 20 H       -3.4690     0.7950     1.7340 H     1 <1>   0.0800 
 21 H       -3.3990     1.8550     0.3550 H     1 <1>   0.0800 
 22 H       -2.1210     0.6940     0.6490 H     1 <1>   0.0800 
 23 H       -5.6080    -1.8480    -2.1090 H     1 <1>   0.0800 
 24 H       -6.5450    -2.9550    -1.1670 H     1 <1>   0.0800 
 25 H       -6.7250    -1.3380     0.6430 H     1 <1>   0.0800 
 26 H       -7.3310    -0.6410    -0.8240 H     1 <1>   0.0800 
@<TRIPOS>BOND
  1   1   2  ar  
  2   2   3  ar  
  3   2   4  1   
  4   4   5  1   
  5   4   6  1   
  6   4  12  1   
  7   5   7  1   
  8   5   8  1   
  9   5   9  1   
 10   6  10  1   
 11   6  13  1   
 12   6  14  1   
 13   7  15  1   
 14   7  16  1   
 15   7  17  1   
 16   8  11  1   
 17   8  18  1   
 18   8  19  1   
 19   9  20  1   
 20   9  21  1   
 21   9  22  1   
 22  10  11  1   
 23  10  23  1   
 24  10  24  1   
 25  11  25  1   
 26  11  26  1   
@<TRIPOS>SUBSTRUCTURE
  1 ****   4 GROUP 4 **** **** 0

# MOE 2024.06 (io_trps.svl 2023.06)
