@<TRIPOS>MOLECULE
NONAME
31 31 1 0 0 
SMALL
USER_CHARGES


@<TRIPOS>ATOM
  1 BR      -0.8680    -0.5630     2.5160 Br    1 <1>  -0.1110 
  2 C       -0.4700    -1.9940     1.2800 C.ar  1 <1>   0.1110 
  3 C       -1.4830    -2.4740     0.4520 C.ar  1 <1>   0.1170 
  4 C        0.8200    -2.4890     1.2690 C.ar  1 <1>  -0.1500 
  5 N       -2.7720    -1.9100     0.5330 N.am  1 <1>  -0.5470 
  6 C       -1.1410    -3.5100    -0.4140 C.ar  1 <1>  -0.1500 
  7 C        1.1280    -3.5160     0.3940 C.ar  1 <1>  -0.1500 
  8 C       -3.8880    -2.0430    -0.2460 C.2   1 <1>   0.5690 
  9 C        0.1460    -4.0220    -0.4430 C.ar  1 <1>  -0.1500 
 10 O       -3.9330    -2.7370    -1.2330 O.2   1 <1>  -0.5700 
 11 C       -5.1340    -1.2510     0.1640 C.3   1 <1>  -0.0190 
 12 C       -6.3100    -2.2260     0.4060 C.3   1 <1>  -0.1600 
 13 C       -5.4430    -0.1620    -0.8930 C.3   1 <1>  -0.1600 
 14 C       -7.5830    -1.5740     0.9610 C.3   1 <1>  -0.2400 
 15 C       -5.9530     1.1550    -0.2900 C.3   1 <1>  -0.2400 
 16 H        1.5650    -2.0820     1.9280 H     1 <1>   0.1500 
 17 H       -2.8700    -1.2440     1.2990 H     1 <1>   0.3700 
 18 H       -1.8770    -3.9290    -1.0740 H     1 <1>   0.1500 
 19 H        2.1260    -3.9210     0.3640 H     1 <1>   0.1500 
 20 H        0.3840    -4.8220    -1.1240 H     1 <1>   0.1500 
 21 H       -4.9130    -0.7650     1.0970 H     1 <1>   0.0800 
 22 H       -5.9870    -2.9790     1.1050 H     1 <1>   0.0800 
 23 H       -6.5490    -2.7320    -0.5140 H     1 <1>   0.0800 
 24 H       -6.1510    -0.5410    -1.6100 H     1 <1>   0.0800 
 25 H       -4.5410     0.0630    -1.4390 H     1 <1>   0.0800 
 26 H       -7.3620    -0.9910     1.8380 H     1 <1>   0.0800 
 27 H       -8.2930    -2.3360     1.2290 H     1 <1>   0.0800 
 28 H       -8.0400    -0.9430     0.2200 H     1 <1>   0.0800 
 29 H       -6.8680     1.0140     0.2530 H     1 <1>   0.0800 
 30 H       -6.1360     1.8660    -1.0770 H     1 <1>   0.0800 
 31 H       -5.2190     1.5730     0.3760 H     1 <1>   0.0800 
@<TRIPOS>BOND
  1   1   2  1   
  2   2   3  ar  
  3   2   4  ar  
  4   3   5  1   
  5   3   6  ar  
  6   4   7  ar  
  7   4  16  1   
  8   5   8  am  
  9   5  17  1   
 10   6   9  ar  
 11   6  18  1   
 12   7   9  ar  
 13   7  19  1   
 14   8  10  2   
 15   8  11  1   
 16   9  20  1   
 17  11  12  1   
 18  11  13  1   
 19  11  21  1   
 20  12  14  1   
 21  12  22  1   
 22  12  23  1   
 23  13  15  1   
 24  13  24  1   
 25  13  25  1   
 26  14  26  1   
 27  14  27  1   
 28  14  28  1   
 29  15  29  1   
 30  15  30  1   
 31  15  31  1   
@<TRIPOS>SUBSTRUCTURE
  1 ****   5 GROUP 4 **** **** 0

# MOE 2024.06 (io_trps.svl 2023.06)
