@<TRIPOS>MOLECULE
NONAME
46 48 1 0 0 
SMALL
USER_CHARGES


@<TRIPOS>ATOM
  1 O       -0.2160    -0.2450     0.3610 O.2   1 <1>  -0.5700 
  2 C        0.0770    -1.3400    -0.0560 C.2   1 <1>   0.5690 
  3 N        1.3620    -1.8020    -0.1140 N.am  1 <1>  -0.5470 
  4 C       -1.0190    -2.2870    -0.5560 C.3   1 <1>  -0.0190 
  5 C        2.5940    -1.2590     0.2830 C.ar  1 <1>   0.1170 
  6 C       -2.4260    -1.6510    -0.5220 C.3   1 <1>  -0.1600 
  7 C       -1.0290    -3.6130     0.2360 C.3   1 <1>  -0.1600 
  8 C        3.6770    -2.1340     0.4440 C.ar  1 <1>   0.0000 
  9 C        2.7840     0.1020     0.5020 C.ar  1 <1>  -0.1500 
 10 C       -3.5080    -2.6230    -0.9990 C.3   1 <1>   0.1400 
 11 C       -2.1290    -4.5610    -0.2480 C.3   1 <1>   0.1400 
 12 C        3.5180    -3.5540     0.2290 C.ar  1 <1>   0.0000 
 13 C        4.9140    -1.6200     0.8190 C.ar  1 <1>  -0.1500 
 14 C        4.0180     0.5970     0.8770 C.ar  1 <1>  -0.1500 
 15 N       -3.4430    -3.8680    -0.1870 N.am  1 <1>  -0.6600 
 16 C        2.8650    -4.3470     1.1680 C.ar  1 <1>  -0.1500 
 17 C        3.9860    -4.1600    -0.9320 C.ar  1 <1>  -0.1500 
 18 C        5.0880    -0.2670     1.0350 C.ar  1 <1>  -0.1500 
 19 C       -4.4620    -4.3580     0.5920 C.2   1 <1>   0.5690 
 20 C        2.6760    -5.7000     0.9520 C.ar  1 <1>  -0.1500 
 21 C        3.8010    -5.5120    -1.1540 C.ar  1 <1>  -0.1500 
 22 O       -4.3560    -5.3810     1.2240 O.2   1 <1>  -0.5700 
 23 C       -5.7790    -3.6230     0.6920 C.3   1 <1>  -0.1790 
 24 C        3.1430    -6.2850    -0.2120 C.ar  1 <1>  -0.1500 
 25 H        1.4470    -2.7730    -0.4170 H     1 <1>   0.3700 
 26 H       -0.7910    -2.5120    -1.5820 H     1 <1>   0.0800 
 27 H       -2.4390    -0.7730    -1.1440 H     1 <1>   0.0800 
 28 H       -2.6590    -1.3390     0.4820 H     1 <1>   0.0800 
 29 H       -1.1870    -3.4090     1.2820 H     1 <1>   0.0800 
 30 H       -0.0830    -4.1160     0.1420 H     1 <1>   0.0800 
 31 H        1.9650     0.7870     0.3790 H     1 <1>   0.1500 
 32 H       -3.3440    -2.8720    -2.0340 H     1 <1>   0.0800 
 33 H       -4.4700    -2.1510    -0.9220 H     1 <1>   0.0800 
 34 H       -2.1350    -5.4470     0.3650 H     1 <1>   0.0800 
 35 H       -1.9390    -4.8640    -1.2640 H     1 <1>   0.0800 
 36 H        5.7460    -2.2920     0.9430 H     1 <1>   0.1500 
 37 H        4.1470     1.6520     1.0440 H     1 <1>   0.1500 
 38 H        2.5040    -3.8940     2.0760 H     1 <1>   0.1500 
 39 H        4.4970    -3.5610    -1.6660 H     1 <1>   0.1500 
 40 H        6.0510     0.1170     1.3260 H     1 <1>   0.1500 
 41 H        2.1690    -6.2990     1.6890 H     1 <1>   0.1500 
 42 H        4.1700    -5.9660    -2.0580 H     1 <1>   0.1500 
 43 H       -5.6160    -2.6350     1.0800 H     1 <1>   0.0800 
 44 H       -6.4370    -4.1490     1.3580 H     1 <1>   0.0800 
 45 H       -6.2410    -3.5680    -0.2750 H     1 <1>   0.0800 
 46 H        3.0000    -7.3380    -0.3830 H     1 <1>   0.1500 
@<TRIPOS>BOND
  1   1   2  2   
  2   2   3  am  
  3   2   4  1   
  4   3   5  1   
  5   3  25  1   
  6   4   6  1   
  7   4   7  1   
  8   4  26  1   
  9   5   8  ar  
 10   5   9  ar  
 11   6  10  1   
 12   6  27  1   
 13   6  28  1   
 14   7  11  1   
 15   7  29  1   
 16   7  30  1   
 17   8  12  1   
 18   8  13  ar  
 19   9  14  ar  
 20   9  31  1   
 21  10  15  1   
 22  10  32  1   
 23  10  33  1   
 24  11  15  1   
 25  11  34  1   
 26  11  35  1   
 27  12  16  ar  
 28  12  17  ar  
 29  13  18  ar  
 30  13  36  1   
 31  14  18  ar  
 32  14  37  1   
 33  15  19  am  
 34  16  20  ar  
 35  16  38  1   
 36  17  21  ar  
 37  17  39  1   
 38  18  40  1   
 39  19  22  2   
 40  19  23  1   
 41  20  24  ar  
 42  20  41  1   
 43  21  24  ar  
 44  21  42  1   
 45  23  43  1   
 46  23  44  1   
 47  23  45  1   
 48  24  46  1   
@<TRIPOS>SUBSTRUCTURE
  1 ****   3 GROUP 4 **** **** 0

# MOE 2024.06 (io_trps.svl 2023.06)
