@<TRIPOS>MOLECULE
NONAME
46 47 1 0 0 
SMALL
USER_CHARGES


@<TRIPOS>ATOM
  1 O        0.8410    -2.0750    -1.6130 O.2   1 <1>  -0.5700 
  2 C        0.9100    -2.0210    -0.4090 C.2   1 <1>   0.5690 
  3 N       -0.2010    -2.0140     0.3740 N.am  1 <1>  -0.7300 
  4 C        2.2770    -1.9530     0.2700 C.3   1 <1>  -0.0190 
  5 C       -1.5960    -2.0620    -0.1300 C.3   1 <1>   0.1400 
  6 C        2.8580    -0.5290     0.2010 C.3   1 <1>  -0.1600 
  7 C        3.2760    -2.9580    -0.3350 C.3   1 <1>  -0.1600 
  8 C       -2.2730    -3.3560     0.3280 C.3   1 <1>  -0.0220 
  9 C        4.2380    -0.4480     0.8600 C.3   1 <1>   0.1400 
 10 C        4.6500    -2.8590     0.3320 C.3   1 <1>   0.1400 
 11 C       -3.7400    -3.4730    -0.0830 C.2   1 <1>  -0.2760 
 12 N        5.1470    -1.4570     0.2470 N.am  1 <1>  -0.6600 
 13 C       -4.4320    -2.5580    -0.7770 C.2   1 <1>  -0.2880 
 14 C       -4.3710    -4.7850     0.3780 C.3   1 <1>  -0.0220 
 15 C        6.3240    -1.0720    -0.3450 C.2   1 <1>   0.5690 
 16 C       -5.8840    -2.7140    -1.2000 C.3   1 <1>  -0.0220 
 17 C       -5.9030    -4.7590     0.2810 C.3   1 <1>  -0.1600 
 18 O        6.7040     0.0740    -0.3420 O.2   1 <1>  -0.5700 
 19 C        7.2080    -2.0850    -1.0350 C.3   1 <1>  -0.1790 
 20 C       -6.3610    -4.1640    -1.0550 C.3   1 <1>  -0.1600 
 21 H       -0.1060    -1.9490     1.3870 H     1 <1>   0.3700 
 22 H        2.1440    -2.2080     1.3060 H     1 <1>   0.0800 
 23 H       -1.6020    -2.0160    -1.2070 H     1 <1>   0.0800 
 24 H       -2.1360    -1.2120     0.2490 H     1 <1>   0.0800 
 25 H        2.1920     0.1610     0.6880 H     1 <1>   0.0800 
 26 H        2.9470    -0.2240    -0.8280 H     1 <1>   0.0800 
 27 H        3.3890    -2.7700    -1.3890 H     1 <1>   0.0800 
 28 H        2.8950    -3.9580    -0.2230 H     1 <1>   0.0800 
 29 H       -2.2130    -3.4150     1.4000 H     1 <1>   0.0800 
 30 H       -1.7320    -4.1860    -0.0910 H     1 <1>   0.0800 
 31 H        4.1580    -0.6440     1.9150 H     1 <1>   0.0800 
 32 H        4.6330     0.5470     0.7370 H     1 <1>   0.0800 
 33 H        5.3260    -3.5450    -0.1440 H     1 <1>   0.0800 
 34 H        4.5730    -3.1370     1.3690 H     1 <1>   0.0800 
 35 H       -4.0240    -1.6190    -1.1060 H     1 <1>   0.1500 
 36 H       -4.0990    -4.9870     1.3990 H     1 <1>   0.0800 
 37 H       -3.9870    -5.5840    -0.2330 H     1 <1>   0.0800 
 38 H       -5.9950    -2.4100    -2.2260 H     1 <1>   0.0800 
 39 H       -6.4920    -2.0670    -0.5920 H     1 <1>   0.0800 
 40 H       -6.2960    -4.1590     1.0840 H     1 <1>   0.0800 
 41 H       -6.2880    -5.7570     0.3920 H     1 <1>   0.0800 
 42 H        6.6600    -2.5720    -1.8190 H     1 <1>   0.0800 
 43 H        7.5570    -2.8090    -0.3240 H     1 <1>   0.0800 
 44 H        8.0570    -1.5890    -1.4670 H     1 <1>   0.0800 
 45 H       -5.9510    -4.7510    -1.8590 H     1 <1>   0.0800 
 46 H       -7.4340    -4.2010    -1.1290 H     1 <1>   0.0800 
@<TRIPOS>BOND
  1   1   2  2   
  2   2   3  am  
  3   2   4  1   
  4   3   5  1   
  5   3  21  1   
  6   4   6  1   
  7   4   7  1   
  8   4  22  1   
  9   5   8  1   
 10   5  23  1   
 11   5  24  1   
 12   6   9  1   
 13   6  25  1   
 14   6  26  1   
 15   7  10  1   
 16   7  27  1   
 17   7  28  1   
 18   8  11  1   
 19   8  29  1   
 20   8  30  1   
 21   9  12  1   
 22   9  31  1   
 23   9  32  1   
 24  10  12  1   
 25  10  33  1   
 26  10  34  1   
 27  11  13  2   
 28  11  14  1   
 29  12  15  am  
 30  13  16  1   
 31  13  35  1   
 32  14  17  1   
 33  14  36  1   
 34  14  37  1   
 35  15  18  2   
 36  15  19  1   
 37  16  20  1   
 38  16  38  1   
 39  16  39  1   
 40  17  20  1   
 41  17  40  1   
 42  17  41  1   
 43  19  42  1   
 44  19  43  1   
 45  19  44  1   
 46  20  45  1   
 47  20  46  1   
@<TRIPOS>SUBSTRUCTURE
  1 ****   2 GROUP 4 **** **** 0

# MOE 2024.06 (io_trps.svl 2023.06)
