@<TRIPOS>MOLECULE
NONAME
39 40 1 0 0 
SMALL
USER_CHARGES


@<TRIPOS>ATOM
  1 O        0.3070     1.7100     2.0990 O.2   1 <1>  -0.5700 
  2 C        0.1170     0.6590     1.5360 C.2   1 <1>   0.5690 
  3 N        0.9680     0.1710     0.6010 N.am  1 <1>  -0.7300 
  4 C       -1.1280    -0.1440     1.8780 C.3   1 <1>   0.0440 
  5 C        2.0640     0.8990    -0.0620 C.3   1 <1>   0.2200 
  6 C       -1.3890    -1.2810     0.8920 C.ar  1 <1>  -0.1440 
  7 C        2.4110     0.2130    -1.4080 C.3   1 <1>   0.2000 
  8 C        3.2610     0.9730     0.8910 C.3   1 <1>  -0.2400 
  9 C       -0.9200    -2.5600     1.1500 C.ar  1 <1>  -0.1500 
 10 C       -2.0770    -1.0380    -0.2860 C.ar  1 <1>  -0.1500 
 11 O        1.2500     0.0510    -2.1780 O.3   1 <1>  -0.5600 
 12 C        3.0340    -1.1830    -1.2960 C.3   1 <1>  -0.1600 
 13 C       -1.1350    -3.5810     0.2410 C.ar  1 <1>  -0.1500 
 14 C       -2.2950    -2.0600    -1.1930 C.ar  1 <1>  -0.1500 
 15 C        1.0930    -1.2580    -2.6310 C.3   1 <1>   0.1200 
 16 C        2.4550    -1.9130    -2.4890 C.3   1 <1>  -0.1600 
 17 C       -1.8220    -3.3360    -0.9370 C.ar  1 <1>  -0.1430 
 18 C       -2.0600    -4.4560    -1.9330 C.3   1 <1>  -0.0970 
 19 H        0.6220    -0.6100     0.0330 H     1 <1>   0.3700 
 20 H       -1.9690     0.5250     1.8890 H     1 <1>   0.0800 
 21 H       -1.0120    -0.5360     2.8710 H     1 <1>   0.0800 
 22 H        1.7310     1.9020    -0.2730 H     1 <1>   0.0800 
 23 H        3.0690     0.8500    -1.9730 H     1 <1>   0.0800 
 24 H        3.5710    -0.0080     1.2010 H     1 <1>   0.0800 
 25 H        2.9960     1.5450     1.7620 H     1 <1>   0.0800 
 26 H        4.0860     1.4640     0.4070 H     1 <1>   0.0800 
 27 H       -0.3810    -2.7670     2.0590 H     1 <1>   0.1500 
 28 H       -2.4430    -0.0500    -0.5060 H     1 <1>   0.1500 
 29 H        2.7180    -1.6640    -0.3870 H     1 <1>   0.0800 
 30 H        4.1090    -1.1440    -1.3170 H     1 <1>   0.0800 
 31 H       -0.7670    -4.5680     0.4560 H     1 <1>   0.1500 
 32 H       -2.8330    -1.8540    -2.1020 H     1 <1>   0.1500 
 33 H        0.7420    -1.2420    -3.6480 H     1 <1>   0.0800 
 34 H        0.3680    -1.7390    -1.9970 H     1 <1>   0.0800 
 35 H        2.3780    -2.9750    -2.3330 H     1 <1>   0.0800 
 36 H        3.0370    -1.7190    -3.3720 H     1 <1>   0.0800 
 37 H       -1.2640    -5.1780    -1.8870 H     1 <1>   0.0800 
 38 H       -2.1070    -4.0660    -2.9340 H     1 <1>   0.0800 
 39 H       -2.9890    -4.9490    -1.7090 H     1 <1>   0.0800 
@<TRIPOS>BOND
  1   1   2  2   
  2   2   3  am  
  3   2   4  1   
  4   3   5  1   
  5   3  19  1   
  6   4   6  1   
  7   4  20  1   
  8   4  21  1   
  9   5   7  1   
 10   5   8  1   
 11   5  22  1   
 12   6   9  ar  
 13   6  10  ar  
 14   7  11  1   
 15   7  12  1   
 16   7  23  1   
 17   8  24  1   
 18   8  25  1   
 19   8  26  1   
 20   9  13  ar  
 21   9  27  1   
 22  10  14  ar  
 23  10  28  1   
 24  11  15  1   
 25  12  16  1   
 26  12  29  1   
 27  12  30  1   
 28  13  17  ar  
 29  13  31  1   
 30  14  17  ar  
 31  14  32  1   
 32  15  16  1   
 33  15  33  1   
 34  15  34  1   
 35  16  35  1   
 36  16  36  1   
 37  17  18  1   
 38  18  37  1   
 39  18  38  1   
 40  18  39  1   
@<TRIPOS>SUBSTRUCTURE
  1 ****   3 GROUP 4 **** **** 0

# MOE 2024.06 (io_trps.svl 2023.06)
