@<TRIPOS>MOLECULE
NONAME
26 26 1 0 0 
SMALL
USER_CHARGES


@<TRIPOS>ATOM
  1 O        0.2110    -0.2760    -0.3140 O.2   1 <1>  -0.5700 
  2 C        0.0720    -1.4860    -0.4370 C.2   1 <1>   0.7150 
  3 N        1.1210    -2.2370    -0.8860 N.am  1 <1>  -0.4300 
  4 C       -1.1890    -2.1220    -0.1400 C.2   1 <1>   0.0550 
  5 N        2.5150    -1.7850    -1.0190 N.am  1 <1>  -0.4300 
  6 O       -1.3560    -3.4290    -0.3350 O.3   1 <1>  -0.2800 
  7 C       -2.3540    -1.6070     0.3430 C.2   1 <1>  -0.1500 
  8 C        3.4710    -1.9340    -0.0630 C.2   1 <1>   0.5690 
  9 C       -2.5830    -3.7540     0.0100 C.2   1 <1>  -0.0100 
 10 C       -3.2560    -2.6660     0.4390 C.2   1 <1>  -0.1500 
 11 O        3.2970    -2.6310     0.9150 O.2   1 <1>  -0.5700 
 12 C        4.8100    -1.2090    -0.2420 C.3   1 <1>  -0.0190 
 13 C        5.9850    -2.1990    -0.3140 C.3   1 <1>  -0.2400 
 14 C        5.0480    -0.1890     0.8820 C.3   1 <1>  -0.2400 
 15 H        0.9620    -3.2490    -0.9440 H     1 <1>   0.3700 
 16 H        2.7100    -1.1880    -1.8270 H     1 <1>   0.3700 
 17 H       -2.5520    -0.5810     0.6040 H     1 <1>   0.1500 
 18 H       -2.8990    -4.7790    -0.0800 H     1 <1>   0.1500 
 19 H       -4.2720    -2.5980     0.7890 H     1 <1>   0.1500 
 20 H        4.7790    -0.6690    -1.1720 H     1 <1>   0.0800 
 21 H        6.0620    -2.7510     0.6070 H     1 <1>   0.0800 
 22 H        6.9100    -1.6760    -0.4820 H     1 <1>   0.0800 
 23 H        5.8340    -2.8980    -1.1170 H     1 <1>   0.0800 
 24 H        5.1000    -0.6900     1.8340 H     1 <1>   0.0800 
 25 H        4.2390     0.5200     0.9170 H     1 <1>   0.0800 
 26 H        5.9680     0.3460     0.7220 H     1 <1>   0.0800 
@<TRIPOS>BOND
  1   1   2  2   
  2   2   3  am  
  3   2   4  1   
  4   3   5  1   
  5   3  15  1   
  6   4   6  1   
  7   4   7  2   
  8   5   8  am  
  9   5  16  1   
 10   6   9  1   
 11   7  10  1   
 12   7  17  1   
 13   8  11  2   
 14   8  12  1   
 15   9  10  2   
 16   9  18  1   
 17  10  19  1   
 18  12  13  1   
 19  12  14  1   
 20  12  20  1   
 21  13  21  1   
 22  13  22  1   
 23  13  23  1   
 24  14  24  1   
 25  14  25  1   
 26  14  26  1   
@<TRIPOS>SUBSTRUCTURE
  1 ****   3 GROUP 4 **** **** 0

# MOE 2024.06 (io_trps.svl 2023.06)
