@<TRIPOS>MOLECULE
NONAME
47 48 1 0 0 
SMALL
USER_CHARGES


@<TRIPOS>ATOM
  1 O       -1.3130    -0.7150     2.1990 O.2   1 <1>  -0.5700 
  2 C       -1.5370    -1.3190     1.1800 C.2   1 <1>   0.6590 
  3 O       -1.7230    -0.6930     0.0260 O.3   1 <1>  -0.4300 
  4 C       -1.5480    -2.8310     1.1770 C.3   1 <1>   0.0420 
  5 C       -1.6760     0.7090    -0.0800 C.3   1 <1>   0.1200 
  6 C       -0.3780    -3.2630     0.3090 C.2   1 <1>   0.5690 
  7 C       -2.9500    -3.4640     0.9320 C.3   1 <1>  -0.0800 
  8 C       -1.9310     1.0750    -1.5390 C.3   1 <1>  -0.2400 
  9 O       -0.5680    -3.8060    -0.7510 O.2   1 <1>  -0.5700 
 10 N        0.8790    -3.0030     0.7940 N.am  1 <1>  -0.5470 
 11 C       -2.9050    -4.9940     1.1340 C.3   1 <1>  -0.1600 
 12 C       -3.6110    -3.1230    -0.4230 C.3   1 <1>  -0.1600 
 13 C        2.1500    -3.2850     0.2700 C.ar  1 <1>   0.1170 
 14 C       -4.2970    -5.6260     1.0050 C.3   1 <1>  -0.1600 
 15 C       -4.9990    -3.7670    -0.5540 C.3   1 <1>  -0.1600 
 16 C        3.2330    -2.5400     0.7210 C.ar  1 <1>  -0.1500 
 17 C        2.3870    -4.2880    -0.6650 C.ar  1 <1>  -0.1500 
 18 C       -4.9320    -5.2840    -0.3470 C.3   1 <1>  -0.1600 
 19 C        4.5120    -2.7820     0.2510 C.ar  1 <1>  -0.1500 
 20 C        3.6640    -4.5310    -1.1380 C.ar  1 <1>  -0.1500 
 21 C        4.7350    -3.7790    -0.6840 C.ar  1 <1>  -0.1430 
 22 C        6.1360    -4.0490    -1.2040 C.3   1 <1>  -0.0970 
 23 H       -1.2810    -3.1220     2.1760 H     1 <1>   0.0800 
 24 H       -2.4330     1.1260     0.5630 H     1 <1>   0.0800 
 25 H       -0.7030     1.0440     0.2380 H     1 <1>   0.0800 
 26 H       -3.5980    -3.0680     1.6970 H     1 <1>   0.0800 
 27 H       -2.9010     0.7240    -1.8450 H     1 <1>   0.0800 
 28 H       -1.1760     0.6380    -2.1670 H     1 <1>   0.0800 
 29 H       -1.9000     2.1430    -1.6570 H     1 <1>   0.0800 
 30 H        0.9070    -2.4550     1.6540 H     1 <1>   0.3700 
 31 H       -2.5070    -5.2260     2.1070 H     1 <1>   0.0800 
 32 H       -2.2570    -5.4400     0.3990 H     1 <1>   0.0800 
 33 H       -2.9950    -3.4680    -1.2350 H     1 <1>   0.0800 
 34 H       -3.7290    -2.0610    -0.5300 H     1 <1>   0.0800 
 35 H       -4.9300    -5.2680     1.7990 H     1 <1>   0.0800 
 36 H       -4.2160    -6.6950     1.1040 H     1 <1>   0.0800 
 37 H       -5.4000    -3.5560    -1.5300 H     1 <1>   0.0800 
 38 H       -5.6630    -3.3370     0.1760 H     1 <1>   0.0800 
 39 H        3.0800    -1.7600     1.4430 H     1 <1>   0.1500 
 40 H        1.5750    -4.8880    -1.0300 H     1 <1>   0.1500 
 41 H       -5.9230    -5.7010    -0.3970 H     1 <1>   0.0800 
 42 H       -4.3470    -5.7250    -1.1370 H     1 <1>   0.0800 
 43 H        5.3340    -2.1910     0.6150 H     1 <1>   0.1500 
 44 H        3.8180    -5.3110    -1.8630 H     1 <1>   0.1500 
 45 H        6.7270    -3.1510    -1.1780 H     1 <1>   0.0800 
 46 H        6.0980    -4.4000    -2.2190 H     1 <1>   0.0800 
 47 H        6.6120    -4.7960    -0.5950 H     1 <1>   0.0800 
@<TRIPOS>BOND
  1   1   2  2   
  2   2   3  1   
  3   2   4  1   
  4   3   5  1   
  5   4   6  1   
  6   4   7  1   
  7   4  23  1   
  8   5   8  1   
  9   5  24  1   
 10   5  25  1   
 11   6   9  2   
 12   6  10  am  
 13   7  11  1   
 14   7  12  1   
 15   7  26  1   
 16   8  27  1   
 17   8  28  1   
 18   8  29  1   
 19  10  13  1   
 20  10  30  1   
 21  11  14  1   
 22  11  31  1   
 23  11  32  1   
 24  12  15  1   
 25  12  33  1   
 26  12  34  1   
 27  13  16  ar  
 28  13  17  ar  
 29  14  18  1   
 30  14  35  1   
 31  14  36  1   
 32  15  18  1   
 33  15  37  1   
 34  15  38  1   
 35  16  19  ar  
 36  16  39  1   
 37  17  20  ar  
 38  17  40  1   
 39  18  41  1   
 40  18  42  1   
 41  19  21  ar  
 42  19  43  1   
 43  20  21  ar  
 44  20  44  1   
 45  21  22  1   
 46  22  45  1   
 47  22  46  1   
 48  22  47  1   
@<TRIPOS>SUBSTRUCTURE
  1 ****   6 GROUP 4 **** **** 0

# MOE 2024.06 (io_trps.svl 2023.06)
