@<TRIPOS>MOLECULE
NONAME
43 45 1 0 0 
SMALL
USER_CHARGES


@<TRIPOS>ATOM
  1 O        0.0090    -0.3820    -0.1670 O.2   1 <1>  -0.5700 
  2 C       -0.1290    -1.5390    -0.5120 C.2   1 <1>   0.5690 
  3 N        0.9050    -2.2260    -1.0730 N.am  1 <1>  -0.4300 
  4 C       -1.5020    -2.2200    -0.3250 C.3   1 <1>   0.0610 
  5 N        2.3060    -1.7960    -1.0460 N.am  1 <1>  -0.4300 
  6 C       -1.8890    -2.2070     1.1760 C.3   1 <1>  -0.1600 
  7 C       -1.5180    -3.6980    -0.8090 C.3   1 <1>  -0.1600 
  8 C       -2.5880    -1.4460    -1.1140 C.3   1 <1>  -0.1600 
  9 C        3.2240    -2.2260    -0.1400 C.2   1 <1>   0.5690 
 10 C       -3.2760    -2.8380     1.3970 C.3   1 <1>  -0.0800 
 11 C       -2.9040    -4.3350    -0.5980 C.3   1 <1>  -0.0800 
 12 C       -3.9790    -2.0750    -0.9040 C.3   1 <1>  -0.0800 
 13 O        3.0120    -3.1810     0.5800 O.2   1 <1>  -0.5700 
 14 C        4.5640    -1.4910    -0.0430 C.3   1 <1>  -0.0190 
 15 C       -3.2550    -4.2950     0.9000 C.3   1 <1>  -0.1600 
 16 C       -4.3250    -2.0440     0.5960 C.3   1 <1>  -0.1600 
 17 C       -3.9540    -3.5350    -1.3890 C.3   1 <1>  -0.1600 
 18 C        5.7490    -2.4260    -0.3370 C.3   1 <1>  -0.2400 
 19 C        4.7420    -0.8340     1.3360 C.3   1 <1>  -0.2400 
 20 H        0.7500    -3.1990    -1.3540 H     1 <1>   0.3700 
 21 H        2.5250    -0.9860    -1.6320 H     1 <1>   0.3700 
 22 H       -1.8970    -1.1940     1.5390 H     1 <1>   0.0800 
 23 H       -1.1500    -2.7450     1.7450 H     1 <1>   0.0800 
 24 H       -0.7860    -4.2690    -0.2640 H     1 <1>   0.0800 
 25 H       -1.2710    -3.7460    -1.8550 H     1 <1>   0.0800 
 26 H       -2.3450    -1.4450    -2.1620 H     1 <1>   0.0800 
 27 H       -2.6090    -0.4200    -0.7880 H     1 <1>   0.0800 
 28 H       -3.5240    -2.8140     2.4440 H     1 <1>   0.0800 
 29 H       -2.8920    -5.3560    -0.9390 H     1 <1>   0.0800 
 30 H       -4.7160    -1.5190    -1.4580 H     1 <1>   0.0800 
 31 H        4.5730    -0.7080    -0.7800 H     1 <1>   0.0800 
 32 H       -4.2180    -4.7480     1.0610 H     1 <1>   0.0800 
 33 H       -2.5320    -4.8610     1.4620 H     1 <1>   0.0800 
 34 H       -4.3520    -1.0260     0.9430 H     1 <1>   0.0800 
 35 H       -5.3010    -2.4690     0.7530 H     1 <1>   0.0800 
 36 H       -4.9260    -3.9790    -1.2550 H     1 <1>   0.0800 
 37 H       -3.7250    -3.5680    -2.4400 H     1 <1>   0.0800 
 38 H        5.7870    -3.2180     0.3910 H     1 <1>   0.0800 
 39 H        6.6770    -1.8830    -0.3060 H     1 <1>   0.0800 
 40 H        5.6410    -2.8670    -1.3120 H     1 <1>   0.0800 
 41 H        4.7530    -1.5850     2.1070 H     1 <1>   0.0800 
 42 H        3.9260    -0.1610     1.5320 H     1 <1>   0.0800 
 43 H        5.6630    -0.2810     1.3780 H     1 <1>   0.0800 
@<TRIPOS>BOND
  1   1   2  2   
  2   2   3  am  
  3   2   4  1   
  4   3   5  1   
  5   3  20  1   
  6   4   6  1   
  7   4   7  1   
  8   4   8  1   
  9   5   9  am  
 10   5  21  1   
 11   6  10  1   
 12   6  22  1   
 13   6  23  1   
 14   7  11  1   
 15   7  24  1   
 16   7  25  1   
 17   8  12  1   
 18   8  26  1   
 19   8  27  1   
 20   9  13  2   
 21   9  14  1   
 22  10  15  1   
 23  10  16  1   
 24  10  28  1   
 25  11  15  1   
 26  11  17  1   
 27  11  29  1   
 28  12  16  1   
 29  12  17  1   
 30  12  30  1   
 31  14  18  1   
 32  14  19  1   
 33  14  31  1   
 34  15  32  1   
 35  15  33  1   
 36  16  34  1   
 37  16  35  1   
 38  17  36  1   
 39  17  37  1   
 40  18  38  1   
 41  18  39  1   
 42  18  40  1   
 43  19  41  1   
 44  19  42  1   
 45  19  43  1   
@<TRIPOS>SUBSTRUCTURE
  1 ****   2 GROUP 4 **** **** 0

# MOE 2024.06 (io_trps.svl 2023.06)
