@<TRIPOS>MOLECULE
NONAME
42 45 1 0 0 
SMALL
USER_CHARGES


@<TRIPOS>ATOM
  1 S        0.0900     0.6200     0.2210 S.3   1 <1>  -0.0800 
  2 C        1.6430    -0.2240     0.3120 C.ar  1 <1>   0.2970 
  3 C       -0.8040    -0.8950     0.4440 C.ar  1 <1>   0.0400 
  4 N        2.7880     0.4230     0.2040 N.ar  1 <1>  -0.5670 
  5 C        1.4450    -1.5840     0.5020 C.ar  1 <1>   0.0000 
  6 C       -2.1550    -1.1280     0.4980 C.ar  1 <1>   0.4120 
  7 C        0.0550    -1.9560     0.5750 C.ar  1 <1>   0.2560 
  8 C        3.8490    -0.3640     0.2950 C.ar  1 <1>   0.1660 
  9 C        2.5750    -2.3780     0.5910 C.ar  1 <1>  -0.1500 
 10 S       -3.3080     0.2260     0.3330 S.3   1 <1>  -0.3320 
 11 N       -2.6530    -2.3330     0.6710 N.ar  1 <1>  -0.6200 
 12 N       -0.4160    -3.1860     0.7510 N.ar  1 <1>  -0.5660 
 13 C        3.8000    -1.7460     0.4840 C.ar  1 <1>  -0.1430 
 14 C        5.1950     0.3240     0.1970 C.3   1 <1>  -0.0170 
 15 C       -4.9720    -0.5780     0.5040 C.3   1 <1>   0.1310 
 16 C       -1.7350    -3.2920     0.7870 C.ar  1 <1>   0.4700 
 17 C        5.0790    -2.5710     0.5560 C.3   1 <1>   0.2640 
 18 C        6.3290    -0.6550    -0.1490 C.3   1 <1>   0.2800 
 19 C       -6.0730     0.4570     0.3960 C.2   1 <1>   0.6590 
 20 O        6.2220    -1.7720     0.6770 O.3   1 <1>  -0.5600 
 21 C        6.3110    -1.0860    -1.6250 C.3   1 <1>  -0.2400 
 22 C        7.6890    -0.0340     0.1740 C.3   1 <1>  -0.2400 
 23 O       -6.7330     0.7780     1.3520 O.2   1 <1>  -0.5700 
 24 O       -6.2830     0.9710    -0.8110 O.3   1 <1>  -0.4300 
 25 C       -7.2750     1.9510    -1.0380 C.3   1 <1>   0.0400 
 26 H        2.4830    -3.4410     0.7370 H     1 <1>   0.1500 
 27 H        5.3970     0.7910     1.1430 H     1 <1>   0.0800 
 28 H        5.1520     1.0990    -0.5450 H     1 <1>   0.0800 
 29 H       -4.9980    -1.0570     1.4650 H     1 <1>   0.0800 
 30 H       -5.0610    -1.3070    -0.2790 H     1 <1>   0.0800 
 31 H       -2.1210    -4.2890     0.9300 H     1 <1>   0.1500 
 32 H        5.1850    -3.1800    -0.3240 H     1 <1>   0.0800 
 33 H        5.0530    -3.2180     1.4160 H     1 <1>   0.0800 
 34 H        5.3430    -1.4470    -1.9210 H     1 <1>   0.0800 
 35 H        7.0470    -1.8510    -1.7980 H     1 <1>   0.0800 
 36 H        6.5450    -0.2460    -2.2530 H     1 <1>   0.0800 
 37 H        7.7430     0.2230     1.2170 H     1 <1>   0.0800 
 38 H        7.8410     0.8580    -0.4060 H     1 <1>   0.0800 
 39 H        8.4770    -0.7280    -0.0540 H     1 <1>   0.0800 
 40 H       -7.2590     2.2190    -2.0790 H     1 <1>   0.0800 
 41 H       -7.0570     2.8130    -0.4300 H     1 <1>   0.0800 
 42 H       -8.2350     1.5440    -0.7730 H     1 <1>   0.0800 
@<TRIPOS>BOND
  1   1   2  1   
  2   1   3  1   
  3   2   4  ar  
  4   2   5  ar  
  5   3   6  ar  
  6   3   7  ar  
  7   4   8  ar  
  8   5   7  1   
  9   5   9  ar  
 10   6  10  1   
 11   6  11  ar  
 12   7  12  ar  
 13   8  13  ar  
 14   8  14  1   
 15   9  13  ar  
 16   9  26  1   
 17  10  15  1   
 18  11  16  ar  
 19  12  16  ar  
 20  13  17  1   
 21  14  18  1   
 22  14  27  1   
 23  14  28  1   
 24  15  19  1   
 25  15  29  1   
 26  15  30  1   
 27  16  31  1   
 28  17  20  1   
 29  17  32  1   
 30  17  33  1   
 31  18  20  1   
 32  18  21  1   
 33  18  22  1   
 34  19  23  2   
 35  19  24  1   
 36  21  34  1   
 37  21  35  1   
 38  21  36  1   
 39  22  37  1   
 40  22  38  1   
 41  22  39  1   
 42  24  25  1   
 43  25  40  1   
 44  25  41  1   
 45  25  42  1   
@<TRIPOS>SUBSTRUCTURE
  1 ****   3 GROUP 4 **** **** 0

# MOE 2024.06 (io_trps.svl 2023.06)
