@<TRIPOS>MOLECULE
NONAME
40 40 1 0 0 
SMALL
USER_CHARGES


@<TRIPOS>ATOM
  1 O       -1.0890    -6.3340     0.2540 O.3   1 <1>  -0.3630 
  2 C       -2.3340    -5.8110     0.1190 C.ar  1 <1>   0.0830 
  3 C        0.0570    -5.5510     0.0470 C.3   1 <1>   0.1200 
  4 C       -2.5870    -4.4870    -0.2290 C.ar  1 <1>  -0.1500 
  5 C       -3.3980    -6.6670     0.3470 C.ar  1 <1>  -0.1500 
  6 C        1.2660    -6.4570     0.2830 C.3   1 <1>  -0.1600 
  7 C       -3.8920    -4.0390    -0.3430 C.ar  1 <1>  -0.1500 
  8 C       -4.7010    -6.2160     0.2320 C.ar  1 <1>  -0.1500 
  9 C        2.5670    -5.6920     0.0800 C.3   1 <1>   0.3430 
 10 C       -4.9540    -4.8980    -0.1130 C.ar  1 <1>  -0.1440 
 11 N        3.7050    -6.6130     0.3260 N.4   1 <1>  -0.9060 
 12 C       -6.3830    -4.4020    -0.2410 C.3   1 <1>  -0.0970 
 13 C        5.0310    -6.0040     0.1260 C.3   1 <1>   0.4230 
 14 C        6.0540    -7.1440     0.0230 C.3   1 <1>  -0.1600 
 15 C        5.3230    -5.0670     1.2980 C.3   1 <1>  -0.2400 
 16 C        7.4610    -6.6660    -0.3660 C.3   1 <1>  -0.2400 
 17 H        0.0360    -4.7330     0.7470 H     1 <1>   0.0800 
 18 H        0.0330    -5.1830    -0.9650 H     1 <1>   0.0800 
 19 H       -1.7940    -3.7900    -0.4150 H     1 <1>   0.1500 
 20 H       -3.2030    -7.6900     0.6150 H     1 <1>   0.1500 
 21 H        1.2130    -7.2790    -0.4090 H     1 <1>   0.0800 
 22 H        1.2160    -6.8310     1.2910 H     1 <1>   0.0800 
 23 H       -4.0800    -3.0140    -0.6140 H     1 <1>   0.1500 
 24 H       -5.5160    -6.8950     0.4110 H     1 <1>   0.1500 
 25 H        2.6080    -4.8590     0.7650 H     1 <1>   0.0800 
 26 H        2.6120    -5.3100    -0.9280 H     1 <1>   0.0800 
 27 H        3.6210    -7.4220    -0.3000 H     1 <1>   0.4500 
 28 H        3.6560    -6.9790     1.2840 H     1 <1>   0.4500 
 29 H       -6.4430    -3.3580     0.0100 H     1 <1>   0.0800 
 30 H       -7.0310    -4.9470     0.4210 H     1 <1>   0.0800 
 31 H       -6.7250    -4.5370    -1.2510 H     1 <1>   0.0800 
 32 H        5.0400    -5.4460    -0.7980 H     1 <1>   0.0800 
 33 H        5.7340    -7.8390    -0.7350 H     1 <1>   0.0800 
 34 H        6.1170    -7.6730     0.9590 H     1 <1>   0.0800 
 35 H        5.3550    -5.6060     2.2290 H     1 <1>   0.0800 
 36 H        4.5920    -4.2810     1.3650 H     1 <1>   0.0800 
 37 H        6.2770    -4.5920     1.1590 H     1 <1>   0.0800 
 38 H        7.4370    -6.1010    -1.2820 H     1 <1>   0.0800 
 39 H        8.1070    -7.5150    -0.5150 H     1 <1>   0.0800 
 40 H        7.8980    -6.0570     0.4070 H     1 <1>   0.0800 
@<TRIPOS>BOND
  1   1   2  1   
  2   1   3  1   
  3   2   4  ar  
  4   2   5  ar  
  5   3   6  1   
  6   3  17  1   
  7   3  18  1   
  8   4   7  ar  
  9   4  19  1   
 10   5   8  ar  
 11   5  20  1   
 12   6   9  1   
 13   6  21  1   
 14   6  22  1   
 15   7  10  ar  
 16   7  23  1   
 17   8  10  ar  
 18   8  24  1   
 19   9  11  1   
 20   9  25  1   
 21   9  26  1   
 22  10  12  1   
 23  11  13  1   
 24  11  27  1   
 25  11  28  1   
 26  12  29  1   
 27  12  30  1   
 28  12  31  1   
 29  13  14  1   
 30  13  15  1   
 31  13  32  1   
 32  14  16  1   
 33  14  33  1   
 34  14  34  1   
 35  15  35  1   
 36  15  36  1   
 37  15  37  1   
 38  16  38  1   
 39  16  39  1   
 40  16  40  1   
@<TRIPOS>SUBSTRUCTURE
  1 ****   3 GROUP 4 **** **** 0

# MOE 2024.06 (io_trps.svl 2023.06)
