@<TRIPOS>MOLECULE
NONAME
37 38 1 0 0 
SMALL
USER_CHARGES


@<TRIPOS>ATOM
  1 CL       0.1840    -0.6130    -2.0880 Cl    1 <1>  -0.1770 
  2 C        1.1450    -1.7070    -1.1260 C.ar  1 <1>   0.1770 
  3 C        2.5190    -1.6860    -1.2480 C.ar  1 <1>  -0.1500 
  4 C        0.5140    -2.5750    -0.2570 C.ar  1 <1>  -0.1500 
  5 C        3.2970    -2.5510    -0.4880 C.ar  1 <1>   0.1170 
  6 C        1.2830    -3.4370     0.5050 C.ar  1 <1>  -0.1500 
  7 N        4.6880    -2.4870    -0.6320 N.am  1 <1>  -0.5470 
  8 C        2.6660    -3.4290     0.4010 C.ar  1 <1>  -0.1430 
  9 C        5.5460    -3.4590    -1.0570 C.2   1 <1>   0.6900 
 10 C        3.4650    -4.3910     1.2720 C.3   1 <1>  -0.0960 
 11 O        5.1140    -4.5140    -1.4810 O.2   1 <1>  -0.5700 
 12 N        6.8980    -3.2150    -1.0250 N.am  1 <1>  -0.6600 
 13 C        7.5470    -2.1720    -0.1820 C.3   1 <1>   0.1400 
 14 C        7.8580    -4.1490    -1.6780 C.3   1 <1>   0.1400 
 15 C        8.4070    -2.8420     0.8950 C.3   1 <1>  -0.1600 
 16 C        8.7180    -4.8350    -0.6120 C.3   1 <1>  -0.1600 
 17 C        9.4320    -3.8110     0.2840 C.3   1 <1>  -0.0800 
 18 C       10.2290    -4.5190     1.3840 C.3   1 <1>  -0.2400 
 19 H        2.9780    -1.0060    -1.9380 H     1 <1>   0.1500 
 20 H       -0.5580    -2.5750    -0.1820 H     1 <1>   0.1500 
 21 H        0.7940    -4.1170     1.1820 H     1 <1>   0.1500 
 22 H        5.0970    -1.5610    -0.6500 H     1 <1>   0.3700 
 23 H        4.3390    -3.9060     1.6680 H     1 <1>   0.0800 
 24 H        3.7760    -5.2380     0.6860 H     1 <1>   0.0800 
 25 H        2.8760    -4.7460     2.0980 H     1 <1>   0.0800 
 26 H        6.8160    -1.5450     0.2950 H     1 <1>   0.0800 
 27 H        8.1660    -1.5520    -0.8090 H     1 <1>   0.0800 
 28 H        8.4860    -3.5900    -2.3500 H     1 <1>   0.0800 
 29 H        7.3370    -4.8930    -2.2560 H     1 <1>   0.0800 
 30 H        7.7590    -3.3730     1.5700 H     1 <1>   0.0800 
 31 H        8.9190    -2.0820     1.4590 H     1 <1>   0.0800 
 32 H        9.4420    -5.4630    -1.0980 H     1 <1>   0.0800 
 33 H        8.0810    -5.4680    -0.0170 H     1 <1>   0.0800 
 34 H       10.1190    -3.2450    -0.3240 H     1 <1>   0.0800 
 35 H        9.5760    -5.0980     2.0130 H     1 <1>   0.0800 
 36 H       10.7450    -3.7990     1.9950 H     1 <1>   0.0800 
 37 H       10.9600    -5.1790     0.9500 H     1 <1>   0.0800 
@<TRIPOS>BOND
  1   1   2  1   
  2   2   3  ar  
  3   2   4  ar  
  4   3   5  ar  
  5   3  19  1   
  6   4   6  ar  
  7   4  20  1   
  8   5   7  1   
  9   5   8  ar  
 10   6   8  ar  
 11   6  21  1   
 12   7   9  am  
 13   7  22  1   
 14   8  10  1   
 15   9  11  2   
 16   9  12  am  
 17  10  23  1   
 18  10  24  1   
 19  10  25  1   
 20  12  13  1   
 21  12  14  1   
 22  13  15  1   
 23  13  26  1   
 24  13  27  1   
 25  14  16  1   
 26  14  28  1   
 27  14  29  1   
 28  15  17  1   
 29  15  30  1   
 30  15  31  1   
 31  16  17  1   
 32  16  32  1   
 33  16  33  1   
 34  17  18  1   
 35  17  34  1   
 36  18  35  1   
 37  18  36  1   
 38  18  37  1   
@<TRIPOS>SUBSTRUCTURE
  1 ****   7 GROUP 4 **** **** 0

# MOE 2024.06 (io_trps.svl 2023.06)
