@<TRIPOS>MOLECULE
NONAME
34 35 1 0 0 
SMALL
USER_CHARGES


@<TRIPOS>ATOM
  1 S        0.1370    -0.3970     0.3270 S.o2  1 <1>   1.4470 
  2 O        0.3570    -1.0090    -0.9670 O.2   1 <1>  -0.6500 
  3 O        0.2150    -1.2160     1.5170 O.2   1 <1>  -0.6500 
  4 N        1.3010     0.8210     0.5000 N.am  1 <1>  -0.8490 
  5 C       -1.4250     0.5260     0.3240 C.ar  1 <1>  -0.0090 
  6 C        1.4730     1.6690    -0.6670 C.3   1 <1>   0.1960 
  7 C        2.6220     0.2980     0.7980 C.3   1 <1>   0.1960 
  8 C       -1.7190     1.4360     1.3330 C.ar  1 <1>  -0.1500 
  9 C       -2.3690     0.3500    -0.6830 C.ar  1 <1>  -0.1500 
 10 C        2.7910     2.3900    -0.4130 C.3   1 <1>  -0.1600 
 11 C        3.5670     1.4630     0.5240 C.3   1 <1>  -0.1600 
 12 C       -2.9050     2.1480     1.3350 C.ar  1 <1>  -0.1500 
 13 C       -3.5600     1.0560    -0.6910 C.ar  1 <1>  -0.1500 
 14 C       -3.8340     1.9660     0.3250 C.ar  1 <1>   0.0830 
 15 O       -4.9690     2.7010     0.3980 O.3   1 <1>  -0.3630 
 16 C       -5.9900     2.5770    -0.5650 C.3   1 <1>   0.1200 
 17 C       -7.1200     3.5280    -0.1820 C.3   1 <1>  -0.2400 
 18 H        0.6510     2.3580    -0.7730 H     1 <1>   0.0800 
 19 H        1.5600     1.0690    -1.5590 H     1 <1>   0.0800 
 20 H        2.8490    -0.5230     0.1370 H     1 <1>   0.0800 
 21 H        2.6800    -0.0390     1.8200 H     1 <1>   0.0800 
 22 H       -1.0050     1.5870     2.1260 H     1 <1>   0.1500 
 23 H       -2.1670    -0.3530    -1.4750 H     1 <1>   0.1500 
 24 H        2.5970     3.3300     0.0720 H     1 <1>   0.0800 
 25 H        3.3150     2.5690    -1.3350 H     1 <1>   0.0800 
 26 H        4.4810     1.1110     0.0780 H     1 <1>   0.0800 
 27 H        3.7970     1.9690     1.4450 H     1 <1>   0.0800 
 28 H       -3.1190     2.8500     2.1220 H     1 <1>   0.1500 
 29 H       -4.2560     0.8860    -1.4900 H     1 <1>   0.1500 
 30 H       -6.3360     1.5570    -0.5650 H     1 <1>   0.0800 
 31 H       -5.5850     2.8360    -1.5270 H     1 <1>   0.0800 
 32 H       -7.5070     3.2710     0.7880 H     1 <1>   0.0800 
 33 H       -7.9170     3.4560    -0.8990 H     1 <1>   0.0800 
 34 H       -6.7610     4.5420    -0.1670 H     1 <1>   0.0800 
@<TRIPOS>BOND
  1   1   2  2   
  2   1   3  2   
  3   1   4  am  
  4   1   5  1   
  5   4   6  1   
  6   4   7  1   
  7   5   8  ar  
  8   5   9  ar  
  9   6  10  1   
 10   6  18  1   
 11   6  19  1   
 12   7  11  1   
 13   7  20  1   
 14   7  21  1   
 15   8  12  ar  
 16   8  22  1   
 17   9  13  ar  
 18   9  23  1   
 19  10  11  1   
 20  10  24  1   
 21  10  25  1   
 22  11  26  1   
 23  11  27  1   
 24  12  14  ar  
 25  12  28  1   
 26  13  14  ar  
 27  13  29  1   
 28  14  15  1   
 29  15  16  1   
 30  16  17  1   
 31  16  30  1   
 32  16  31  1   
 33  17  32  1   
 34  17  33  1   
 35  17  34  1   
@<TRIPOS>SUBSTRUCTURE
  1 ****   5 GROUP 4 **** **** 0

# MOE 2024.06 (io_trps.svl 2023.06)
