@<TRIPOS>MOLECULE
NONAME
46 47 1 0 0 
SMALL
USER_CHARGES


@<TRIPOS>ATOM
  1 O        0.9740    -3.7730    -0.2170 O.3   1 <1>  -0.3630 
  2 C       -0.3740    -3.6990    -0.3600 C.ar  1 <1>   0.0830 
  3 C        1.6090    -4.9400     0.2620 C.3   1 <1>   0.1200 
  4 C       -1.2400    -4.7650    -0.1320 C.ar  1 <1>  -0.1500 
  5 C       -0.8840    -2.4720    -0.7570 C.ar  1 <1>  -0.1500 
  6 C        3.1170    -4.6680     0.3400 C.3   1 <1>   0.2000 
  7 C       -2.6110    -4.5930    -0.3030 C.ar  1 <1>   0.0830 
  8 C       -2.2450    -2.3000    -0.9270 C.ar  1 <1>  -0.1500 
  9 O        3.5540    -4.1810    -0.8940 O.3   1 <1>  -0.6800 
 10 C        3.9390    -5.9250     0.6990 C.3   1 <1>   0.3430 
 11 O       -3.5290    -5.5720    -0.1050 O.3   1 <1>  -0.3620 
 12 C       -3.1040    -3.3600    -0.6990 C.ar  1 <1>  -0.1500 
 13 N        5.3560    -5.7690     0.2490 N.4   1 <1>  -0.9590 
 14 C       -3.1550    -6.8760     0.2780 C.3   1 <1>   0.0400 
 15 C        6.0230    -7.0710    -0.0650 C.3   1 <1>   0.3430 
 16 C        6.1750    -4.9000     1.1330 C.3   1 <1>   0.3430 
 17 C        7.5460    -6.9180    -0.2680 C.3   1 <1>  -0.0800 
 18 C        7.4440    -4.4690     0.3870 C.3   1 <1>  -0.1600 
 19 C        7.9340    -5.4840    -0.6640 C.3   1 <1>  -0.1600 
 20 C        8.0530    -7.9170    -1.3160 C.3   1 <1>  -0.2400 
 21 H        1.3990    -5.7450    -0.4210 H     1 <1>   0.0800 
 22 H        1.2100    -5.1670     1.2360 H     1 <1>   0.0800 
 23 H       -0.8610    -5.7170     0.1720 H     1 <1>   0.1500 
 24 H       -0.2120    -1.6510    -0.9320 H     1 <1>   0.1500 
 25 H        3.2930    -3.9010     1.0740 H     1 <1>   0.0800 
 26 H       -2.6370    -1.3460    -1.2340 H     1 <1>   0.1500 
 27 H        2.8890    -3.5320    -1.2250 H     1 <1>   0.4000 
 28 H        3.4980    -6.7660     0.1900 H     1 <1>   0.0800 
 29 H        3.8920    -6.1160     1.7590 H     1 <1>   0.0800 
 30 H       -4.1650    -3.2370    -0.8280 H     1 <1>   0.1500 
 31 H        5.2620    -5.2390    -0.6400 H     1 <1>   0.4500 
 32 H       -4.0490    -7.4680     0.3620 H     1 <1>   0.0800 
 33 H       -2.6580    -6.8310     1.2310 H     1 <1>   0.0800 
 34 H       -2.5130    -7.2920    -0.4780 H     1 <1>   0.0800 
 35 H        5.5890    -7.4740    -0.9660 H     1 <1>   0.0800 
 36 H        5.8510    -7.7780     0.7300 H     1 <1>   0.0800 
 37 H        6.4480    -5.4490     2.0200 H     1 <1>   0.0800 
 38 H        5.6200    -4.0240     1.4280 H     1 <1>   0.0800 
 39 H        8.0290    -7.1530     0.6660 H     1 <1>   0.0800 
 40 H        8.2180    -4.3080     1.1170 H     1 <1>   0.0800 
 41 H        7.2700    -3.5210    -0.0930 H     1 <1>   0.0800 
 42 H        7.4910    -5.2490    -1.6180 H     1 <1>   0.0800 
 43 H        9.0030    -5.4000    -0.7760 H     1 <1>   0.0800 
 44 H        7.6090    -7.7250    -2.2780 H     1 <1>   0.0800 
 45 H        7.8190    -8.9260    -1.0240 H     1 <1>   0.0800 
 46 H        9.1220    -7.8410    -1.4180 H     1 <1>   0.0800 
@<TRIPOS>BOND
  1   1   2  1   
  2   1   3  1   
  3   2   4  ar  
  4   2   5  ar  
  5   3   6  1   
  6   3  21  1   
  7   3  22  1   
  8   4   7  ar  
  9   4  23  1   
 10   5   8  ar  
 11   5  24  1   
 12   6   9  1   
 13   6  10  1   
 14   6  25  1   
 15   7  11  1   
 16   7  12  ar  
 17   8  12  ar  
 18   8  26  1   
 19   9  27  1   
 20  10  13  1   
 21  10  28  1   
 22  10  29  1   
 23  11  14  1   
 24  12  30  1   
 25  13  15  1   
 26  13  16  1   
 27  13  31  1   
 28  14  32  1   
 29  14  33  1   
 30  14  34  1   
 31  15  17  1   
 32  15  35  1   
 33  15  36  1   
 34  16  18  1   
 35  16  37  1   
 36  16  38  1   
 37  17  19  1   
 38  17  20  1   
 39  17  39  1   
 40  18  19  1   
 41  18  40  1   
 42  18  41  1   
 43  19  42  1   
 44  19  43  1   
 45  20  44  1   
 46  20  45  1   
 47  20  46  1   
@<TRIPOS>SUBSTRUCTURE
  1 ****   3 GROUP 4 **** **** 0

# MOE 2024.06 (io_trps.svl 2023.06)
