@<TRIPOS>MOLECULE
NONAME
40 40 1 0 0 
SMALL
USER_CHARGES


@<TRIPOS>ATOM
  1 S        0.5950    -0.4410    -1.5140 S.o2  1 <1>   1.4470 
  2 O        1.8300    -0.9330    -2.0760 O.2   1 <1>  -0.6500 
  3 O       -0.0320     0.7440    -2.0520 O.2   1 <1>  -0.6500 
  4 N        0.9830    -0.0990     0.0750 N.am  1 <1>  -0.9140 
  5 C       -0.6280    -1.7730    -1.3710 C.ar  1 <1>  -0.0090 
  6 C        1.6390     1.1750     0.1920 C.3   1 <1>   0.3340 
  7 C       -1.8120    -1.5760    -0.6770 C.ar  1 <1>  -0.1500 
  8 C       -0.4170    -3.0170    -1.9490 C.ar  1 <1>  -0.1500 
  9 C        2.2200     1.2300     1.5850 C.2   1 <1>  -0.2880 
 10 C       -2.7860    -2.5650    -0.5460 C.ar  1 <1>   0.0860 
 11 C       -1.3590    -4.0220    -1.8350 C.ar  1 <1>  -0.1500 
 12 C        3.5210     1.3140     1.8810 C.2   1 <1>  -0.3000 
 13 C       -2.5380    -3.8070    -1.1420 C.ar  1 <1>  -0.1430 
 14 C       -4.0050    -2.2640     0.1830 C.2   1 <1>   0.5440 
 15 C       -3.5530    -4.9400    -1.0450 C.3   1 <1>  -0.0970 
 16 O       -4.3530    -2.9510     1.1230 O.2   1 <1>  -0.5700 
 17 N       -4.7590    -1.1870    -0.2010 N.am  1 <1>  -0.7300 
 18 C       -6.0220    -0.6850     0.3740 C.3   1 <1>   0.2200 
 19 C       -5.8130    -0.2580     1.8250 C.3   1 <1>  -0.2400 
 20 C       -7.1200    -1.7370     0.2330 C.3   1 <1>  -0.2400 
 21 H        1.6970    -0.7840     0.3120 H     1 <1>   0.4200 
 22 H        0.9310     1.9750     0.0460 H     1 <1>   0.0800 
 23 H        2.4260     1.2650    -0.5400 H     1 <1>   0.0800 
 24 H       -1.9850    -0.6190    -0.2140 H     1 <1>   0.1500 
 25 H        0.4940    -3.2040    -2.4950 H     1 <1>   0.1500 
 26 H        1.4540     1.1920     2.3420 H     1 <1>   0.1500 
 27 H       -1.1650    -4.9780    -2.2920 H     1 <1>   0.1500 
 28 H        3.9060     1.3510     2.8870 H     1 <1>   0.1500 
 29 H        4.3130     1.3530     1.1520 H     1 <1>   0.1500 
 30 H       -4.5290    -4.5930    -1.3370 H     1 <1>   0.0800 
 31 H       -3.6070    -5.2950    -0.0310 H     1 <1>   0.0800 
 32 H       -3.2830    -5.7630    -1.6810 H     1 <1>   0.0800 
 33 H       -4.4520    -0.6750    -1.0270 H     1 <1>   0.3700 
 34 H       -6.3170     0.1840    -0.1900 H     1 <1>   0.0800 
 35 H       -5.5680    -1.1050     2.4400 H     1 <1>   0.0800 
 36 H       -6.7130     0.1850     2.2080 H     1 <1>   0.0800 
 37 H       -5.0210     0.4660     1.8880 H     1 <1>   0.0800 
 38 H       -6.8940    -2.6050     0.8250 H     1 <1>   0.0800 
 39 H       -7.2250    -2.0280    -0.7960 H     1 <1>   0.0800 
 40 H       -8.0570    -1.3340     0.5720 H     1 <1>   0.0800 
@<TRIPOS>BOND
  1   1   2  2   
  2   1   3  2   
  3   1   4  am  
  4   1   5  1   
  5   4   6  1   
  6   4  21  1   
  7   5   7  ar  
  8   5   8  ar  
  9   6   9  1   
 10   6  22  1   
 11   6  23  1   
 12   7  10  ar  
 13   7  24  1   
 14   8  11  ar  
 15   8  25  1   
 16   9  12  2   
 17   9  26  1   
 18  10  13  ar  
 19  10  14  1   
 20  11  13  ar  
 21  11  27  1   
 22  12  28  1   
 23  12  29  1   
 24  13  15  1   
 25  14  16  2   
 26  14  17  am  
 27  15  30  1   
 28  15  31  1   
 29  15  32  1   
 30  17  18  1   
 31  17  33  1   
 32  18  19  1   
 33  18  20  1   
 34  18  34  1   
 35  19  35  1   
 36  19  36  1   
 37  19  37  1   
 38  20  38  1   
 39  20  39  1   
 40  20  40  1   
@<TRIPOS>SUBSTRUCTURE
  1 ****   7 GROUP 4 **** **** 0

# MOE 2024.06 (io_trps.svl 2023.06)
