@<TRIPOS>MOLECULE
NONAME
39 42 1 0 0 
SMALL
USER_CHARGES


@<TRIPOS>ATOM
  1 O        0.2500     1.0640    -0.6120 O.2   1 <1>  -0.5700 
  2 C       -0.2750     2.1310    -0.4000 C.2   1 <1>   0.5690 
  3 N        0.2860     3.1920     0.2690 N.am  1 <1>  -0.1200 
  4 C       -1.7010     2.4380    -0.8340 C.3   1 <1>  -0.0190 
  5 N        1.7200     3.2880     0.5260 N.am  1 <1>  -0.4300 
  6 C       -0.5740     4.2460     0.4610 C.2   1 <1>   0.5690 
  7 C       -1.9210     3.9930    -0.2010 C.3   1 <1>  -0.0190 
  8 C       -2.8850     1.4800    -0.1810 C.3   1 <1>   0.0580 
  9 C        2.6150     3.8020    -0.3670 C.2   1 <1>   0.5440 
 10 O       -0.3440     5.2490     1.0950 O.2   1 <1>  -0.5700 
 11 C       -3.2300     3.9200     0.8130 C.3   1 <1>   0.0580 
 12 C       -4.2280     1.6140     0.7140 C.2   1 <1>  -0.2880 
 13 C       -2.9670     2.7310     0.2720 C.3   1 <1>  -0.1600 
 14 O        2.1960     4.2480    -1.4230 O.2   1 <1>  -0.5700 
 15 C        4.0300     3.8300    -0.0570 C.ar  1 <1>   0.0860 
 16 C       -4.4090     2.8920     1.2340 C.2   1 <1>  -0.2880 
 17 C        4.6460     2.8120     0.6750 C.ar  1 <1>  -0.1500 
 18 C        4.8340     4.8890    -0.4830 C.ar  1 <1>  -0.1500 
 19 C        5.9930     2.8620     0.9810 C.ar  1 <1>  -0.1500 
 20 C        6.1820     4.9460    -0.1820 C.ar  1 <1>  -0.1500 
 21 C        6.7720     3.9270     0.5610 C.ar  1 <1>   0.0820 
 22 O        8.0800     3.9040     0.9040 O.3   1 <1>  -0.3620 
 23 C        8.9670     4.9300     0.5160 C.3   1 <1>   0.0400 
 24 H       -1.7450     2.4380    -1.9110 H     1 <1>   0.0800 
 25 H        2.0360     2.9930     1.4510 H     1 <1>   0.3700 
 26 H       -2.0680     4.7220    -0.9820 H     1 <1>   0.0800 
 27 H       -2.3270     0.7210     0.3530 H     1 <1>   0.0800 
 28 H       -2.8200     4.2080     1.7720 H     1 <1>   0.0800 
 29 H       -4.8530     0.7440     0.8360 H     1 <1>   0.1500 
 30 H       -2.3400     2.4350     1.2160 H     1 <1>   0.0800 
 31 H       -3.6750     3.0160    -0.6770 H     1 <1>   0.0800 
 32 H       -5.2090     3.2570     1.8590 H     1 <1>   0.1500 
 33 H        4.0710     1.9630     1.0010 H     1 <1>   0.1500 
 34 H        4.3840     5.6790    -1.0610 H     1 <1>   0.1500 
 35 H        6.4560     2.0730     1.5460 H     1 <1>   0.1500 
 36 H        6.7550     5.7840    -0.5310 H     1 <1>   0.1500 
 37 H        9.9420     4.6900     0.9000 H     1 <1>   0.0800 
 38 H        8.6280     5.8610     0.9330 H     1 <1>   0.0800 
 39 H        8.9990     4.9760    -0.5580 H     1 <1>   0.0800 
@<TRIPOS>BOND
  1   1   2  2   
  2   2   3  am  
  3   2   4  1   
  4   3   5  1   
  5   3   6  am  
  6   4   7  1   
  7   4   8  1   
  8   4  24  1   
  9   5   9  am  
 10   5  25  1   
 11   6   7  1   
 12   6  10  2   
 13   7  11  1   
 14   7  26  1   
 15   8  12  1   
 16   8  13  1   
 17   8  27  1   
 18   9  14  2   
 19   9  15  1   
 20  11  13  1   
 21  11  16  1   
 22  11  28  1   
 23  12  16  2   
 24  12  29  1   
 25  13  30  1   
 26  13  31  1   
 27  15  17  ar  
 28  15  18  ar  
 29  16  32  1   
 30  17  19  ar  
 31  17  33  1   
 32  18  20  ar  
 33  18  34  1   
 34  19  21  ar  
 35  19  35  1   
 36  20  21  ar  
 37  20  36  1   
 38  21  22  1   
 39  22  23  1   
 40  23  37  1   
 41  23  38  1   
 42  23  39  1   
@<TRIPOS>SUBSTRUCTURE
  1 ****   5 GROUP 4 **** **** 0

# MOE 2024.06 (io_trps.svl 2023.06)
