@<TRIPOS>MOLECULE
NONAME
37 39 1 0 0 
SMALL
USER_CHARGES


@<TRIPOS>ATOM
  1 BR      -2.6070    -0.6220     3.5640 Br    1 <1>  -0.0580 
  2 C       -2.8530    -0.3180     1.6790 C.2   1 <1>   0.1980 
  3 O       -3.9530    -0.7790     1.1260 O.3   1 <1>  -0.2800 
  4 C       -2.0470     0.3200     0.8100 C.2   1 <1>  -0.1500 
  5 C       -3.8800    -0.4430    -0.1540 C.2   1 <1>  -0.0400 
  6 C       -2.7340     0.2360    -0.4110 C.2   1 <1>  -0.1500 
  7 C       -5.0310    -0.8420    -1.0580 C.3   1 <1>   0.5230 
  8 N       -6.3010    -0.4510    -0.3890 N.4   1 <1>  -0.9590 
  9 C       -7.5130    -1.0750    -1.0360 C.3   1 <1>   0.3430 
 10 C       -6.4370     1.0500    -0.2770 C.3   1 <1>   0.3430 
 11 C       -8.8320    -0.6550    -0.3520 C.3   1 <1>   0.2090 
 12 C       -7.7520     1.4760     0.4090 C.3   1 <1>   0.2090 
 13 N       -8.9240     0.8300    -0.2520 N.pl3 1 <1>  -0.8380 
 14 C      -10.1740     1.3490     0.0630 C.ar  1 <1>   0.1000 
 15 C      -10.7220     1.2020     1.3360 C.ar  1 <1>  -0.1500 
 16 C      -10.8960     2.0300    -0.9100 C.ar  1 <1>  -0.1500 
 17 C      -11.9690     1.7250     1.6290 C.ar  1 <1>  -0.1500 
 18 C      -12.1440     2.5560    -0.6260 C.ar  1 <1>  -0.1500 
 19 C      -12.6680     2.3980     0.6440 C.ar  1 <1>   0.1770 
 20 CL     -14.2430     3.0600     1.0100 Cl    1 <1>  -0.1770 
 21 H       -1.0950     0.7890     0.9870 H     1 <1>   0.1500 
 22 H       -2.3720     0.6470    -1.3400 H     1 <1>   0.1500 
 23 H       -5.0050    -1.9100    -1.2000 H     1 <1>   0.0800 
 24 H       -4.9400    -0.3610    -2.0180 H     1 <1>   0.0800 
 25 H       -6.2160    -0.8110     0.5730 H     1 <1>   0.4500 
 26 H       -7.4330    -2.1490    -1.0120 H     1 <1>   0.0800 
 27 H       -7.5660    -0.7700    -2.0690 H     1 <1>   0.0800 
 28 H       -6.4210     1.4880    -1.2610 H     1 <1>   0.0800 
 29 H       -5.6070     1.4540     0.2790 H     1 <1>   0.0800 
 30 H       -8.8900    -1.0890     0.6310 H     1 <1>   0.0800 
 31 H       -9.6660    -1.0230    -0.9260 H     1 <1>   0.0800 
 32 H       -7.8570     2.5460     0.3500 H     1 <1>   0.0800 
 33 H       -7.7260     1.2040     1.4510 H     1 <1>   0.0800 
 34 H      -10.1740     0.6780     2.0950 H     1 <1>   0.1500 
 35 H      -10.4730     2.1440    -1.8910 H     1 <1>   0.1500 
 36 H      -12.4010     1.6170     2.6080 H     1 <1>   0.1500 
 37 H      -12.7070     3.0840    -1.3740 H     1 <1>   0.1500 
@<TRIPOS>BOND
  1   1   2  1   
  2   2   3  1   
  3   2   4  2   
  4   3   5  1   
  5   4   6  1   
  6   4  21  1   
  7   5   6  2   
  8   5   7  1   
  9   6  22  1   
 10   7   8  1   
 11   7  23  1   
 12   7  24  1   
 13   8   9  1   
 14   8  10  1   
 15   8  25  1   
 16   9  11  1   
 17   9  26  1   
 18   9  27  1   
 19  10  12  1   
 20  10  28  1   
 21  10  29  1   
 22  11  13  1   
 23  11  30  1   
 24  11  31  1   
 25  12  13  1   
 26  12  32  1   
 27  12  33  1   
 28  13  14  1   
 29  14  15  ar  
 30  14  16  ar  
 31  15  17  ar  
 32  15  34  1   
 33  16  18  ar  
 34  16  35  1   
 35  17  19  ar  
 36  17  36  1   
 37  18  19  ar  
 38  18  37  1   
 39  19  20  1   
@<TRIPOS>SUBSTRUCTURE
  1 ****  12 GROUP 4 **** **** 0

# MOE 2024.06 (io_trps.svl 2023.06)
