@<TRIPOS>MOLECULE
NONAME
46 47 1 0 0 
SMALL
USER_CHARGES


@<TRIPOS>ATOM
  1 O        0.4230    -2.1440    -1.2310 O.2   1 <1>  -0.5700 
  2 C        0.6870    -2.0060    -0.0610 C.2   1 <1>   0.5690 
  3 N       -0.2860    -1.9270     0.8840 N.am  1 <1>  -0.7300 
  4 C        2.1460    -1.9210     0.3830 C.3   1 <1>  -0.0190 
  5 C       -1.7390    -1.9570     0.5880 C.3   1 <1>   0.1400 
  6 C        2.7440    -0.5420     0.0520 C.3   1 <1>  -0.1600 
  7 C        3.0070    -3.0330    -0.2490 C.3   1 <1>  -0.1600 
  8 C       -2.2640    -3.3880     0.6940 C.3   1 <1>  -0.0170 
  9 C        4.2160    -0.4480     0.4660 C.3   1 <1>   0.1400 
 10 C        4.4740    -2.9190     0.1720 C.3   1 <1>   0.1400 
 11 C       -3.7550    -3.4190     0.4000 C.ar  1 <1>  -0.1440 
 12 N        4.9840    -1.5590    -0.1600 N.am  1 <1>  -0.6600 
 13 C       -4.6790    -3.4230     1.4340 C.ar  1 <1>  -0.1500 
 14 C       -4.2020    -3.4380    -0.9120 C.ar  1 <1>  -0.1500 
 15 C        6.0570    -1.2980    -0.9760 C.2   1 <1>   0.5690 
 16 C       -6.0340    -3.4440     1.1550 C.ar  1 <1>  -0.1500 
 17 C       -5.5570    -3.4580    -1.1930 C.ar  1 <1>  -0.1500 
 18 O        6.4620    -0.1770    -1.1710 O.2   1 <1>  -0.5700 
 19 C        6.7880    -2.4210    -1.6730 C.3   1 <1>  -0.1790 
 20 C       -6.4840    -3.4610    -0.1550 C.ar  1 <1>   0.0820 
 21 O       -7.8270    -3.4790    -0.3410 O.3   1 <1>  -0.3620 
 22 C       -8.3850    -3.4990    -1.6350 C.3   1 <1>   0.0400 
 23 H       -0.0360    -1.8240     1.8670 H     1 <1>   0.3700 
 24 H        2.1770    -2.0500     1.4500 H     1 <1>   0.0800 
 25 H       -1.9130    -1.5850    -0.4080 H     1 <1>   0.0800 
 26 H       -2.2620    -1.3190     1.2800 H     1 <1>   0.0800 
 27 H        2.1850     0.2280     0.5530 H     1 <1>   0.0800 
 28 H        2.6720    -0.3590    -1.0070 H     1 <1>   0.0800 
 29 H        2.9490    -2.9720    -1.3220 H     1 <1>   0.0800 
 30 H        2.6240    -3.9950     0.0430 H     1 <1>   0.0800 
 31 H       -2.0790    -3.7740     1.6800 H     1 <1>   0.0800 
 32 H       -1.7490    -4.0100    -0.0170 H     1 <1>   0.0800 
 33 H        4.3060    -0.5190     1.5360 H     1 <1>   0.0800 
 34 H        4.6110     0.5080     0.1640 H     1 <1>   0.0800 
 35 H        5.0460    -3.6840    -0.3190 H     1 <1>   0.0800 
 36 H        4.5620    -3.0720     1.2340 H     1 <1>   0.0800 
 37 H       -4.3520    -3.4100     2.4580 H     1 <1>   0.1500 
 38 H       -3.4920    -3.4350    -1.7220 H     1 <1>   0.1500 
 39 H       -6.7540    -3.4470     1.9530 H     1 <1>   0.1500 
 40 H       -5.8680    -3.4720    -2.2200 H     1 <1>   0.1500 
 41 H        7.2320    -3.0740    -0.9470 H     1 <1>   0.0800 
 42 H        7.5660    -2.0160    -2.2940 H     1 <1>   0.0800 
 43 H        6.1050    -2.9690    -2.2940 H     1 <1>   0.0800 
 44 H       -9.4560    -3.5130    -1.5380 H     1 <1>   0.0800 
 45 H       -8.0520    -4.3850    -2.1450 H     1 <1>   0.0800 
 46 H       -8.0770    -2.6120    -2.1610 H     1 <1>   0.0800 
@<TRIPOS>BOND
  1   1   2  2   
  2   2   3  am  
  3   2   4  1   
  4   3   5  1   
  5   3  23  1   
  6   4   6  1   
  7   4   7  1   
  8   4  24  1   
  9   5   8  1   
 10   5  25  1   
 11   5  26  1   
 12   6   9  1   
 13   6  27  1   
 14   6  28  1   
 15   7  10  1   
 16   7  29  1   
 17   7  30  1   
 18   8  11  1   
 19   8  31  1   
 20   8  32  1   
 21   9  12  1   
 22   9  33  1   
 23   9  34  1   
 24  10  12  1   
 25  10  35  1   
 26  10  36  1   
 27  11  13  ar  
 28  11  14  ar  
 29  12  15  am  
 30  13  16  ar  
 31  13  37  1   
 32  14  17  ar  
 33  14  38  1   
 34  15  18  2   
 35  15  19  1   
 36  16  20  ar  
 37  16  39  1   
 38  17  20  ar  
 39  17  40  1   
 40  19  41  1   
 41  19  42  1   
 42  19  43  1   
 43  20  21  1   
 44  21  22  1   
 45  22  44  1   
 46  22  45  1   
 47  22  46  1   
@<TRIPOS>SUBSTRUCTURE
  1 ****   3 GROUP 4 **** **** 0

# MOE 2024.06 (io_trps.svl 2023.06)
