@<TRIPOS>MOLECULE
NONAME
33 34 1 0 0 
SMALL
USER_CHARGES


@<TRIPOS>ATOM
  1 BR       0.0540     0.6530     0.8380 Br    1 <1>  -0.0580 
  2 C       -1.8500     0.4040     0.8770 C.2   1 <1>   0.0980 
  3 S       -2.4780    -0.8700    -0.1430 S.3   1 <1>  -0.0800 
  4 C       -2.8070     1.0490     1.5640 C.2   1 <1>  -0.1500 
  5 C       -4.1160    -0.4970     0.3940 C.2   1 <1>  -0.1400 
  6 C       -4.1100     0.5220     1.2830 C.2   1 <1>  -0.1500 
  7 C       -5.2250    -1.3510    -0.1940 C.3   1 <1>   0.2900 
  8 N       -6.5210    -0.6420    -0.1480 N.3   1 <1>  -0.8100 
  9 C       -6.5510     0.5040    -1.0930 C.3   1 <1>   0.1100 
 10 C       -7.6500    -1.5620    -0.4240 C.3   1 <1>   0.1100 
 11 C       -7.9060     1.2530    -1.0730 C.3   1 <1>   0.3430 
 12 C       -9.0210    -0.8400    -0.4010 C.3   1 <1>   0.3430 
 13 N       -8.8640     0.6250    -0.1040 N.4   1 <1>  -0.9590 
 14 C      -10.1370     1.3770     0.0180 C.3   1 <1>   0.3430 
 15 C      -10.8810     0.9300     1.2710 C.3   1 <1>  -0.2400 
 16 H       -2.6520     1.8610     2.2510 H     1 <1>   0.1500 
 17 H       -4.9820     0.9280     1.7630 H     1 <1>   0.1500 
 18 H       -5.2840    -2.2620     0.3770 H     1 <1>   0.0800 
 19 H       -4.9840    -1.6070    -1.2120 H     1 <1>   0.0800 
 20 H       -6.3570     0.1580    -2.0950 H     1 <1>   0.0800 
 21 H       -5.7710     1.2030    -0.8430 H     1 <1>   0.0800 
 22 H       -7.6610    -2.3440     0.3170 H     1 <1>   0.0800 
 23 H       -7.5160    -2.0300    -1.3850 H     1 <1>   0.0800 
 24 H       -8.3270     1.2480    -2.0650 H     1 <1>   0.0800 
 25 H       -7.7290     2.2800    -0.7990 H     1 <1>   0.0800 
 26 H       -9.6410    -1.3030     0.3490 H     1 <1>   0.0800 
 27 H       -9.5070    -0.9720    -1.3530 H     1 <1>   0.0800 
 28 H       -8.3550     0.6440     0.7940 H     1 <1>   0.4500 
 29 H      -10.7490     1.2190    -0.8550 H     1 <1>   0.0800 
 30 H       -9.9260     2.4320     0.0970 H     1 <1>   0.0800 
 31 H      -11.2030    -0.0920     1.1940 H     1 <1>   0.0800 
 32 H      -11.7590     1.5400     1.3930 H     1 <1>   0.0800 
 33 H      -10.2670     1.0550     2.1450 H     1 <1>   0.0800 
@<TRIPOS>BOND
  1   1   2  1   
  2   2   3  1   
  3   2   4  2   
  4   3   5  1   
  5   4   6  1   
  6   4  16  1   
  7   5   6  2   
  8   5   7  1   
  9   6  17  1   
 10   7   8  1   
 11   7  18  1   
 12   7  19  1   
 13   8   9  1   
 14   8  10  1   
 15   9  11  1   
 16   9  20  1   
 17   9  21  1   
 18  10  12  1   
 19  10  22  1   
 20  10  23  1   
 21  11  13  1   
 22  11  24  1   
 23  11  25  1   
 24  12  13  1   
 25  12  26  1   
 26  12  27  1   
 27  13  14  1   
 28  13  28  1   
 29  14  15  1   
 30  14  29  1   
 31  14  30  1   
 32  15  31  1   
 33  15  32  1   
 34  15  33  1   
@<TRIPOS>SUBSTRUCTURE
  1 ****   8 GROUP 4 **** **** 0

# MOE 2024.06 (io_trps.svl 2023.06)
