@<TRIPOS>MOLECULE
NONAME
32 33 1 0 0 
SMALL
USER_CHARGES


@<TRIPOS>ATOM
  1 S       -0.4570     0.2220    -0.4580 S.3   1 <1>  -0.2860 
  2 C       -1.6640     1.5170    -0.2640 C.2   1 <1>   0.5340 
  3 C        1.1290     1.0700    -0.0260 C.3   1 <1>   0.0700 
  4 O       -2.9280     1.2050    -0.4820 O.3   1 <1>  -0.2800 
  5 N       -1.4010     2.7250     0.0640 N.2   1 <1>  -0.5650 
  6 C        2.3120     0.1200    -0.2360 C.3   1 <1>   0.2000 
  7 C       -3.5720     2.3360    -0.2710 C.ar  1 <1>   0.1400 
  8 C       -2.6390     3.2900     0.0690 C.ar  1 <1>   0.2270 
  9 O        2.2750    -0.8890     0.7100 O.3   1 <1>  -0.6800 
 10 C        3.6610     0.8390    -0.1040 C.3   1 <1>   0.1200 
 11 C       -4.9280     2.6180    -0.3510 C.ar  1 <1>  -0.1500 
 12 C       -3.0510     4.5890     0.3460 C.ar  1 <1>  -0.1500 
 13 O        4.6890    -0.1090    -0.0800 O.3   1 <1>  -0.5600 
 14 C       -5.3340     3.9100    -0.0750 C.ar  1 <1>  -0.1500 
 15 C       -4.3990     4.8910     0.2720 C.ar  1 <1>  -0.1500 
 16 C        5.9560     0.4350     0.0750 C.3   1 <1>   0.1200 
 17 C        6.9510    -0.7190     0.0810 C.3   1 <1>  -0.2400 
 18 H        1.0590     1.3930     0.9980 H     1 <1>   0.0800 
 19 H        1.2020     1.9250    -0.6730 H     1 <1>   0.0800 
 20 H        2.2470    -0.3340    -1.2100 H     1 <1>   0.0800 
 21 H        3.1670    -1.3010     0.7160 H     1 <1>   0.4000 
 22 H        3.6890     1.4040     0.8130 H     1 <1>   0.0800 
 23 H        3.8150     1.5000    -0.9390 H     1 <1>   0.0800 
 24 H       -5.6240     1.8440    -0.6200 H     1 <1>   0.1500 
 25 H       -2.3170     5.3280     0.6110 H     1 <1>   0.1500 
 26 H       -6.3780     4.1700    -0.1260 H     1 <1>   0.1500 
 27 H       -4.7380     5.8910     0.4830 H     1 <1>   0.1500 
 28 H        5.9940     0.9730     1.0080 H     1 <1>   0.0800 
 29 H        6.1530     1.1030    -0.7460 H     1 <1>   0.0800 
 30 H        6.7390    -1.3850     0.8980 H     1 <1>   0.0800 
 31 H        7.9490    -0.3380     0.1980 H     1 <1>   0.0800 
 32 H        6.8950    -1.2590    -0.8470 H     1 <1>   0.0800 
@<TRIPOS>BOND
  1   1   2  1   
  2   1   3  1   
  3   2   4  1   
  4   2   5  2   
  5   3   6  1   
  6   3  18  1   
  7   3  19  1   
  8   4   7  1   
  9   5   8  1   
 10   6   9  1   
 11   6  10  1   
 12   6  20  1   
 13   7   8  ar  
 14   7  11  ar  
 15   8  12  ar  
 16   9  21  1   
 17  10  13  1   
 18  10  22  1   
 19  10  23  1   
 20  11  14  ar  
 21  11  24  1   
 22  12  15  ar  
 23  12  25  1   
 24  13  16  1   
 25  14  15  ar  
 26  14  26  1   
 27  15  27  1   
 28  16  17  1   
 29  16  28  1   
 30  16  29  1   
 31  17  30  1   
 32  17  31  1   
 33  17  32  1   
@<TRIPOS>SUBSTRUCTURE
  1 ****   3 GROUP 4 **** **** 0

# MOE 2024.06 (io_trps.svl 2023.06)
