@<TRIPOS>MOLECULE
NONAME
52 55 1 0 0 
SMALL
USER_CHARGES


@<TRIPOS>ATOM
  1 O        0.1090    -1.0670     0.1760 O.2   1 <1>  -0.5700 
  2 C       -0.6670    -1.7390    -0.4800 C.2   1 <1>   0.5440 
  3 N       -0.1980    -2.8120    -1.2060 N.am  1 <1>  -0.4200 
  4 C       -2.0690    -1.3980    -0.5460 C.ar  1 <1>   0.0860 
  5 C       -1.0680    -3.6440    -1.8840 C.2   1 <1>   0.6160 
  6 C        1.2420    -3.1760    -1.1420 C.3   1 <1>   0.2840 
  7 C       -2.9590    -2.2970    -1.1560 C.ar  1 <1>   0.0280 
  8 C       -2.5490    -0.1810    -0.0590 C.ar  1 <1>  -0.1500 
  9 O       -0.6160    -4.4270    -2.7050 O.2   1 <1>  -0.5700 
 10 C       -2.4740    -3.5870    -1.5950 C.2   1 <1>  -0.0140 
 11 C        1.4600    -4.2000    -0.0370 C.ar  1 <1>  -0.1440 
 12 C       -4.2790    -1.8840    -1.3540 C.ar  1 <1>  -0.1500 
 13 C       -3.8770     0.1840    -0.2180 C.ar  1 <1>   0.0830 
 14 C       -3.2370    -4.7230    -1.7360 C.2   1 <1>  -0.0500 
 15 C        1.3930    -5.5570    -0.3150 C.ar  1 <1>  -0.1500 
 16 C        1.7200    -3.7840     1.2610 C.ar  1 <1>  -0.1500 
 17 C       -4.7350    -0.6720    -0.8860 C.ar  1 <1>  -0.1500 
 18 O       -4.4040     1.3500     0.2330 O.3   1 <1>  -0.3630 
 19 N       -4.4950    -5.0250    -1.2730 N.pl3 1 <1>  -0.8380 
 20 C        1.5890    -6.4880     0.6910 C.ar  1 <1>  -0.1500 
 21 C        1.9160    -4.7140     2.2670 C.ar  1 <1>  -0.1500 
 22 C       -3.6160     2.2900     0.9290 C.3   1 <1>   0.0400 
 23 C       -5.2770    -6.1310    -1.8870 C.3   1 <1>   0.2090 
 24 C       -5.0230    -4.5570     0.0440 C.3   1 <1>   0.2090 
 25 C        1.8510    -6.0660     1.9830 C.ar  1 <1>  -0.1500 
 26 C       -5.3530    -7.3180    -0.9230 C.3   1 <1>  -0.1600 
 27 C       -5.1130    -5.7360     1.0180 C.3   1 <1>  -0.1600 
 28 C       -5.9260    -6.9020     0.4390 C.3   1 <1>  -0.1600 
 29 H        1.5630    -3.5820    -2.0860 H     1 <1>   0.0800 
 30 H        1.8410    -2.3020    -0.9540 H     1 <1>   0.0800 
 31 H       -1.8550     0.4730     0.4340 H     1 <1>   0.1500 
 32 H       -4.9560    -2.5320    -1.8850 H     1 <1>   0.1500 
 33 H       -2.7750    -5.5350    -2.2770 H     1 <1>   0.1500 
 34 H        1.1840    -5.8950    -1.3160 H     1 <1>   0.1500 
 35 H        1.7660    -2.7330     1.4920 H     1 <1>   0.1500 
 36 H       -5.7590    -0.3750    -1.0340 H     1 <1>   0.1500 
 37 H        1.5350    -7.5390     0.4670 H     1 <1>   0.1500 
 38 H        2.1170    -4.3830     3.2710 H     1 <1>   0.1500 
 39 H       -4.2440     3.1220     1.1930 H     1 <1>   0.0800 
 40 H       -2.8200     2.6230     0.2860 H     1 <1>   0.0800 
 41 H       -3.2260     1.8290     1.8190 H     1 <1>   0.0800 
 42 H       -6.2690    -5.7760    -2.1110 H     1 <1>   0.0800 
 43 H       -4.8160    -6.4390    -2.8100 H     1 <1>   0.0800 
 44 H       -4.3720    -3.8130     0.4680 H     1 <1>   0.0800 
 45 H       -5.9960    -4.1190    -0.0990 H     1 <1>   0.0800 
 46 H        2.0030    -6.7890     2.7650 H     1 <1>   0.1500 
 47 H       -5.9670    -8.0880    -1.3550 H     1 <1>   0.0800 
 48 H       -4.3630    -7.7190    -0.7930 H     1 <1>   0.0800 
 49 H       -4.1140    -6.0690     1.2410 H     1 <1>   0.0800 
 50 H       -5.5600    -5.4030     1.9370 H     1 <1>   0.0800 
 51 H       -5.8990    -7.7380     1.1170 H     1 <1>   0.0800 
 52 H       -6.9520    -6.5990     0.3190 H     1 <1>   0.0800 
@<TRIPOS>BOND
  1   1   2  2   
  2   2   3  am  
  3   2   4  1   
  4   3   5  am  
  5   3   6  1   
  6   4   7  ar  
  7   4   8  ar  
  8   5   9  2   
  9   5  10  1   
 10   6  11  1   
 11   6  29  1   
 12   6  30  1   
 13   7  10  1   
 14   7  12  ar  
 15   8  13  ar  
 16   8  31  1   
 17  10  14  2   
 18  11  15  ar  
 19  11  16  ar  
 20  12  17  ar  
 21  12  32  1   
 22  13  17  ar  
 23  13  18  1   
 24  14  19  1   
 25  14  33  1   
 26  15  20  ar  
 27  15  34  1   
 28  16  21  ar  
 29  16  35  1   
 30  17  36  1   
 31  18  22  1   
 32  19  23  1   
 33  19  24  1   
 34  20  25  ar  
 35  20  37  1   
 36  21  25  ar  
 37  21  38  1   
 38  22  39  1   
 39  22  40  1   
 40  22  41  1   
 41  23  26  1   
 42  23  42  1   
 43  23  43  1   
 44  24  27  1   
 45  24  44  1   
 46  24  45  1   
 47  25  46  1   
 48  26  28  1   
 49  26  47  1   
 50  26  48  1   
 51  27  28  1   
 52  27  49  1   
 53  27  50  1   
 54  28  51  1   
 55  28  52  1   
@<TRIPOS>SUBSTRUCTURE
  1 ****  10 GROUP 4 **** **** 0

# MOE 2024.06 (io_trps.svl 2023.06)
