@<TRIPOS>MOLECULE
NONAME
51 53 1 0 0 
SMALL
USER_CHARGES


@<TRIPOS>ATOM
  1 O        0.4210     0.3650     0.3710 O.2   1 <1>  -0.5700 
  2 C        0.9340     1.4590     0.4090 C.2   1 <1>   0.6900 
  3 N        0.3240     2.5350    -0.1410 N.am  1 <1>  -0.5390 
  4 N        2.1350     1.6370     0.9850 N.am  1 <1>  -0.7300 
  5 C        0.8460     3.8140    -0.1750 C.2   1 <1>  -0.0290 
  6 C        2.8500     2.9270     1.0270 C.3   1 <1>   0.5020 
  7 C        2.0690     4.0690     0.3670 C.2   1 <1>  -0.1240 
  8 C       -0.0590     4.8470    -0.8570 C.3   1 <1>   0.2480 
  9 C        4.2570     2.7140     0.4530 C.ar  1 <1>  -0.1430 
 10 C        2.7490     5.3260     0.3990 C.2   1 <1>   0.7060 
 11 N       -1.4880     4.5550    -0.6150 N.3   1 <1>  -0.8100 
 12 C        4.5370     2.5080    -0.9000 C.ar  1 <1>  -0.1440 
 13 C        5.3130     2.7320     1.3570 C.ar  1 <1>  -0.1500 
 14 O        2.5280     6.2250    -0.3900 O.2   1 <1>  -0.5700 
 15 O        3.6630     5.5320     1.3550 O.3   1 <1>  -0.4300 
 16 C       -1.8600     4.8070     0.7950 C.3   1 <1>   0.1100 
 17 C       -2.3450     5.3700    -1.4960 C.3   1 <1>   0.1100 
 18 C        5.8520     2.3350    -1.3070 C.ar  1 <1>  -0.1500 
 19 C        3.4610     2.4610    -1.9790 C.3   1 <1>  -0.0970 
 20 C        6.6190     2.5560     0.9390 C.ar  1 <1>  -0.1500 
 21 C        4.4320     6.7170     1.4070 C.3   1 <1>   0.0400 
 22 C       -3.3640     4.5720     1.0190 C.3   1 <1>   0.1200 
 23 C       -3.8360     5.1190    -1.2040 C.3   1 <1>   0.1200 
 24 C        6.8960     2.3560    -0.3990 C.ar  1 <1>  -0.1440 
 25 O       -4.1190     5.3610     0.1450 O.3   1 <1>  -0.5600 
 26 C        8.3250     2.1640    -0.8730 C.3   1 <1>  -0.0970 
 27 H       -0.6290     2.3930    -0.4890 H     1 <1>   0.3700 
 28 H        2.6820     0.8060     1.1960 H     1 <1>   0.3700 
 29 H        2.9470     3.1830     2.0680 H     1 <1>   0.0800 
 30 H        0.1330     4.8040    -1.9150 H     1 <1>   0.0800 
 31 H        0.1620     5.8450    -0.5200 H     1 <1>   0.0800 
 32 H        5.1320     2.8890     2.4060 H     1 <1>   0.1500 
 33 H       -1.6230     5.8210     1.0650 H     1 <1>   0.0800 
 34 H       -1.3060     4.1490     1.4410 H     1 <1>   0.0800 
 35 H       -2.1430     5.1220    -2.5230 H     1 <1>   0.0800 
 36 H       -2.1350     6.4170    -1.3540 H     1 <1>   0.0800 
 37 H        6.0740     2.1810    -2.3480 H     1 <1>   0.1500 
 38 H        2.6890     1.7640    -1.7150 H     1 <1>   0.0800 
 39 H        3.8730     2.1430    -2.9200 H     1 <1>   0.0800 
 40 H        3.0310     3.4350    -2.1210 H     1 <1>   0.0800 
 41 H        7.4170     2.5780     1.6600 H     1 <1>   0.1500 
 42 H        5.1020     6.6530     2.2450 H     1 <1>   0.0800 
 43 H        3.7710     7.5590     1.5220 H     1 <1>   0.0800 
 44 H        4.9930     6.8070     0.4920 H     1 <1>   0.0800 
 45 H       -3.6390     4.8400     2.0240 H     1 <1>   0.0800 
 46 H       -3.6130     3.5380     0.8540 H     1 <1>   0.0800 
 47 H       -4.0990     4.1010    -1.4340 H     1 <1>   0.0800 
 48 H       -4.4490     5.7790    -1.7920 H     1 <1>   0.0800 
 49 H        8.3600     1.4340    -1.6620 H     1 <1>   0.0800 
 50 H        8.9490     1.8230    -0.0680 H     1 <1>   0.0800 
 51 H        8.7130     3.0960    -1.2440 H     1 <1>   0.0800 
@<TRIPOS>BOND
  1   1   2  2   
  2   2   3  am  
  3   2   4  am  
  4   3   5  1   
  5   3  27  1   
  6   4   6  1   
  7   4  28  1   
  8   5   7  2   
  9   5   8  1   
 10   6   7  1   
 11   6   9  1   
 12   6  29  1   
 13   7  10  1   
 14   8  11  1   
 15   8  30  1   
 16   8  31  1   
 17   9  12  ar  
 18   9  13  ar  
 19  10  14  2   
 20  10  15  1   
 21  11  16  1   
 22  11  17  1   
 23  12  18  ar  
 24  12  19  1   
 25  13  20  ar  
 26  13  32  1   
 27  15  21  1   
 28  16  22  1   
 29  16  33  1   
 30  16  34  1   
 31  17  23  1   
 32  17  35  1   
 33  17  36  1   
 34  18  24  ar  
 35  18  37  1   
 36  19  38  1   
 37  19  39  1   
 38  19  40  1   
 39  20  24  ar  
 40  20  41  1   
 41  21  42  1   
 42  21  43  1   
 43  21  44  1   
 44  22  25  1   
 45  22  45  1   
 46  22  46  1   
 47  23  25  1   
 48  23  47  1   
 49  23  48  1   
 50  24  26  1   
 51  26  49  1   
 52  26  50  1   
 53  26  51  1   
@<TRIPOS>SUBSTRUCTURE
  1 ****   7 GROUP 4 **** **** 0

# MOE 2024.06 (io_trps.svl 2023.06)
