@<TRIPOS>MOLECULE
NONAME
47 49 1 0 0 
SMALL
USER_CHARGES


@<TRIPOS>ATOM
  1 O       -2.6460     0.1150     0.4760 O.3   1 <1>  -0.6800 
  2 C       -3.7900     0.5020     1.1580 C.3   1 <1>   0.5670 
  3 C       -4.2760     1.8250     0.5050 C.ar  1 <1>  -0.1440 
  4 C       -4.7980    -0.6470     0.9850 C.ar  1 <1>  -0.1440 
  5 C       -3.3950     0.6420     2.6490 C.3   1 <1>   0.0400 
  6 C       -4.0970     2.0580    -0.8580 C.ar  1 <1>  -0.1500 
  7 C       -4.9260     2.8100     1.2470 C.ar  1 <1>  -0.1500 
  8 C       -4.3960    -1.9650     1.1900 C.ar  1 <1>  -0.1500 
  9 C       -6.1250    -0.4150     0.6330 C.ar  1 <1>  -0.1500 
 10 C       -2.4080     1.7410     2.8910 C.1   1 <1>  -0.2000 
 11 C       -4.5280     3.2320    -1.4500 C.ar  1 <1>  -0.1500 
 12 C       -5.3560     3.9860     0.6590 C.ar  1 <1>  -0.1500 
 13 C       -5.2850    -3.0140     1.0450 C.ar  1 <1>  -0.1500 
 14 C       -7.0160    -1.4640     0.4870 C.ar  1 <1>  -0.1500 
 15 C       -1.6320     2.6400     2.9070 C.1   1 <1>  -0.2000 
 16 C       -5.1560     4.2010    -0.6910 C.ar  1 <1>  -0.1500 
 17 C       -6.5980    -2.7650     0.6930 C.ar  1 <1>  -0.1500 
 18 C       -0.6880     3.7620     2.6850 C.3   1 <1>   0.5430 
 19 N       -0.5650     3.9100     1.2160 N.4   1 <1>  -0.9590 
 20 C        0.5260     4.7980     0.7660 C.3   1 <1>   0.3430 
 21 C       -1.8060     4.3930     0.5610 C.3   1 <1>   0.3430 
 22 C        0.1600     5.1430    -0.6720 C.3   1 <1>  -0.1600 
 23 C       -1.3430     4.8760    -0.8050 C.3   1 <1>  -0.1600 
 24 H       -2.9440    -0.4260    -0.2780 H     1 <1>   0.4000 
 25 H       -2.9740    -0.2850     2.9930 H     1 <1>   0.0800 
 26 H       -4.2770     0.8200     3.2350 H     1 <1>   0.0800 
 27 H       -3.6240     1.3210    -1.4840 H     1 <1>   0.1500 
 28 H       -5.1180     2.6780     2.2970 H     1 <1>   0.1500 
 29 H       -3.3790    -2.1900     1.4680 H     1 <1>   0.1500 
 30 H       -6.4930     0.5830     0.4650 H     1 <1>   0.1500 
 31 H       -4.3840     3.3870    -2.5060 H     1 <1>   0.1500 
 32 H       -5.8600     4.7320     1.2510 H     1 <1>   0.1500 
 33 H       -4.9570    -4.0270     1.2070 H     1 <1>   0.1500 
 34 H       -8.0380    -1.2660     0.2130 H     1 <1>   0.1500 
 35 H       -5.4990     5.1120    -1.1520 H     1 <1>   0.1500 
 36 H       -7.2920    -3.5790     0.5790 H     1 <1>   0.1500 
 37 H        0.2670     3.5210     3.1210 H     1 <1>   0.0800 
 38 H       -1.0660     4.6680     3.1300 H     1 <1>   0.0800 
 39 H       -0.4060     2.9620     0.8470 H     1 <1>   0.4500 
 40 H        1.4880     4.3140     0.8280 H     1 <1>   0.0800 
 41 H        0.5350     5.6980     1.3600 H     1 <1>   0.0800 
 42 H       -2.2230     5.2170     1.1180 H     1 <1>   0.0800 
 43 H       -2.5430     3.6100     0.4800 H     1 <1>   0.0800 
 44 H        0.7130     4.5150    -1.3490 H     1 <1>   0.0800 
 45 H        0.4030     6.1700    -0.8840 H     1 <1>   0.0800 
 46 H       -1.8870     5.7580    -1.0940 H     1 <1>   0.0800 
 47 H       -1.5260     4.1080    -1.5370 H     1 <1>   0.0800 
@<TRIPOS>BOND
  1   1   2  1   
  2   1  24  1   
  3   2   3  1   
  4   2   4  1   
  5   2   5  1   
  6   3   6  ar  
  7   3   7  ar  
  8   4   8  ar  
  9   4   9  ar  
 10   5  10  1   
 11   5  25  1   
 12   5  26  1   
 13   6  11  ar  
 14   6  27  1   
 15   7  12  ar  
 16   7  28  1   
 17   8  13  ar  
 18   8  29  1   
 19   9  14  ar  
 20   9  30  1   
 21  10  15  3   
 22  11  16  ar  
 23  11  31  1   
 24  12  16  ar  
 25  12  32  1   
 26  13  17  ar  
 27  13  33  1   
 28  14  17  ar  
 29  14  34  1   
 30  15  18  1   
 31  16  35  1   
 32  17  36  1   
 33  18  19  1   
 34  18  37  1   
 35  18  38  1   
 36  19  20  1   
 37  19  21  1   
 38  19  39  1   
 39  20  22  1   
 40  20  40  1   
 41  20  41  1   
 42  21  23  1   
 43  21  42  1   
 44  21  43  1   
 45  22  23  1   
 46  22  44  1   
 47  22  45  1   
 48  23  46  1   
 49  23  47  1   
@<TRIPOS>SUBSTRUCTURE
  1 ****   3 GROUP 4 **** **** 0

# MOE 2024.06 (io_trps.svl 2023.06)
