@<TRIPOS>MOLECULE
NONAME
27 29 1 0 0 
SMALL
USER_CHARGES


@<TRIPOS>ATOM
  1 BR      -0.0710    -0.1060     0.5690 Br    1 <1>  -0.1110 
  2 C        1.5510    -1.1010     0.2590 C.ar  1 <1>   0.1110 
  3 C        2.7530    -0.4370     0.2750 C.ar  1 <1>  -0.1500 
  4 C        1.4400    -2.4750     0.0280 C.ar  1 <1>  -0.1500 
  5 C        3.9140    -1.1820     0.0470 C.ar  1 <1>   0.0000 
  6 C        2.5820    -3.2100    -0.1960 C.ar  1 <1>  -0.1500 
  7 C        3.8190    -2.5550    -0.1850 C.ar  1 <1>  -0.1520 
  8 C        5.2880    -0.8680    -0.0110 C.2   1 <1>  -0.1810 
  9 N        5.0860    -3.0500    -0.3750 N.pl3 1 <1>   0.0330 
 10 C        5.9670    -2.0080    -0.2630 C.2   1 <1>  -0.3320 
 11 C        5.9340     0.4900     0.1850 C.3   1 <1>   0.0210 
 12 C        7.4820    -2.1050    -0.4040 C.3   1 <1>   0.3000 
 13 C        7.4030     0.4570    -0.2800 C.3   1 <1>  -0.1600 
 14 C        8.0300    -3.3380     0.2460 C.1   1 <1>   0.3570 
 15 C        8.1280    -0.8280     0.1780 C.3   1 <1>  -0.1600 
 16 N        8.4360    -4.2950     0.7100 N.1   1 <1>  -0.5570 
 17 H        2.8110     0.6190     0.4550 H     1 <1>   0.1500 
 18 H        0.4680    -2.9340     0.0300 H     1 <1>   0.1500 
 19 H        2.5340    -4.2700    -0.3750 H     1 <1>   0.1500 
 20 H        5.3140    -4.0390    -0.5290 H     1 <1>   0.2700 
 21 H        5.8870     0.7430     1.2290 H     1 <1>   0.0800 
 22 H        5.3920     1.2370    -0.3690 H     1 <1>   0.0800 
 23 H        7.7120    -2.1620    -1.4520 H     1 <1>   0.0800 
 24 H        7.9150     1.3230     0.1000 H     1 <1>   0.0800 
 25 H        7.4260     0.5070    -1.3550 H     1 <1>   0.0800 
 26 H        9.1620    -0.7860    -0.1150 H     1 <1>   0.0800 
 27 H        8.0920    -0.8750     1.2540 H     1 <1>   0.0800 
@<TRIPOS>BOND
  1   1   2  1   
  2   2   3  ar  
  3   2   4  ar  
  4   3   5  ar  
  5   3  17  1   
  6   4   6  ar  
  7   4  18  1   
  8   5   7  ar  
  9   5   8  1   
 10   6   7  ar  
 11   6  19  1   
 12   7   9  1   
 13   8  10  2   
 14   8  11  1   
 15   9  10  1   
 16   9  20  1   
 17  10  12  1   
 18  11  13  1   
 19  11  21  1   
 20  11  22  1   
 21  12  14  1   
 22  12  15  1   
 23  12  23  1   
 24  13  15  1   
 25  13  24  1   
 26  13  25  1   
 27  14  16  3   
 28  15  26  1   
 29  15  27  1   
@<TRIPOS>SUBSTRUCTURE
  1 ****   8 GROUP 4 **** **** 0

# MOE 2024.06 (io_trps.svl 2023.06)
