@<TRIPOS>MOLECULE
NONAME
42 42 1 0 0 
SMALL
USER_CHARGES


@<TRIPOS>ATOM
  1 CL       2.6540     1.2280     0.1420 Cl    1 <1>  -0.1770 
  2 C        3.2960    -0.3900    -0.0350 C.ar  1 <1>   0.1770 
  3 C        2.8510    -1.2410    -1.0380 C.ar  1 <1>  -0.1440 
  4 C        4.2640    -0.7860     0.8690 C.ar  1 <1>  -0.1500 
  5 C        3.4100    -2.5150    -1.1050 C.ar  1 <1>  -0.1500 
  6 C        1.7820    -0.7740    -2.0290 C.3   1 <1>   1.1640 
  7 C        4.8070    -2.0540     0.7820 C.ar  1 <1>  -0.1500 
  8 C        4.3820    -2.9380    -0.2050 C.ar  1 <1>   0.1990 
  9 F        1.4810    -1.7050    -2.9270 F     1 <1>  -0.3400 
 10 F        0.6380    -0.4670    -1.4320 F     1 <1>  -0.3400 
 11 F        2.1550     0.2920    -2.7230 F     1 <1>  -0.3400 
 12 N        4.9080    -4.2210    -0.3310 N.am  1 <1>  -0.6930 
 13 S        5.0730    -5.3060     1.0070 S.o2  1 <1>   1.3330 
 14 C        5.9090    -4.4250    -1.4290 C.3   1 <1>   0.2570 
 15 O        6.0840    -4.7390     1.8660 O.2   1 <1>  -0.6500 
 16 O        5.2590    -6.6180     0.4410 O.2   1 <1>  -0.6500 
 17 C        3.4720    -5.2400     1.7820 C.3   1 <1>  -0.1350 
 18 C        7.1790    -3.5790    -1.2850 C.2   1 <1>   0.5690 
 19 O        7.5760    -2.9920    -2.2630 O.2   1 <1>  -0.5700 
 20 N        7.8090    -3.5080    -0.0750 N.am  1 <1>  -0.7300 
 21 C        8.9900    -2.7100     0.2990 C.3   1 <1>   0.2200 
 22 C        8.6850    -1.2150     0.1210 C.3   1 <1>  -0.1600 
 23 C       10.2030    -3.1890    -0.5000 C.3   1 <1>  -0.2400 
 24 C        9.7540    -0.3030     0.7410 C.3   1 <1>  -0.2400 
 25 H        4.5920    -0.1010     1.6310 H     1 <1>   0.1500 
 26 H        3.0970    -3.2120    -1.8640 H     1 <1>   0.1500 
 27 H        5.5720    -2.3440     1.4790 H     1 <1>   0.1500 
 28 H        5.4480    -4.1720    -2.3670 H     1 <1>   0.0800 
 29 H        6.1980    -5.4580    -1.4870 H     1 <1>   0.0800 
 30 H        3.2630    -4.2470     2.1280 H     1 <1>   0.0800 
 31 H        3.4440    -5.9070     2.6210 H     1 <1>   0.0800 
 32 H        2.7120    -5.5330     1.0850 H     1 <1>   0.0800 
 33 H        7.3780    -3.9970     0.7230 H     1 <1>   0.3700 
 34 H        9.1830    -2.8940     1.3430 H     1 <1>   0.0800 
 35 H        7.7430    -0.9960     0.5910 H     1 <1>   0.0800 
 36 H        8.5960    -0.9860    -0.9260 H     1 <1>   0.0800 
 37 H       10.0920    -2.9460    -1.5410 H     1 <1>   0.0800 
 38 H       10.3170    -4.2530    -0.3950 H     1 <1>   0.0800 
 39 H       11.0970    -2.7190    -0.1360 H     1 <1>   0.0800 
 40 H        9.8830    -0.5260     1.7850 H     1 <1>   0.0800 
 41 H        9.4540     0.7260     0.6450 H     1 <1>   0.0800 
 42 H       10.6970    -0.4240     0.2380 H     1 <1>   0.0800 
@<TRIPOS>BOND
  1   1   2  1   
  2   2   3  ar  
  3   2   4  ar  
  4   3   5  ar  
  5   3   6  1   
  6   4   7  ar  
  7   4  25  1   
  8   5   8  ar  
  9   5  26  1   
 10   6   9  1   
 11   6  10  1   
 12   6  11  1   
 13   7   8  ar  
 14   7  27  1   
 15   8  12  1   
 16  12  13  am  
 17  12  14  1   
 18  13  15  2   
 19  13  16  2   
 20  13  17  1   
 21  14  18  1   
 22  14  28  1   
 23  14  29  1   
 24  17  30  1   
 25  17  31  1   
 26  17  32  1   
 27  18  19  2   
 28  18  20  am  
 29  20  21  1   
 30  20  33  1   
 31  21  22  1   
 32  21  23  1   
 33  21  34  1   
 34  22  24  1   
 35  22  35  1   
 36  22  36  1   
 37  23  37  1   
 38  23  38  1   
 39  23  39  1   
 40  24  40  1   
 41  24  41  1   
 42  24  42  1   
@<TRIPOS>SUBSTRUCTURE
  1 ****   8 GROUP 4 **** **** 0

# MOE 2024.06 (io_trps.svl 2023.06)
