@<TRIPOS>MOLECULE
NONAME
39 40 1 0 0 
SMALL
USER_CHARGES


@<TRIPOS>ATOM
  1 F       -2.8960    -0.2990     1.6710 F     1 <1>  -0.3400 
  2 C       -2.2640     0.4330     0.7610 C.3   1 <1>   1.1640 
  3 F       -1.1750     0.9080     1.3520 F     1 <1>  -0.3400 
  4 F       -1.8530    -0.4110    -0.1750 F     1 <1>  -0.3400 
  5 C       -3.1800     1.5270     0.1820 C.ar  1 <1>  -0.1440 
  6 C       -4.4860     1.2200    -0.1910 C.ar  1 <1>  -0.1500 
  7 C       -2.7300     2.8320     0.0110 C.ar  1 <1>  -0.1500 
  8 C       -5.3300     2.1900    -0.7150 C.ar  1 <1>  -0.1440 
  9 C       -3.5630     3.8020    -0.5180 C.ar  1 <1>  -0.1500 
 10 C       -4.8580     3.4830    -0.8810 C.ar  1 <1>  -0.1500 
 11 C       -6.7560     1.8450    -1.1070 C.3   1 <1>   0.4870 
 12 N       -7.5850     1.7160     0.1270 N.4   1 <1>  -0.9590 
 13 C       -8.9330     1.1610    -0.2200 C.3   1 <1>   0.3430 
 14 C       -7.6840     3.0300     0.8440 C.3   1 <1>   0.2630 
 15 C       -9.7330     0.7280     1.0140 C.3   1 <1>  -0.0170 
 16 C      -11.0800     0.1990     0.5640 C.ar  1 <1>   0.1670 
 17 N      -11.7150     0.9430    -0.3270 N.ar  1 <1>  -0.6200 
 18 C      -11.5750    -0.9880     1.0830 C.ar  1 <1>  -0.1500 
 19 C      -12.8980     0.4870    -0.7160 C.ar  1 <1>   0.1600 
 20 C      -12.8030    -1.4530     0.6650 C.ar  1 <1>  -0.1500 
 21 C      -13.4760    -0.6850    -0.2600 C.ar  1 <1>  -0.1500 
 22 H       -4.8360     0.2070    -0.0730 H     1 <1>   0.1500 
 23 H       -1.7230     3.1080     0.2840 H     1 <1>   0.1500 
 24 H       -3.1960     4.8070    -0.6490 H     1 <1>   0.1500 
 25 H       -5.4830     4.2560    -1.2980 H     1 <1>   0.1500 
 26 H       -6.7550     0.9140    -1.6520 H     1 <1>   0.0800 
 27 H       -7.1580     2.6120    -1.7480 H     1 <1>   0.0800 
 28 H       -7.0900     1.0540     0.7380 H     1 <1>   0.4500 
 29 H       -8.8210     0.3030    -0.8630 H     1 <1>   0.0800 
 30 H       -9.5030     1.9000    -0.7610 H     1 <1>   0.0800 
 31 H       -8.1900     3.7570     0.2290 H     1 <1>   0.0800 
 32 H       -6.7000     3.4030     1.0810 H     1 <1>   0.0800 
 33 H       -8.2320     2.9180     1.7650 H     1 <1>   0.0800 
 34 H       -9.9130     1.5650     1.6610 H     1 <1>   0.0800 
 35 H       -9.2000    -0.0330     1.5530 H     1 <1>   0.0800 
 36 H      -11.0170    -1.5520     1.8090 H     1 <1>   0.1500 
 37 H      -13.4380     1.0780    -1.4370 H     1 <1>   0.1500 
 38 H      -13.2210    -2.3700     1.0450 H     1 <1>   0.1500 
 39 H      -14.4410    -0.9890    -0.6250 H     1 <1>   0.1500 
@<TRIPOS>BOND
  1   1   2  1   
  2   2   3  1   
  3   2   4  1   
  4   2   5  1   
  5   5   6  ar  
  6   5   7  ar  
  7   6   8  ar  
  8   6  22  1   
  9   7   9  ar  
 10   7  23  1   
 11   8  10  ar  
 12   8  11  1   
 13   9  10  ar  
 14   9  24  1   
 15  10  25  1   
 16  11  12  1   
 17  11  26  1   
 18  11  27  1   
 19  12  13  1   
 20  12  14  1   
 21  12  28  1   
 22  13  15  1   
 23  13  29  1   
 24  13  30  1   
 25  14  31  1   
 26  14  32  1   
 27  14  33  1   
 28  15  16  1   
 29  15  34  1   
 30  15  35  1   
 31  16  17  ar  
 32  16  18  ar  
 33  17  19  ar  
 34  18  20  ar  
 35  18  36  1   
 36  19  21  ar  
 37  19  37  1   
 38  20  21  ar  
 39  20  38  1   
 40  21  39  1   
@<TRIPOS>SUBSTRUCTURE
  1 ****  12 GROUP 4 **** **** 0

# MOE 2024.06 (io_trps.svl 2023.06)
