@<TRIPOS>MOLECULE
NONAME
44 46 1 0 0 
SMALL
USER_CHARGES


@<TRIPOS>ATOM
  1 S       -1.0540     1.4730    -0.7290 S.3   1 <1>  -0.0800 
  2 C       -1.8850     0.4240     0.3720 C.2   1 <1>   0.4420 
  3 C        0.3930     1.1390     0.1600 C.2   1 <1>   0.1980 
  4 N       -1.0980    -0.0730     1.2560 N.2   1 <1>  -0.3380 
  5 N       -3.2350     0.2620     0.1610 N.am  1 <1>  -0.4940 
  6 N        0.2010     0.3400     1.1280 N.2   1 <1>  -0.3380 
  7 C        1.6840     1.8000    -0.2850 C.3   1 <1>   0.0200 
  8 C       -4.1630    -0.4550     0.8550 C.2   1 <1>   0.5690 
  9 C        1.6700     3.3200    -0.0460 C.3   1 <1>  -0.0800 
 10 O       -3.9130    -1.1070     1.8370 O.2   1 <1>  -0.5700 
 11 C       -5.5910    -0.4350     0.3370 C.3   1 <1>   0.0450 
 12 C        2.9820     4.0000    -0.4310 C.3   1 <1>  -0.1600 
 13 C        1.4820     3.7110     1.4190 C.3   1 <1>  -0.1600 
 14 C       -6.0880     0.9800     0.0350 C.ar  1 <1>  -0.1440 
 15 C        2.9590     5.3330     0.3170 C.3   1 <1>  -0.1600 
 16 C        2.0470     5.1290     1.5330 C.3   1 <1>  -0.1600 
 17 C       -5.7610     1.6300    -1.1540 C.ar  1 <1>   0.0820 
 18 C       -6.8850     1.6250     0.9680 C.ar  1 <1>  -0.1500 
 19 O       -4.9560     0.9760    -2.0340 O.3   1 <1>  -0.3630 
 20 C       -6.2470     2.9140    -1.3950 C.ar  1 <1>  -0.1500 
 21 C       -7.3620     2.9010     0.7250 C.ar  1 <1>  -0.1500 
 22 C       -4.7510     1.4590    -3.3450 C.3   1 <1>   0.0400 
 23 C       -7.0450     3.5440    -0.4570 C.ar  1 <1>  -0.1500 
 24 H       -3.6230     0.7720    -0.6360 H     1 <1>   0.3700 
 25 H        1.8370     1.5980    -1.3290 H     1 <1>   0.0800 
 26 H        2.4980     1.3560     0.2600 H     1 <1>   0.0800 
 27 H        0.8770     3.7680    -0.6220 H     1 <1>   0.0800 
 28 H       -6.2270    -0.8950     1.0720 H     1 <1>   0.0800 
 29 H       -5.6440    -1.0410    -0.5480 H     1 <1>   0.0800 
 30 H        3.0710     4.1390    -1.4950 H     1 <1>   0.0800 
 31 H        3.8150     3.4160    -0.0790 H     1 <1>   0.0800 
 32 H        2.0560     3.0520     2.0500 H     1 <1>   0.0800 
 33 H        0.4490     3.6650     1.7200 H     1 <1>   0.0800 
 34 H        2.5420     6.0970    -0.3170 H     1 <1>   0.0800 
 35 H        3.9510     5.6300     0.6110 H     1 <1>   0.0800 
 36 H        2.5920     5.2460     2.4540 H     1 <1>   0.0800 
 37 H        1.2460     5.8480     1.5100 H     1 <1>   0.0800 
 38 H       -7.1400     1.1400     1.8950 H     1 <1>   0.1500 
 39 H       -6.0140     3.4420    -2.3000 H     1 <1>   0.1500 
 40 H       -7.9810     3.3920     1.4560 H     1 <1>   0.1500 
 41 H       -4.1640     0.7350    -3.8810 H     1 <1>   0.0800 
 42 H       -4.2230     2.3940    -3.2970 H     1 <1>   0.0800 
 43 H       -5.7060     1.5800    -3.8260 H     1 <1>   0.0800 
 44 H       -7.4190     4.5350    -0.6450 H     1 <1>   0.1500 
@<TRIPOS>BOND
  1   1   2  1   
  2   1   3  1   
  3   2   4  2   
  4   2   5  1   
  5   3   6  2   
  6   3   7  1   
  7   4   6  1   
  8   5   8  am  
  9   5  24  1   
 10   7   9  1   
 11   7  25  1   
 12   7  26  1   
 13   8  10  2   
 14   8  11  1   
 15   9  12  1   
 16   9  13  1   
 17   9  27  1   
 18  11  14  1   
 19  11  28  1   
 20  11  29  1   
 21  12  15  1   
 22  12  30  1   
 23  12  31  1   
 24  13  16  1   
 25  13  32  1   
 26  13  33  1   
 27  14  17  ar  
 28  14  18  ar  
 29  15  16  1   
 30  15  34  1   
 31  15  35  1   
 32  16  36  1   
 33  16  37  1   
 34  17  19  1   
 35  17  20  ar  
 36  18  21  ar  
 37  18  38  1   
 38  19  22  1   
 39  20  23  ar  
 40  20  39  1   
 41  21  23  ar  
 42  21  40  1   
 43  22  41  1   
 44  22  42  1   
 45  22  43  1   
 46  23  44  1   
@<TRIPOS>SUBSTRUCTURE
  1 ****   2 GROUP 4 **** **** 0

# MOE 2024.06 (io_trps.svl 2023.06)
