@<TRIPOS>MOLECULE
NONAME
58 61 1 0 0 
SMALL
USER_CHARGES


@<TRIPOS>ATOM
  1 CL      -3.3850    -1.0260    -3.4500 Cl    1 <1>  -0.1770 
  2 C       -3.4690     0.0810    -2.1030 C.ar  1 <1>   0.1770 
  3 C       -4.5800     0.0660    -1.2860 C.ar  1 <1>  -0.1500 
  4 C       -2.4220     0.9540    -1.8790 C.ar  1 <1>  -0.1500 
  5 C       -4.6620     0.9430    -0.2110 C.ar  1 <1>   0.1000 
  6 C       -2.4960     1.8290    -0.8090 C.ar  1 <1>  -0.1500 
  7 N       -5.7840     0.9340     0.6150 N.pl3 1 <1>  -0.8380 
  8 C       -3.6060     1.8280     0.0230 C.ar  1 <1>  -0.1430 
  9 C       -7.0580     1.5150     0.0980 C.3   1 <1>   0.2090 
 10 C       -5.9560    -0.1940     1.5830 C.3   1 <1>   0.2090 
 11 C       -3.6660     2.7980     1.1950 C.3   1 <1>  -0.0960 
 12 C       -8.0420     0.4370    -0.3970 C.3   1 <1>   0.1400 
 13 C       -6.9360    -1.2610     1.0650 C.3   1 <1>   0.1400 
 14 N       -8.2280    -0.6510     0.6150 N.am  1 <1>  -0.6600 
 15 C       -9.4100    -0.8850     1.2840 C.2   1 <1>   0.5440 
 16 O       -9.3790    -1.4550     2.3580 O.2   1 <1>  -0.5700 
 17 C      -10.6940    -0.4740     0.7500 C.ar  1 <1>   0.0860 
 18 C      -11.5970     0.2400     1.5350 C.ar  1 <1>  -0.1500 
 19 C      -11.0860    -0.7920    -0.5500 C.ar  1 <1>  -0.1500 
 20 C      -12.8350     0.6180     1.0520 C.ar  1 <1>  -0.1500 
 21 C      -12.3230    -0.4200    -1.0420 C.ar  1 <1>  -0.1500 
 22 C      -13.2130     0.2790    -0.2390 C.ar  1 <1>  -0.1430 
 23 C      -14.5900     0.6480    -0.7590 C.3   1 <1>   0.4860 
 24 N      -15.5910    -0.2420    -0.1100 N.4   1 <1>  -0.9590 
 25 C      -15.3430    -1.6940    -0.4300 C.3   1 <1>   0.3430 
 26 C      -17.0000     0.1480    -0.4570 C.3   1 <1>   0.3430 
 27 C      -16.4420    -2.5960     0.1600 C.3   1 <1>   0.1200 
 28 C      -18.0210    -0.8450     0.1340 C.3   1 <1>   0.1200 
 29 O      -17.7030    -2.1510    -0.2500 O.3   1 <1>  -0.5600 
 30 H       -5.3760    -0.6220    -1.4850 H     1 <1>   0.1500 
 31 H       -1.5670     0.9460    -2.5300 H     1 <1>   0.1500 
 32 H       -1.6830     2.5110    -0.6290 H     1 <1>   0.1500 
 33 H       -6.8380     2.1950    -0.7060 H     1 <1>   0.0800 
 34 H       -7.5230     2.0800     0.8870 H     1 <1>   0.0800 
 35 H       -6.3250     0.1980     2.5140 H     1 <1>   0.0800 
 36 H       -5.0000    -0.6500     1.7740 H     1 <1>   0.0800 
 37 H       -3.7580     2.2490     2.1140 H     1 <1>   0.0800 
 38 H       -4.5240     3.4370     1.0910 H     1 <1>   0.0800 
 39 H       -2.7840     3.4090     1.2440 H     1 <1>   0.0800 
 40 H       -7.6610     0.0080    -1.3070 H     1 <1>   0.0800 
 41 H       -8.9780     0.9120    -0.6250 H     1 <1>   0.0800 
 42 H       -7.1080    -1.9850     1.8420 H     1 <1>   0.0800 
 43 H       -6.4860    -1.7790     0.2390 H     1 <1>   0.0800 
 44 H      -11.3090     0.4920     2.5430 H     1 <1>   0.1500 
 45 H      -10.4030    -1.3460    -1.1730 H     1 <1>   0.1500 
 46 H      -13.4940     1.1740     1.6990 H     1 <1>   0.1500 
 47 H      -12.5810    -0.6870    -2.0540 H     1 <1>   0.1500 
 48 H      -14.6240     0.5300    -1.8300 H     1 <1>   0.0800 
 49 H      -14.7970     1.6790    -0.5220 H     1 <1>   0.0800 
 50 H      -15.4660    -0.1420     0.9050 H     1 <1>   0.4500 
 51 H      -14.3860    -2.0010    -0.0400 H     1 <1>   0.0800 
 52 H      -15.3260    -1.8360    -1.4980 H     1 <1>   0.0800 
 53 H      -17.1240     0.1580    -1.5270 H     1 <1>   0.0800 
 54 H      -17.2140     1.1380    -0.0880 H     1 <1>   0.0800 
 55 H      -16.4070    -2.6040     1.2360 H     1 <1>   0.0800 
 56 H      -16.3220    -3.6060    -0.1930 H     1 <1>   0.0800 
 57 H      -19.0080    -0.6270    -0.2380 H     1 <1>   0.0800 
 58 H      -18.0420    -0.7930     1.2090 H     1 <1>   0.0800 
@<TRIPOS>BOND
  1   1   2  1   
  2   2   3  ar  
  3   2   4  ar  
  4   3   5  ar  
  5   3  30  1   
  6   4   6  ar  
  7   4  31  1   
  8   5   7  1   
  9   5   8  ar  
 10   6   8  ar  
 11   6  32  1   
 12   7   9  1   
 13   7  10  1   
 14   8  11  1   
 15   9  12  1   
 16   9  33  1   
 17   9  34  1   
 18  10  13  1   
 19  10  35  1   
 20  10  36  1   
 21  11  37  1   
 22  11  38  1   
 23  11  39  1   
 24  12  14  1   
 25  12  40  1   
 26  12  41  1   
 27  13  14  1   
 28  13  42  1   
 29  13  43  1   
 30  14  15  am  
 31  15  16  2   
 32  15  17  1   
 33  17  18  ar  
 34  17  19  ar  
 35  18  20  ar  
 36  18  44  1   
 37  19  21  ar  
 38  19  45  1   
 39  20  22  ar  
 40  20  46  1   
 41  21  22  ar  
 42  21  47  1   
 43  22  23  1   
 44  23  24  1   
 45  23  48  1   
 46  23  49  1   
 47  24  25  1   
 48  24  26  1   
 49  24  50  1   
 50  25  27  1   
 51  25  51  1   
 52  25  52  1   
 53  26  28  1   
 54  26  53  1   
 55  26  54  1   
 56  27  29  1   
 57  27  55  1   
 58  27  56  1   
 59  28  29  1   
 60  28  57  1   
 61  28  58  1   
@<TRIPOS>SUBSTRUCTURE
  1 ****  17 GROUP 4 **** **** 0

# MOE 2024.06 (io_trps.svl 2023.06)
