@<TRIPOS>MOLECULE
NONAME
31 32 1 0 0 
SMALL
USER_CHARGES


@<TRIPOS>ATOM
  1 S       -6.3780     0.1030    -1.1500 S.3   1 <1>   1.1040 
  2 C       -8.1370     0.1360    -0.6830 C.ar  1 <1>  -0.1200 
  3 C       -5.6940     1.4980    -0.2610 C.3   1 <1>  -0.1520 
  4 C       -5.7380    -1.2520    -0.1700 C.3   1 <1>  -0.1530 
  5 C       -8.7930     1.3480    -0.4880 C.ar  1 <1>  -0.1500 
  6 C       -8.8380    -1.0580    -0.5500 C.ar  1 <1>  -0.1500 
  7 C       -4.1750     1.3880    -0.0690 C.3   1 <1>  -0.1600 
  8 C       -4.2160    -1.1770     0.0160 C.3   1 <1>  -0.1600 
  9 C      -10.1340     1.3630    -0.1440 C.ar  1 <1>  -0.1500 
 10 C      -10.1770    -1.0340    -0.2070 C.ar  1 <1>  -0.1500 
 11 C       -3.7910     0.1230     0.7150 C.3   1 <1>  -0.1600 
 12 C      -10.8320     0.1680     0.0010 C.ar  1 <1>   0.0820 
 13 O      -12.1420     0.0950     0.3360 O.3   1 <1>  -0.3630 
 14 C      -12.9140     1.2520     0.5740 C.3   1 <1>   0.0400 
 15 H       -6.1500     1.5620     0.7110 H     1 <1>   0.0800 
 16 H       -5.9110     2.4120    -0.7820 H     1 <1>   0.0800 
 17 H       -5.9850    -2.1900    -0.6320 H     1 <1>   0.0800 
 18 H       -6.1960    -1.2390     0.8020 H     1 <1>   0.0800 
 19 H       -8.2900     2.2930    -0.5990 H     1 <1>   0.1500 
 20 H       -8.3730    -2.0160    -0.7090 H     1 <1>   0.1500 
 21 H       -3.8280     2.2510     0.4760 H     1 <1>   0.0800 
 22 H       -3.6750     1.3900    -1.0240 H     1 <1>   0.0800 
 23 H       -3.7170    -1.2590    -0.9360 H     1 <1>   0.0800 
 24 H       -3.8960    -2.0140     0.6160 H     1 <1>   0.0800 
 25 H      -10.6230     2.3080     0.0060 H     1 <1>   0.1500 
 26 H      -10.7320    -1.9490    -0.0960 H     1 <1>   0.1500 
 27 H       -4.2270     0.1630     1.7000 H     1 <1>   0.0800 
 28 H       -2.7210     0.1110     0.8470 H     1 <1>   0.0800 
 29 H      -13.9120     0.9410     0.8240 H     1 <1>   0.0800 
 30 H      -12.9320     1.8500    -0.3200 H     1 <1>   0.0800 
 31 H      -12.4850     1.7960     1.3960 H     1 <1>   0.0800 
@<TRIPOS>BOND
  1   1   2  1   
  2   1   3  1   
  3   1   4  1   
  4   2   5  ar  
  5   2   6  ar  
  6   3   7  1   
  7   3  15  1   
  8   3  16  1   
  9   4   8  1   
 10   4  17  1   
 11   4  18  1   
 12   5   9  ar  
 13   5  19  1   
 14   6  10  ar  
 15   6  20  1   
 16   7  11  1   
 17   7  21  1   
 18   7  22  1   
 19   8  11  1   
 20   8  23  1   
 21   8  24  1   
 22   9  12  ar  
 23   9  25  1   
 24  10  12  ar  
 25  10  26  1   
 26  11  27  1   
 27  11  28  1   
 28  12  13  1   
 29  13  14  1   
 30  14  29  1   
 31  14  30  1   
 32  14  31  1   
@<TRIPOS>SUBSTRUCTURE
  1 ****   2 GROUP 4 **** **** 0

# MOE 2024.06 (io_trps.svl 2023.06)
