@<TRIPOS>MOLECULE
NONAME
32 32 1 0 0 
SMALL
USER_CHARGES


@<TRIPOS>ATOM
  1 O        0.7690     2.7020    -1.9790 O.2   1 <1>  -0.5700 
  2 C        0.3360     2.4360    -0.8840 C.2   1 <1>   0.5690 
  3 N        1.0890     1.9230     0.1320 N.am  1 <1>  -0.5470 
  4 C       -1.1470     2.6690    -0.6080 C.3   1 <1>   0.1810 
  5 C        2.4210     1.4800     0.1430 C.ar  1 <1>   0.1170 
  6 O       -1.5350     2.1430     0.6430 O.3   1 <1>  -0.5600 
  7 C        3.4910     2.3460    -0.1010 C.ar  1 <1>  -0.1430 
  8 C        2.6820     0.1400     0.4350 C.ar  1 <1>  -0.1430 
  9 C       -2.8830     2.3290     0.9350 C.3   1 <1>   0.0400 
 10 C        4.7880     1.8630    -0.0650 C.ar  1 <1>  -0.1500 
 11 C        3.2810     3.8250    -0.4040 C.3   1 <1>  -0.0970 
 12 C        3.9870    -0.3200     0.4710 C.ar  1 <1>  -0.1500 
 13 C        1.5480    -0.8420     0.7080 C.3   1 <1>  -0.0970 
 14 C        5.0460     0.5350     0.2220 C.ar  1 <1>  -0.1430 
 15 C        6.4730     0.0210     0.2560 C.3   1 <1>  -0.0970 
 16 H        0.5250     1.6650     0.9450 H     1 <1>   0.3700 
 17 H       -1.7250     2.1910    -1.3780 H     1 <1>   0.0800 
 18 H       -1.3410     3.7260    -0.6140 H     1 <1>   0.0800 
 19 H       -3.0790     1.8970     1.9010 H     1 <1>   0.0800 
 20 H       -3.4810     1.8330     0.1900 H     1 <1>   0.0800 
 21 H       -3.1010     3.3820     0.9590 H     1 <1>   0.0800 
 22 H        5.6100     2.5280    -0.2630 H     1 <1>   0.1500 
 23 H        3.0150     3.9480    -1.4380 H     1 <1>   0.0800 
 24 H        4.1770     4.3860    -0.2120 H     1 <1>   0.0800 
 25 H        2.4970     4.2290     0.2090 H     1 <1>   0.0800 
 26 H        4.1870    -1.3530     0.6920 H     1 <1>   0.1500 
 27 H        1.0170    -0.5540     1.5980 H     1 <1>   0.0800 
 28 H        1.9230    -1.8400     0.8440 H     1 <1>   0.0800 
 29 H        0.8640    -0.8490    -0.1220 H     1 <1>   0.0800 
 30 H        7.1450     0.7990     0.5720 H     1 <1>   0.0800 
 31 H        6.7620    -0.3120    -0.7240 H     1 <1>   0.0800 
 32 H        6.5610    -0.8010     0.9430 H     1 <1>   0.0800 
@<TRIPOS>BOND
  1   1   2  2   
  2   2   3  am  
  3   2   4  1   
  4   3   5  1   
  5   3  16  1   
  6   4   6  1   
  7   4  17  1   
  8   4  18  1   
  9   5   7  ar  
 10   5   8  ar  
 11   6   9  1   
 12   7  10  ar  
 13   7  11  1   
 14   8  12  ar  
 15   8  13  1   
 16   9  19  1   
 17   9  20  1   
 18   9  21  1   
 19  10  14  ar  
 20  10  22  1   
 21  11  23  1   
 22  11  24  1   
 23  11  25  1   
 24  12  14  ar  
 25  12  26  1   
 26  13  27  1   
 27  13  28  1   
 28  13  29  1   
 29  14  15  1   
 30  15  30  1   
 31  15  31  1   
 32  15  32  1   
@<TRIPOS>SUBSTRUCTURE
  1 ****   5 GROUP 4 **** **** 0

# MOE 2024.06 (io_trps.svl 2023.06)
