@<TRIPOS>MOLECULE
NONAME
46 47 1 0 0 
SMALL
USER_CHARGES


@<TRIPOS>ATOM
  1 O        0.4510     2.1670     2.7010 O.2   1 <1>  -0.5700 
  2 C       -0.1850     2.8830     1.9630 C.2   1 <1>   0.5690 
  3 N       -0.0990     2.7670     0.6110 N.am  1 <1>  -0.7300 
  4 C       -1.1120     3.9490     2.5800 C.3   1 <1>   0.2610 
  5 C        0.5840     1.6890    -0.1300 C.3   1 <1>   0.2200 
  6 O       -2.0520     4.4610     1.6380 O.3   1 <1>  -0.3630 
  7 C       -0.3240     5.1520     3.1070 C.3   1 <1>  -0.2400 
  8 C        1.9100     2.2040    -0.7320 C.3   1 <1>   0.2000 
  9 C       -0.3970     1.1950    -1.1940 C.3   1 <1>  -0.2400 
 10 C       -2.9020     3.6380     0.9690 C.ar  1 <1>   0.0830 
 11 O        2.5360     1.2030    -1.4850 O.3   1 <1>  -0.5600 
 12 C        2.9400     2.6450     0.3040 C.3   1 <1>  -0.1600 
 13 C       -3.1750     3.9100    -0.3720 C.ar  1 <1>  -0.1430 
 14 C       -3.4610     2.5260     1.5880 C.ar  1 <1>  -0.1500 
 15 C        3.9120     1.1610    -1.2610 C.3   1 <1>   0.1200 
 16 C        4.2510     2.3690    -0.4000 C.3   1 <1>  -0.1600 
 17 C       -3.9860     3.0360    -1.0920 C.ar  1 <1>  -0.1440 
 18 C       -2.5800     5.1440    -1.0520 C.3   1 <1>  -0.0970 
 19 C       -4.2720     1.6710     0.8700 C.ar  1 <1>  -0.1500 
 20 C       -4.5280     1.9250    -0.4650 C.ar  1 <1>  -0.1500 
 21 C       -4.3010     3.2580    -2.5660 C.3   1 <1>  -0.0970 
 22 H       -0.7720     3.3090     0.0610 H     1 <1>   0.3700 
 23 H       -1.6580     3.5090     3.3940 H     1 <1>   0.0800 
 24 H        0.8070     0.8830     0.5490 H     1 <1>   0.0800 
 25 H        0.2210     5.6170     2.3050 H     1 <1>   0.0800 
 26 H        0.3780     4.8260     3.8530 H     1 <1>   0.0800 
 27 H       -0.9930     5.8660     3.5520 H     1 <1>   0.0800 
 28 H        1.7090     3.0130    -1.4110 H     1 <1>   0.0800 
 29 H       -0.6170     1.9740    -1.9010 H     1 <1>   0.0800 
 30 H       -1.3100     0.8630    -0.7310 H     1 <1>   0.0800 
 31 H        0.0330     0.3650    -1.7260 H     1 <1>   0.0800 
 32 H        2.8540     2.0350     1.1870 H     1 <1>   0.0800 
 33 H        2.8180     3.6780     0.5760 H     1 <1>   0.0800 
 34 H       -3.2770     2.3140     2.6240 H     1 <1>   0.1500 
 35 H        4.4230     1.1750    -2.2080 H     1 <1>   0.0800 
 36 H        4.1270     0.2440    -0.7400 H     1 <1>   0.0800 
 37 H        5.0550     2.1660     0.2840 H     1 <1>   0.0800 
 38 H        4.5190     3.1950    -1.0350 H     1 <1>   0.0800 
 39 H       -2.2200     5.8620    -0.3390 H     1 <1>   0.0800 
 40 H       -3.3250     5.6390    -1.6480 H     1 <1>   0.0800 
 41 H       -1.7630     4.8530    -1.6870 H     1 <1>   0.0800 
 42 H       -4.7040     0.8090     1.3460 H     1 <1>   0.1500 
 43 H       -5.1590     1.2460    -1.0120 H     1 <1>   0.1500 
 44 H       -4.9310     4.1210    -2.6790 H     1 <1>   0.0800 
 45 H       -4.8110     2.4100    -2.9840 H     1 <1>   0.0800 
 46 H       -3.3940     3.4080    -3.1230 H     1 <1>   0.0800 
@<TRIPOS>BOND
  1   1   2  2   
  2   2   3  am  
  3   2   4  1   
  4   3   5  1   
  5   3  22  1   
  6   4   6  1   
  7   4   7  1   
  8   4  23  1   
  9   5   8  1   
 10   5   9  1   
 11   5  24  1   
 12   6  10  1   
 13   7  25  1   
 14   7  26  1   
 15   7  27  1   
 16   8  11  1   
 17   8  12  1   
 18   8  28  1   
 19   9  29  1   
 20   9  30  1   
 21   9  31  1   
 22  10  13  ar  
 23  10  14  ar  
 24  11  15  1   
 25  12  16  1   
 26  12  32  1   
 27  12  33  1   
 28  13  17  ar  
 29  13  18  1   
 30  14  19  ar  
 31  14  34  1   
 32  15  16  1   
 33  15  35  1   
 34  15  36  1   
 35  16  37  1   
 36  16  38  1   
 37  17  20  ar  
 38  17  21  1   
 39  18  39  1   
 40  18  40  1   
 41  18  41  1   
 42  19  20  ar  
 43  19  42  1   
 44  20  43  1   
 45  21  44  1   
 46  21  45  1   
 47  21  46  1   
@<TRIPOS>SUBSTRUCTURE
  1 ****   3 GROUP 4 **** **** 0

# MOE 2024.06 (io_trps.svl 2023.06)
