@<TRIPOS>MOLECULE
NONAME
49 50 1 0 0 
SMALL
USER_CHARGES


@<TRIPOS>ATOM
  1 S       -0.7810     0.5200     0.4880 S.o2  1 <1>   1.4470 
  2 O       -0.9410    -0.9150     0.4590 O.2   1 <1>  -0.6500 
  3 O       -1.2220     1.2720     1.6410 O.2   1 <1>  -0.6500 
  4 N       -1.7090     1.0350    -0.8130 N.am  1 <1>  -0.9140 
  5 C        0.9050     0.9960     0.0210 C.ar  1 <1>  -0.0090 
  6 C       -3.1190     1.2930    -0.5030 C.3   1 <1>   0.1960 
  7 C        1.2290     2.3260    -0.2170 C.ar  1 <1>  -0.1500 
  8 C        1.9130     0.0490    -0.1140 C.ar  1 <1>  -0.1500 
  9 C       -3.8540     0.0480     0.0100 C.3   1 <1>   0.1200 
 10 C        2.5120     2.6990    -0.5790 C.ar  1 <1>  -0.1500 
 11 C        3.1980     0.4150    -0.4750 C.ar  1 <1>  -0.1500 
 12 O       -5.2390     0.3070    -0.0170 O.3   1 <1>  -0.3630 
 13 C        3.5060     1.7440    -0.7110 C.ar  1 <1>  -0.1430 
 14 C       -6.1530    -0.6310     0.3530 C.ar  1 <1>   0.0830 
 15 C        4.9160     2.1500    -1.1060 C.3   1 <1>  -0.0170 
 16 C       -7.5090    -0.3250     0.2180 C.ar  1 <1>  -0.1430 
 17 C       -5.7700    -1.8750     0.8550 C.ar  1 <1>  -0.1500 
 18 C        5.7540     2.4580     0.1370 C.3   1 <1>  -0.2400 
 19 C       -8.4500    -1.2780     0.5860 C.ar  1 <1>  -0.1500 
 20 C       -7.9840     1.0300    -0.3250 C.3   1 <1>   0.0630 
 21 C       -6.7220    -2.8080     1.2160 C.ar  1 <1>  -0.1500 
 22 C       -8.0640    -2.5100     1.0810 C.ar  1 <1>  -0.1500 
 23 C       -8.8230     1.7760     0.7190 C.3   1 <1>  -0.2400 
 24 C       -8.7720     0.8520    -1.6270 C.3   1 <1>  -0.2400 
 25 H       -1.6650     0.2580    -1.4690 H     1 <1>   0.4200 
 26 H       -3.6050     1.6320    -1.4020 H     1 <1>   0.0800 
 27 H       -3.1910     2.0770     0.2330 H     1 <1>   0.0800 
 28 H        0.4660     3.0790    -0.1170 H     1 <1>   0.1500 
 29 H        1.6930    -0.9900     0.0670 H     1 <1>   0.1500 
 30 H       -3.5720    -0.1690     1.0250 H     1 <1>   0.0800 
 31 H       -3.6630    -0.7970    -0.6290 H     1 <1>   0.0800 
 32 H        2.7350     3.7370    -0.7540 H     1 <1>   0.1500 
 33 H        3.9600    -0.3390    -0.5690 H     1 <1>   0.1500 
 34 H        4.8800     3.0180    -1.7420 H     1 <1>   0.0800 
 35 H        5.3800     1.3560    -1.6660 H     1 <1>   0.0800 
 36 H       -4.7370    -2.1390     0.9770 H     1 <1>   0.1500 
 37 H        5.3080     3.2630     0.6940 H     1 <1>   0.0800 
 38 H        6.7500     2.7440    -0.1490 H     1 <1>   0.0800 
 39 H        5.8100     1.5910     0.7700 H     1 <1>   0.0800 
 40 H       -9.5000    -1.0660     0.4890 H     1 <1>   0.1500 
 41 H       -7.1370     1.6530    -0.5510 H     1 <1>   0.0800 
 42 H       -6.4210    -3.7660     1.6030 H     1 <1>   0.1500 
 43 H       -8.8090    -3.2350     1.3610 H     1 <1>   0.1500 
 44 H       -9.7280     1.2420     0.9410 H     1 <1>   0.0800 
 45 H       -9.0810     2.7550     0.3570 H     1 <1>   0.0800 
 46 H       -8.2570     1.8850     1.6270 H     1 <1>   0.0800 
 47 H       -9.6740     0.2930    -1.4590 H     1 <1>   0.0800 
 48 H       -8.1700     0.3230    -2.3450 H     1 <1>   0.0800 
 49 H       -9.0330     1.8100    -2.0380 H     1 <1>   0.0800 
@<TRIPOS>BOND
  1   1   2  2   
  2   1   3  2   
  3   1   4  am  
  4   1   5  1   
  5   4   6  1   
  6   4  25  1   
  7   5   7  ar  
  8   5   8  ar  
  9   6   9  1   
 10   6  26  1   
 11   6  27  1   
 12   7  10  ar  
 13   7  28  1   
 14   8  11  ar  
 15   8  29  1   
 16   9  12  1   
 17   9  30  1   
 18   9  31  1   
 19  10  13  ar  
 20  10  32  1   
 21  11  13  ar  
 22  11  33  1   
 23  12  14  1   
 24  13  15  1   
 25  14  16  ar  
 26  14  17  ar  
 27  15  18  1   
 28  15  34  1   
 29  15  35  1   
 30  16  19  ar  
 31  16  20  1   
 32  17  21  ar  
 33  17  36  1   
 34  18  37  1   
 35  18  38  1   
 36  18  39  1   
 37  19  22  ar  
 38  19  40  1   
 39  20  23  1   
 40  20  24  1   
 41  20  41  1   
 42  21  22  ar  
 43  21  42  1   
 44  22  43  1   
 45  23  44  1   
 46  23  45  1   
 47  23  46  1   
 48  24  47  1   
 49  24  48  1   
 50  24  49  1   
@<TRIPOS>SUBSTRUCTURE
  1 ****   6 GROUP 4 **** **** 0

# MOE 2024.06 (io_trps.svl 2023.06)
