@<TRIPOS>MOLECULE
NONAME
28 28 1 0 0 
SMALL
USER_CHARGES


@<TRIPOS>ATOM
  1 CL       0.1850     0.1840     0.2820 Cl    1 <1>  -0.1770 
  2 C       -1.3920     0.9250     0.1550 C.ar  1 <1>   0.1770 
  3 C       -1.4860     2.2750    -0.1230 C.ar  1 <1>  -0.1500 
  4 C       -2.5220     0.1530     0.3310 C.ar  1 <1>  -0.1500 
  5 C       -2.7330     2.8740    -0.2260 C.ar  1 <1>  -0.1440 
  6 C       -3.7650     0.7480     0.2260 C.ar  1 <1>  -0.1500 
  7 C       -3.8910     2.1090    -0.0490 C.ar  1 <1>   0.1170 
  8 C       -2.8050     4.3670    -0.5270 C.3   1 <1>  -0.0960 
  9 N       -5.1500     2.7210    -0.1720 N.am  1 <1>  -0.5470 
 10 C       -6.3690     2.3940     0.3560 C.2   1 <1>   0.5690 
 11 O       -6.5440     1.4550     1.0940 O.2   1 <1>  -0.5700 
 12 C       -7.5590     3.2900    -0.0040 C.3   1 <1>  -0.0190 
 13 C       -8.0400     4.0950     1.2140 C.3   1 <1>  -0.2400 
 14 C       -8.7270     2.4800    -0.5920 C.3   1 <1>  -0.2400 
 15 H       -0.5820     2.8410    -0.2540 H     1 <1>   0.1500 
 16 H       -2.4280    -0.8960     0.5470 H     1 <1>   0.1500 
 17 H       -4.6440     0.1430     0.3580 H     1 <1>   0.1500 
 18 H       -1.8220     4.8030    -0.5470 H     1 <1>   0.0800 
 19 H       -3.3760     4.8700     0.2340 H     1 <1>   0.0800 
 20 H       -3.2640     4.5310    -1.4850 H     1 <1>   0.0800 
 21 H       -5.1330     3.5880    -0.7010 H     1 <1>   0.3700 
 22 H       -7.2410     3.9900    -0.7560 H     1 <1>   0.0800 
 23 H       -8.3810     3.4290     1.9880 H     1 <1>   0.0800 
 24 H       -8.8480     4.7510     0.9410 H     1 <1>   0.0800 
 25 H       -7.2340     4.6880     1.6100 H     1 <1>   0.0800 
 26 H       -9.0970     1.7770     0.1350 H     1 <1>   0.0800 
 27 H       -8.3980     1.9310    -1.4560 H     1 <1>   0.0800 
 28 H       -9.5320     3.1310    -0.8830 H     1 <1>   0.0800 
@<TRIPOS>BOND
  1   1   2  1   
  2   2   3  ar  
  3   2   4  ar  
  4   3   5  ar  
  5   3  15  1   
  6   4   6  ar  
  7   4  16  1   
  8   5   7  ar  
  9   5   8  1   
 10   6   7  ar  
 11   6  17  1   
 12   7   9  1   
 13   8  18  1   
 14   8  19  1   
 15   8  20  1   
 16   9  10  am  
 17   9  21  1   
 18  10  11  2   
 19  10  12  1   
 20  12  13  1   
 21  12  14  1   
 22  12  22  1   
 23  13  23  1   
 24  13  24  1   
 25  13  25  1   
 26  14  26  1   
 27  14  27  1   
 28  14  28  1   
@<TRIPOS>SUBSTRUCTURE
  1 ****   7 GROUP 4 **** **** 0

# MOE 2024.06 (io_trps.svl 2023.06)
