@<TRIPOS>MOLECULE
NONAME
53 55 1 0 0 
SMALL
USER_CHARGES


@<TRIPOS>ATOM
  1 O       -0.6230    -0.9720     1.0250 O.3   1 <1>  -0.3630 
  2 C       -1.8500    -1.4310     0.6800 C.ar  1 <1>   0.0830 
  3 C        0.4230    -0.8750     0.0860 C.3   1 <1>   0.1200 
  4 C       -2.7690    -1.5750     1.7040 C.ar  1 <1>  -0.1500 
  5 C       -2.2200    -1.7610    -0.6200 C.ar  1 <1>  -0.1500 
  6 C        1.6650    -0.3700     0.8140 C.3   1 <1>  -0.2400 
  7 C       -4.0470    -2.0350     1.4450 C.ar  1 <1>  -0.1500 
  8 C       -3.4990    -2.2210    -0.8820 C.ar  1 <1>  -0.1500 
  9 C       -4.4220    -2.3540     0.1470 C.ar  1 <1>  -0.1430 
 10 C       -5.8310    -2.8380    -0.1390 C.3   1 <1>   0.4860 
 11 N       -6.5990    -1.7250    -0.7590 N.4   1 <1>  -0.9590 
 12 C       -6.7120    -0.5350     0.1670 C.3   1 <1>   0.3430 
 13 C       -7.9600    -2.1740    -1.2300 C.3   1 <1>   0.3430 
 14 C       -7.4960     0.6370    -0.4590 C.3   1 <1>   0.2090 
 15 C       -8.7620    -1.0370    -1.8970 C.3   1 <1>   0.2090 
 16 N       -8.7910     0.1880    -1.0490 N.pl3 1 <1>  -0.8380 
 17 C       -9.9560     0.4410    -0.3270 C.ar  1 <1>   0.1000 
 18 C      -10.8690     1.4020    -0.7610 C.ar  1 <1>  -0.1430 
 19 C      -10.2270    -0.2670     0.8410 C.ar  1 <1>  -0.1500 
 20 C      -12.0220     1.6330    -0.0310 C.ar  1 <1>  -0.1500 
 21 C      -10.6140     2.2030    -2.0300 C.3   1 <1>  -0.0970 
 22 C      -11.3790    -0.0350     1.5700 C.ar  1 <1>  -0.1430 
 23 C      -12.2770     0.9200     1.1280 C.ar  1 <1>  -0.1500 
 24 C      -11.6760    -0.8070     2.8440 C.3   1 <1>  -0.0970 
 25 H        0.1280    -0.1830    -0.6850 H     1 <1>   0.0800 
 26 H        0.5990    -1.8510    -0.3330 H     1 <1>   0.0800 
 27 H       -2.4680    -1.3240     2.7070 H     1 <1>   0.1500 
 28 H       -1.5240    -1.6660    -1.4340 H     1 <1>   0.1500 
 29 H        1.4750     0.5970     1.2420 H     1 <1>   0.0800 
 30 H        2.4840    -0.2850     0.1230 H     1 <1>   0.0800 
 31 H        1.9420    -1.0590     1.5920 H     1 <1>   0.0800 
 32 H       -4.7340    -2.1420     2.2680 H     1 <1>   0.1500 
 33 H       -3.7580    -2.4760    -1.8960 H     1 <1>   0.1500 
 34 H       -6.3030    -3.1550     0.7760 H     1 <1>   0.0800 
 35 H       -5.7870    -3.6800    -0.8100 H     1 <1>   0.0800 
 36 H       -6.0630    -1.4060    -1.5740 H     1 <1>   0.4500 
 37 H       -5.7300    -0.1860     0.4400 H     1 <1>   0.0800 
 38 H       -7.2180    -0.8290     1.0710 H     1 <1>   0.0800 
 39 H       -8.5320    -2.5320    -0.3900 H     1 <1>   0.0800 
 40 H       -7.8590    -2.9850    -1.9310 H     1 <1>   0.0800 
 41 H       -6.9030     1.1020    -1.2270 H     1 <1>   0.0800 
 42 H       -7.6870     1.3820     0.2960 H     1 <1>   0.0800 
 43 H       -9.7720    -1.3700    -2.0760 H     1 <1>   0.0800 
 44 H       -8.3290    -0.7930    -2.8510 H     1 <1>   0.0800 
 45 H       -9.5300    -1.0050     1.1800 H     1 <1>   0.1500 
 46 H      -12.7330     2.3710    -0.3570 H     1 <1>   0.1500 
 47 H      -10.5570     1.5400    -2.8730 H     1 <1>   0.0800 
 48 H       -9.6840     2.7340    -1.9430 H     1 <1>   0.0800 
 49 H      -11.3990     2.9150    -2.2060 H     1 <1>   0.0800 
 50 H      -13.1790     1.1140     1.6820 H     1 <1>   0.1500 
 51 H      -10.9000    -1.5180     3.0580 H     1 <1>   0.0800 
 52 H      -12.6070    -1.3350     2.7410 H     1 <1>   0.0800 
 53 H      -11.7550    -0.1260     3.6720 H     1 <1>   0.0800 
@<TRIPOS>BOND
  1   1   2  1   
  2   1   3  1   
  3   2   4  ar  
  4   2   5  ar  
  5   3   6  1   
  6   3  25  1   
  7   3  26  1   
  8   4   7  ar  
  9   4  27  1   
 10   5   8  ar  
 11   5  28  1   
 12   6  29  1   
 13   6  30  1   
 14   6  31  1   
 15   7   9  ar  
 16   7  32  1   
 17   8   9  ar  
 18   8  33  1   
 19   9  10  1   
 20  10  11  1   
 21  10  34  1   
 22  10  35  1   
 23  11  12  1   
 24  11  13  1   
 25  11  36  1   
 26  12  14  1   
 27  12  37  1   
 28  12  38  1   
 29  13  15  1   
 30  13  39  1   
 31  13  40  1   
 32  14  16  1   
 33  14  41  1   
 34  14  42  1   
 35  15  16  1   
 36  15  43  1   
 37  15  44  1   
 38  16  17  1   
 39  17  18  ar  
 40  17  19  ar  
 41  18  20  ar  
 42  18  21  1   
 43  19  22  ar  
 44  19  45  1   
 45  20  23  ar  
 46  20  46  1   
 47  21  47  1   
 48  21  48  1   
 49  21  49  1   
 50  22  23  ar  
 51  22  24  1   
 52  23  50  1   
 53  24  51  1   
 54  24  52  1   
 55  24  53  1   
@<TRIPOS>SUBSTRUCTURE
  1 ****  12 GROUP 4 **** **** 0

# MOE 2024.06 (io_trps.svl 2023.06)
