@<TRIPOS>MOLECULE
NONAME
31 31 1 0 0 
SMALL
USER_CHARGES


@<TRIPOS>ATOM
  1 CL      -0.8960    -0.6320     1.4010 Cl    1 <1>  -0.2900 
  2 C        0.7670    -0.9180     0.8960 C.3   1 <1>   0.5000 
  3 CL       1.2910    -2.2630     1.9040 Cl    1 <1>  -0.2900 
  4 P        1.8080     0.5400     0.9960 P.3   1 <1>   0.9480 
  5 S        2.1640     1.2480     2.7730 S.2   1 <1>  -0.6770 
  6 O        1.0850     1.6300     0.0750 O.3   1 <1>  -0.5510 
  7 C        3.3100     0.1890     0.0860 C.3   1 <1>  -0.0800 
  8 C        0.2590     2.6010     0.6180 C.3   1 <1>   0.1200 
  9 C        4.2410    -0.8400     0.7680 C.3   1 <1>  -0.1600 
 10 C        4.1220     1.4720    -0.2090 C.3   1 <1>  -0.1600 
 11 C       -0.3530     3.3840    -0.5370 C.3   1 <1>  -0.2400 
 12 C        5.5030    -1.1260    -0.0580 C.3   1 <1>  -0.1600 
 13 C        5.3800     1.1930    -1.0410 C.3   1 <1>  -0.1600 
 14 C        6.2770     0.1620    -0.3510 C.3   1 <1>  -0.1600 
 15 H        0.7020    -1.3030    -0.1040 H     1 <1>   0.0800 
 16 H        3.0400    -0.2200    -0.8710 H     1 <1>   0.0800 
 17 H        0.8500     3.2480     1.2460 H     1 <1>   0.0800 
 18 H       -0.5080     2.1270     1.2080 H     1 <1>   0.0800 
 19 H        3.7280    -1.7720     0.9180 H     1 <1>   0.0800 
 20 H        4.5330    -0.4700     1.7380 H     1 <1>   0.0800 
 21 H        4.4110     1.9330     0.7220 H     1 <1>   0.0800 
 22 H        3.5090     2.1800    -0.7420 H     1 <1>   0.0800 
 23 H        0.4220     3.8470    -1.1220 H     1 <1>   0.0800 
 24 H       -0.9960     4.1540    -0.1510 H     1 <1>   0.0800 
 25 H       -0.9370     2.7320    -1.1620 H     1 <1>   0.0800 
 26 H        5.2280    -1.5950    -0.9870 H     1 <1>   0.0800 
 27 H        6.1370    -1.8090     0.4800 H     1 <1>   0.0800 
 28 H        5.9290     2.1090    -1.1810 H     1 <1>   0.0800 
 29 H        5.0960     0.8280    -2.0140 H     1 <1>   0.0800 
 30 H        7.1240    -0.0580    -0.9780 H     1 <1>   0.0800 
 31 H        6.6490     0.5740     0.5720 H     1 <1>   0.0800 
@<TRIPOS>BOND
  1   1   2  1   
  2   2   3  1   
  3   2   4  1   
  4   2  15  1   
  5   4   5  2   
  6   4   6  1   
  7   4   7  1   
  8   6   8  1   
  9   7   9  1   
 10   7  10  1   
 11   7  16  1   
 12   8  11  1   
 13   8  17  1   
 14   8  18  1   
 15   9  12  1   
 16   9  19  1   
 17   9  20  1   
 18  10  13  1   
 19  10  21  1   
 20  10  22  1   
 21  11  23  1   
 22  11  24  1   
 23  11  25  1   
 24  12  14  1   
 25  12  26  1   
 26  12  27  1   
 27  13  14  1   
 28  13  28  1   
 29  13  29  1   
 30  14  30  1   
 31  14  31  1   
@<TRIPOS>SUBSTRUCTURE
  1 ****   4 GROUP 4 **** **** 0

# MOE 2024.06 (io_trps.svl 2023.06)
