@<TRIPOS>MOLECULE
NONAME
47 49 1 0 0 
SMALL
USER_CHARGES


@<TRIPOS>ATOM
  1 CL       1.3400    -0.6020    -1.6100 Cl    1 <1>  -0.1770 
  2 C        1.7340     0.5090    -0.3240 C.ar  1 <1>   0.1770 
  3 C        1.6560     1.8680    -0.5570 C.ar  1 <1>  -0.1500 
  4 C        2.1220     0.0080     0.9050 C.ar  1 <1>  -0.1500 
  5 C        1.9690     2.7600     0.4620 C.ar  1 <1>   0.1170 
  6 C        2.4420     0.8920     1.9210 C.ar  1 <1>  -0.1500 
  7 N        1.9170     4.1450     0.2690 N.am  1 <1>  -0.5470 
  8 C        2.3660     2.2570     1.6960 C.ar  1 <1>  -0.1500 
  9 C        0.9480     4.9460    -0.2460 C.2   1 <1>   0.5690 
 10 O        1.1550     6.1290    -0.3420 O.2   1 <1>  -0.5700 
 11 C       -0.3940     4.3760    -0.6840 C.3   1 <1>  -0.0990 
 12 C       -1.5230     5.4290    -0.7020 C.3   1 <1>  -0.0990 
 13 C       -2.8790     4.8820    -1.1260 C.2   1 <1>   0.5690 
 14 O       -2.9830     3.6920    -1.3170 O.2   1 <1>  -0.5700 
 15 N       -3.9460     5.7290    -1.2850 N.am  1 <1>  -0.6600 
 16 C       -3.9380     7.2080    -1.0280 C.3   1 <1>   0.1400 
 17 C       -5.2900     5.2190    -1.7080 C.3   1 <1>   0.1400 
 18 C       -5.0550     7.6170    -0.0500 C.3   1 <1>   0.2090 
 19 C       -6.3910     5.6410    -0.7200 C.3   1 <1>   0.2090 
 20 N       -6.3880     7.1180    -0.5060 N.pl3 1 <1>  -0.8380 
 21 C       -7.5140     7.6550     0.0860 C.ar  1 <1>   0.4100 
 22 N       -7.4150     8.0340     1.3560 N.ar  1 <1>  -0.6200 
 23 C       -8.6890     7.7670    -0.6540 C.ar  1 <1>  -0.1500 
 24 C       -8.5150     8.5300     1.8970 C.ar  1 <1>   0.1600 
 25 C       -9.8250     8.2850    -0.0780 C.ar  1 <1>  -0.1500 
 26 C       -9.7250     8.6760     1.2410 C.ar  1 <1>  -0.1500 
 27 H        1.3630     2.2200    -1.5280 H     1 <1>   0.1500 
 28 H        2.1730    -1.0550     1.0580 H     1 <1>   0.1500 
 29 H        2.7480     0.5180     2.8840 H     1 <1>   0.1500 
 30 H        2.7210     4.6780     0.6030 H     1 <1>   0.3700 
 31 H        2.6130     2.9390     2.4900 H     1 <1>   0.1500 
 32 H       -0.6710     3.5810    -0.0160 H     1 <1>   0.0800 
 33 H       -0.2840     3.9640    -1.6700 H     1 <1>   0.0800 
 34 H       -1.2500     6.2130    -1.3830 H     1 <1>   0.0800 
 35 H       -1.6200     5.8500     0.2820 H     1 <1>   0.0800 
 36 H       -4.0930     7.7230    -1.9590 H     1 <1>   0.0800 
 37 H       -2.9960     7.5300    -0.6260 H     1 <1>   0.0800 
 38 H       -5.2830     4.1460    -1.7830 H     1 <1>   0.0800 
 39 H       -5.5240     5.6140    -2.6800 H     1 <1>   0.0800 
 40 H       -5.0860     8.6890     0.0300 H     1 <1>   0.0800 
 41 H       -4.8400     7.2170     0.9260 H     1 <1>   0.0800 
 42 H       -6.2310     5.1460     0.2230 H     1 <1>   0.0800 
 43 H       -7.3480     5.3300    -1.0990 H     1 <1>   0.0800 
 44 H       -8.6850     7.4470    -1.6770 H     1 <1>   0.1500 
 45 H       -8.4480     8.8400     2.9260 H     1 <1>   0.1500 
 46 H      -10.7450     8.3830    -0.6270 H     1 <1>   0.1500 
 47 H      -10.5730     9.0900     1.7550 H     1 <1>   0.1500 
@<TRIPOS>BOND
  1   1   2  1   
  2   2   3  ar  
  3   2   4  ar  
  4   3   5  ar  
  5   3  27  1   
  6   4   6  ar  
  7   4  28  1   
  8   5   7  1   
  9   5   8  ar  
 10   6   8  ar  
 11   6  29  1   
 12   7   9  am  
 13   7  30  1   
 14   8  31  1   
 15   9  10  2   
 16   9  11  1   
 17  11  12  1   
 18  11  32  1   
 19  11  33  1   
 20  12  13  1   
 21  12  34  1   
 22  12  35  1   
 23  13  14  2   
 24  13  15  am  
 25  15  16  1   
 26  15  17  1   
 27  16  18  1   
 28  16  36  1   
 29  16  37  1   
 30  17  19  1   
 31  17  38  1   
 32  17  39  1   
 33  18  20  1   
 34  18  40  1   
 35  18  41  1   
 36  19  20  1   
 37  19  42  1   
 38  19  43  1   
 39  20  21  1   
 40  21  22  ar  
 41  21  23  ar  
 42  22  24  ar  
 43  23  25  ar  
 44  23  44  1   
 45  24  26  ar  
 46  24  45  1   
 47  25  26  ar  
 48  25  46  1   
 49  26  47  1   
@<TRIPOS>SUBSTRUCTURE
  1 ****  13 GROUP 4 **** **** 0

# MOE 2024.06 (io_trps.svl 2023.06)
