@<TRIPOS>MOLECULE
NONAME
40 41 1 0 0 
SMALL
USER_CHARGES


@<TRIPOS>ATOM
  1 S       -0.2300    -0.1660     0.4000 S.o2  1 <1>   1.4970 
  2 O       -0.4310    -1.1450    -0.6520 O.2   1 <1>  -0.6500 
  3 O       -0.5340    -0.4850     1.7830 O.2   1 <1>  -0.6500 
  4 N       -0.9810     1.2670    -0.0200 N.2   1 <1>  -0.6380 
  5 C        1.5170     0.3370     0.3380 C.ar  1 <1>  -0.0090 
  6 C       -2.2400     1.2580    -0.0710 C.2   1 <1>   0.7110 
  7 C        2.2540     0.2410    -0.8380 C.ar  1 <1>  -0.1500 
  8 C        2.1570     0.8600     1.4560 C.ar  1 <1>  -0.1500 
  9 N       -2.8530     2.4400    -0.4170 N.pl3 1 <1>  -0.5500 
 10 N       -3.0450     0.1690     0.1900 N.2   1 <1>  -0.6610 
 11 C        3.5780     0.6420    -0.8950 C.ar  1 <1>  -0.1500 
 12 C        3.4810     1.2630     1.4070 C.ar  1 <1>  -0.1500 
 13 C       -4.2080     2.5920    -0.5160 C.2   1 <1>  -0.0380 
 14 C       -4.3180     0.2960     0.1020 C.2   1 <1>   0.3760 
 15 C        4.2010     1.1550     0.2290 C.ar  1 <1>  -0.1430 
 16 C       -4.9650     1.5040    -0.2530 C.2   1 <1>  -0.1360 
 17 C       -4.7460     3.9530    -0.9070 C.3   1 <1>  -0.1020 
 18 C        5.6550     1.5960     0.1710 C.3   1 <1>  -0.0170 
 19 C        5.7520     3.0750    -0.2230 C.3   1 <1>  -0.1600 
 20 C        7.2110     3.5460    -0.2890 C.3   1 <1>  -0.1600 
 21 C        7.2930     5.0230    -0.6830 C.3   1 <1>  -0.2400 
 22 H        1.7840    -0.1560    -1.7220 H     1 <1>   0.1500 
 23 H        1.6120     0.9520     2.3800 H     1 <1>   0.1500 
 24 H       -2.2030     3.2030    -0.5960 H     1 <1>   0.4000 
 25 H        4.1200     0.5530    -1.8200 H     1 <1>   0.1500 
 26 H        3.9480     1.6630     2.2900 H     1 <1>   0.1500 
 27 H       -4.9430    -0.5550     0.3060 H     1 <1>   0.0600 
 28 H       -6.0380     1.5130    -0.3010 H     1 <1>   0.1500 
 29 H       -4.3700     4.2330    -1.8750 H     1 <1>   0.0800 
 30 H       -4.4410     4.6910    -0.1860 H     1 <1>   0.0800 
 31 H       -5.8200     3.9380    -0.9490 H     1 <1>   0.0800 
 32 H        6.1860     0.9930    -0.5440 H     1 <1>   0.0800 
 33 H        6.1160     1.4440     1.1320 H     1 <1>   0.0800 
 34 H        5.2140     3.6670     0.4970 H     1 <1>   0.0800 
 35 H        5.2840     3.2150    -1.1820 H     1 <1>   0.0800 
 36 H        7.7500     2.9570    -1.0110 H     1 <1>   0.0800 
 37 H        7.6800     3.4100     0.6710 H     1 <1>   0.0800 
 38 H        6.8490     5.1800    -1.6510 H     1 <1>   0.0800 
 39 H        8.3220     5.3360    -0.7250 H     1 <1>   0.0800 
 40 H        6.7790     5.6340     0.0380 H     1 <1>   0.0800 
@<TRIPOS>BOND
  1   1   2  2   
  2   1   3  2   
  3   1   4  1   
  4   1   5  1   
  5   4   6  2   
  6   5   7  ar  
  7   5   8  ar  
  8   6   9  1   
  9   6  10  1   
 10   7  11  ar  
 11   7  22  1   
 12   8  12  ar  
 13   8  23  1   
 14   9  13  1   
 15   9  24  1   
 16  10  14  2   
 17  11  15  ar  
 18  11  25  1   
 19  12  15  ar  
 20  12  26  1   
 21  13  16  2   
 22  13  17  1   
 23  14  16  1   
 24  14  27  1   
 25  15  18  1   
 26  16  28  1   
 27  17  29  1   
 28  17  30  1   
 29  17  31  1   
 30  18  19  1   
 31  18  32  1   
 32  18  33  1   
 33  19  20  1   
 34  19  34  1   
 35  19  35  1   
 36  20  21  1   
 37  20  36  1   
 38  20  37  1   
 39  21  38  1   
 40  21  39  1   
 41  21  40  1   
@<TRIPOS>SUBSTRUCTURE
  1 ****   5 GROUP 4 **** **** 0

# MOE 2024.06 (io_trps.svl 2023.06)
