@<TRIPOS>MOLECULE
NONAME
42 43 1 0 0 
SMALL
USER_CHARGES


@<TRIPOS>ATOM
  1 S        0.5270    -0.2920    -1.2580 S.o2  1 <1>   1.4470 
  2 O       -0.5910     0.6060    -1.4550 O.2   1 <1>  -0.6500 
  3 O        0.9990    -1.0650    -2.3870 O.2   1 <1>  -0.6500 
  4 N        0.0700    -1.4190    -0.0760 N.am  1 <1>  -0.8490 
  5 C        1.9160     0.6050    -0.4850 C.ar  1 <1>  -0.0090 
  6 C       -1.2360    -2.0090    -0.3840 C.3   1 <1>   0.1960 
  7 C        1.0840    -2.4620     0.1110 C.3   1 <1>   0.1960 
  8 C        1.7730     1.4060     0.6510 C.ar  1 <1>  -0.1440 
  9 C        3.1880     0.4830    -1.0340 C.ar  1 <1>  -0.1500 
 10 C       -1.7010    -2.9020     0.7720 C.3   1 <1>  -0.1600 
 11 C        0.7070    -3.3600     1.2930 C.3   1 <1>  -0.1600 
 12 C        2.8760     2.0460     1.1920 C.ar  1 <1>  -0.1500 
 13 C        0.4220     1.6060     1.3300 C.3   1 <1>  -0.0970 
 14 C        4.3160     1.1130    -0.5090 C.ar  1 <1>   0.0860 
 15 C       -0.6730    -3.9940     1.0900 C.3   1 <1>  -0.1600 
 16 C        4.1240     1.9020     0.6230 C.ar  1 <1>  -0.1500 
 17 C        5.6230     0.9430    -1.1190 C.2   1 <1>   0.6340 
 18 O        5.8240     0.2110    -2.0660 O.2   1 <1>  -0.5700 
 19 O        6.6490     1.6250    -0.6030 O.3   1 <1>  -0.4300 
 20 C        7.9500     1.5180    -1.1360 C.3   1 <1>   0.1200 
 21 C        8.8710     2.4190    -0.3200 C.3   1 <1>  -0.2400 
 22 H       -1.1720    -2.5820    -1.2950 H     1 <1>   0.0800 
 23 H       -1.9650    -1.2280    -0.5280 H     1 <1>   0.0800 
 24 H        2.0420    -2.0110     0.3100 H     1 <1>   0.0800 
 25 H        1.1720    -3.0570    -0.7850 H     1 <1>   0.0800 
 26 H        3.3150    -0.1300    -1.9120 H     1 <1>   0.1500 
 27 H       -2.6430    -3.3540     0.5150 H     1 <1>   0.0800 
 28 H       -1.8590    -2.2860     1.6400 H     1 <1>   0.0800 
 29 H        0.7090    -2.7680     2.1920 H     1 <1>   0.0800 
 30 H        1.4470    -4.1330     1.4050 H     1 <1>   0.0800 
 31 H        2.7690     2.6660     2.0660 H     1 <1>   0.1500 
 32 H       -0.2630     2.0970     0.6610 H     1 <1>   0.0800 
 33 H        0.5160     2.2150     2.2120 H     1 <1>   0.0800 
 34 H        0.0030     0.6610     1.6270 H     1 <1>   0.0800 
 35 H       -0.6300    -4.6930     0.2720 H     1 <1>   0.0800 
 36 H       -0.9680    -4.5310     1.9760 H     1 <1>   0.0800 
 37 H        4.9630     2.4120     1.0660 H     1 <1>   0.1500 
 38 H        7.9220     1.8250    -2.1680 H     1 <1>   0.0800 
 39 H        8.2600     0.4880    -1.0740 H     1 <1>   0.0800 
 40 H        8.5430     3.4410    -0.3840 H     1 <1>   0.0800 
 41 H        9.8720     2.3560    -0.7050 H     1 <1>   0.0800 
 42 H        8.8800     2.1060     0.7090 H     1 <1>   0.0800 
@<TRIPOS>BOND
  1   1   2  2   
  2   1   3  2   
  3   1   4  am  
  4   1   5  1   
  5   4   6  1   
  6   4   7  1   
  7   5   8  ar  
  8   5   9  ar  
  9   6  10  1   
 10   6  22  1   
 11   6  23  1   
 12   7  11  1   
 13   7  24  1   
 14   7  25  1   
 15   8  12  ar  
 16   8  13  1   
 17   9  14  ar  
 18   9  26  1   
 19  10  15  1   
 20  10  27  1   
 21  10  28  1   
 22  11  15  1   
 23  11  29  1   
 24  11  30  1   
 25  12  16  ar  
 26  12  31  1   
 27  13  32  1   
 28  13  33  1   
 29  13  34  1   
 30  14  16  ar  
 31  14  17  1   
 32  15  35  1   
 33  15  36  1   
 34  16  37  1   
 35  17  18  2   
 36  17  19  1   
 37  19  20  1   
 38  20  21  1   
 39  20  38  1   
 40  20  39  1   
 41  21  40  1   
 42  21  41  1   
 43  21  42  1   
@<TRIPOS>SUBSTRUCTURE
  1 ****   5 GROUP 4 **** **** 0

# MOE 2024.06 (io_trps.svl 2023.06)
