@<TRIPOS>MOLECULE
NONAME
44 46 1 0 0 
SMALL
USER_CHARGES


@<TRIPOS>ATOM
  1 CL      -0.2500    -1.8200    -1.4800 Cl    1 <1>  -0.1770 
  2 C        1.1000    -2.4480    -0.5680 C.ar  1 <1>   0.1770 
  3 C        2.3090    -1.7780    -0.5980 C.ar  1 <1>  -0.1500 
  4 C        0.9350    -3.6050     0.1690 C.ar  1 <1>  -0.1500 
  5 C        3.3930    -2.2650     0.1230 C.ar  1 <1>  -0.1440 
  6 C        2.0070    -4.1030     0.8870 C.ar  1 <1>  -0.1500 
  7 C        3.2260    -3.4380     0.8600 C.ar  1 <1>   0.0830 
  8 C        4.7390    -1.5310     0.0960 C.3   1 <1>   0.2070 
  9 O        4.2480    -3.9590     1.5620 O.3   1 <1>  -0.5320 
 10 C        4.5430    -0.0090     0.0400 C.ar  1 <1>  -0.1430 
 11 C        5.6110    -2.1410    -1.0130 C.3   1 <1>  -0.0990 
 12 C        4.1540     0.6390     1.2050 C.ar  1 <1>  -0.1500 
 13 C        4.7220     0.7500    -1.1110 C.ar  1 <1>  -0.1500 
 14 C        7.0240    -1.5900    -1.0240 C.2   1 <1>   0.5690 
 15 C        3.9520     2.0080     1.2260 C.ar  1 <1>  -0.1500 
 16 C        4.5220     2.1200    -1.0930 C.ar  1 <1>  -0.1500 
 17 O        7.3360    -0.9060    -1.9700 O.2   1 <1>  -0.5700 
 18 N        7.9150    -1.8760    -0.0200 N.am  1 <1>  -0.6600 
 19 C        4.1370     2.7510     0.0750 C.ar  1 <1>  -0.1500 
 20 C        7.7200    -2.8680     1.0830 C.3   1 <1>   0.1400 
 21 C        9.2550    -1.2160     0.0340 C.3   1 <1>   0.1400 
 22 C        8.9250    -3.8190     1.1770 C.3   1 <1>   0.1200 
 23 C       10.3710    -2.2610     0.1870 C.3   1 <1>   0.1200 
 24 O       10.1190    -3.0990     1.2810 O.3   1 <1>  -0.5600 
 25 H        2.3870    -0.8810    -1.1860 H     1 <1>   0.1500 
 26 H       -0.0180    -4.1030     0.1740 H     1 <1>   0.1500 
 27 H        1.8870    -5.0040     1.4610 H     1 <1>   0.1500 
 28 H        5.2330    -1.7180     1.0310 H     1 <1>   0.0800 
 29 H        3.9910    -4.7530     2.0640 H     1 <1>   0.4500 
 30 H        5.1540    -1.9580    -1.9680 H     1 <1>   0.0800 
 31 H        5.6570    -3.2060    -0.8970 H     1 <1>   0.0800 
 32 H        4.0010     0.0740     2.1090 H     1 <1>   0.1500 
 33 H        5.0200     0.2960    -2.0390 H     1 <1>   0.1500 
 34 H        3.6510     2.4930     2.1380 H     1 <1>   0.1500 
 35 H        4.6690     2.6930    -1.9910 H     1 <1>   0.1500 
 36 H        3.9820     3.8150     0.0880 H     1 <1>   0.1500 
 37 H        6.8330    -3.4530     0.9280 H     1 <1>   0.0800 
 38 H        7.6130    -2.3420     2.0150 H     1 <1>   0.0800 
 39 H        9.2830    -0.5430     0.8730 H     1 <1>   0.0800 
 40 H        9.4330    -0.6380    -0.8560 H     1 <1>   0.0800 
 41 H        8.9780    -4.4510     0.3070 H     1 <1>   0.0800 
 42 H        8.8400    -4.4400     2.0510 H     1 <1>   0.0800 
 43 H       11.3140    -1.7740     0.3560 H     1 <1>   0.0800 
 44 H       10.4470    -2.8640    -0.7020 H     1 <1>   0.0800 
@<TRIPOS>BOND
  1   1   2  1   
  2   2   3  ar  
  3   2   4  ar  
  4   3   5  ar  
  5   3  25  1   
  6   4   6  ar  
  7   4  26  1   
  8   5   7  ar  
  9   5   8  1   
 10   6   7  ar  
 11   6  27  1   
 12   7   9  1   
 13   8  10  1   
 14   8  11  1   
 15   8  28  1   
 16   9  29  1   
 17  10  12  ar  
 18  10  13  ar  
 19  11  14  1   
 20  11  30  1   
 21  11  31  1   
 22  12  15  ar  
 23  12  32  1   
 24  13  16  ar  
 25  13  33  1   
 26  14  17  2   
 27  14  18  am  
 28  15  19  ar  
 29  15  34  1   
 30  16  19  ar  
 31  16  35  1   
 32  18  20  1   
 33  18  21  1   
 34  19  36  1   
 35  20  22  1   
 36  20  37  1   
 37  20  38  1   
 38  21  23  1   
 39  21  39  1   
 40  21  40  1   
 41  22  24  1   
 42  22  41  1   
 43  22  42  1   
 44  23  24  1   
 45  23  43  1   
 46  23  44  1   
@<TRIPOS>SUBSTRUCTURE
  1 ****   8 GROUP 4 **** **** 0

# MOE 2024.06 (io_trps.svl 2023.06)
