@<TRIPOS>MOLECULE
NONAME
53 55 1 0 0 
SMALL
USER_CHARGES


@<TRIPOS>ATOM
  1 F        0.6020     0.2760    -0.7330 F     1 <1>  -0.1900 
  2 C        1.7110     0.9630    -0.6300 C.ar  1 <1>   0.1900 
  3 C        2.1160     1.7410    -1.6970 C.ar  1 <1>  -0.1500 
  4 C        2.4370     0.8830     0.5440 C.ar  1 <1>  -0.1500 
  5 C        3.2900     2.4640    -1.5790 C.ar  1 <1>  -0.1500 
  6 C        3.6090     1.6120     0.6470 C.ar  1 <1>  -0.1500 
  7 C        4.0460     2.4080    -0.4120 C.ar  1 <1>   0.1000 
  8 N        5.2200     3.1460    -0.3260 N.pl3 1 <1>  -0.8380 
  9 C        6.4900     2.3690    -0.3070 C.3   1 <1>   0.2090 
 10 C        5.2030     4.3090     0.6040 C.3   1 <1>   0.2090 
 11 C        7.7030     3.2970    -0.5320 C.3   1 <1>   0.3430 
 12 C        6.4290     5.2170     0.3670 C.3   1 <1>   0.3430 
 13 N        7.7530     4.4750     0.4270 N.4   1 <1>  -0.9590 
 14 C        8.9280     5.3780     0.2030 C.3   1 <1>   0.4230 
 15 C       10.2380     4.5630     0.1800 C.3   1 <1>  -0.1600 
 16 C        8.9580     6.4360     1.3140 C.3   1 <1>  -0.2400 
 17 C       11.5180     5.3990     0.0120 C.3   1 <1>  -0.0170 
 18 C       12.6970     4.4730    -0.2290 C.ar  1 <1>  -0.1430 
 19 C       13.3790     3.9140     0.8420 C.ar  1 <1>  -0.1500 
 20 C       13.1000     4.1730    -1.5220 C.ar  1 <1>  -0.1500 
 21 C       14.4480     3.0610     0.6270 C.ar  1 <1>  -0.1500 
 22 C       14.1670     3.3200    -1.7390 C.ar  1 <1>  -0.1500 
 23 C       14.8470     2.7570    -0.6720 C.ar  1 <1>   0.0830 
 24 O       15.8800     1.9310    -0.9720 O.3   1 <1>  -0.3620 
 25 C       16.6620     1.3360     0.0390 C.3   1 <1>   0.0400 
 26 H        1.5230     1.7770    -2.5940 H     1 <1>   0.1500 
 27 H        2.0860     0.2650     1.3500 H     1 <1>   0.1500 
 28 H        3.6300     3.0790    -2.3920 H     1 <1>   0.1500 
 29 H        4.1860     1.5630     1.5510 H     1 <1>   0.1500 
 30 H        6.4600     1.6260    -1.0860 H     1 <1>   0.0800 
 31 H        6.5890     1.8570     0.6340 H     1 <1>   0.0800 
 32 H        5.1940     3.9610     1.6220 H     1 <1>   0.0800 
 33 H        4.3020     4.8760     0.4410 H     1 <1>   0.0800 
 34 H        7.6600     3.6610    -1.5450 H     1 <1>   0.0800 
 35 H        8.5960     2.7020    -0.4340 H     1 <1>   0.0800 
 36 H        6.4070     5.9990     1.1050 H     1 <1>   0.0800 
 37 H        6.3200     5.6750    -0.6010 H     1 <1>   0.0800 
 38 H        7.8460     4.0900     1.3740 H     1 <1>   0.4500 
 39 H        8.8180     5.8750    -0.7490 H     1 <1>   0.0800 
 40 H       10.2230     3.8850    -0.6530 H     1 <1>   0.0800 
 41 H       10.3280     3.9870     1.0850 H     1 <1>   0.0800 
 42 H        9.0680     5.9760     2.2810 H     1 <1>   0.0800 
 43 H        8.0800     7.0540     1.3080 H     1 <1>   0.0800 
 44 H        9.7840     7.1070     1.1700 H     1 <1>   0.0800 
 45 H       11.7180     5.9850     0.8930 H     1 <1>   0.0800 
 46 H       11.4200     6.0750    -0.8210 H     1 <1>   0.0800 
 47 H       13.0850     4.1410     1.8510 H     1 <1>   0.1500 
 48 H       12.5910     4.5990    -2.3680 H     1 <1>   0.1500 
 49 H       14.9560     2.6450     1.4750 H     1 <1>   0.1500 
 50 H       14.4840     3.0850    -2.7390 H     1 <1>   0.1500 
 51 H       17.4220     0.7410    -0.4340 H     1 <1>   0.0800 
 52 H       16.0310     0.7100     0.6450 H     1 <1>   0.0800 
 53 H       17.1180     2.1110     0.6290 H     1 <1>   0.0800 
@<TRIPOS>BOND
  1   1   2  1   
  2   2   3  ar  
  3   2   4  ar  
  4   3   5  ar  
  5   3  26  1   
  6   4   6  ar  
  7   4  27  1   
  8   5   7  ar  
  9   5  28  1   
 10   6   7  ar  
 11   6  29  1   
 12   7   8  1   
 13   8   9  1   
 14   8  10  1   
 15   9  11  1   
 16   9  30  1   
 17   9  31  1   
 18  10  12  1   
 19  10  32  1   
 20  10  33  1   
 21  11  13  1   
 22  11  34  1   
 23  11  35  1   
 24  12  13  1   
 25  12  36  1   
 26  12  37  1   
 27  13  14  1   
 28  13  38  1   
 29  14  15  1   
 30  14  16  1   
 31  14  39  1   
 32  15  17  1   
 33  15  40  1   
 34  15  41  1   
 35  16  42  1   
 36  16  43  1   
 37  16  44  1   
 38  17  18  1   
 39  17  45  1   
 40  17  46  1   
 41  18  19  ar  
 42  18  20  ar  
 43  19  21  ar  
 44  19  47  1   
 45  20  22  ar  
 46  20  48  1   
 47  21  23  ar  
 48  21  49  1   
 49  22  23  ar  
 50  22  50  1   
 51  23  24  1   
 52  24  25  1   
 53  25  51  1   
 54  25  52  1   
 55  25  53  1   
@<TRIPOS>SUBSTRUCTURE
  1 ****  11 GROUP 4 **** **** 0

# MOE 2024.06 (io_trps.svl 2023.06)
