@<TRIPOS>MOLECULE
NONAME
52 55 1 0 0 
SMALL
USER_CHARGES


@<TRIPOS>ATOM
  1 O        0.4670    -0.2070     1.5440 O.2   1 <1>  -0.5700 
  2 C        1.0120     0.6670     0.9170 C.2   1 <1>   0.5690 
  3 N        0.4790     1.8940     0.6990 N.am  1 <1>  -0.4200 
  4 C        2.3500     0.5210     0.2000 C.3   1 <1>  -0.0190 
  5 C        1.2540     2.6470    -0.1140 C.2   1 <1>   0.5690 
  6 C       -0.8660     2.2990     1.1440 C.3   1 <1>   0.2840 
  7 C        3.5770     0.1660     1.0860 C.3   1 <1>   0.0580 
  8 C        2.4990     1.8950    -0.5040 C.3   1 <1>  -0.0990 
  9 O        1.0170     3.7700    -0.4750 O.2   1 <1>  -0.5700 
 10 C       -1.8900     1.9140     0.0880 C.ar  1 <1>  -0.1440 
 11 C        4.7840    -0.1250     0.1850 C.2   1 <1>  -0.0380 
 12 C        3.3730    -1.0390     2.0310 C.3   1 <1>  -0.1600 
 13 C       -2.2210     2.8040    -0.9230 C.ar  1 <1>  -0.1500 
 14 C       -2.4980     0.6690     0.1240 C.ar  1 <1>  -0.1500 
 15 N        5.4470     0.9990    -0.3060 N.pl3 1 <1>  -0.8380 
 16 C        5.1660    -1.3820    -0.0940 C.2   1 <1>  -0.2880 
 17 C        3.2350    -2.3530     1.2490 C.3   1 <1>  -0.1600 
 18 C       -3.1580     2.4580    -1.8810 C.ar  1 <1>  -0.1500 
 19 C       -3.4350     0.3210    -0.8340 C.ar  1 <1>  -0.1500 
 20 C        5.8980     0.9760    -1.7310 C.3   1 <1>   0.2090 
 21 C        6.5250     1.5450     0.5710 C.3   1 <1>   0.2090 
 22 C        4.5030    -2.6470     0.4350 C.3   1 <1>  -0.0220 
 23 C       -3.7670     1.2160    -1.8360 C.ar  1 <1>  -0.1500 
 24 C        6.4040     2.3660    -2.1570 C.3   1 <1>   0.1200 
 25 C        7.0190     2.9050     0.0420 C.3   1 <1>   0.1200 
 26 O        7.4190     2.8130    -1.2990 O.3   1 <1>  -0.5600 
 27 H        2.2300    -0.2400    -0.5490 H     1 <1>   0.0800 
 28 H       -0.8840     3.3620     1.3060 H     1 <1>   0.0800 
 29 H       -1.0970     1.8130     2.0760 H     1 <1>   0.0800 
 30 H        3.8050     1.0130     1.7100 H     1 <1>   0.0800 
 31 H        2.5520     1.7850    -1.5710 H     1 <1>   0.0800 
 32 H        3.3470     2.4520    -0.1550 H     1 <1>   0.0800 
 33 H        2.5240    -0.8940     2.6720 H     1 <1>   0.0800 
 34 H        4.2330    -1.1140     2.6730 H     1 <1>   0.0800 
 35 H       -1.7450     3.7700    -0.9700 H     1 <1>   0.1500 
 36 H       -2.2400    -0.0370     0.8960 H     1 <1>   0.1500 
 37 H        6.0130    -1.5990    -0.7170 H     1 <1>   0.1500 
 38 H        2.3890    -2.2900     0.5880 H     1 <1>   0.0800 
 39 H        3.0500    -3.1650     1.9300 H     1 <1>   0.0800 
 40 H       -3.4110     3.1540    -2.6610 H     1 <1>   0.1500 
 41 H       -3.9050    -0.6470    -0.7990 H     1 <1>   0.1500 
 42 H        5.0760     0.6810    -2.3580 H     1 <1>   0.0800 
 43 H        6.6920     0.2620    -1.8540 H     1 <1>   0.0800 
 44 H        7.3490     0.8530     0.6020 H     1 <1>   0.0800 
 45 H        6.1510     1.6640     1.5720 H     1 <1>   0.0800 
 46 H        5.2120    -3.1540     1.0640 H     1 <1>   0.0800 
 47 H        4.2590    -3.3020    -0.3830 H     1 <1>   0.0800 
 48 H       -4.4960     0.9460    -2.5800 H     1 <1>   0.1500 
 49 H        5.5990     3.0790    -2.1400 H     1 <1>   0.0800 
 50 H        6.8110     2.3230    -3.1520 H     1 <1>   0.0800 
 51 H        7.8660     3.2400     0.6140 H     1 <1>   0.0800 
 52 H        6.2370     3.6400     0.1170 H     1 <1>   0.0800 
@<TRIPOS>BOND
  1   1   2  2   
  2   2   3  am  
  3   2   4  1   
  4   3   5  am  
  5   3   6  1   
  6   4   7  1   
  7   4   8  1   
  8   4  27  1   
  9   5   8  1   
 10   5   9  2   
 11   6  10  1   
 12   6  28  1   
 13   6  29  1   
 14   7  11  1   
 15   7  12  1   
 16   7  30  1   
 17   8  31  1   
 18   8  32  1   
 19  10  13  ar  
 20  10  14  ar  
 21  11  15  1   
 22  11  16  2   
 23  12  17  1   
 24  12  33  1   
 25  12  34  1   
 26  13  18  ar  
 27  13  35  1   
 28  14  19  ar  
 29  14  36  1   
 30  15  20  1   
 31  15  21  1   
 32  16  22  1   
 33  16  37  1   
 34  17  22  1   
 35  17  38  1   
 36  17  39  1   
 37  18  23  ar  
 38  18  40  1   
 39  19  23  ar  
 40  19  41  1   
 41  20  24  1   
 42  20  42  1   
 43  20  43  1   
 44  21  25  1   
 45  21  44  1   
 46  21  45  1   
 47  22  46  1   
 48  22  47  1   
 49  23  48  1   
 50  24  26  1   
 51  24  49  1   
 52  24  50  1   
 53  25  26  1   
 54  25  51  1   
 55  25  52  1   
@<TRIPOS>SUBSTRUCTURE
  1 ****   4 GROUP 4 **** **** 0

# MOE 2024.06 (io_trps.svl 2023.06)
