@<TRIPOS>MOLECULE
NONAME
46 48 1 0 0 
SMALL
USER_CHARGES


@<TRIPOS>ATOM
  1 O       -0.8260     0.4780     3.3020 O.2   1 <1>  -0.5700 
  2 C       -1.5100     0.7470     2.3460 C.2   1 <1>   0.5180 
  3 N       -1.4830     1.9630     1.6640 N.pl3 1 <1>   0.2940 
  4 C       -2.4090    -0.3420     1.7510 C.3   1 <1>   0.4040 
  5 C       -2.6040     2.4720     1.0030 C.ar  1 <1>  -0.1520 
  6 C       -0.4030     2.3470     0.8810 C.2   1 <1>  -0.3320 
  7 N       -2.3060    -0.5050     0.2410 N.4   1 <1>  -0.9590 
  8 C       -2.2170     3.0690    -0.1910 C.ar  1 <1>   0.0000 
  9 C       -3.9530     2.4410     1.3700 C.ar  1 <1>  -0.1500 
 10 C       -0.8110     2.9980    -0.2240 C.2   1 <1>  -0.1810 
 11 C        1.0580     2.0900     1.2290 C.3   1 <1>   0.0200 
 12 C       -3.3520    -1.4130    -0.3000 C.3   1 <1>   0.3430 
 13 C       -0.9350    -0.9240    -0.1630 C.3   1 <1>   0.3430 
 14 C       -3.1780     3.5870    -1.0590 C.ar  1 <1>  -0.1500 
 15 C       -4.8940     2.9600     0.5090 C.ar  1 <1>  -0.1500 
 16 C        0.1120     3.5670    -1.2860 C.3   1 <1>   0.0210 
 17 C        1.9440     2.3200    -0.0090 C.3   1 <1>  -0.1600 
 18 C       -4.6960    -0.6960    -0.2930 C.3   1 <1>  -0.2400 
 19 C       -0.7020    -0.5510    -1.6210 C.3   1 <1>  -0.2400 
 20 C       -4.5080     3.5250    -0.7090 C.ar  1 <1>  -0.1500 
 21 C        1.5590     3.6080    -0.7630 C.3   1 <1>  -0.1600 
 22 H       -3.4240    -0.1050     2.0170 H     1 <1>   0.0800 
 23 H       -2.1580    -1.2730     2.2290 H     1 <1>   0.0800 
 24 H       -2.4660     0.4280    -0.1820 H     1 <1>   0.4500 
 25 H       -4.2610     2.0350     2.3180 H     1 <1>   0.1500 
 26 H        1.2080     1.0880     1.5900 H     1 <1>   0.0800 
 27 H        1.3510     2.7700     2.0110 H     1 <1>   0.0800 
 28 H       -3.4050    -2.3190     0.2830 H     1 <1>   0.0800 
 29 H       -3.1140    -1.6820    -1.3170 H     1 <1>   0.0800 
 30 H       -0.8060    -1.9850    -0.0200 H     1 <1>   0.0800 
 31 H       -0.2000    -0.4110     0.4390 H     1 <1>   0.0800 
 32 H       -2.8690     4.0380    -1.9860 H     1 <1>   0.1500 
 33 H       -5.9400     2.9480     0.7690 H     1 <1>   0.1500 
 34 H       -0.2020     4.5620    -1.5500 H     1 <1>   0.0800 
 35 H        0.0590     2.9510    -2.1660 H     1 <1>   0.0800 
 36 H        1.8430     1.4830    -0.6780 H     1 <1>   0.0800 
 37 H        2.9740     2.3740     0.2970 H     1 <1>   0.0800 
 38 H       -5.0330    -0.4880     0.7060 H     1 <1>   0.0800 
 39 H       -5.4330    -1.3260    -0.7600 H     1 <1>   0.0800 
 40 H       -4.6430     0.2200    -0.8560 H     1 <1>   0.0800 
 41 H       -0.8440     0.5040    -1.7720 H     1 <1>   0.0800 
 42 H       -1.3480    -1.1010    -2.2810 H     1 <1>   0.0800 
 43 H        0.3140    -0.7880    -1.8860 H     1 <1>   0.0800 
 44 H       -5.2610     3.9260    -1.3670 H     1 <1>   0.1500 
 45 H        1.6600     4.4440    -0.0910 H     1 <1>   0.0800 
 46 H        2.2330     3.7680    -1.5870 H     1 <1>   0.0800 
@<TRIPOS>BOND
  1   1   2  2   
  2   2   3  1   
  3   2   4  1   
  4   3   5  1   
  5   3   6  1   
  6   4   7  1   
  7   4  22  1   
  8   4  23  1   
  9   5   8  ar  
 10   5   9  ar  
 11   6  10  2   
 12   6  11  1   
 13   7  12  1   
 14   7  13  1   
 15   7  24  1   
 16   8  10  1   
 17   8  14  ar  
 18   9  15  ar  
 19   9  25  1   
 20  10  16  1   
 21  11  17  1   
 22  11  26  1   
 23  11  27  1   
 24  12  18  1   
 25  12  28  1   
 26  12  29  1   
 27  13  19  1   
 28  13  30  1   
 29  13  31  1   
 30  14  20  ar  
 31  14  32  1   
 32  15  20  ar  
 33  15  33  1   
 34  16  21  1   
 35  16  34  1   
 36  16  35  1   
 37  17  21  1   
 38  17  36  1   
 39  17  37  1   
 40  18  38  1   
 41  18  39  1   
 42  18  40  1   
 43  19  41  1   
 44  19  42  1   
 45  19  43  1   
 46  20  44  1   
 47  21  45  1   
 48  21  46  1   
@<TRIPOS>SUBSTRUCTURE
  1 ****   3 GROUP 4 **** **** 0

# MOE 2024.06 (io_trps.svl 2023.06)
