@<TRIPOS>MOLECULE
NONAME
42 44 1 0 0 
SMALL
USER_CHARGES


@<TRIPOS>ATOM
  1 S        0.1950     0.2560    -0.0860 S.3   1 <1>  -0.2860 
  2 C       -1.5340     0.5640     0.2830 C.2   1 <1>   0.2420 
  3 C        0.9280     1.9650    -0.0450 C.3   1 <1>   0.1310 
  4 N       -2.0070     1.7260     0.5550 N.2   1 <1>  -0.3380 
  5 N       -2.4470    -0.4030     0.3020 N.pl3 1 <1>   0.0480 
  6 C        2.4280     1.9370    -0.2950 C.2   1 <1>   0.5690 
  7 N       -3.3110     1.5420     0.7750 N.2   1 <1>  -0.3380 
  8 C       -3.5710     0.2720     0.6130 C.2   1 <1>   0.1870 
  9 C       -2.2440    -1.8550     0.1060 C.3   1 <1>   0.0160 
 10 O        2.9510     2.9210    -0.7580 O.2   1 <1>  -0.5700 
 11 N        3.1410     0.8220     0.0170 N.am  1 <1>  -0.7300 
 12 C       -4.8660    -0.3400     0.7590 C.2   1 <1>  -0.0010 
 13 C        4.5840     0.6480    -0.1660 C.3   1 <1>   0.2200 
 14 C       -5.5190    -1.1480    -0.2110 C.ar  1 <1>   0.0000 
 15 C       -5.7020    -0.2840     1.8340 C.2   1 <1>  -0.3020 
 16 C        4.8040    -0.4830    -1.1640 C.3   1 <1>  -0.2400 
 17 C        5.2000     0.3220     1.1890 C.3   1 <1>  -0.2400 
 18 C       -6.7180    -1.5720     0.3530 C.ar  1 <1>  -0.1520 
 19 C       -5.2030    -1.5370    -1.5170 C.ar  1 <1>  -0.1500 
 20 N       -6.8200    -1.0240     1.6050 N.pl3 1 <1>   0.0330 
 21 C       -7.5910    -2.4070    -0.3470 C.ar  1 <1>  -0.1500 
 22 C       -6.0630    -2.3590    -2.2100 C.ar  1 <1>  -0.1500 
 23 C       -7.2550    -2.7980    -1.6230 C.ar  1 <1>  -0.1500 
 24 H        0.7190     2.3820     0.9220 H     1 <1>   0.0800 
 25 H        0.4330     2.5420    -0.8040 H     1 <1>   0.0800 
 26 H       -1.3540    -2.1650     0.6230 H     1 <1>   0.0800 
 27 H       -2.1390    -2.0610    -0.9430 H     1 <1>   0.0800 
 28 H       -3.0840    -2.3990     0.4980 H     1 <1>   0.0800 
 29 H        2.6400     0.0000     0.3590 H     1 <1>   0.3700 
 30 H        5.0170     1.5590    -0.5500 H     1 <1>   0.0800 
 31 H       -5.5450     0.2540     2.7530 H     1 <1>   0.1500 
 32 H        4.3830    -1.4030    -0.8020 H     1 <1>   0.0800 
 33 H        5.8570    -0.6270    -1.3240 H     1 <1>   0.0800 
 34 H        4.3540    -0.2290    -2.1070 H     1 <1>   0.0800 
 35 H        4.7850    -0.5840     1.5920 H     1 <1>   0.0800 
 36 H        5.0230     1.1320     1.8750 H     1 <1>   0.0800 
 37 H        6.2630     0.1960     1.0860 H     1 <1>   0.0800 
 38 H       -4.2960    -1.1810    -1.9700 H     1 <1>   0.1500 
 39 H       -7.6150    -1.1460     2.2400 H     1 <1>   0.2700 
 40 H       -8.5090    -2.7330     0.1080 H     1 <1>   0.1500 
 41 H       -5.8300    -2.6680    -3.2140 H     1 <1>   0.1500 
 42 H       -7.9100    -3.4410    -2.1840 H     1 <1>   0.1500 
@<TRIPOS>BOND
  1   1   2  1   
  2   1   3  1   
  3   2   4  2   
  4   2   5  1   
  5   3   6  1   
  6   3  24  1   
  7   3  25  1   
  8   4   7  1   
  9   5   8  1   
 10   5   9  1   
 11   6  10  2   
 12   6  11  am  
 13   7   8  2   
 14   8  12  1   
 15   9  26  1   
 16   9  27  1   
 17   9  28  1   
 18  11  13  1   
 19  11  29  1   
 20  12  14  1   
 21  12  15  2   
 22  13  16  1   
 23  13  17  1   
 24  13  30  1   
 25  14  18  ar  
 26  14  19  ar  
 27  15  20  1   
 28  15  31  1   
 29  16  32  1   
 30  16  33  1   
 31  16  34  1   
 32  17  35  1   
 33  17  36  1   
 34  17  37  1   
 35  18  20  1   
 36  18  21  ar  
 37  19  22  ar  
 38  19  38  1   
 39  20  39  1   
 40  21  23  ar  
 41  21  40  1   
 42  22  23  ar  
 43  22  41  1   
 44  23  42  1   
@<TRIPOS>SUBSTRUCTURE
  1 ****   5 GROUP 4 **** **** 0

# MOE 2024.06 (io_trps.svl 2023.06)
