@<TRIPOS>MOLECULE
NONAME
49 50 1 0 0 
SMALL
USER_CHARGES


@<TRIPOS>ATOM
  1 O       -0.8600     4.0110     0.4040 O.3   1 <1>  -0.5600 
  2 C       -1.2710     5.1780     1.0630 C.3   1 <1>   0.2000 
  3 C       -1.0980     3.9100    -0.9770 C.3   1 <1>   0.2000 
  4 C       -2.8040     5.3800     0.9170 C.3   1 <1>   0.3430 
  5 C       -0.4410     6.3680     0.5650 C.3   1 <1>  -0.2400 
  6 C       -2.4460     4.5580    -1.3910 C.3   1 <1>   0.3430 
  7 C       -1.0720     2.4170    -1.2980 C.3   1 <1>  -0.2400 
  8 N       -3.3920     4.6130    -0.2350 N.4   1 <1>  -0.9590 
  9 C       -4.7970     4.9870    -0.5800 C.3   1 <1>   0.3430 
 10 C       -5.7840     4.3880     0.4450 C.3   1 <1>   0.2000 
 11 O       -5.3230     3.1280     0.8310 O.3   1 <1>  -0.6800 
 12 C       -7.2050     4.2490    -0.1130 C.3   1 <1>   0.1200 
 13 O       -7.9880     3.5520     0.8320 O.3   1 <1>  -0.3630 
 14 C       -9.2990     3.2900     0.6050 C.ar  1 <1>   0.0820 
 15 C       -9.9670     3.6330    -0.5680 C.ar  1 <1>  -0.1500 
 16 C       -9.9910     2.6420     1.6150 C.ar  1 <1>  -0.1500 
 17 C      -11.3090     3.3280    -0.7140 C.ar  1 <1>  -0.1500 
 18 C      -11.3330     2.3400     1.4640 C.ar  1 <1>  -0.1500 
 19 C      -12.0000     2.6820     0.2990 C.ar  1 <1>  -0.1430 
 20 C      -13.4740     2.3490     0.1330 C.3   1 <1>  -0.0170 
 21 C      -13.6450     0.9670    -0.5010 C.3   1 <1>  -0.2400 
 22 H       -1.0470     5.0340     2.1070 H     1 <1>   0.0800 
 23 H       -0.2870     4.3950    -1.4940 H     1 <1>   0.0800 
 24 H       -2.9990     6.4330     0.8010 H     1 <1>   0.0800 
 25 H       -3.2790     5.0640     1.8310 H     1 <1>   0.0800 
 26 H       -0.6620     6.6190    -0.4560 H     1 <1>   0.0800 
 27 H        0.6070     6.1420     0.6570 H     1 <1>   0.0800 
 28 H       -0.6450     7.2320     1.1720 H     1 <1>   0.0800 
 29 H       -2.8730     3.9930    -2.2030 H     1 <1>   0.0800 
 30 H       -2.2570     5.5550    -1.7510 H     1 <1>   0.0800 
 31 H       -1.8530     1.9000    -0.7700 H     1 <1>   0.0800 
 32 H       -0.1220     2.0010    -1.0090 H     1 <1>   0.0800 
 33 H       -1.1990     2.2560    -2.3530 H     1 <1>   0.0800 
 34 H       -3.4740     3.6380     0.1200 H     1 <1>   0.4500 
 35 H       -5.0410     4.5840    -1.5490 H     1 <1>   0.0800 
 36 H       -4.9090     6.0580    -0.6280 H     1 <1>   0.0800 
 37 H       -5.8140     5.0090     1.3240 H     1 <1>   0.0800 
 38 H       -6.0600     2.6540     1.2870 H     1 <1>   0.4000 
 39 H       -7.2020     3.6870    -1.0310 H     1 <1>   0.0800 
 40 H       -7.6500     5.2160    -0.2730 H     1 <1>   0.0800 
 41 H       -9.4710     4.1320    -1.3760 H     1 <1>   0.1500 
 42 H       -9.4780     2.3760     2.5210 H     1 <1>   0.1500 
 43 H      -11.8190     3.5940    -1.6240 H     1 <1>   0.1500 
 44 H      -11.8560     1.8350     2.2580 H     1 <1>   0.1500 
 45 H      -13.9470     3.0920    -0.4860 H     1 <1>   0.0800 
 46 H      -13.9610     2.3690     1.0930 H     1 <1>   0.0800 
 47 H      -13.1770     0.9430    -1.4690 H     1 <1>   0.0800 
 48 H      -14.6900     0.7380    -0.6140 H     1 <1>   0.0800 
 49 H      -13.1900     0.2160     0.1200 H     1 <1>   0.0800 
@<TRIPOS>BOND
  1   1   2  1   
  2   1   3  1   
  3   2   4  1   
  4   2   5  1   
  5   2  22  1   
  6   3   6  1   
  7   3   7  1   
  8   3  23  1   
  9   4   8  1   
 10   4  24  1   
 11   4  25  1   
 12   5  26  1   
 13   5  27  1   
 14   5  28  1   
 15   6   8  1   
 16   6  29  1   
 17   6  30  1   
 18   7  31  1   
 19   7  32  1   
 20   7  33  1   
 21   8   9  1   
 22   8  34  1   
 23   9  10  1   
 24   9  35  1   
 25   9  36  1   
 26  10  11  1   
 27  10  12  1   
 28  10  37  1   
 29  11  38  1   
 30  12  13  1   
 31  12  39  1   
 32  12  40  1   
 33  13  14  1   
 34  14  15  ar  
 35  14  16  ar  
 36  15  17  ar  
 37  15  41  1   
 38  16  18  ar  
 39  16  42  1   
 40  17  19  ar  
 41  17  43  1   
 42  18  19  ar  
 43  18  44  1   
 44  19  20  1   
 45  20  21  1   
 46  20  45  1   
 47  20  46  1   
 48  21  47  1   
 49  21  48  1   
 50  21  49  1   
@<TRIPOS>SUBSTRUCTURE
  1 ****  12 GROUP 4 **** **** 0

# MOE 2024.06 (io_trps.svl 2023.06)
