@<TRIPOS>MOLECULE
NONAME
52 54 1 0 0 
SMALL
USER_CHARGES


@<TRIPOS>ATOM
  1 O        1.0200    -1.6890    -1.7590 O.2   1 <1>  -0.5700 
  2 C        0.5550    -2.0940    -0.7110 C.2   1 <1>   0.5440 
  3 N        1.3260    -2.0700     0.4280 N.am  1 <1>  -0.5470 
  4 C       -0.7890    -2.6370    -0.6560 C.ar  1 <1>   0.0860 
  5 C        2.5850    -1.4960     0.6390 C.ar  1 <1>   0.1170 
  6 C       -1.3420    -3.2980    -1.7520 C.ar  1 <1>  -0.1500 
  7 C       -1.5840    -2.5270     0.4870 C.ar  1 <1>  -0.1500 
  8 C        2.9710    -0.3170     0.0120 C.ar  1 <1>  -0.1500 
  9 C        3.4810    -2.1050     1.5080 C.ar  1 <1>  -0.1500 
 10 C       -2.6140    -3.8380    -1.7070 C.ar  1 <1>  -0.1500 
 11 C       -2.8560    -3.0680     0.5350 C.ar  1 <1>  -0.1500 
 12 C        4.2230     0.2280     0.2280 C.ar  1 <1>  -0.1500 
 13 C        4.7360    -1.5680     1.7270 C.ar  1 <1>  -0.1500 
 14 C       -3.3850    -3.7320    -0.5610 C.ar  1 <1>  -0.1430 
 15 C        5.1210    -0.4020     1.0780 C.ar  1 <1>  -0.1430 
 16 C       -4.7880    -4.3360    -0.5260 C.3   1 <1>   0.0630 
 17 C        6.5140     0.1630     1.2780 C.3   1 <1>   0.4860 
 18 C       -5.8450    -3.2490    -0.3070 C.3   1 <1>  -0.2400 
 19 C       -4.8900    -5.4190     0.5530 C.3   1 <1>  -0.2400 
 20 N        7.2740     0.0170     0.0080 N.4   1 <1>  -0.9590 
 21 C        7.3100    -1.3890    -0.5240 C.3   1 <1>   0.3430 
 22 C        8.6510     0.6120     0.0550 C.3   1 <1>   0.3430 
 23 C        8.0300    -1.4480    -1.8910 C.3   1 <1>   0.1200 
 24 C        9.4400     0.3270    -1.2450 C.3   1 <1>   0.1200 
 25 O        8.6020    -0.2100    -2.2300 O.3   1 <1>  -0.5600 
 26 H        0.9650    -2.6340     1.1950 H     1 <1>   0.3700 
 27 H       -0.7590    -3.3870    -2.6530 H     1 <1>   0.1500 
 28 H       -1.2120    -2.0040     1.3490 H     1 <1>   0.1500 
 29 H        2.2830     0.1760    -0.6530 H     1 <1>   0.1500 
 30 H        3.1930    -3.0120     2.0110 H     1 <1>   0.1500 
 31 H       -3.0000    -4.3430    -2.5760 H     1 <1>   0.1500 
 32 H       -3.4390    -2.9650     1.4340 H     1 <1>   0.1500 
 33 H        4.4780     1.1430    -0.2780 H     1 <1>   0.1500 
 34 H        5.4060    -2.0720     2.4040 H     1 <1>   0.1500 
 35 H       -4.9890    -4.8000    -1.4760 H     1 <1>   0.0800 
 36 H        7.0120    -0.3680     2.0730 H     1 <1>   0.0800 
 37 H        6.4420     1.2030     1.5520 H     1 <1>   0.0800 
 38 H       -5.7250    -2.7830     0.6540 H     1 <1>   0.0800 
 39 H       -6.8320    -3.6730    -0.3620 H     1 <1>   0.0800 
 40 H       -5.7550    -2.4930    -1.0680 H     1 <1>   0.0800 
 41 H       -4.7490    -5.0010     1.5330 H     1 <1>   0.0800 
 42 H       -4.1380    -6.1700     0.3880 H     1 <1>   0.0800 
 43 H       -5.8560    -5.8900     0.5160 H     1 <1>   0.0800 
 44 H        6.7690     0.5400    -0.7230 H     1 <1>   0.4500 
 45 H        6.3080    -1.7700    -0.6430 H     1 <1>   0.0800 
 46 H        7.8210    -2.0330     0.1710 H     1 <1>   0.0800 
 47 H        9.2020     0.2120     0.8890 H     1 <1>   0.0800 
 48 H        8.5820     1.6790     0.1930 H     1 <1>   0.0800 
 49 H        7.3280    -1.7030    -2.6660 H     1 <1>   0.0800 
 50 H        8.8050    -2.1960    -1.8820 H     1 <1>   0.0800 
 51 H       10.2440    -0.3660    -1.0610 H     1 <1>   0.0800 
 52 H        9.8640     1.2390    -1.6310 H     1 <1>   0.0800 
@<TRIPOS>BOND
  1   1   2  2   
  2   2   3  am  
  3   2   4  1   
  4   3   5  1   
  5   3  26  1   
  6   4   6  ar  
  7   4   7  ar  
  8   5   8  ar  
  9   5   9  ar  
 10   6  10  ar  
 11   6  27  1   
 12   7  11  ar  
 13   7  28  1   
 14   8  12  ar  
 15   8  29  1   
 16   9  13  ar  
 17   9  30  1   
 18  10  14  ar  
 19  10  31  1   
 20  11  14  ar  
 21  11  32  1   
 22  12  15  ar  
 23  12  33  1   
 24  13  15  ar  
 25  13  34  1   
 26  14  16  1   
 27  15  17  1   
 28  16  18  1   
 29  16  19  1   
 30  16  35  1   
 31  17  20  1   
 32  17  36  1   
 33  17  37  1   
 34  18  38  1   
 35  18  39  1   
 36  18  40  1   
 37  19  41  1   
 38  19  42  1   
 39  19  43  1   
 40  20  21  1   
 41  20  22  1   
 42  20  44  1   
 43  21  23  1   
 44  21  45  1   
 45  21  46  1   
 46  22  24  1   
 47  22  47  1   
 48  22  48  1   
 49  23  25  1   
 50  23  49  1   
 51  23  50  1   
 52  24  25  1   
 53  24  51  1   
 54  24  52  1   
@<TRIPOS>SUBSTRUCTURE
  1 ****   5 GROUP 4 **** **** 0

# MOE 2024.06 (io_trps.svl 2023.06)
