@<TRIPOS>MOLECULE
NONAME
36 37 1 0 0 
SMALL
USER_CHARGES


@<TRIPOS>ATOM
  1 BR       0.0480    -0.3140    -1.4610 Br    1 <1>  -0.1110 
  2 C        1.6750    -1.1060    -0.8160 C.ar  1 <1>   0.1110 
  3 C        2.8830    -0.5280    -1.1590 C.ar  1 <1>  -0.1500 
  4 C        1.6020    -2.2370    -0.0270 C.ar  1 <1>  -0.1500 
  5 C        4.0500    -1.1030    -0.6890 C.ar  1 <1>  -0.1500 
  6 C        2.7800    -2.7980     0.4350 C.ar  1 <1>  -0.1500 
  7 C        4.0250    -2.2420     0.1250 C.ar  1 <1>   0.0860 
  8 C        5.2470    -2.8340     0.6320 C.2   1 <1>   0.5440 
  9 O        5.3530    -4.0450     0.7480 O.2   1 <1>  -0.5700 
 10 N        6.2930    -2.0420     1.0120 N.am  1 <1>  -0.4300 
 11 N        7.6760    -2.5010     1.1560 N.am  1 <1>  -0.4300 
 12 C        8.6330    -2.3580     0.2010 C.2   1 <1>   0.5690 
 13 O        8.4690    -1.6360    -0.7610 O.2   1 <1>  -0.5700 
 14 C        9.9500    -3.1190     0.3600 C.3   1 <1>  -0.0190 
 15 C       11.1580    -2.1630     0.3960 C.3   1 <1>  -0.1600 
 16 C       10.1230    -4.1680    -0.7560 C.3   1 <1>  -0.1600 
 17 C       12.4800    -2.9300     0.5430 C.3   1 <1>  -0.1600 
 18 C       11.4450    -4.9350    -0.6100 C.3   1 <1>  -0.1600 
 19 C       12.6410    -3.9740    -0.5690 C.3   1 <1>  -0.1600 
 20 H        2.9030     0.3480    -1.7830 H     1 <1>   0.1500 
 21 H        0.6470    -2.6670     0.2160 H     1 <1>   0.1500 
 22 H        4.9960    -0.6690    -0.9670 H     1 <1>   0.1500 
 23 H        2.7440    -3.6840     1.0460 H     1 <1>   0.1500 
 24 H        6.1660    -1.0250     1.0210 H     1 <1>   0.3700 
 25 H        7.8460    -3.1290     1.9480 H     1 <1>   0.3700 
 26 H        9.9200    -3.6440     1.2980 H     1 <1>   0.0800 
 27 H       11.0500    -1.4720     1.2140 H     1 <1>   0.0800 
 28 H       11.1830    -1.5890    -0.5150 H     1 <1>   0.0800 
 29 H       10.1030    -3.6730    -1.7130 H     1 <1>   0.0800 
 30 H        9.3000    -4.8610    -0.7310 H     1 <1>   0.0800 
 31 H       12.5060    -3.4220     1.5010 H     1 <1>   0.0800 
 32 H       13.3040    -2.2370     0.5070 H     1 <1>   0.0800 
 33 H       11.5590    -5.6140    -1.4380 H     1 <1>   0.0800 
 34 H       11.4240    -5.5180     0.2940 H     1 <1>   0.0800 
 35 H       13.5470    -4.5330    -0.4120 H     1 <1>   0.0800 
 36 H       12.7240    -3.4710    -1.5180 H     1 <1>   0.0800 
@<TRIPOS>BOND
  1   1   2  1   
  2   2   3  ar  
  3   2   4  ar  
  4   3   5  ar  
  5   3  20  1   
  6   4   6  ar  
  7   4  21  1   
  8   5   7  ar  
  9   5  22  1   
 10   6   7  ar  
 11   6  23  1   
 12   7   8  1   
 13   8   9  2   
 14   8  10  am  
 15  10  11  1   
 16  10  24  1   
 17  11  12  am  
 18  11  25  1   
 19  12  13  2   
 20  12  14  1   
 21  14  15  1   
 22  14  16  1   
 23  14  26  1   
 24  15  17  1   
 25  15  27  1   
 26  15  28  1   
 27  16  18  1   
 28  16  29  1   
 29  16  30  1   
 30  17  19  1   
 31  17  31  1   
 32  17  32  1   
 33  18  19  1   
 34  18  33  1   
 35  18  34  1   
 36  19  35  1   
 37  19  36  1   
@<TRIPOS>SUBSTRUCTURE
  1 ****  10 GROUP 4 **** **** 0

# MOE 2024.06 (io_trps.svl 2023.06)
