@<TRIPOS>MOLECULE
NONAME
52 54 1 0 0 
SMALL
USER_CHARGES


@<TRIPOS>ATOM
  1 S       -0.6370     0.6420    -1.1630 S.o2  1 <1>   1.4470 
  2 O       -1.1240     1.1590    -2.4240 O.2   1 <1>  -0.6500 
  3 O       -0.6270    -0.7880    -0.9420 O.2   1 <1>  -0.6500 
  4 N       -1.6260     1.3050     0.0420 N.am  1 <1>  -0.8490 
  5 C        0.9980     1.3290    -0.7820 C.ar  1 <1>  -0.0090 
  6 C       -1.7990     2.7630    -0.1160 C.3   1 <1>   0.1960 
  7 C       -2.9430     0.6470     0.0650 C.3   1 <1>   0.1960 
  8 C        1.6180     1.0580     0.4300 C.ar  1 <1>  -0.1500 
  9 C        1.6630     2.1550    -1.6780 C.ar  1 <1>  -0.1500 
 10 C       -2.6320     3.3550     1.0320 C.3   1 <1>   0.1400 
 11 C       -3.8350     1.1820     1.2010 C.3   1 <1>   0.1400 
 12 C        2.8580     1.5870     0.7540 C.ar  1 <1>  -0.1440 
 13 C        2.9000     2.6910    -1.3710 C.ar  1 <1>  -0.1500 
 14 N       -3.9570     2.6700     1.1280 N.am  1 <1>  -0.6600 
 15 C        3.5060     2.4130    -0.1570 C.ar  1 <1>  -0.1440 
 16 C        3.4800     1.2450     2.1000 C.3   1 <1>  -0.0970 
 17 C       -5.0940     3.2930     0.6890 C.2   1 <1>   0.6900 
 18 C        4.8690     3.0200     0.1470 C.3   1 <1>  -0.0970 
 19 O       -5.0160     4.2810    -0.0160 O.2   1 <1>  -0.5700 
 20 N       -6.2990     2.7880     1.0810 N.am  1 <1>  -0.5470 
 21 C       -7.6050     3.0770     0.6620 C.ar  1 <1>   0.1170 
 22 C       -7.8910     3.6170    -0.5870 C.ar  1 <1>  -0.1500 
 23 C       -8.6650     2.7940     1.5150 C.ar  1 <1>  -0.1500 
 24 C       -9.1960     3.8700    -0.9700 C.ar  1 <1>  -0.1500 
 25 C       -9.9710     3.0450     1.1350 C.ar  1 <1>  -0.1500 
 26 C      -10.2450     3.5860    -0.1110 C.ar  1 <1>  -0.1440 
 27 C      -11.6770     3.8630    -0.5320 C.3   1 <1>  -0.0970 
 28 H       -2.2890     2.9830    -1.0510 H     1 <1>   0.0800 
 29 H       -0.8360     3.2450    -0.1240 H     1 <1>   0.0800 
 30 H       -2.8140    -0.4130     0.2060 H     1 <1>   0.0800 
 31 H       -3.4420     0.7950    -0.8790 H     1 <1>   0.0800 
 32 H        1.1100     0.4160     1.1300 H     1 <1>   0.1500 
 33 H        1.2090     2.3820    -2.6290 H     1 <1>   0.1500 
 34 H       -2.7660     4.4110     0.8700 H     1 <1>   0.0800 
 35 H       -2.1000     3.2300     1.9580 H     1 <1>   0.0800 
 36 H       -3.4020     0.9080     2.1480 H     1 <1>   0.0800 
 37 H       -4.8020     0.7160     1.1280 H     1 <1>   0.0800 
 38 H        3.3890     3.3260    -2.0880 H     1 <1>   0.1500 
 39 H        2.8400     0.5930     2.6680 H     1 <1>   0.0800 
 40 H        3.6400     2.1410     2.6720 H     1 <1>   0.0800 
 41 H        4.4210     0.7470     1.9550 H     1 <1>   0.0800 
 42 H        5.5910     2.2400     0.3080 H     1 <1>   0.0800 
 43 H        4.8120     3.6340     1.0270 H     1 <1>   0.0800 
 44 H        5.2110     3.6310    -0.6690 H     1 <1>   0.0800 
 45 H       -6.2230     2.1970     1.9010 H     1 <1>   0.3700 
 46 H       -7.0920     3.8420    -1.2690 H     1 <1>   0.1500 
 47 H       -8.4710     2.3780     2.4860 H     1 <1>   0.1500 
 48 H       -9.3890     4.2880    -1.9410 H     1 <1>   0.1500 
 49 H      -10.7760     2.8190     1.8120 H     1 <1>   0.1500 
 50 H      -11.7150     4.7060    -1.1980 H     1 <1>   0.0800 
 51 H      -12.2860     4.0820     0.3270 H     1 <1>   0.0800 
 52 H      -12.0800     3.0030    -1.0350 H     1 <1>   0.0800 
@<TRIPOS>BOND
  1   1   2  2   
  2   1   3  2   
  3   1   4  am  
  4   1   5  1   
  5   4   6  1   
  6   4   7  1   
  7   5   8  ar  
  8   5   9  ar  
  9   6  10  1   
 10   6  28  1   
 11   6  29  1   
 12   7  11  1   
 13   7  30  1   
 14   7  31  1   
 15   8  12  ar  
 16   8  32  1   
 17   9  13  ar  
 18   9  33  1   
 19  10  14  1   
 20  10  34  1   
 21  10  35  1   
 22  11  14  1   
 23  11  36  1   
 24  11  37  1   
 25  12  15  ar  
 26  12  16  1   
 27  13  15  ar  
 28  13  38  1   
 29  14  17  am  
 30  15  18  1   
 31  16  39  1   
 32  16  40  1   
 33  16  41  1   
 34  17  19  2   
 35  17  20  am  
 36  18  42  1   
 37  18  43  1   
 38  18  44  1   
 39  20  21  1   
 40  20  45  1   
 41  21  22  ar  
 42  21  23  ar  
 43  22  24  ar  
 44  22  46  1   
 45  23  25  ar  
 46  23  47  1   
 47  24  26  ar  
 48  24  48  1   
 49  25  26  ar  
 50  25  49  1   
 51  26  27  1   
 52  27  50  1   
 53  27  51  1   
 54  27  52  1   
@<TRIPOS>SUBSTRUCTURE
  1 ****   6 GROUP 4 **** **** 0

# MOE 2024.06 (io_trps.svl 2023.06)
