@<TRIPOS>MOLECULE
NONAME
45 47 1 0 0 
SMALL
USER_CHARGES


@<TRIPOS>ATOM
  1 O       -0.7150    -0.6370    -0.9110 O.2   1 <1>  -0.5700 
  2 C       -1.8070    -1.0440    -0.5920 C.2   1 <1>   0.6900 
  3 N       -2.9720    -0.3690    -0.9220 N.am  1 <1>  -0.4360 
  4 N       -1.8870    -2.2060     0.1180 N.am  1 <1>  -0.4900 
  5 C       -4.1750    -0.9210    -0.5040 C.2   1 <1>   0.4260 
  6 C       -2.9400     0.9000    -1.7060 C.3   1 <1>   0.0600 
  7 C       -3.0600    -2.7610     0.5440 C.2   1 <1>   0.7030 
  8 N       -5.4260    -0.4400    -0.7050 N.pl3 1 <1>  -0.7000 
  9 C       -4.2760    -2.0760     0.2030 C.2   1 <1>   0.2770 
 10 O       -3.0210    -3.7850     1.1950 O.2   1 <1>  -0.5700 
 11 C       -6.2910    -1.2780    -0.1430 C.cat 1 <1>   0.6560 
 12 N       -5.6400    -2.2880     0.4240 N.pl3 1 <1>  -0.7640 
 13 C       -7.8090    -1.0360    -0.1930 C.3   1 <1>   0.2540 
 14 C       -6.2190    -3.4590     1.1330 C.3   1 <1>   0.4920 
 15 N       -8.1380     0.4020    -0.3850 N.3   1 <1>  -0.8100 
 16 C       -7.0810    -4.2940     0.1840 C.2   1 <1>  -0.2760 
 17 C       -9.5240     0.5650    -0.8830 C.3   1 <1>   0.1100 
 18 C       -7.9830     1.1740     0.8720 C.3   1 <1>   0.1100 
 19 C       -7.0540    -4.2610    -1.1560 C.2   1 <1>  -0.3000 
 20 C       -8.0140    -5.2460     0.9210 C.3   1 <1>  -0.1020 
 21 C       -9.9030     2.0510    -1.0140 C.3   1 <1>   0.1200 
 22 C       -8.4010     2.6430     0.6800 C.3   1 <1>   0.1200 
 23 O       -9.7110     2.7070     0.2050 O.3   1 <1>  -0.5600 
 24 H       -1.0140    -2.6750     0.3470 H     1 <1>   0.3700 
 25 H       -1.9270     1.1770    -1.9480 H     1 <1>   0.0800 
 26 H       -3.3800     1.6960    -1.1310 H     1 <1>   0.0800 
 27 H       -3.4860     0.7760    -2.6240 H     1 <1>   0.0800 
 28 H       -5.7330     0.4140    -1.1800 H     1 <1>   0.4500 
 29 H       -8.2730    -1.4040     0.7050 H     1 <1>   0.0800 
 30 H       -8.1960    -1.6020    -1.0220 H     1 <1>   0.0800 
 31 H       -6.8220    -3.1010     1.9500 H     1 <1>   0.0800 
 32 H       -5.4430    -4.0790     1.5480 H     1 <1>   0.0800 
 33 H      -10.2210     0.0930    -0.2090 H     1 <1>   0.0800 
 34 H       -9.6220     0.0970    -1.8480 H     1 <1>   0.0800 
 35 H       -6.9590     1.1470     1.2010 H     1 <1>   0.0800 
 36 H       -8.5970     0.7490     1.6490 H     1 <1>   0.0800 
 37 H       -7.6790    -4.8780    -1.7830 H     1 <1>   0.1500 
 38 H       -6.4100    -3.6420    -1.7560 H     1 <1>   0.1500 
 39 H       -8.6980    -4.7010     1.5490 H     1 <1>   0.0800 
 40 H       -7.4480    -5.9270     1.5340 H     1 <1>   0.0800 
 41 H       -8.5930    -5.8300     0.2260 H     1 <1>   0.0800 
 42 H      -10.9410     2.1510    -1.2800 H     1 <1>   0.0800 
 43 H       -9.3050     2.5350    -1.7660 H     1 <1>   0.0800 
 44 H       -7.7540     3.1400    -0.0220 H     1 <1>   0.0800 
 45 H       -8.3670     3.1690     1.6170 H     1 <1>   0.0800 
@<TRIPOS>BOND
  1   1   2  2   
  2   2   3  am  
  3   2   4  am  
  4   3   5  1   
  5   3   6  1   
  6   4   7  am  
  7   4  24  1   
  8   5   8  1   
  9   5   9  2   
 10   6  25  1   
 11   6  26  1   
 12   6  27  1   
 13   7   9  1   
 14   7  10  2   
 15   8  11  ar  
 16   8  28  1   
 17   9  12  1   
 18  11  12  ar  
 19  11  13  1   
 20  12  14  1   
 21  13  15  1   
 22  13  29  1   
 23  13  30  1   
 24  14  16  1   
 25  14  31  1   
 26  14  32  1   
 27  15  17  1   
 28  15  18  1   
 29  16  19  2   
 30  16  20  1   
 31  17  21  1   
 32  17  33  1   
 33  17  34  1   
 34  18  22  1   
 35  18  35  1   
 36  18  36  1   
 37  19  37  1   
 38  19  38  1   
 39  20  39  1   
 40  20  40  1   
 41  20  41  1   
 42  21  23  1   
 43  21  42  1   
 44  21  43  1   
 45  22  23  1   
 46  22  44  1   
 47  22  45  1   
@<TRIPOS>SUBSTRUCTURE
  1 ****  11 GROUP 4 **** **** 0

# MOE 2024.06 (io_trps.svl 2023.06)
