@<TRIPOS>MOLECULE
NONAME
40 40 1 0 0 
SMALL
USER_CHARGES


@<TRIPOS>ATOM
  1 CL       1.4590     0.6690     0.1630 Cl    1 <1>  -0.1770 
  2 C        1.1770    -1.0580     0.2240 C.ar  1 <1>   0.1770 
  3 C        2.2510    -1.9420     0.2030 C.ar  1 <1>   0.0830 
  4 C       -0.1260    -1.5100     0.2930 C.ar  1 <1>  -0.1500 
  5 O        3.5060    -1.4220     0.1350 O.3   1 <1>  -0.3630 
  6 C        1.9890    -3.3100     0.2520 C.ar  1 <1>  -0.1500 
  7 C       -0.3720    -2.8720     0.3420 C.ar  1 <1>  -0.1500 
  8 C        4.6520    -2.2320     0.1130 C.3   1 <1>   0.1200 
  9 C        0.6830    -3.7730     0.3200 C.ar  1 <1>  -0.1440 
 10 C        5.8520    -1.2890     0.0360 C.3   1 <1>  -0.1600 
 11 C        0.4020    -5.2640     0.3760 C.3   1 <1>  -0.0970 
 12 C        7.1630    -2.0630     0.0070 C.3   1 <1>   0.3430 
 13 N        8.2860    -1.0920    -0.0670 N.4   1 <1>  -0.9060 
 14 C        9.6420    -1.6420    -0.1050 C.3   1 <1>   0.5030 
 15 C       10.5860    -0.4470    -0.1790 C.3   1 <1>  -0.2400 
 16 C        9.8110    -2.5160    -1.3470 C.3   1 <1>  -0.2400 
 17 C        9.9120    -2.4400     1.1700 C.3   1 <1>  -0.2400 
 18 H       -0.9360    -0.8030     0.3090 H     1 <1>   0.1500 
 19 H        2.7850    -4.0280     0.2400 H     1 <1>   0.1500 
 20 H       -1.3870    -3.2250     0.3970 H     1 <1>   0.1500 
 21 H        4.5960    -2.8700    -0.7530 H     1 <1>   0.0800 
 22 H        4.6670    -2.8180     1.0160 H     1 <1>   0.0800 
 23 H        5.8290    -0.6440     0.8980 H     1 <1>   0.0800 
 24 H        5.7590    -0.6960    -0.8570 H     1 <1>   0.0800 
 25 H        1.1620    -5.8130    -0.1520 H     1 <1>   0.0800 
 26 H       -0.5480    -5.4860    -0.0770 H     1 <1>   0.0800 
 27 H        0.3830    -5.5940     1.3990 H     1 <1>   0.0800 
 28 H        7.1790    -2.7160    -0.8520 H     1 <1>   0.0800 
 29 H        7.2490    -2.6640     0.8990 H     1 <1>   0.0800 
 30 H        8.2330    -0.4590     0.7370 H     1 <1>   0.4500 
 31 H        8.1680    -0.5080    -0.9000 H     1 <1>   0.4500 
 32 H       10.4120     0.1330    -1.0670 H     1 <1>   0.0800 
 33 H       11.6070    -0.7890    -0.2090 H     1 <1>   0.0800 
 34 H       10.4830     0.1860     0.6850 H     1 <1>   0.0800 
 35 H        9.5740    -1.9690    -2.2420 H     1 <1>   0.0800 
 36 H        9.2020    -3.4000    -1.2970 H     1 <1>   0.0800 
 37 H       10.8340    -2.8400    -1.4240 H     1 <1>   0.0800 
 38 H        9.7460    -1.8390     2.0470 H     1 <1>   0.0800 
 39 H       10.9390    -2.7620     1.1850 H     1 <1>   0.0800 
 40 H        9.3030    -3.3240     1.2230 H     1 <1>   0.0800 
@<TRIPOS>BOND
  1   1   2  1   
  2   2   3  ar  
  3   2   4  ar  
  4   3   5  1   
  5   3   6  ar  
  6   4   7  ar  
  7   4  18  1   
  8   5   8  1   
  9   6   9  ar  
 10   6  19  1   
 11   7   9  ar  
 12   7  20  1   
 13   8  10  1   
 14   8  21  1   
 15   8  22  1   
 16   9  11  1   
 17  10  12  1   
 18  10  23  1   
 19  10  24  1   
 20  11  25  1   
 21  11  26  1   
 22  11  27  1   
 23  12  13  1   
 24  12  28  1   
 25  12  29  1   
 26  13  14  1   
 27  13  30  1   
 28  13  31  1   
 29  14  15  1   
 30  14  16  1   
 31  14  17  1   
 32  15  32  1   
 33  15  33  1   
 34  15  34  1   
 35  16  35  1   
 36  16  36  1   
 37  16  37  1   
 38  17  38  1   
 39  17  39  1   
 40  17  40  1   
@<TRIPOS>SUBSTRUCTURE
  1 ****   8 GROUP 4 **** **** 0

# MOE 2024.06 (io_trps.svl 2023.06)
