@<TRIPOS>MOLECULE
NONAME
44 47 1 0 0 
SMALL
USER_CHARGES


@<TRIPOS>ATOM
  1 O        0.1370     0.0130     0.0690 O.2   1 <1>  -0.5700 
  2 C        0.0360     1.2230     0.1350 C.2   1 <1>   0.5440 
  3 N       -1.1930     1.8220     0.0200 N.am  1 <1>  -0.5470 
  4 C        1.2130     2.0510     0.3200 C.ar  1 <1>   0.0860 
  5 C       -2.5130     1.3720    -0.1160 C.ar  1 <1>   0.1170 
  6 C        2.4670     1.6180    -0.1150 C.ar  1 <1>  -0.1500 
  7 C        1.1440     3.3080     0.9330 C.ar  1 <1>  -0.1500 
  8 C       -3.4920     2.3700    -0.2360 C.ar  1 <1>   0.1000 
  9 C       -2.8890     0.0350    -0.1370 C.ar  1 <1>  -0.1500 
 10 C        3.5940     2.4010     0.0410 C.ar  1 <1>   0.0830 
 11 C        2.2660     4.1040     1.0890 C.ar  1 <1>  -0.1500 
 12 N       -3.1160     3.7290    -0.2090 N.pl3 1 <1>  -0.8380 
 13 C       -4.8220     1.9950    -0.3840 C.ar  1 <1>  -0.1500 
 14 C       -4.2190    -0.3210    -0.2810 C.ar  1 <1>  -0.1500 
 15 O        4.7910     1.9250    -0.3880 O.3   1 <1>  -0.3630 
 16 C        3.4940     3.6590     0.6360 C.ar  1 <1>   0.0830 
 17 C       -3.6360     4.5230     0.9370 C.3   1 <1>   0.2090 
 18 C       -3.3450     4.4800    -1.4720 C.3   1 <1>   0.2090 
 19 C       -5.1870     0.6600    -0.4060 C.ar  1 <1>  -0.1500 
 20 C        5.9500     2.5860     0.0840 C.3   1 <1>   0.1200 
 21 O        4.5770     4.4590     0.7780 O.3   1 <1>  -0.3630 
 22 C       -3.9780     5.8930     0.3670 C.3   1 <1>  -0.1600 
 23 C       -4.2720     5.6300    -1.1030 C.3   1 <1>  -0.1600 
 24 C        5.7430     4.1070     0.0550 C.3   1 <1>   0.1200 
 25 H       -1.2000     2.8450    -0.0160 H     1 <1>   0.3700 
 26 H        2.5610     0.6520    -0.5790 H     1 <1>   0.1500 
 27 H        0.2000     3.6710     1.3020 H     1 <1>   0.1500 
 28 H       -2.1470    -0.7350    -0.0410 H     1 <1>   0.1500 
 29 H        2.1970     5.0680     1.5590 H     1 <1>   0.1500 
 30 H       -5.5750     2.7540    -0.4820 H     1 <1>   0.1500 
 31 H       -4.4960    -1.3600    -0.2960 H     1 <1>   0.1500 
 32 H       -2.8910     4.5970     1.7100 H     1 <1>   0.0800 
 33 H       -4.5180     4.0560     1.3420 H     1 <1>   0.0800 
 34 H       -3.7770     3.8530    -2.2340 H     1 <1>   0.0800 
 35 H       -2.4010     4.8600    -1.8230 H     1 <1>   0.0800 
 36 H       -6.2200     0.3850    -0.5200 H     1 <1>   0.1500 
 37 H        6.7740     2.3000    -0.5440 H     1 <1>   0.0800 
 38 H        6.1380     2.2530     1.0890 H     1 <1>   0.0800 
 39 H       -3.1190     6.5330     0.4600 H     1 <1>   0.0800 
 40 H       -4.8100     6.3420     0.8800 H     1 <1>   0.0800 
 41 H       -5.2920     5.3090    -1.2230 H     1 <1>   0.0800 
 42 H       -4.1000     6.4950    -1.7200 H     1 <1>   0.0800 
 43 H        5.6230     4.4490    -0.9570 H     1 <1>   0.0800 
 44 H        6.5770     4.6160     0.5040 H     1 <1>   0.0800 
@<TRIPOS>BOND
  1   1   2  2   
  2   2   3  am  
  3   2   4  1   
  4   3   5  1   
  5   3  25  1   
  6   4   6  ar  
  7   4   7  ar  
  8   5   8  ar  
  9   5   9  ar  
 10   6  10  ar  
 11   6  26  1   
 12   7  11  ar  
 13   7  27  1   
 14   8  12  1   
 15   8  13  ar  
 16   9  14  ar  
 17   9  28  1   
 18  10  15  1   
 19  10  16  ar  
 20  11  16  ar  
 21  11  29  1   
 22  12  17  1   
 23  12  18  1   
 24  13  19  ar  
 25  13  30  1   
 26  14  19  ar  
 27  14  31  1   
 28  15  20  1   
 29  16  21  1   
 30  17  22  1   
 31  17  32  1   
 32  17  33  1   
 33  18  23  1   
 34  18  34  1   
 35  18  35  1   
 36  19  36  1   
 37  20  24  1   
 38  20  37  1   
 39  20  38  1   
 40  21  24  1   
 41  22  23  1   
 42  22  39  1   
 43  22  40  1   
 44  23  41  1   
 45  23  42  1   
 46  24  43  1   
 47  24  44  1   
@<TRIPOS>SUBSTRUCTURE
  1 ****   3 GROUP 4 **** **** 0

# MOE 2024.06 (io_trps.svl 2023.06)
