@<TRIPOS>MOLECULE
NONAME
46 48 1 0 0 
SMALL
USER_CHARGES


@<TRIPOS>ATOM
  1 BR       4.5020    -4.0990     3.3540 Br    1 <1>  -0.1110 
  2 C        4.8920    -2.8790     1.9160 C.ar  1 <1>   0.1110 
  3 C        5.0080    -3.3780     0.6320 C.ar  1 <1>  -0.1500 
  4 C        5.0440    -1.5360     2.2040 C.ar  1 <1>  -0.1500 
  5 C        5.2870    -2.5000    -0.4010 C.ar  1 <1>  -0.1500 
  6 C        5.3240    -0.6670     1.1640 C.ar  1 <1>  -0.1500 
  7 C        5.4530    -1.1400    -0.1360 C.ar  1 <1>   0.0830 
  8 O        5.7470    -0.2120    -1.0820 O.3   1 <1>  -0.3630 
  9 C        6.0860    -0.5610    -2.4210 C.3   1 <1>   0.2610 
 10 C        7.3630    -1.4240    -2.5140 C.2   1 <1>   0.5690 
 11 C        6.1930     0.7270    -3.2600 C.3   1 <1>  -0.1600 
 12 O        7.2770    -2.4180    -3.2010 O.2   1 <1>  -0.5700 
 13 N        8.5430    -1.1190    -1.8700 N.am  1 <1>  -0.6600 
 14 C        4.9080     1.5690    -3.2430 C.3   1 <1>  -0.2400 
 15 C        8.7700     0.0300    -0.9320 C.3   1 <1>   0.1400 
 16 C        9.7030    -2.0710    -1.8820 C.3   1 <1>   0.1400 
 17 C        9.0610    -0.4810     0.4880 C.3   1 <1>   0.2090 
 18 C       10.0260    -2.5700    -0.4620 C.3   1 <1>   0.2090 
 19 N       10.2300    -1.4150     0.4690 N.pl3 1 <1>  -0.8380 
 20 C       11.4850    -1.0430     0.9040 C.ar  1 <1>   0.7200 
 21 N       12.4140    -1.9960     0.9600 N.ar  1 <1>  -0.6200 
 22 N       11.6650     0.2390     1.2230 N.ar  1 <1>  -0.6200 
 23 C       13.6000    -1.6330     1.3800 C.ar  1 <1>   0.1600 
 24 C       12.8620     0.5740     1.6390 C.ar  1 <1>   0.1600 
 25 C       13.8830    -0.3390     1.7390 C.ar  1 <1>  -0.1500 
 26 H        4.8810    -4.4300     0.4470 H     1 <1>   0.1500 
 27 H        4.9440    -1.1840     3.2150 H     1 <1>   0.1500 
 28 H        5.3710    -2.8970    -1.3960 H     1 <1>   0.1500 
 29 H        5.4460     0.3840     1.3550 H     1 <1>   0.1500 
 30 H        5.2660    -1.1380    -2.8080 H     1 <1>   0.0800 
 31 H        6.4080     0.4460    -4.2770 H     1 <1>   0.0800 
 32 H        7.0190     1.3190    -2.9130 H     1 <1>   0.0800 
 33 H        4.0730     0.9920    -3.6000 H     1 <1>   0.0800 
 34 H        5.0240     2.4310    -3.8780 H     1 <1>   0.0800 
 35 H        4.6910     1.9100    -2.2460 H     1 <1>   0.0800 
 36 H        7.9300     0.6950    -0.9030 H     1 <1>   0.0800 
 37 H        9.6190     0.5990    -1.2700 H     1 <1>   0.0800 
 38 H       10.5670    -1.5700    -2.2800 H     1 <1>   0.0800 
 39 H        9.4980    -2.9180    -2.5120 H     1 <1>   0.0800 
 40 H        8.1990    -1.0070     0.8600 H     1 <1>   0.0800 
 41 H        9.2360     0.3510     1.1460 H     1 <1>   0.0800 
 42 H       10.8960    -3.2020    -0.5030 H     1 <1>   0.0800 
 43 H        9.2080    -3.1700    -0.1030 H     1 <1>   0.0800 
 44 H       14.3660    -2.3880     1.4390 H     1 <1>   0.1500 
 45 H       13.0330     1.6030     1.9070 H     1 <1>   0.1500 
 46 H       14.8590    -0.0530     2.0820 H     1 <1>   0.1500 
@<TRIPOS>BOND
  1   1   2  1   
  2   2   3  ar  
  3   2   4  ar  
  4   3   5  ar  
  5   3  26  1   
  6   4   6  ar  
  7   4  27  1   
  8   5   7  ar  
  9   5  28  1   
 10   6   7  ar  
 11   6  29  1   
 12   7   8  1   
 13   8   9  1   
 14   9  10  1   
 15   9  11  1   
 16   9  30  1   
 17  10  12  2   
 18  10  13  am  
 19  11  14  1   
 20  11  31  1   
 21  11  32  1   
 22  13  15  1   
 23  13  16  1   
 24  14  33  1   
 25  14  34  1   
 26  14  35  1   
 27  15  17  1   
 28  15  36  1   
 29  15  37  1   
 30  16  18  1   
 31  16  38  1   
 32  16  39  1   
 33  17  19  1   
 34  17  40  1   
 35  17  41  1   
 36  18  19  1   
 37  18  42  1   
 38  18  43  1   
 39  19  20  1   
 40  20  21  ar  
 41  20  22  ar  
 42  21  23  ar  
 43  22  24  ar  
 44  23  25  ar  
 45  23  44  1   
 46  24  25  ar  
 47  24  45  1   
 48  25  46  1   
@<TRIPOS>SUBSTRUCTURE
  1 ****  17 GROUP 4 **** **** 0

# MOE 2024.06 (io_trps.svl 2023.06)
