@<TRIPOS>MOLECULE
NONAME
49 54 1 0 0 
SMALL
USER_CHARGES


@<TRIPOS>ATOM
  1 CL       0.0550     0.2180     0.3470 Cl    1 <1>  -0.1230 
  2 C       -1.2840     1.2320     0.8670 C.2   1 <1>   0.1230 
  3 C       -2.5910     0.9160     0.7200 C.2   1 <1>  -0.0260 
  4 C       -1.2040     2.4750     1.4970 C.2   1 <1>   0.2030 
  5 N       -3.2290    -0.1800     0.1650 N.2   1 <1>  -0.5760 
  6 N       -3.2630     1.9800     1.2710 N.pl3 1 <1>   0.6010 
  7 N       -2.4320     2.9280     1.7370 N.2   1 <1>  -0.7070 
  8 C        0.0360     3.1660     1.8280 C.2   1 <1>   0.7160 
  9 C       -4.5210    -0.1670     0.1890 C.2   1 <1>   0.3760 
 10 C       -4.6440     1.9720     1.2850 C.2   1 <1>  -0.1810 
 11 O        0.0830     3.9730     2.7410 O.2   1 <1>  -0.5700 
 12 N        1.1780     2.9200     1.1070 N.am  1 <1>  -0.4930 
 13 C       -5.2820     0.9010     0.7460 C.2   1 <1>  -0.1360 
 14 C        2.4740     3.4780     1.2360 C.2   1 <1>   0.0630 
 15 C        2.9410     4.4780     2.0890 C.2   1 <1>   0.1390 
 16 C        3.5540     3.1210     0.5130 C.2   1 <1>  -0.3020 
 17 N        4.2040     4.7250     1.9130 N.2   1 <1>  -0.7070 
 18 N        4.5990     3.8810     0.9300 N.pl3 1 <1>   0.3140 
 19 C        6.0210     3.8570     0.4280 C.3   1 <1>   0.2560 
 20 C        6.2180     2.8040    -0.6930 C.3   1 <1>  -0.1600 
 21 C        6.9800     3.5150     1.5930 C.3   1 <1>  -0.1600 
 22 C        6.3980     5.2480    -0.1360 C.3   1 <1>  -0.1600 
 23 C        7.6770     2.8010    -1.1870 C.3   1 <1>  -0.0800 
 24 C        8.4430     3.5170     1.1100 C.3   1 <1>  -0.0800 
 25 C        7.8580     5.2560    -0.6270 C.3   1 <1>  -0.0800 
 26 C        8.6090     2.4690    -0.0060 C.3   1 <1>  -0.1600 
 27 C        8.0280     4.1980    -1.7330 C.3   1 <1>  -0.1600 
 28 C        8.7880     4.9100     0.5510 C.3   1 <1>  -0.1600 
 29 H       -5.0610    -0.9980    -0.2300 H     1 <1>   0.0600 
 30 H       -5.1210     2.8250     1.7280 H     1 <1>   0.1500 
 31 H        1.1000     2.2010     0.3900 H     1 <1>   0.3700 
 32 H       -6.3540     0.8220     0.7200 H     1 <1>   0.1500 
 33 H        2.3310     4.9930     2.8120 H     1 <1>   0.1500 
 34 H        3.6280     2.3800    -0.2580 H     1 <1>   0.1500 
 35 H        5.5700     3.0270    -1.5220 H     1 <1>   0.0800 
 36 H        5.9740     1.8240    -0.3210 H     1 <1>   0.0800 
 37 H        6.8670     4.2420     2.3800 H     1 <1>   0.0800 
 38 H        6.7330     2.5500     1.9960 H     1 <1>   0.0800 
 39 H        6.2780     5.9940     0.6300 H     1 <1>   0.0800 
 40 H        5.7410     5.5000    -0.9500 H     1 <1>   0.0800 
 41 H        7.8000     2.0660    -1.9640 H     1 <1>   0.0800 
 42 H        9.0980     3.2820     1.9320 H     1 <1>   0.0800 
 43 H        8.1070     6.2300    -1.0130 H     1 <1>   0.0800 
 44 H        9.6310     2.4570    -0.3430 H     1 <1>   0.0800 
 45 H        8.3820     1.4890     0.3760 H     1 <1>   0.0800 
 46 H        7.3920     4.4360    -2.5670 H     1 <1>   0.0800 
 47 H        9.0440     4.2050    -2.0880 H     1 <1>   0.0800 
 48 H        9.8130     4.9270     0.2230 H     1 <1>   0.0800 
 49 H        8.6830     5.6490     1.3270 H     1 <1>   0.0800 
@<TRIPOS>BOND
  1   1   2  1   
  2   2   3  2   
  3   2   4  1   
  4   3   5  1   
  5   3   6  1   
  6   4   7  2   
  7   4   8  1   
  8   5   9  2   
  9   6   7  1   
 10   6  10  1   
 11   8  11  2   
 12   8  12  am  
 13   9  13  1   
 14   9  29  1   
 15  10  13  2   
 16  10  30  1   
 17  12  14  1   
 18  12  31  1   
 19  13  32  1   
 20  14  15  1   
 21  14  16  2   
 22  15  17  2   
 23  15  33  1   
 24  16  18  1   
 25  16  34  1   
 26  17  18  1   
 27  18  19  1   
 28  19  20  1   
 29  19  21  1   
 30  19  22  1   
 31  20  23  1   
 32  20  35  1   
 33  20  36  1   
 34  21  24  1   
 35  21  37  1   
 36  21  38  1   
 37  22  25  1   
 38  22  39  1   
 39  22  40  1   
 40  23  26  1   
 41  23  27  1   
 42  23  41  1   
 43  24  26  1   
 44  24  28  1   
 45  24  42  1   
 46  25  27  1   
 47  25  28  1   
 48  25  43  1   
 49  26  44  1   
 50  26  45  1   
 51  27  46  1   
 52  27  47  1   
 53  28  48  1   
 54  28  49  1   
@<TRIPOS>SUBSTRUCTURE
  1 ****  14 GROUP 4 **** **** 0

# MOE 2024.06 (io_trps.svl 2023.06)
