@<TRIPOS>MOLECULE
NONAME
39 39 1 0 0 
SMALL
USER_CHARGES


@<TRIPOS>ATOM
  1 O       -0.0750     1.3540     1.7100 O.2   1 <1>  -0.5700 
  2 C       -0.1610     2.4040     1.1090 C.2   1 <1>   0.5440 
  3 N        1.0130     3.0570     0.8950 N.am  1 <1>  -0.7300 
  4 C       -1.4530     2.9120     0.6870 C.ar  1 <1>   0.0860 
  5 C        1.6240     3.4660    -0.3830 C.3   1 <1>   0.3000 
  6 C       -1.7860     4.2570     0.8250 C.ar  1 <1>  -0.1500 
  7 C       -2.4110     2.0670     0.1330 C.ar  1 <1>  -0.1500 
  8 C        2.4480     4.7490    -0.1450 C.3   1 <1>  -0.1600 
  9 C        2.5660     2.3310    -0.7860 C.3   1 <1>  -0.2400 
 10 C        0.5940     3.6660    -1.5020 C.3   1 <1>  -0.2400 
 11 C       -3.0090     4.7510     0.4110 C.ar  1 <1>   0.0830 
 12 C       -3.6420     2.5400    -0.2870 C.ar  1 <1>   0.0830 
 13 C        1.6630     5.9530     0.4070 C.3   1 <1>  -0.2400 
 14 O       -3.2140     6.0810     0.5860 O.3   1 <1>  -0.3630 
 15 C       -3.9460     3.8900    -0.1510 C.ar  1 <1>  -0.1500 
 16 O       -4.4910     1.6260    -0.8210 O.3   1 <1>  -0.3620 
 17 C       -4.4330     6.6940     0.2280 C.3   1 <1>   0.0400 
 18 C       -5.7860     1.9820    -1.2510 C.3   1 <1>   0.0400 
 19 H        1.7360     2.7180     1.5280 H     1 <1>   0.3700 
 20 H       -1.0740     4.9320     1.2630 H     1 <1>   0.1500 
 21 H       -2.1900     1.0200     0.0300 H     1 <1>   0.1500 
 22 H        2.9060     5.0410    -1.0740 H     1 <1>   0.0800 
 23 H        3.2470     4.5260     0.5400 H     1 <1>   0.0800 
 24 H        2.0120     1.4200    -0.9290 H     1 <1>   0.0800 
 25 H        3.3140     2.1670    -0.0320 H     1 <1>   0.0800 
 26 H        3.0640     2.5700    -1.7080 H     1 <1>   0.0800 
 27 H        0.0560     2.7560    -1.6950 H     1 <1>   0.0800 
 28 H        1.0940     3.9500    -2.4100 H     1 <1>   0.0800 
 29 H       -0.1040     4.4440    -1.2610 H     1 <1>   0.0800 
 30 H        0.8810     6.2510    -0.2670 H     1 <1>   0.0800 
 31 H        2.3270     6.7890     0.5400 H     1 <1>   0.0800 
 32 H        1.2290     5.7160     1.3620 H     1 <1>   0.0800 
 33 H       -4.8940     4.2640    -0.4750 H     1 <1>   0.1500 
 34 H       -4.3630     7.7390     0.4690 H     1 <1>   0.0800 
 35 H       -5.2300     6.2420     0.7910 H     1 <1>   0.0800 
 36 H       -4.5880     6.5720    -0.8290 H     1 <1>   0.0800 
 37 H       -6.2710     1.0960    -1.6180 H     1 <1>   0.0800 
 38 H       -5.7050     2.7080    -2.0410 H     1 <1>   0.0800 
 39 H       -6.3350     2.3790    -0.4150 H     1 <1>   0.0800 
@<TRIPOS>BOND
  1   1   2  2   
  2   2   3  am  
  3   2   4  1   
  4   3   5  1   
  5   3  19  1   
  6   4   6  ar  
  7   4   7  ar  
  8   5   8  1   
  9   5   9  1   
 10   5  10  1   
 11   6  11  ar  
 12   6  20  1   
 13   7  12  ar  
 14   7  21  1   
 15   8  13  1   
 16   8  22  1   
 17   8  23  1   
 18   9  24  1   
 19   9  25  1   
 20   9  26  1   
 21  10  27  1   
 22  10  28  1   
 23  10  29  1   
 24  11  14  1   
 25  11  15  ar  
 26  12  15  ar  
 27  12  16  1   
 28  13  30  1   
 29  13  31  1   
 30  13  32  1   
 31  14  17  1   
 32  15  33  1   
 33  16  18  1   
 34  17  34  1   
 35  17  35  1   
 36  17  36  1   
 37  18  37  1   
 38  18  38  1   
 39  18  39  1   
@<TRIPOS>SUBSTRUCTURE
  1 ****   4 GROUP 4 **** **** 0

# MOE 2024.06 (io_trps.svl 2023.06)
