@<TRIPOS>MOLECULE
NONAME
34 35 1 0 0 
SMALL
USER_CHARGES


@<TRIPOS>ATOM
  1 O       -0.0570    -0.0160     0.6890 O.3   1 <1>  -0.5600 
  2 C       -1.2430    -0.5630     0.1990 C.3   1 <1>   0.5600 
  3 C       -0.3060     1.2800     1.1290 C.3   1 <1>   0.2000 
  4 O       -2.0890     0.5110    -0.0080 O.3   1 <1>  -0.5600 
  5 C       -1.8010    -1.5930     1.1720 C.3   1 <1>  -0.1600 
  6 C       -0.9810    -1.3330    -1.0830 C.3   1 <1>  -0.1600 
  7 C       -1.8060     1.4400     0.9630 C.3   1 <1>   0.1200 
  8 C        0.4690     2.2800     0.2440 C.3   1 <1>   0.3430 
  9 C       -1.1450    -2.9250     0.7760 C.3   1 <1>  -0.1600 
 10 C       -0.5270    -2.7200    -0.6160 C.3   1 <1>  -0.1600 
 11 N        1.9180     1.9330     0.0780 N.4   1 <1>  -0.9060 
 12 C        2.1700     0.8470    -0.9100 C.3   1 <1>   0.3430 
 13 C        3.6280     0.9320    -1.3950 C.3   1 <1>   0.1200 
 14 O        4.0040     2.2750    -1.4890 O.3   1 <1>  -0.6800 
 15 H       -0.0160     1.3690     2.1610 H     1 <1>   0.0800 
 16 H       -2.8630    -1.6730     1.0170 H     1 <1>   0.0800 
 17 H       -1.6030    -1.3360     2.1960 H     1 <1>   0.0800 
 18 H       -0.2590    -0.8500    -1.7130 H     1 <1>   0.0800 
 19 H       -1.9110    -1.4370    -1.6140 H     1 <1>   0.0800 
 20 H       -2.1110     2.4180     0.6320 H     1 <1>   0.0800 
 21 H       -2.3340     1.1730     1.8640 H     1 <1>   0.0800 
 22 H        0.3840     3.2590     0.6860 H     1 <1>   0.0800 
 23 H       -0.0040     2.3210    -0.7240 H     1 <1>   0.0800 
 24 H       -1.8780    -3.7140     0.7600 H     1 <1>   0.0800 
 25 H       -0.3750    -3.1870     1.4830 H     1 <1>   0.0800 
 26 H        0.5460    -2.7410    -0.5330 H     1 <1>   0.0800 
 27 H       -0.8370    -3.4870    -1.3050 H     1 <1>   0.0800 
 28 H        2.3430     1.6770     0.9750 H     1 <1>   0.4500 
 29 H        2.4680     2.7290    -0.2940 H     1 <1>   0.4500 
 30 H        1.5210     0.9760    -1.7600 H     1 <1>   0.0800 
 31 H        1.9680    -0.1210    -0.4810 H     1 <1>   0.0800 
 32 H        3.7310     0.4690    -2.3620 H     1 <1>   0.0800 
 33 H        4.2870     0.4430    -0.6980 H     1 <1>   0.0800 
 34 H        4.8990     2.3610    -1.8880 H     1 <1>   0.4000 
@<TRIPOS>BOND
  1   1   2  1   
  2   1   3  1   
  3   2   4  1   
  4   2   5  1   
  5   2   6  1   
  6   3   7  1   
  7   3   8  1   
  8   3  15  1   
  9   4   7  1   
 10   5   9  1   
 11   5  16  1   
 12   5  17  1   
 13   6  10  1   
 14   6  18  1   
 15   6  19  1   
 16   7  20  1   
 17   7  21  1   
 18   8  11  1   
 19   8  22  1   
 20   8  23  1   
 21   9  10  1   
 22   9  24  1   
 23   9  25  1   
 24  10  26  1   
 25  10  27  1   
 26  11  12  1   
 27  11  28  1   
 28  11  29  1   
 29  12  13  1   
 30  12  30  1   
 31  12  31  1   
 32  13  14  1   
 33  13  32  1   
 34  13  33  1   
 35  14  34  1   
@<TRIPOS>SUBSTRUCTURE
  1 ****   1 GROUP 4 **** **** 0

# MOE 2024.06 (io_trps.svl 2023.06)
