@<TRIPOS>MOLECULE
NONAME
57 61 1 0 0 
SMALL
USER_CHARGES


@<TRIPOS>ATOM
  1 O       -0.6110     0.8780     0.3440 O.2   1 <1>  -0.5700 
  2 C       -1.4580     1.6720     0.0120 C.2   1 <1>   0.5690 
  3 N       -2.7640     1.3870    -0.2860 N.am  1 <1>  -0.2370 
  4 C       -1.1710     3.1710    -0.1250 C.3   1 <1>   0.2510 
  5 C       -3.3450     0.0970    -0.2650 C.ar  1 <1>   0.1170 
  6 C       -3.4240     2.5460    -0.6010 C.2   1 <1>   0.5690 
  7 N       -0.6860     3.8000     1.1250 N.3   1 <1>  -0.9000 
  8 C       -2.5340     3.7580    -0.4950 C.3   1 <1>  -0.0990 
  9 C       -2.6990    -0.9890    -0.8470 C.ar  1 <1>  -0.1500 
 10 C       -4.5800    -0.1200     0.3380 C.ar  1 <1>  -0.1500 
 11 O       -4.5740     2.6450    -0.9430 O.2   1 <1>  -0.5700 
 12 C        0.6340     4.4550     1.1010 C.3   1 <1>   0.1900 
 13 C       -3.2680    -2.2500    -0.8270 C.ar  1 <1>  -0.1500 
 14 C       -5.1510    -1.3800     0.3580 C.ar  1 <1>  -0.1500 
 15 C        0.6690     5.8680     0.4240 C.3   1 <1>   0.0000 
 16 C        1.6980     3.4510     0.6310 C.3   1 <1>  -0.2400 
 17 C       -4.4970    -2.4540    -0.2230 C.ar  1 <1>  -0.1430 
 18 C        2.0070     6.5710     0.7830 C.3   1 <1>  -0.1600 
 19 C        0.5540     5.8530    -1.1240 C.3   1 <1>  -0.1600 
 20 C       -0.4790     6.7490     0.9840 C.3   1 <1>  -0.1600 
 21 C       -5.1240    -3.8360    -0.2030 C.3   1 <1>  -0.0970 
 22 C        2.0720     8.0010     0.2140 C.3   1 <1>  -0.0800 
 23 C        0.6120     7.2790    -1.7050 C.3   1 <1>  -0.0800 
 24 C       -0.4310     8.1770     0.4080 C.3   1 <1>  -0.0800 
 25 C        1.9480     7.9360    -1.3180 C.3   1 <1>  -0.1600 
 26 C        0.9100     8.8290     0.7870 C.3   1 <1>  -0.1600 
 27 C       -0.5480     8.1080    -1.1250 C.3   1 <1>  -0.1600 
 28 H       -0.4790     3.3030    -0.9350 H     1 <1>   0.0800 
 29 H       -0.6050     3.0410     1.8160 H     1 <1>   0.3600 
 30 H       -2.5000     4.2640    -1.4410 H     1 <1>   0.0800 
 31 H       -2.9130     4.4160     0.2650 H     1 <1>   0.0800 
 32 H       -1.7420    -0.8530    -1.3170 H     1 <1>   0.1500 
 33 H       -5.1050     0.7020     0.7910 H     1 <1>   0.1500 
 34 H        0.8610     4.6440     2.1380 H     1 <1>   0.0800 
 35 H       -2.7480    -3.0740    -1.2840 H     1 <1>   0.1500 
 36 H       -6.1090    -1.5200     0.8270 H     1 <1>   0.1500 
 37 H        1.6500     3.2760    -0.4260 H     1 <1>   0.0800 
 38 H        1.5760     2.5140     1.1450 H     1 <1>   0.0800 
 39 H        2.6800     3.8160     0.8610 H     1 <1>   0.0800 
 40 H        2.8380     6.0150     0.3890 H     1 <1>   0.0800 
 41 H        2.1220     6.6140     1.8520 H     1 <1>   0.0800 
 42 H       -0.3780     5.4180    -1.4230 H     1 <1>   0.0800 
 43 H        1.3480     5.2690    -1.5520 H     1 <1>   0.0800 
 44 H       -0.4130     6.7940     2.0560 H     1 <1>   0.0800 
 45 H       -1.4300     6.3120     0.7410 H     1 <1>   0.0800 
 46 H       -4.3610    -4.5950    -0.1910 H     1 <1>   0.0800 
 47 H       -5.7340    -3.9710    -1.0780 H     1 <1>   0.0800 
 48 H       -5.7370    -3.9590     0.6710 H     1 <1>   0.0800 
 49 H        3.0100     8.4570     0.4830 H     1 <1>   0.0800 
 50 H        0.5270     7.2380    -2.7780 H     1 <1>   0.0800 
 51 H       -1.2430     8.7580     0.8090 H     1 <1>   0.0800 
 52 H        2.7660     7.3690    -1.7280 H     1 <1>   0.0800 
 53 H        1.9990     8.9290    -1.7300 H     1 <1>   0.0800 
 54 H        0.9500     9.8320     0.3990 H     1 <1>   0.0800 
 55 H        0.9960     8.8880     1.8580 H     1 <1>   0.0800 
 56 H       -1.4890     7.6630    -1.3990 H     1 <1>   0.0800 
 57 H       -0.5260     9.1030    -1.5360 H     1 <1>   0.0800 
@<TRIPOS>BOND
  1   1   2  2   
  2   2   3  am  
  3   2   4  1   
  4   3   5  1   
  5   3   6  am  
  6   4   7  1   
  7   4   8  1   
  8   4  28  1   
  9   5   9  ar  
 10   5  10  ar  
 11   6   8  1   
 12   6  11  2   
 13   7  12  1   
 14   7  29  1   
 15   8  30  1   
 16   8  31  1   
 17   9  13  ar  
 18   9  32  1   
 19  10  14  ar  
 20  10  33  1   
 21  12  15  1   
 22  12  16  1   
 23  12  34  1   
 24  13  17  ar  
 25  13  35  1   
 26  14  17  ar  
 27  14  36  1   
 28  15  18  1   
 29  15  19  1   
 30  15  20  1   
 31  16  37  1   
 32  16  38  1   
 33  16  39  1   
 34  17  21  1   
 35  18  22  1   
 36  18  40  1   
 37  18  41  1   
 38  19  23  1   
 39  19  42  1   
 40  19  43  1   
 41  20  24  1   
 42  20  44  1   
 43  20  45  1   
 44  21  46  1   
 45  21  47  1   
 46  21  48  1   
 47  22  25  1   
 48  22  26  1   
 49  22  49  1   
 50  23  25  1   
 51  23  27  1   
 52  23  50  1   
 53  24  26  1   
 54  24  27  1   
 55  24  51  1   
 56  25  52  1   
 57  25  53  1   
 58  26  54  1   
 59  26  55  1   
 60  27  56  1   
 61  27  57  1   
@<TRIPOS>SUBSTRUCTURE
  1 ****   4 GROUP 4 **** **** 0

# MOE 2024.06 (io_trps.svl 2023.06)
