@<TRIPOS>MOLECULE
NONAME
48 50 1 0 0 
SMALL
USER_CHARGES


@<TRIPOS>ATOM
  1 P        0.1450     0.4220     0.3720 P.3   1 <1>   1.2420 
  2 O       -0.3180     0.2780     1.7550 O.2   1 <1>  -0.7000 
  3 O       -0.8910     1.2650    -0.5190 O.3   1 <1>  -0.5510 
  4 O        0.1160    -0.9780    -0.4200 O.3   1 <1>  -0.5510 
  5 C        1.7810     1.1700     0.0680 C.3   1 <1>   0.4330 
  6 C       -2.1480     0.7370    -0.7190 C.3   1 <1>   0.2000 
  7 C       -1.1120    -1.5820    -0.6310 C.3   1 <1>   0.1200 
  8 N        3.0100     0.4900     0.6160 N.pl3 1 <1>  -0.8690 
  9 C        1.9130     2.6120     0.5520 C.ar  1 <1>  -0.1440 
 10 C       -2.0130    -0.6230    -1.4200 C.3   1 <1>  -0.1600 
 11 C       -2.9330     1.7400    -1.5580 C.3   1 <1>  -0.2400 
 12 C        3.9150     0.0020    -0.3080 C.ar  1 <1>   0.1000 
 13 C        1.6330     2.9500     1.8700 C.ar  1 <1>  -0.1500 
 14 C        2.3340     3.6060    -0.3200 C.ar  1 <1>  -0.1500 
 15 C        5.1500     0.6140    -0.4620 C.ar  1 <1>  -0.1500 
 16 C        3.6010    -1.0930    -1.0990 C.ar  1 <1>  -0.1500 
 17 C        1.7650     4.2570     2.3020 C.ar  1 <1>  -0.1500 
 18 C        2.4660     4.9130     0.1150 C.ar  1 <1>  -0.1500 
 19 C        6.0700     0.1570    -1.3980 C.ar  1 <1>  -0.1440 
 20 C        4.5010    -1.5600    -2.0370 C.ar  1 <1>  -0.1500 
 21 C        2.1830     5.2460     1.4280 C.ar  1 <1>  -0.1440 
 22 C        5.7280    -0.9370    -2.1890 C.ar  1 <1>  -0.1500 
 23 C        7.4280     0.8550    -1.5610 C.3   1 <1>   1.1630 
 24 C        2.3240     6.6800     1.9040 C.3   1 <1>  -0.0970 
 25 F        7.8890     1.3640    -0.4230 F     1 <1>  -0.3400 
 26 F        8.3760     0.0420    -2.0110 F     1 <1>  -0.3400 
 27 F        7.3650     1.8640    -2.4200 F     1 <1>  -0.3400 
 28 H        1.9020     1.1990    -0.9990 H     1 <1>   0.0800 
 29 H       -2.6160     0.6200     0.2460 H     1 <1>   0.0800 
 30 H       -1.5410    -1.8160     0.3300 H     1 <1>   0.0800 
 31 H       -0.9460    -2.4940    -1.1770 H     1 <1>   0.0800 
 32 H        3.4260     1.1220     1.3100 H     1 <1>   0.4000 
 33 H       -1.6150    -0.4900    -2.4100 H     1 <1>   0.0800 
 34 H       -2.9870    -1.0660    -1.5200 H     1 <1>   0.0800 
 35 H       -2.4530     1.8960    -2.5080 H     1 <1>   0.0800 
 36 H       -3.0000     2.6780    -1.0360 H     1 <1>   0.0800 
 37 H       -3.9300     1.3760    -1.7310 H     1 <1>   0.0800 
 38 H        1.3090     2.1990     2.5730 H     1 <1>   0.1500 
 39 H        2.5660     3.3710    -1.3450 H     1 <1>   0.1500 
 40 H        5.3810     1.4620     0.1600 H     1 <1>   0.1500 
 41 H        2.6520    -1.5810    -0.9710 H     1 <1>   0.1500 
 42 H        1.5370     4.5010     3.3260 H     1 <1>   0.1500 
 43 H        2.7910     5.6710    -0.5760 H     1 <1>   0.1500 
 44 H        4.2480    -2.4100    -2.6470 H     1 <1>   0.1500 
 45 H        6.4150    -1.3150    -2.9280 H     1 <1>   0.1500 
 46 H        2.5800     6.7070     2.9470 H     1 <1>   0.0800 
 47 H        1.3950     7.2020     1.7600 H     1 <1>   0.0800 
 48 H        3.0960     7.1860     1.3520 H     1 <1>   0.0800 
@<TRIPOS>BOND
  1   1   2  2   
  2   1   3  1   
  3   1   4  1   
  4   1   5  1   
  5   3   6  1   
  6   4   7  1   
  7   5   8  1   
  8   5   9  1   
  9   5  28  1   
 10   6  10  1   
 11   6  11  1   
 12   6  29  1   
 13   7  10  1   
 14   7  30  1   
 15   7  31  1   
 16   8  12  1   
 17   8  32  1   
 18   9  13  ar  
 19   9  14  ar  
 20  10  33  1   
 21  10  34  1   
 22  11  35  1   
 23  11  36  1   
 24  11  37  1   
 25  12  15  ar  
 26  12  16  ar  
 27  13  17  ar  
 28  13  38  1   
 29  14  18  ar  
 30  14  39  1   
 31  15  19  ar  
 32  15  40  1   
 33  16  20  ar  
 34  16  41  1   
 35  17  21  ar  
 36  17  42  1   
 37  18  21  ar  
 38  18  43  1   
 39  19  22  ar  
 40  19  23  1   
 41  20  22  ar  
 42  20  44  1   
 43  21  24  1   
 44  22  45  1   
 45  23  25  1   
 46  23  26  1   
 47  23  27  1   
 48  24  46  1   
 49  24  47  1   
 50  24  48  1   
@<TRIPOS>SUBSTRUCTURE
  1 ****   5 GROUP 4 **** **** 0

# MOE 2024.06 (io_trps.svl 2023.06)
