@<TRIPOS>MOLECULE
NONAME
49 51 1 0 0 
SMALL
USER_CHARGES


@<TRIPOS>ATOM
  1 O       -8.2380    -0.8550    -0.4250 O.2   1 <1>  -0.5700 
  2 C       -8.0180     0.2720    -0.0120 C.2   1 <1>   0.6160 
  3 N       -6.7860     0.5130     0.5620 N.am  1 <1>  -0.6600 
  4 C       -9.0380     1.2580    -0.1270 C.2   1 <1>  -0.1360 
  5 C       -5.6130    -0.3520     0.2640 C.3   1 <1>   0.1400 
  6 C       -6.6460     1.2570     1.8480 C.3   1 <1>   0.1400 
  7 C       -8.9510     2.6170    -0.2210 C.2   1 <1>   0.0720 
  8 C       -4.3100     0.4540     0.3990 C.3   1 <1>   0.1200 
  9 C       -5.2920     1.9830     1.8990 C.3   1 <1>   0.1200 
 10 N       -7.7110     3.2230    -0.3120 N.pl3 1 <1>  -0.8690 
 11 C      -10.1120     3.4920    -0.2740 C.ar  1 <1>   0.0280 
 12 O       -4.2400     1.0930     1.6450 O.3   1 <1>  -0.5600 
 13 C       -7.4800     4.6440    -0.6460 C.3   1 <1>   0.3690 
 14 C      -10.0120     4.7370    -0.8990 C.ar  1 <1>  -0.1430 
 15 C      -11.3400     3.1520     0.2960 C.ar  1 <1>  -0.1500 
 16 C       -8.6710     5.1230    -1.5090 C.3   1 <1>  -0.0170 
 17 C       -6.1400     4.6820    -1.4230 C.3   1 <1>  -0.1600 
 18 C       -7.4050     5.3700     0.7200 C.3   1 <1>  -0.1600 
 19 C      -11.0970     5.5940    -0.9650 C.ar  1 <1>  -0.1500 
 20 C      -12.4250     4.0070     0.2310 C.ar  1 <1>  -0.1500 
 21 C       -5.8970     5.8900    -2.3500 C.3   1 <1>  -0.2400 
 22 C       -7.0600     6.8690     0.7090 C.3   1 <1>  -0.2400 
 23 C      -12.3060     5.2300    -0.4020 C.ar  1 <1>  -0.1500 
 24 H      -10.0100     0.8110    -0.1780 H     1 <1>   0.1500 
 25 H       -5.6940    -0.7460    -0.7340 H     1 <1>   0.0800 
 26 H       -5.5980    -1.1810     0.9500 H     1 <1>   0.0800 
 27 H       -6.6990     0.5580     2.6650 H     1 <1>   0.0800 
 28 H       -7.4460     1.9660     1.9690 H     1 <1>   0.0800 
 29 H       -4.2470     1.2010    -0.3740 H     1 <1>   0.0800 
 30 H       -3.4600    -0.2000     0.3180 H     1 <1>   0.0800 
 31 H       -5.1360     2.4060     2.8760 H     1 <1>   0.0800 
 32 H       -5.2570     2.7750     1.1720 H     1 <1>   0.0800 
 33 H       -6.8860     2.6130    -0.3590 H     1 <1>   0.4000 
 34 H      -11.4510     2.2130     0.8050 H     1 <1>   0.1500 
 35 H       -8.6040     4.6610    -2.4770 H     1 <1>   0.0800 
 36 H       -8.6220     6.1860    -1.6520 H     1 <1>   0.0800 
 37 H       -5.3300     4.6210    -0.7180 H     1 <1>   0.0800 
 38 H       -6.0860     3.8060    -2.0470 H     1 <1>   0.0800 
 39 H       -6.6750     4.8730     1.3330 H     1 <1>   0.0800 
 40 H       -8.3540     5.2580     1.2130 H     1 <1>   0.0800 
 41 H      -11.0080     6.5480    -1.4550 H     1 <1>   0.1500 
 42 H      -13.3630     3.7220     0.6750 H     1 <1>   0.1500 
 43 H       -4.9040     5.8330    -2.7600 H     1 <1>   0.0800 
 44 H       -5.9890     6.8230    -1.8290 H     1 <1>   0.0800 
 45 H       -6.5900     5.8860    -3.1730 H     1 <1>   0.0800 
 46 H       -6.0440     7.0250     0.3950 H     1 <1>   0.0800 
 47 H       -7.1590     7.2650     1.7040 H     1 <1>   0.0800 
 48 H       -7.7230     7.4180     0.0660 H     1 <1>   0.0800 
 49 H      -13.1490     5.8960    -0.4540 H     1 <1>   0.1500 
@<TRIPOS>BOND
  1   1   2  2   
  2   2   3  am  
  3   2   4  1   
  4   3   5  1   
  5   3   6  1   
  6   4   7  2   
  7   4  24  1   
  8   5   8  1   
  9   5  25  1   
 10   5  26  1   
 11   6   9  1   
 12   6  27  1   
 13   6  28  1   
 14   7  10  1   
 15   7  11  1   
 16   8  12  1   
 17   8  29  1   
 18   8  30  1   
 19   9  12  1   
 20   9  31  1   
 21   9  32  1   
 22  10  13  1   
 23  10  33  1   
 24  11  14  ar  
 25  11  15  ar  
 26  13  16  1   
 27  13  17  1   
 28  13  18  1   
 29  14  16  1   
 30  14  19  ar  
 31  15  20  ar  
 32  15  34  1   
 33  16  35  1   
 34  16  36  1   
 35  17  21  1   
 36  17  37  1   
 37  17  38  1   
 38  18  22  1   
 39  18  39  1   
 40  18  40  1   
 41  19  23  ar  
 42  19  41  1   
 43  20  23  ar  
 44  20  42  1   
 45  21  43  1   
 46  21  44  1   
 47  21  45  1   
 48  22  46  1   
 49  22  47  1   
 50  22  48  1   
 51  23  49  1   
@<TRIPOS>SUBSTRUCTURE
  1 ****  10 GROUP 4 **** **** 0

# MOE 2024.06 (io_trps.svl 2023.06)
