@<TRIPOS>MOLECULE
NONAME
44 45 1 0 0 
SMALL
USER_CHARGES


@<TRIPOS>ATOM
  1 O       -0.5800     2.5840    -2.3540 O.2   1 <1>  -0.5700 
  2 C       -0.1340     2.6380    -1.2220 C.2   1 <1>   0.5440 
  3 N       -0.9930     2.4180    -0.1700 N.am  1 <1>  -0.6600 
  4 C        1.2780     2.9100    -1.0030 C.ar  1 <1>   0.0860 
  5 C       -1.5740     3.5500     0.6060 C.3   1 <1>   0.2200 
  6 C       -1.8370     1.1880    -0.2080 C.3   1 <1>   0.2200 
  7 C        1.9350     2.5060     0.1620 C.ar  1 <1>  -0.1500 
  8 C        2.0390     3.5850    -1.9590 C.ar  1 <1>  -0.1500 
  9 C       -2.9040     3.9810    -0.0400 C.3   1 <1>  -0.1600 
 10 C       -0.6250     4.7430     0.7540 C.3   1 <1>  -0.2400 
 11 C       -3.3160     1.4810     0.1130 C.3   1 <1>  -0.1600 
 12 C       -1.2500     0.1690     0.7650 C.3   1 <1>  -0.2400 
 13 C        3.2750     2.7730     0.3720 C.ar  1 <1>  -0.1500 
 14 C        3.3790     3.8570    -1.7590 C.ar  1 <1>  -0.1500 
 15 C       -3.7650     2.8010    -0.5280 C.3   1 <1>  -0.1600 
 16 C        4.0070     3.4610    -0.5890 C.ar  1 <1>   0.0820 
 17 O        5.3250     3.7550    -0.4580 O.3   1 <1>  -0.2320 
 18 C        6.0240     3.9550     0.6590 C.2   1 <1>   0.6590 
 19 O        5.5420     3.9820     1.7610 O.2   1 <1>  -0.5700 
 20 C        7.5160     4.1630     0.4580 C.3   1 <1>  -0.0990 
 21 C        8.2390     2.8890    -0.0070 C.3   1 <1>  -0.2400 
 22 H       -1.7830     3.1840     1.5980 H     1 <1>   0.0800 
 23 H       -1.7930     0.7730    -1.2020 H     1 <1>   0.0800 
 24 H        1.3810     1.9750     0.9150 H     1 <1>   0.1500 
 25 H        1.5620     3.8980    -2.8730 H     1 <1>   0.1500 
 26 H       -2.7030     4.6280    -0.8760 H     1 <1>   0.0800 
 27 H       -3.4580     4.5540     0.6810 H     1 <1>   0.0800 
 28 H       -0.3830     5.1670    -0.2050 H     1 <1>   0.0800 
 29 H        0.2750     4.4460     1.2580 H     1 <1>   0.0800 
 30 H       -1.0970     5.5060     1.3460 H     1 <1>   0.0800 
 31 H       -3.4620     1.5320     1.1770 H     1 <1>   0.0800 
 32 H       -3.9210     0.6730    -0.2570 H     1 <1>   0.0800 
 33 H       -1.2510     0.5590     1.7670 H     1 <1>   0.0800 
 34 H       -0.2430    -0.0730     0.4770 H     1 <1>   0.0800 
 35 H       -1.8330    -0.7340     0.7450 H     1 <1>   0.0800 
 36 H        3.7390     2.4360     1.2810 H     1 <1>   0.1500 
 37 H        3.9420     4.3790    -2.5120 H     1 <1>   0.1500 
 38 H       -3.6540     2.7120    -1.5970 H     1 <1>   0.0800 
 39 H       -4.8040     2.9870    -0.3190 H     1 <1>   0.0800 
 40 H        7.9420     4.4940     1.3890 H     1 <1>   0.0800 
 41 H        7.6570     4.9450    -0.2650 H     1 <1>   0.0800 
 42 H        8.1150     2.1050     0.7200 H     1 <1>   0.0800 
 43 H        9.2910     3.0830    -0.1260 H     1 <1>   0.0800 
 44 H        7.8430     2.5520    -0.9490 H     1 <1>   0.0800 
@<TRIPOS>BOND
  1   1   2  2   
  2   2   3  am  
  3   2   4  1   
  4   3   5  1   
  5   3   6  1   
  6   4   7  ar  
  7   4   8  ar  
  8   5   9  1   
  9   5  10  1   
 10   5  22  1   
 11   6  11  1   
 12   6  12  1   
 13   6  23  1   
 14   7  13  ar  
 15   7  24  1   
 16   8  14  ar  
 17   8  25  1   
 18   9  15  1   
 19   9  26  1   
 20   9  27  1   
 21  10  28  1   
 22  10  29  1   
 23  10  30  1   
 24  11  15  1   
 25  11  31  1   
 26  11  32  1   
 27  12  33  1   
 28  12  34  1   
 29  12  35  1   
 30  13  16  ar  
 31  13  36  1   
 32  14  16  ar  
 33  14  37  1   
 34  15  38  1   
 35  15  39  1   
 36  16  17  1   
 37  17  18  1   
 38  18  19  2   
 39  18  20  1   
 40  20  21  1   
 41  20  40  1   
 42  20  41  1   
 43  21  42  1   
 44  21  43  1   
 45  21  44  1   
@<TRIPOS>SUBSTRUCTURE
  1 ****   7 GROUP 4 **** **** 0

# MOE 2024.06 (io_trps.svl 2023.06)
