@<TRIPOS>MOLECULE
NONAME
44 45 1 0 0 
SMALL
USER_CHARGES


@<TRIPOS>ATOM
  1 O       -0.3800    -0.3920    -0.9930 O.3   1 <1>  -0.5600 
  2 C        0.8150    -0.9330    -0.4970 C.3   1 <1>   0.4800 
  3 C       -1.2780     0.2130    -0.1080 C.3   1 <1>   0.1200 
  4 C        1.6720     0.1800     0.0370 C.1   1 <1>  -0.2000 
  5 C        0.5290    -2.0010     0.5790 C.3   1 <1>  -0.1600 
  6 C        1.5020    -1.5810    -1.7120 C.3   1 <1>  -0.1600 
  7 C       -2.4170     0.8040    -0.9350 C.3   1 <1>   0.0400 
  8 C        2.3760     1.0480     0.4430 C.1   1 <1>  -0.2000 
  9 C        1.7760    -2.8210     0.9570 C.3   1 <1>  -0.1600 
 10 C        2.7540    -2.3960    -1.3420 C.3   1 <1>  -0.1600 
 11 C       -3.4080     1.4610    -0.0430 C.1   1 <1>   0.3570 
 12 C        3.3040     2.1100     0.9130 C.3   1 <1>   0.5430 
 13 C        2.4260    -3.4530    -0.2810 C.3   1 <1>  -0.1600 
 14 N       -4.1520     1.9600     0.6560 N.1   1 <1>  -0.5570 
 15 N        4.6060     1.8860     0.2400 N.4   1 <1>  -0.9590 
 16 C        5.2980     0.6490     0.6800 C.3   1 <1>   0.3430 
 17 C        5.5760     2.9900     0.4090 C.3   1 <1>   0.3430 
 18 C        6.7390     0.8500     0.2330 C.3   1 <1>  -0.1600 
 19 C        6.9210     2.3620     0.0650 C.3   1 <1>  -0.1600 
 20 H       -0.7750     0.9880     0.4440 H     1 <1>   0.0800 
 21 H       -1.6650    -0.5300     0.5680 H     1 <1>   0.0800 
 22 H       -0.2200    -2.6750     0.2020 H     1 <1>   0.0800 
 23 H        0.1510    -1.5360     1.4720 H     1 <1>   0.0800 
 24 H        1.7670    -0.8180    -2.4220 H     1 <1>   0.0800 
 25 H        0.7970    -2.2410    -2.1860 H     1 <1>   0.0800 
 26 H       -2.9100     0.0260    -1.4860 H     1 <1>   0.0800 
 27 H       -2.0300     1.5350    -1.6200 H     1 <1>   0.0800 
 28 H        1.4970    -3.5990     1.6480 H     1 <1>   0.0800 
 29 H        2.4910    -2.1870     1.4520 H     1 <1>   0.0800 
 30 H        3.5210    -1.7410    -0.9710 H     1 <1>   0.0800 
 31 H        3.1360    -2.8830    -2.2240 H     1 <1>   0.0800 
 32 H        3.4170     2.0610     1.9840 H     1 <1>   0.0800 
 33 H        2.9070     3.0750     0.6460 H     1 <1>   0.0800 
 34 H        1.7520    -4.1810    -0.7020 H     1 <1>   0.0800 
 35 H        3.3250    -3.9710     0.0060 H     1 <1>   0.0800 
 36 H        4.4050     1.7770    -0.7620 H     1 <1>   0.4500 
 37 H        4.8590    -0.2330     0.2400 H     1 <1>   0.0800 
 38 H        5.2610     0.5700     1.7550 H     1 <1>   0.0800 
 39 H        5.5870     3.3180     1.4360 H     1 <1>   0.0800 
 40 H        5.3500     3.8260    -0.2340 H     1 <1>   0.0800 
 41 H        6.9020     0.3460    -0.7040 H     1 <1>   0.0800 
 42 H        7.4190     0.4430     0.9620 H     1 <1>   0.0800 
 43 H        7.6900     2.7460     0.7130 H     1 <1>   0.0800 
 44 H        7.1850     2.5980    -0.9520 H     1 <1>   0.0800 
@<TRIPOS>BOND
  1   1   2  1   
  2   1   3  1   
  3   2   4  1   
  4   2   5  1   
  5   2   6  1   
  6   3   7  1   
  7   3  20  1   
  8   3  21  1   
  9   4   8  3   
 10   5   9  1   
 11   5  22  1   
 12   5  23  1   
 13   6  10  1   
 14   6  24  1   
 15   6  25  1   
 16   7  11  1   
 17   7  26  1   
 18   7  27  1   
 19   8  12  1   
 20   9  13  1   
 21   9  28  1   
 22   9  29  1   
 23  10  13  1   
 24  10  30  1   
 25  10  31  1   
 26  11  14  3   
 27  12  15  1   
 28  12  32  1   
 29  12  33  1   
 30  13  34  1   
 31  13  35  1   
 32  15  16  1   
 33  15  17  1   
 34  15  36  1   
 35  16  18  1   
 36  16  37  1   
 37  16  38  1   
 38  17  19  1   
 39  17  39  1   
 40  17  40  1   
 41  18  19  1   
 42  18  41  1   
 43  18  42  1   
 44  19  43  1   
 45  19  44  1   
@<TRIPOS>SUBSTRUCTURE
  1 ****   4 GROUP 4 **** **** 0

# MOE 2024.06 (io_trps.svl 2023.06)
