@<TRIPOS>MOLECULE
NONAME
46 48 1 0 0 
SMALL
USER_CHARGES


@<TRIPOS>ATOM
  1 S        1.1520    -1.0620     1.8600 S.3   1 <1>  -0.0800 
  2 C       -0.1070    -1.7850     0.8700 C.2   1 <1>   0.1040 
  3 C        2.1910    -0.8170     0.4690 C.2   1 <1>  -0.1100 
  4 N       -1.2760    -2.2400     1.4550 N.am  1 <1>  -0.4940 
  5 C        0.2720    -1.8160    -0.4450 C.2   1 <1>  -0.0860 
  6 C        1.5880    -1.2620    -0.6460 C.2   1 <1>  -0.1500 
  7 C       -1.8500    -2.0740     2.6860 C.2   1 <1>   0.5690 
  8 C       -0.5330    -2.3250    -1.5200 C.2   1 <1>   0.8060 
  9 O       -1.3820    -1.4090     3.5780 O.2   1 <1>  -0.5700 
 10 C       -3.1890    -2.7820     2.9100 C.3   1 <1>   0.1710 
 11 O       -1.6680    -2.7420    -1.3690 O.2   1 <1>  -0.5700 
 12 O       -0.0070    -2.3340    -2.7510 O.3   1 <1>  -0.4300 
 13 N       -3.8200    -3.2900     1.6540 N.3   1 <1>  -0.8100 
 14 C       -0.7280    -2.8160    -3.8690 C.3   1 <1>   0.0400 
 15 C       -4.8470    -4.3150     1.9480 C.3   1 <1>   0.1100 
 16 C       -4.4400    -2.1920     0.8660 C.3   1 <1>   0.1100 
 17 C       -5.4900    -4.8730     0.6630 C.3   1 <1>   0.2090 
 18 C       -5.0650    -2.7090    -0.4440 C.3   1 <1>   0.2090 
 19 N       -6.0710    -3.7780    -0.1690 N.pl3 1 <1>  -0.8380 
 20 C       -6.8400    -4.1840    -1.2530 C.ar  1 <1>   0.1000 
 21 C       -6.2670    -4.8150    -2.3560 C.ar  1 <1>  -0.1500 
 22 C       -8.2120    -3.9560    -1.2350 C.ar  1 <1>  -0.1500 
 23 C       -7.0490    -5.2140    -3.4250 C.ar  1 <1>  -0.1500 
 24 C       -9.0090    -4.3480    -2.2960 C.ar  1 <1>  -0.1500 
 25 C       -8.4090    -4.9710    -3.3740 C.ar  1 <1>   0.1900 
 26 F       -9.1560    -5.3460    -4.3820 F     1 <1>  -0.1900 
 27 H        3.1500    -0.3610     0.6440 H     1 <1>   0.1500 
 28 H       -1.9040    -2.7790     0.8390 H     1 <1>   0.3700 
 29 H        2.0240    -1.2220    -1.6300 H     1 <1>   0.1500 
 30 H       -3.8600    -2.1110     3.4160 H     1 <1>   0.0800 
 31 H       -2.9940    -3.6100     3.5680 H     1 <1>   0.0800 
 32 H       -0.1040    -2.7260    -4.7410 H     1 <1>   0.0800 
 33 H       -1.6200    -2.2260    -3.9900 H     1 <1>   0.0800 
 34 H       -0.9830    -3.8480    -3.7020 H     1 <1>   0.0800 
 35 H       -5.6210    -3.8930     2.5650 H     1 <1>   0.0800 
 36 H       -4.3950    -5.1300     2.4850 H     1 <1>   0.0800 
 37 H       -3.7010    -1.4510     0.6190 H     1 <1>   0.0800 
 38 H       -5.2100    -1.7140     1.4460 H     1 <1>   0.0800 
 39 H       -6.2680    -5.5680     0.9240 H     1 <1>   0.0800 
 40 H       -4.7440    -5.4000     0.0950 H     1 <1>   0.0800 
 41 H       -4.2870    -3.0950    -1.0790 H     1 <1>   0.0800 
 42 H       -5.5450    -1.8950    -0.9580 H     1 <1>   0.0800 
 43 H       -5.2070    -4.9900    -2.3670 H     1 <1>   0.1500 
 44 H       -8.6400    -3.4680    -0.3780 H     1 <1>   0.1500 
 45 H       -6.6200    -5.7020    -4.2810 H     1 <1>   0.1500 
 46 H      -10.0690    -4.1750    -2.2910 H     1 <1>   0.1500 
@<TRIPOS>BOND
  1   1   2  1   
  2   1   3  1   
  3   2   4  1   
  4   2   5  2   
  5   3   6  2   
  6   3  27  1   
  7   4   7  am  
  8   4  28  1   
  9   5   6  1   
 10   5   8  1   
 11   6  29  1   
 12   7   9  2   
 13   7  10  1   
 14   8  11  2   
 15   8  12  1   
 16  10  13  1   
 17  10  30  1   
 18  10  31  1   
 19  12  14  1   
 20  13  15  1   
 21  13  16  1   
 22  14  32  1   
 23  14  33  1   
 24  14  34  1   
 25  15  17  1   
 26  15  35  1   
 27  15  36  1   
 28  16  18  1   
 29  16  37  1   
 30  16  38  1   
 31  17  19  1   
 32  17  39  1   
 33  17  40  1   
 34  18  19  1   
 35  18  41  1   
 36  18  42  1   
 37  19  20  1   
 38  20  21  ar  
 39  20  22  ar  
 40  21  23  ar  
 41  21  43  1   
 42  22  24  ar  
 43  22  44  1   
 44  23  25  ar  
 45  23  45  1   
 46  24  25  ar  
 47  24  46  1   
 48  25  26  1   
@<TRIPOS>SUBSTRUCTURE
  1 ****  18 GROUP 4 **** **** 0

# MOE 2024.06 (io_trps.svl 2023.06)
