@<TRIPOS>MOLECULE
NONAME
31 32 1 0 0 
SMALL
USER_CHARGES


@<TRIPOS>ATOM
  1 O       -0.1560     4.4190    -0.0580 O.3   1 <1>  -0.6870 
  2 C       -1.4160     4.9740    -0.2910 C.3   1 <1>   0.1070 
  3 C       -2.4670     4.4080     0.6830 C.3   1 <1>   0.3440 
  4 N       -2.7600     2.9630     0.4590 N.pl3 1 <1>  -0.7700 
  5 C       -1.9980     1.9180     0.7770 C.cat 1 <1>   1.0680 
  6 C       -3.9800     2.4590     0.0250 C.ar  1 <1>   0.2980 
  7 N       -0.7600     2.0140     1.1870 N.pl3 1 <1>  -0.8420 
  8 N       -2.6480     0.7690     0.6100 N.pl3 1 <1>  -0.7700 
  9 C       -3.9090     1.0810     0.1210 C.ar  1 <1>   0.2980 
 10 C       -5.1370     3.0770    -0.4420 C.ar  1 <1>  -0.1220 
 11 C       -2.1730    -0.6020     0.8710 C.3   1 <1>   0.3440 
 12 C       -4.9880     0.2850    -0.2470 C.ar  1 <1>  -0.1220 
 13 C       -6.2110     2.2870    -0.8060 C.ar  1 <1>  -0.1620 
 14 C       -1.5770    -1.1740    -0.4100 C.3   1 <1>  -0.2510 
 15 C       -6.1370     0.8970    -0.7090 C.ar  1 <1>  -0.1620 
 16 H        0.5080     4.8370    -0.6510 H     1 <1>   0.3900 
 17 H       -1.6990     4.7720    -1.3100 H     1 <1>   0.0670 
 18 H       -1.3330     6.0380    -0.1550 H     1 <1>   0.0670 
 19 H       -3.3750     4.9720     0.5680 H     1 <1>   0.0670 
 20 H       -2.1290     4.5540     1.6950 H     1 <1>   0.0670 
 21 H       -0.1640     1.2150     1.3610 H     1 <1>   0.4410 
 22 H       -0.2830     2.9130     1.0340 H     1 <1>   0.4410 
 23 H       -5.1960     4.1460    -0.5220 H     1 <1>   0.1380 
 24 H       -2.9950    -1.2150     1.2010 H     1 <1>   0.0670 
 25 H       -1.4310    -0.5950     1.6520 H     1 <1>   0.0670 
 26 H       -4.9270    -0.7860    -0.1740 H     1 <1>   0.1380 
 27 H       -7.1180     2.7420    -1.1710 H     1 <1>   0.1380 
 28 H       -2.3200    -1.2100    -1.1870 H     1 <1>   0.0670 
 29 H       -1.2290    -2.1750    -0.2300 H     1 <1>   0.0670 
 30 H       -0.7440    -0.5800    -0.7410 H     1 <1>   0.0670 
 31 H       -6.9880     0.3020    -1.0010 H     1 <1>   0.1380 
@<TRIPOS>BOND
  1   1   2  1   
  2   1  16  1   
  3   2   3  1   
  4   2  17  1   
  5   2  18  1   
  6   3   4  1   
  7   3  19  1   
  8   3  20  1   
  9   4   5  ar  
 10   4   6  1   
 11   5   7  ar  
 12   5   8  ar  
 13   6   9  ar  
 14   6  10  ar  
 15   7  21  1   
 16   7  22  1   
 17   8   9  1   
 18   8  11  1   
 19   9  12  ar  
 20  10  13  ar  
 21  10  23  1   
 22  11  14  1   
 23  11  24  1   
 24  11  25  1   
 25  12  15  ar  
 26  12  26  1   
 27  13  15  ar  
 28  13  27  1   
 29  14  28  1   
 30  14  29  1   
 31  14  30  1   
 32  15  31  1   
@<TRIPOS>SUBSTRUCTURE
  1 ****   6 GROUP 4 **** **** 0

# MOE 2024.06 (io_trps.svl 2023.06)
