@<TRIPOS>MOLECULE
NONAME
53 55 1 0 0 
SMALL
USER_CHARGES


@<TRIPOS>ATOM
  1 O        0.6030    -3.3620     1.6400 O.2   1 <1>  -0.5700 
  2 C       -0.0770    -2.7310     0.8670 C.2   1 <1>   0.5690 
  3 N        0.3720    -1.6770     0.1260 N.am  1 <1>  -0.5470 
  4 C       -1.5520    -3.0970     0.6960 C.3   1 <1>   0.1710 
  5 C        1.6090    -1.0190     0.1250 C.ar  1 <1>   0.1170 
  6 N       -2.4090    -1.9420     0.2970 N.3   1 <1>  -0.8100 
  7 C        2.8240    -1.6570    -0.1390 C.ar  1 <1>  -0.1430 
  8 C        1.6110     0.3470     0.3790 C.ar  1 <1>  -0.1500 
  9 C       -3.7280    -2.4070    -0.1940 C.3   1 <1>   0.1100 
 10 C       -2.6110    -1.0140     1.4410 C.3   1 <1>   0.1100 
 11 C        4.0000    -0.9240    -0.1240 C.ar  1 <1>  -0.1500 
 12 C        2.9070    -3.1450    -0.4560 C.3   1 <1>  -0.0970 
 13 C        2.7890     1.0700     0.3870 C.ar  1 <1>  -0.1500 
 14 C       -4.6520    -1.2360    -0.5830 C.3   1 <1>   0.2090 
 15 C       -3.5190     0.1760     1.0770 C.3   1 <1>   0.2090 
 16 C        3.9930     0.4370     0.1360 C.ar  1 <1>  -0.1430 
 17 N       -4.8350    -0.3030     0.5660 N.pl3 1 <1>  -0.8380 
 18 C        5.2930     1.2190     0.1490 C.3   1 <1>  -0.0970 
 19 C       -5.8120     0.6880     0.3920 C.ar  1 <1>   0.1000 
 20 C       -5.7320     1.7300    -0.5510 C.ar  1 <1>   0.0830 
 21 C       -6.9260     0.6200     1.2160 C.ar  1 <1>  -0.1500 
 22 O       -4.6310     1.7950    -1.3640 O.3   1 <1>  -0.3630 
 23 C       -6.7640     2.6620    -0.6340 C.ar  1 <1>  -0.1500 
 24 C       -7.9460     1.5480     1.1260 C.ar  1 <1>  -0.1500 
 25 C       -4.5200     2.7650    -2.3810 C.3   1 <1>   0.0400 
 26 C       -7.8650     2.5710     0.2000 C.ar  1 <1>  -0.1500 
 27 H       -0.4010    -1.1990    -0.3480 H     1 <1>   0.3700 
 28 H       -1.9150    -3.5260     1.6140 H     1 <1>   0.0800 
 29 H       -1.6010    -3.8550    -0.0650 H     1 <1>   0.0800 
 30 H        0.6820     0.8470     0.5780 H     1 <1>   0.1500 
 31 H       -4.2180    -2.9890     0.5680 H     1 <1>   0.0800 
 32 H       -3.5870    -3.0330    -1.0570 H     1 <1>   0.0800 
 33 H       -1.6610    -0.6310     1.7720 H     1 <1>   0.0800 
 34 H       -3.0600    -1.5410     2.2650 H     1 <1>   0.0800 
 35 H        4.9360    -1.4160    -0.3160 H     1 <1>   0.1500 
 36 H        2.9140    -3.7100     0.4590 H     1 <1>   0.0800 
 37 H        3.8020    -3.3700    -1.0050 H     1 <1>   0.0800 
 38 H        2.0650    -3.4530    -1.0480 H     1 <1>   0.0800 
 39 H        2.7650     2.1260     0.5920 H     1 <1>   0.1500 
 40 H       -5.6120    -1.6170    -0.8840 H     1 <1>   0.0800 
 41 H       -4.2220    -0.7090    -1.4170 H     1 <1>   0.0800 
 42 H       -3.0340     0.7770     0.3290 H     1 <1>   0.0800 
 43 H       -3.6810     0.7870     1.9470 H     1 <1>   0.0800 
 44 H        5.9660     0.8360    -0.5970 H     1 <1>   0.0800 
 45 H        5.7590     1.1310     1.1150 H     1 <1>   0.0800 
 46 H        5.1130     2.2580    -0.0570 H     1 <1>   0.0800 
 47 H       -6.9820    -0.1780     1.9330 H     1 <1>   0.1500 
 48 H       -6.7350     3.4690    -1.3390 H     1 <1>   0.1500 
 49 H       -8.8000     1.4730     1.7770 H     1 <1>   0.1500 
 50 H       -3.5940     2.5970    -2.9010 H     1 <1>   0.0800 
 51 H       -4.5160     3.7420    -1.9330 H     1 <1>   0.0800 
 52 H       -5.3470     2.6530    -3.0610 H     1 <1>   0.0800 
 53 H       -8.6570     3.2950     0.1290 H     1 <1>   0.1500 
@<TRIPOS>BOND
  1   1   2  2   
  2   2   3  am  
  3   2   4  1   
  4   3   5  1   
  5   3  27  1   
  6   4   6  1   
  7   4  28  1   
  8   4  29  1   
  9   5   7  ar  
 10   5   8  ar  
 11   6   9  1   
 12   6  10  1   
 13   7  11  ar  
 14   7  12  1   
 15   8  13  ar  
 16   8  30  1   
 17   9  14  1   
 18   9  31  1   
 19   9  32  1   
 20  10  15  1   
 21  10  33  1   
 22  10  34  1   
 23  11  16  ar  
 24  11  35  1   
 25  12  36  1   
 26  12  37  1   
 27  12  38  1   
 28  13  16  ar  
 29  13  39  1   
 30  14  17  1   
 31  14  40  1   
 32  14  41  1   
 33  15  17  1   
 34  15  42  1   
 35  15  43  1   
 36  16  18  1   
 37  17  19  1   
 38  18  44  1   
 39  18  45  1   
 40  18  46  1   
 41  19  20  ar  
 42  19  21  ar  
 43  20  22  1   
 44  20  23  ar  
 45  21  24  ar  
 46  21  47  1   
 47  22  25  1   
 48  23  26  ar  
 49  23  48  1   
 50  24  26  ar  
 51  24  49  1   
 52  25  50  1   
 53  25  51  1   
 54  25  52  1   
 55  26  53  1   
@<TRIPOS>SUBSTRUCTURE
  1 ****  10 GROUP 4 **** **** 0

# MOE 2024.06 (io_trps.svl 2023.06)
