@<TRIPOS>MOLECULE
NONAME
47 48 1 0 0 
SMALL
USER_CHARGES


@<TRIPOS>ATOM
  1 O        1.0130    -0.2520     1.4030 O.3   1 <1>  -0.3630 
  2 C        0.4880    -1.2810     0.6920 C.ar  1 <1>   0.0830 
  3 C        1.9950     0.5500     0.7780 C.3   1 <1>   0.1200 
  4 C        0.8360    -2.5860     1.0360 C.ar  1 <1>  -0.1440 
  5 C       -0.4050    -1.0420    -0.3540 C.ar  1 <1>  -0.1440 
  6 C        3.3700    -0.1070     0.9230 C.3   1 <1>  -0.1600 
  7 C        0.3370    -3.6400     0.2890 C.ar  1 <1>  -0.1500 
  8 C        1.7470    -2.8920     2.2170 C.3   1 <1>  -0.0960 
  9 C       -0.8880    -2.1140    -1.0860 C.ar  1 <1>  -0.1500 
 10 C       -0.8930     0.3550    -0.7130 C.3   1 <1>  -0.0970 
 11 C        4.4760     0.7860     0.3470 C.3   1 <1>  -0.1600 
 12 C       -0.5160    -3.4120    -0.7770 C.ar  1 <1>  -0.1430 
 13 C        5.8500     0.1200     0.4870 C.3   1 <1>  -0.1600 
 14 C       -1.0530    -4.5760    -1.5900 C.3   1 <1>  -0.0970 
 15 C        6.9570     1.0130    -0.0890 C.3   1 <1>  -0.1600 
 16 C        8.3340     0.3520     0.0540 C.3   1 <1>   0.0960 
 17 N        9.3850     1.2260    -0.5010 N.pl3 1 <1>   0.0480 
 18 C        9.9420     1.1770    -1.7320 C.2   1 <1>   0.0360 
 19 C       10.0030     2.2530     0.1100 C.2   1 <1>  -0.3020 
 20 N       10.8470     2.0780    -1.9390 N.2   1 <1>  -0.5650 
 21 C       10.8870     2.7580    -0.7780 C.2   1 <1>   0.0770 
 22 H        1.9820     1.5070     1.2690 H     1 <1>   0.0800 
 23 H        1.7430     0.6800    -0.2580 H     1 <1>   0.0800 
 24 H        3.3630    -1.0460     0.3970 H     1 <1>   0.0800 
 25 H        3.5610    -0.2900     1.9660 H     1 <1>   0.0800 
 26 H        0.6120    -4.6480     0.5400 H     1 <1>   0.1500 
 27 H        1.6340    -2.1490     2.9850 H     1 <1>   0.0800 
 28 H        2.7710    -2.9100     1.8950 H     1 <1>   0.0800 
 29 H        1.5010    -3.8480     2.6410 H     1 <1>   0.0800 
 30 H       -1.5660    -1.9400    -1.9020 H     1 <1>   0.1500 
 31 H       -0.2600     0.7840    -1.4670 H     1 <1>   0.0800 
 32 H       -0.8920     0.9910     0.1550 H     1 <1>   0.0800 
 33 H       -1.8990     0.3130    -1.0900 H     1 <1>   0.0800 
 34 H        4.4800     1.7300     0.8650 H     1 <1>   0.0800 
 35 H        4.2740     0.9760    -0.6940 H     1 <1>   0.0800 
 36 H        5.8420    -0.8240    -0.0320 H     1 <1>   0.0800 
 37 H        6.0470    -0.0720     1.5290 H     1 <1>   0.0800 
 38 H       -0.3450    -5.3840    -1.6010 H     1 <1>   0.0800 
 39 H       -1.2370    -4.2720    -2.6050 H     1 <1>   0.0800 
 40 H       -1.9740    -4.9250    -1.1580 H     1 <1>   0.0800 
 41 H        6.9610     1.9560     0.4320 H     1 <1>   0.0800 
 42 H        6.7590     1.2000    -1.1310 H     1 <1>   0.0800 
 43 H        8.3520    -0.5860    -0.4710 H     1 <1>   0.0800 
 44 H        8.5530     0.1700     1.0910 H     1 <1>   0.0800 
 45 H        9.6450     0.4460    -2.4640 H     1 <1>   0.1500 
 46 H        9.7880     2.5630     1.1160 H     1 <1>   0.1500 
 47 H       11.5600     3.5880    -0.6410 H     1 <1>   0.1500 
@<TRIPOS>BOND
  1   1   2  1   
  2   1   3  1   
  3   2   4  ar  
  4   2   5  ar  
  5   3   6  1   
  6   3  22  1   
  7   3  23  1   
  8   4   7  ar  
  9   4   8  1   
 10   5   9  ar  
 11   5  10  1   
 12   6  11  1   
 13   6  24  1   
 14   6  25  1   
 15   7  12  ar  
 16   7  26  1   
 17   8  27  1   
 18   8  28  1   
 19   8  29  1   
 20   9  12  ar  
 21   9  30  1   
 22  10  31  1   
 23  10  32  1   
 24  10  33  1   
 25  11  13  1   
 26  11  34  1   
 27  11  35  1   
 28  12  14  1   
 29  13  15  1   
 30  13  36  1   
 31  13  37  1   
 32  14  38  1   
 33  14  39  1   
 34  14  40  1   
 35  15  16  1   
 36  15  41  1   
 37  15  42  1   
 38  16  17  1   
 39  16  43  1   
 40  16  44  1   
 41  17  18  1   
 42  17  19  1   
 43  18  20  2   
 44  18  45  1   
 45  19  21  2   
 46  19  46  1   
 47  20  21  1   
 48  21  47  1   
@<TRIPOS>SUBSTRUCTURE
  1 ****   6 GROUP 4 **** **** 0

# MOE 2024.06 (io_trps.svl 2023.06)
