@<TRIPOS>MOLECULE
NONAME
37 38 1 0 0 
SMALL
USER_CHARGES


@<TRIPOS>ATOM
  1 O        0.0240     0.2210    -1.2230 O.2   1 <1>  -0.5700 
  2 C        0.1190     1.3360    -0.7660 C.2   1 <1>   0.5690 
  3 N        1.2760     1.8610    -0.2580 N.am  1 <1>  -0.5470 
  4 C       -1.1200     2.2410    -0.7500 C.3   1 <1>   0.2610 
  5 C        2.5730     1.3460    -0.0970 C.ar  1 <1>   0.1170 
  6 O       -0.8180     3.5440    -0.3170 O.3   1 <1>  -0.5600 
  7 C       -2.2110     1.7820     0.2110 C.3   1 <1>  -0.1600 
  8 C        3.6010     2.2270     0.2180 C.ar  1 <1>  -0.1500 
  9 C        2.8800    -0.0050    -0.2270 C.ar  1 <1>  -0.1500 
 10 C       -1.9820     4.1800     0.1070 C.3   1 <1>   0.1200 
 11 C       -2.9200     3.0750     0.5900 C.3   1 <1>  -0.1600 
 12 C        4.9000     1.7810     0.3950 C.ar  1 <1>  -0.1500 
 13 C        4.1760    -0.4570    -0.0520 C.ar  1 <1>  -0.1500 
 14 C        5.1950     0.4280     0.2580 C.ar  1 <1>   0.0830 
 15 O        6.4370    -0.1010     0.4110 O.3   1 <1>  -0.3630 
 16 C        7.5570     0.7320     0.6690 C.3   1 <1>   0.1810 
 17 C        8.8370    -0.0830     0.7730 C.2   1 <1>   0.6590 
 18 O        9.4620    -0.1470     1.8030 O.2   1 <1>  -0.5700 
 19 O        9.2490    -0.6900    -0.3360 O.3   1 <1>  -0.4300 
 20 C       10.4240    -1.4730    -0.3630 C.3   1 <1>   0.0400 
 21 H        1.1440     2.8360     0.0260 H     1 <1>   0.3700 
 22 H       -1.5140     2.3160    -1.7490 H     1 <1>   0.0800 
 23 H       -1.7590     1.3350     1.0800 H     1 <1>   0.0800 
 24 H       -2.8660     1.0660    -0.2520 H     1 <1>   0.0800 
 25 H        3.3840     3.2740     0.3240 H     1 <1>   0.1500 
 26 H        2.1100    -0.7150    -0.4640 H     1 <1>   0.1500 
 27 H       -2.4010     4.7070    -0.7340 H     1 <1>   0.0800 
 28 H       -1.7320     4.8750     0.8900 H     1 <1>   0.0800 
 29 H       -3.0730     3.1390     1.6530 H     1 <1>   0.0800 
 30 H       -3.8710     3.1610     0.0940 H     1 <1>   0.0800 
 31 H        5.6590     2.5000     0.6370 H     1 <1>   0.1500 
 32 H        4.4020    -1.5030    -0.1570 H     1 <1>   0.1500 
 33 H        7.3880     1.2470     1.5960 H     1 <1>   0.0800 
 34 H        7.6490     1.4360    -0.1370 H     1 <1>   0.0800 
 35 H       10.5500    -1.8640    -1.3570 H     1 <1>   0.0800 
 36 H       10.3190    -2.2800     0.3420 H     1 <1>   0.0800 
 37 H       11.2620    -0.8540    -0.0970 H     1 <1>   0.0800 
@<TRIPOS>BOND
  1   1   2  2   
  2   2   3  am  
  3   2   4  1   
  4   3   5  1   
  5   3  21  1   
  6   4   6  1   
  7   4   7  1   
  8   4  22  1   
  9   5   8  ar  
 10   5   9  ar  
 11   6  10  1   
 12   7  11  1   
 13   7  23  1   
 14   7  24  1   
 15   8  12  ar  
 16   8  25  1   
 17   9  13  ar  
 18   9  26  1   
 19  10  11  1   
 20  10  27  1   
 21  10  28  1   
 22  11  29  1   
 23  11  30  1   
 24  12  14  ar  
 25  12  31  1   
 26  13  14  ar  
 27  13  32  1   
 28  14  15  1   
 29  15  16  1   
 30  16  17  1   
 31  16  33  1   
 32  16  34  1   
 33  17  18  2   
 34  17  19  1   
 35  19  20  1   
 36  20  35  1   
 37  20  36  1   
 38  20  37  1   
@<TRIPOS>SUBSTRUCTURE
  1 ****   5 GROUP 4 **** **** 0

# MOE 2024.06 (io_trps.svl 2023.06)
