@<TRIPOS>MOLECULE
NONAME
45 47 1 0 0 
SMALL
USER_CHARGES


@<TRIPOS>ATOM
  1 O        0.6810    -0.6310     0.3730 O.2   1 <1>  -0.5700 
  2 C        0.3920    -1.8000     0.5530 C.2   1 <1>   0.6900 
  3 N        1.3100    -2.6760     1.0610 N.am  1 <1>  -0.6600 
  4 N       -0.8510    -2.2500     0.2650 N.am  1 <1>  -0.7300 
  5 C        2.5680    -2.1750     1.6930 C.3   1 <1>   0.1400 
  6 C        1.3930    -4.1010     0.6210 C.3   1 <1>   0.1400 
  7 C       -1.9520    -1.4230    -0.2510 C.3   1 <1>   0.2200 
  8 C        3.7580    -2.3680     0.7440 C.3   1 <1>   0.1400 
  9 C        2.6000    -4.3180    -0.3110 C.3   1 <1>   0.1400 
 10 C       -2.9300    -1.1290     0.8910 C.3   1 <1>  -0.1600 
 11 C       -2.6400    -2.1750    -1.3940 C.3   1 <1>  -0.1600 
 12 N        3.8570    -3.7970     0.3070 N.am  1 <1>  -0.6600 
 13 C       -4.1570    -0.3560     0.3840 C.3   1 <1>  -0.1600 
 14 C       -3.8660    -1.4040    -1.9060 C.3   1 <1>  -0.1600 
 15 C        4.8720    -4.6200     0.7570 C.2   1 <1>   0.7150 
 16 C       -4.8480    -1.1030    -0.7650 C.3   1 <1>  -0.1600 
 17 O        5.5320    -4.2500     1.7120 O.2   1 <1>  -0.5700 
 18 C        5.1550    -5.8870     0.1130 C.2   1 <1>   0.0550 
 19 O        5.5170    -6.9540     0.8220 O.3   1 <1>  -0.2800 
 20 C        5.1230    -6.2430    -1.2030 C.2   1 <1>  -0.1500 
 21 C        5.7150    -7.9630     0.0050 C.2   1 <1>  -0.0100 
 22 C        5.4860    -7.5890    -1.2710 C.2   1 <1>  -0.1500 
 23 H       -1.1260    -3.1310     0.6860 H     1 <1>   0.3700 
 24 H        2.7490    -2.7150     2.6050 H     1 <1>   0.0800 
 25 H        2.4730    -1.1320     1.9430 H     1 <1>   0.0800 
 26 H        0.4970    -4.3920     0.1030 H     1 <1>   0.0800 
 27 H        1.4950    -4.7300     1.4880 H     1 <1>   0.0800 
 28 H       -1.5610    -0.4920    -0.6290 H     1 <1>   0.0800 
 29 H        4.6620    -2.0550     1.2360 H     1 <1>   0.0800 
 30 H        3.6220    -1.7400    -0.1200 H     1 <1>   0.0800 
 31 H        2.4250    -3.8030    -1.2400 H     1 <1>   0.0800 
 32 H        2.6840    -5.3690    -0.5240 H     1 <1>   0.0800 
 33 H       -2.4290    -0.5450     1.6430 H     1 <1>   0.0800 
 34 H       -3.2570    -2.0520     1.3350 H     1 <1>   0.0800 
 35 H       -2.9570    -3.1440    -1.0500 H     1 <1>   0.0800 
 36 H       -1.9420    -2.3080    -2.2020 H     1 <1>   0.0800 
 37 H       -3.8460     0.6170     0.0400 H     1 <1>   0.0800 
 38 H       -4.8530    -0.2120     1.1930 H     1 <1>   0.0800 
 39 H       -4.3630    -1.9790    -2.6680 H     1 <1>   0.0800 
 40 H       -3.5430    -0.4770    -2.3500 H     1 <1>   0.0800 
 41 H       -5.6650    -0.5100    -1.1400 H     1 <1>   0.0800 
 42 H       -5.2580    -2.0270    -0.3940 H     1 <1>   0.0800 
 43 H        4.8790    -5.6200    -2.0450 H     1 <1>   0.1500 
 44 H        6.0190    -8.9120     0.4130 H     1 <1>   0.1500 
 45 H        5.5630    -8.1800    -2.1670 H     1 <1>   0.1500 
@<TRIPOS>BOND
  1   1   2  2   
  2   2   3  am  
  3   2   4  am  
  4   3   5  1   
  5   3   6  1   
  6   4   7  1   
  7   4  23  1   
  8   5   8  1   
  9   5  24  1   
 10   5  25  1   
 11   6   9  1   
 12   6  26  1   
 13   6  27  1   
 14   7  10  1   
 15   7  11  1   
 16   7  28  1   
 17   8  12  1   
 18   8  29  1   
 19   8  30  1   
 20   9  12  1   
 21   9  31  1   
 22   9  32  1   
 23  10  13  1   
 24  10  33  1   
 25  10  34  1   
 26  11  14  1   
 27  11  35  1   
 28  11  36  1   
 29  12  15  am  
 30  13  16  1   
 31  13  37  1   
 32  13  38  1   
 33  14  16  1   
 34  14  39  1   
 35  14  40  1   
 36  15  17  2   
 37  15  18  1   
 38  16  41  1   
 39  16  42  1   
 40  18  19  1   
 41  18  20  2   
 42  19  21  1   
 43  20  22  1   
 44  20  43  1   
 45  21  22  2   
 46  21  44  1   
 47  22  45  1   
@<TRIPOS>SUBSTRUCTURE
  1 ****   6 GROUP 4 **** **** 0

# MOE 2024.06 (io_trps.svl 2023.06)
