@<TRIPOS>MOLECULE
NONAME
45 46 1 0 0 
SMALL
USER_CHARGES


@<TRIPOS>ATOM
  1 O        0.3400    -1.4200    -1.7450 O.2   1 <1>  -0.5700 
  2 C        0.3730    -2.1820    -0.7980 C.2   1 <1>   0.7800 
  3 O       -0.7200    -2.3680    -0.0550 O.3   1 <1>  -0.4300 
  4 N        1.5000    -2.8710    -0.4450 N.am  1 <1>  -0.6600 
  5 C       -1.9190    -1.6920    -0.3550 C.3   1 <1>   0.1200 
  6 C        1.5200    -3.8030     0.7250 C.3   1 <1>   0.1400 
  7 C        2.7830    -2.6890    -1.1870 C.3   1 <1>   0.1400 
  8 C       -2.9670    -2.1130     0.6700 C.3   1 <1>  -0.2400 
  9 C        2.7300    -4.7500     0.7030 C.3   1 <1>   0.1400 
 10 C        3.9930    -2.7490    -0.2420 C.3   1 <1>   0.1400 
 11 N        4.0260    -4.0110     0.5660 N.am  1 <1>  -0.6600 
 12 C        5.1990    -4.5700     1.0280 C.2   1 <1>   0.5440 
 13 O        5.1830    -5.7200     1.4210 O.2   1 <1>  -0.5700 
 14 C        6.4430    -3.8240     1.0490 C.ar  1 <1>   0.0860 
 15 C        7.5810    -4.3120     0.4130 C.ar  1 <1>  -0.1500 
 16 C        6.5460    -2.5980     1.7070 C.ar  1 <1>  -0.1500 
 17 C        8.7730    -3.6070     0.4120 C.ar  1 <1>   0.0820 
 18 C        7.7290    -1.8820     1.7140 C.ar  1 <1>  -0.1500 
 19 O        9.8150    -4.1740    -0.2440 O.3   1 <1>  -0.3630 
 20 C        8.8450    -2.3810     1.0660 C.ar  1 <1>  -0.1500 
 21 C       11.1020    -3.6010    -0.2140 C.3   1 <1>   0.2580 
 22 C       12.0380    -4.5010    -0.9970 C.2   1 <1>  -0.2880 
 23 C       13.1610    -5.0520    -0.5260 C.2   1 <1>  -0.3000 
 24 H       -2.2220    -1.9610    -1.3530 H     1 <1>   0.0800 
 25 H       -1.7340    -0.6320    -0.3060 H     1 <1>   0.0800 
 26 H        0.6170    -4.3890     0.7320 H     1 <1>   0.0800 
 27 H        1.5450    -3.2230     1.6310 H     1 <1>   0.0800 
 28 H        2.7820    -1.7400    -1.6970 H     1 <1>   0.0800 
 29 H        2.8720    -3.4620    -1.9310 H     1 <1>   0.0800 
 30 H       -3.1330    -3.1740     0.6150 H     1 <1>   0.0800 
 31 H       -3.8950    -1.6110     0.4660 H     1 <1>   0.0800 
 32 H       -2.6450    -1.8480     1.6610 H     1 <1>   0.0800 
 33 H        2.6300    -5.4370    -0.1190 H     1 <1>   0.0800 
 34 H        2.7380    -5.3270     1.6120 H     1 <1>   0.0800 
 35 H        3.9510    -1.9060     0.4240 H     1 <1>   0.0800 
 36 H        4.8940    -2.6700    -0.8260 H     1 <1>   0.0800 
 37 H        7.5350    -5.2630    -0.0870 H     1 <1>   0.1500 
 38 H        5.6850    -2.2100     2.2230 H     1 <1>   0.1500 
 39 H        7.7830    -0.9370     2.2280 H     1 <1>   0.1500 
 40 H        9.7510    -1.8050     1.0850 H     1 <1>   0.1500 
 41 H       11.4170    -3.5200     0.8120 H     1 <1>   0.0800 
 42 H       11.0520    -2.6270    -0.6690 H     1 <1>   0.0800 
 43 H       11.6920    -4.6600    -2.0040 H     1 <1>   0.1500 
 44 H       13.8040    -5.6910    -1.1070 H     1 <1>   0.1500 
 45 H       13.5320    -4.9180     0.4760 H     1 <1>   0.1500 
@<TRIPOS>BOND
  1   1   2  2   
  2   2   3  1   
  3   2   4  am  
  4   3   5  1   
  5   4   6  1   
  6   4   7  1   
  7   5   8  1   
  8   5  24  1   
  9   5  25  1   
 10   6   9  1   
 11   6  26  1   
 12   6  27  1   
 13   7  10  1   
 14   7  28  1   
 15   7  29  1   
 16   8  30  1   
 17   8  31  1   
 18   8  32  1   
 19   9  11  1   
 20   9  33  1   
 21   9  34  1   
 22  10  11  1   
 23  10  35  1   
 24  10  36  1   
 25  11  12  am  
 26  12  13  2   
 27  12  14  1   
 28  14  15  ar  
 29  14  16  ar  
 30  15  17  ar  
 31  15  37  1   
 32  16  18  ar  
 33  16  38  1   
 34  17  19  1   
 35  17  20  ar  
 36  18  20  ar  
 37  18  39  1   
 38  19  21  1   
 39  20  40  1   
 40  21  22  1   
 41  21  41  1   
 42  21  42  1   
 43  22  23  2   
 44  22  43  1   
 45  23  44  1   
 46  23  45  1   
@<TRIPOS>SUBSTRUCTURE
  1 ****  11 GROUP 4 **** **** 0

# MOE 2024.06 (io_trps.svl 2023.06)
