@<TRIPOS>MOLECULE
NONAME
47 49 1 0 0 
SMALL
USER_CHARGES


@<TRIPOS>ATOM
  1 BR       0.2760     0.0140     1.4270 Br    1 <1>  -0.1110 
  2 C        2.1680    -0.0250     1.0710 C.ar  1 <1>   0.1110 
  3 C        2.9220     1.1000     1.3430 C.ar  1 <1>  -0.1500 
  4 C        2.7270    -1.1770     0.5540 C.ar  1 <1>  -0.1500 
  5 C        4.2810     1.0650     1.0840 C.ar  1 <1>  -0.1500 
  6 C        4.0870    -1.1940     0.3000 C.ar  1 <1>  -0.1500 
  7 C        4.8840    -0.0780     0.5570 C.ar  1 <1>   0.1170 
  8 N        6.2660    -0.0980     0.2820 N.am  1 <1>  -0.4770 
  9 C        7.1400    -1.1410     0.3950 C.2   1 <1>   0.5690 
 10 C        6.9640     1.1020    -0.2260 C.3   1 <1>   0.1400 
 11 O        6.8980    -2.2580     0.7810 O.2   1 <1>  -0.5700 
 12 C        8.5240    -0.7480    -0.0390 C.3   1 <1>  -0.0990 
 13 C        8.2920     0.5730    -0.7870 C.3   1 <1>  -0.0190 
 14 C        9.4420     1.5620    -0.6720 C.2   1 <1>   0.5690 
 15 O        9.2160     2.7040    -0.3590 O.2   1 <1>  -0.5700 
 16 N       10.7030     1.1280    -0.9330 N.am  1 <1>  -0.7300 
 17 C       11.9150     1.9810    -0.8750 C.3   1 <1>   0.1400 
 18 C       12.6150     1.8020     0.4710 C.3   1 <1>  -0.0170 
 19 C       13.8950     2.6190     0.5080 C.ar  1 <1>  -0.1430 
 20 C       15.1190     2.0270     0.2330 C.ar  1 <1>  -0.1500 
 21 C       13.8470     3.9700     0.8140 C.ar  1 <1>  -0.1500 
 22 C       16.2830     2.7750     0.2610 C.ar  1 <1>  -0.1500 
 23 C       15.0100     4.7200     0.8430 C.ar  1 <1>  -0.1500 
 24 C       16.2330     4.1320     0.5680 C.ar  1 <1>   0.0830 
 25 O       17.3240     4.9370     0.6170 O.3   1 <1>  -0.3620 
 26 C       18.6170     4.4340     0.3640 C.3   1 <1>   0.0400 
 27 H        2.4540     1.9790     1.7490 H     1 <1>   0.1500 
 28 H        2.1140    -2.0380     0.3570 H     1 <1>   0.1500 
 29 H        4.8750     1.9330     1.3020 H     1 <1>   0.1500 
 30 H        4.5360    -2.0850    -0.1020 H     1 <1>   0.1500 
 31 H        7.1310     1.7780     0.5960 H     1 <1>   0.0800 
 32 H        6.3840     1.5940    -0.9890 H     1 <1>   0.0800 
 33 H        8.9560    -1.5030    -0.6700 H     1 <1>   0.0800 
 34 H        9.1280    -0.6050     0.8390 H     1 <1>   0.0800 
 35 H        8.1410     0.3610    -1.8300 H     1 <1>   0.0800 
 36 H       10.8650     0.1530    -1.1910 H     1 <1>   0.3700 
 37 H       11.6400     3.0160    -1.0020 H     1 <1>   0.0800 
 38 H       12.5820     1.7120    -1.6760 H     1 <1>   0.0800 
 39 H       12.8440     0.7630     0.6290 H     1 <1>   0.0800 
 40 H       11.9600     2.1290     1.2600 H     1 <1>   0.0800 
 41 H       15.1720     0.9800    -0.0050 H     1 <1>   0.1500 
 42 H       12.9060     4.4450     1.0300 H     1 <1>   0.1500 
 43 H       17.2140     2.2880     0.0440 H     1 <1>   0.1500 
 44 H       14.9750     5.7680     1.0790 H     1 <1>   0.1500 
 45 H       19.3160     5.2450     0.4640 H     1 <1>   0.0800 
 46 H       18.6490     4.0450    -0.6380 H     1 <1>   0.0800 
 47 H       18.8400     3.6680     1.0850 H     1 <1>   0.0800 
@<TRIPOS>BOND
  1   1   2  1   
  2   2   3  ar  
  3   2   4  ar  
  4   3   5  ar  
  5   3  27  1   
  6   4   6  ar  
  7   4  28  1   
  8   5   7  ar  
  9   5  29  1   
 10   6   7  ar  
 11   6  30  1   
 12   7   8  1   
 13   8   9  am  
 14   8  10  1   
 15   9  11  2   
 16   9  12  1   
 17  10  13  1   
 18  10  31  1   
 19  10  32  1   
 20  12  13  1   
 21  12  33  1   
 22  12  34  1   
 23  13  14  1   
 24  13  35  1   
 25  14  15  2   
 26  14  16  am  
 27  16  17  1   
 28  16  36  1   
 29  17  18  1   
 30  17  37  1   
 31  17  38  1   
 32  18  19  1   
 33  18  39  1   
 34  18  40  1   
 35  19  20  ar  
 36  19  21  ar  
 37  20  22  ar  
 38  20  41  1   
 39  21  23  ar  
 40  21  42  1   
 41  22  24  ar  
 42  22  43  1   
 43  23  24  ar  
 44  23  44  1   
 45  24  25  1   
 46  25  26  1   
 47  26  45  1   
 48  26  46  1   
 49  26  47  1   
@<TRIPOS>SUBSTRUCTURE
  1 ****  14 GROUP 4 **** **** 0

# MOE 2024.06 (io_trps.svl 2023.06)
