@<TRIPOS>MOLECULE
NONAME
50 51 1 0 0 
SMALL
USER_CHARGES


@<TRIPOS>ATOM
  1 BR       0.3140    -1.0060    -2.2580 Br    1 <1>  -0.1110 
  2 C       -1.1840    -1.2650    -1.0650 C.ar  1 <1>   0.1110 
  3 C       -1.0910    -2.1700    -0.0140 C.ar  1 <1>   0.0830 
  4 C       -2.3320    -0.5330    -1.2990 C.ar  1 <1>  -0.1500 
  5 O        0.0320    -2.8860     0.2190 O.3   1 <1>  -0.3630 
  6 C       -2.1920    -2.3510     0.8060 C.ar  1 <1>  -0.1500 
  7 C       -3.4250    -0.7100    -0.4640 C.ar  1 <1>  -0.1430 
  8 C        1.0940    -2.2070     0.8390 C.3   1 <1>   0.1200 
  9 C       -3.3500    -1.6220     0.5810 C.ar  1 <1>  -0.1500 
 10 C       -4.7020     0.0780    -0.6950 C.3   1 <1>  -0.0960 
 11 C        2.3820    -2.9160     0.4230 C.3   1 <1>  -0.1600 
 12 C        3.6040    -2.1820     0.9690 C.3   1 <1>   0.3430 
 13 N        4.8530    -2.7680     0.4050 N.4   1 <1>  -0.9590 
 14 C        5.1330    -4.1370     0.9350 C.3   1 <1>   0.3430 
 15 C        6.0070    -1.8500     0.6210 C.3   1 <1>   0.3430 
 16 C        6.3390    -4.7290     0.2090 C.3   1 <1>  -0.1600 
 17 C        7.2330    -2.3880    -0.1140 C.3   1 <1>  -0.1600 
 18 C        7.5810    -3.8260     0.3160 C.3   1 <1>  -0.0190 
 19 C        8.7320    -4.3840    -0.5160 C.2   1 <1>   0.6590 
 20 O        8.6490    -4.4710    -1.7130 O.2   1 <1>  -0.5700 
 21 O        9.8070    -4.7600     0.1590 O.3   1 <1>  -0.4300 
 22 C       10.9350    -5.2940    -0.4960 C.3   1 <1>   0.1200 
 23 C       11.9850    -5.6220     0.5610 C.3   1 <1>  -0.2400 
 24 H       -2.3660     0.1590    -2.1210 H     1 <1>   0.1500 
 25 H       -2.1440    -3.0600     1.6130 H     1 <1>   0.1500 
 26 H        0.9360    -2.2480     1.9040 H     1 <1>   0.0800 
 27 H        1.0920    -1.1800     0.5130 H     1 <1>   0.0800 
 28 H       -4.1990    -1.7700     1.2260 H     1 <1>   0.1500 
 29 H       -4.4960     0.9860    -1.2340 H     1 <1>   0.0800 
 30 H       -5.1560     0.3380     0.2450 H     1 <1>   0.0800 
 31 H       -5.3960    -0.5130    -1.2640 H     1 <1>   0.0800 
 32 H        2.4220    -2.9310    -0.6520 H     1 <1>   0.0800 
 33 H        2.3460    -3.9230     0.7970 H     1 <1>   0.0800 
 34 H        3.6180    -2.2350     2.0460 H     1 <1>   0.0800 
 35 H        3.5360    -1.1440     0.6830 H     1 <1>   0.0800 
 36 H        4.7230    -2.8570    -0.6140 H     1 <1>   0.4500 
 37 H        4.2800    -4.7790     0.7830 H     1 <1>   0.0800 
 38 H        5.3340    -4.0860     1.9930 H     1 <1>   0.0800 
 39 H        6.2220    -1.7720     1.6750 H     1 <1>   0.0800 
 40 H        5.7730    -0.8650     0.2490 H     1 <1>   0.0800 
 41 H        6.0850    -4.8870    -0.8260 H     1 <1>   0.0800 
 42 H        6.5630    -5.6940     0.6320 H     1 <1>   0.0800 
 43 H        8.0730    -1.7440     0.0850 H     1 <1>   0.0800 
 44 H        7.0510    -2.3540    -1.1750 H     1 <1>   0.0800 
 45 H        7.9010    -3.8050     1.3440 H     1 <1>   0.0800 
 46 H       11.3050    -4.5600    -1.1940 H     1 <1>   0.0800 
 47 H       10.6350    -6.1790    -1.0310 H     1 <1>   0.0800 
 48 H       12.2700    -4.7310     1.0910 H     1 <1>   0.0800 
 49 H       12.8590    -6.0310     0.0870 H     1 <1>   0.0800 
 50 H       11.6000    -6.3480     1.2540 H     1 <1>   0.0800 
@<TRIPOS>BOND
  1   1   2  1   
  2   2   3  ar  
  3   2   4  ar  
  4   3   5  1   
  5   3   6  ar  
  6   4   7  ar  
  7   4  24  1   
  8   5   8  1   
  9   6   9  ar  
 10   6  25  1   
 11   7   9  ar  
 12   7  10  1   
 13   8  11  1   
 14   8  26  1   
 15   8  27  1   
 16   9  28  1   
 17  10  29  1   
 18  10  30  1   
 19  10  31  1   
 20  11  12  1   
 21  11  32  1   
 22  11  33  1   
 23  12  13  1   
 24  12  34  1   
 25  12  35  1   
 26  13  14  1   
 27  13  15  1   
 28  13  36  1   
 29  14  16  1   
 30  14  37  1   
 31  14  38  1   
 32  15  17  1   
 33  15  39  1   
 34  15  40  1   
 35  16  18  1   
 36  16  41  1   
 37  16  42  1   
 38  17  18  1   
 39  17  43  1   
 40  17  44  1   
 41  18  19  1   
 42  18  45  1   
 43  19  20  2   
 44  19  21  1   
 45  21  22  1   
 46  22  23  1   
 47  22  46  1   
 48  22  47  1   
 49  23  48  1   
 50  23  49  1   
 51  23  50  1   
@<TRIPOS>SUBSTRUCTURE
  1 ****  11 GROUP 4 **** **** 0

# MOE 2024.06 (io_trps.svl 2023.06)
