@<TRIPOS>MOLECULE
NONAME
39 40 1 0 0 
SMALL
USER_CHARGES


@<TRIPOS>ATOM
  1 CL       0.2260    -0.3140    -1.0080 Cl    1 <1>  -0.1770 
  2 C        1.6010     0.7030    -0.6650 C.ar  1 <1>   0.1770 
  3 C        2.8520     0.1260    -0.5280 C.ar  1 <1>  -0.1500 
  4 C        1.4180     2.0690    -0.5360 C.ar  1 <1>  -0.1500 
  5 C        3.9470     0.9310    -0.2550 C.ar  1 <1>  -0.1500 
  6 C        2.5120     2.8740    -0.2640 C.ar  1 <1>  -0.1500 
  7 C        3.7660     2.3010    -0.1260 C.ar  1 <1>   0.1020 
  8 S        5.1350     3.4180     0.2270 S.3   1 <1>  -0.3320 
  9 C        6.6510     2.3680     0.3450 C.3   1 <1>   0.0700 
 10 C        7.8410     3.2830     0.6410 C.3   1 <1>  -0.0990 
 11 C        9.1540     2.5220     0.7390 C.2   1 <1>   0.5690 
 12 O        9.1120     1.3140     0.6960 O.2   1 <1>  -0.5700 
 13 N       10.3440     3.1990     0.8640 N.am  1 <1>  -0.6600 
 14 C       11.6320     2.4520     0.8700 C.3   1 <1>   0.1400 
 15 C       10.4710     4.6770     0.9650 C.3   1 <1>   0.1400 
 16 C       12.1780     2.3670    -0.5580 C.3   1 <1>  -0.1600 
 17 C       11.1060     5.2680    -0.2990 C.3   1 <1>  -0.1600 
 18 C       12.9420     3.6060    -1.0650 C.3   1 <1>  -0.1600 
 19 C       12.6070     4.9610    -0.4200 C.3   1 <1>  -0.1600 
 20 H        2.9630    -0.9380    -0.6330 H     1 <1>   0.1500 
 21 H        0.4350     2.4910    -0.6480 H     1 <1>   0.1500 
 22 H        4.9150     0.4800    -0.1490 H     1 <1>   0.1500 
 23 H        2.3980     3.9390    -0.1590 H     1 <1>   0.1500 
 24 H        6.7720     1.8610    -0.5960 H     1 <1>   0.0800 
 25 H        6.4970     1.6580     1.1390 H     1 <1>   0.0800 
 26 H        7.6680     3.7910     1.5710 H     1 <1>   0.0800 
 27 H        7.9210     4.0070    -0.1480 H     1 <1>   0.0800 
 28 H       11.4630     1.4550     1.2400 H     1 <1>   0.0800 
 29 H       12.3410     2.9230     1.5280 H     1 <1>   0.0800 
 30 H       11.0720     4.9210     1.8250 H     1 <1>   0.0800 
 31 H        9.5100     5.1320     1.1160 H     1 <1>   0.0800 
 32 H       11.3570     2.1530    -1.2220 H     1 <1>   0.0800 
 33 H       12.8420     1.5230    -0.6130 H     1 <1>   0.0800 
 34 H       10.9940     6.3360    -0.2420 H     1 <1>   0.0800 
 35 H       10.5740     4.9360    -1.1750 H     1 <1>   0.0800 
 36 H       12.7830     3.6800    -2.1280 H     1 <1>   0.0800 
 37 H       13.9960     3.4340    -0.9240 H     1 <1>   0.0800 
 38 H       13.0660     5.0210     0.5520 H     1 <1>   0.0800 
 39 H       13.0630     5.7270    -1.0230 H     1 <1>   0.0800 
@<TRIPOS>BOND
  1   1   2  1   
  2   2   3  ar  
  3   2   4  ar  
  4   3   5  ar  
  5   3  20  1   
  6   4   6  ar  
  7   4  21  1   
  8   5   7  ar  
  9   5  22  1   
 10   6   7  ar  
 11   6  23  1   
 12   7   8  1   
 13   8   9  1   
 14   9  10  1   
 15   9  24  1   
 16   9  25  1   
 17  10  11  1   
 18  10  26  1   
 19  10  27  1   
 20  11  12  2   
 21  11  13  am  
 22  13  14  1   
 23  13  15  1   
 24  14  16  1   
 25  14  28  1   
 26  14  29  1   
 27  15  17  1   
 28  15  30  1   
 29  15  31  1   
 30  16  18  1   
 31  16  32  1   
 32  16  33  1   
 33  17  19  1   
 34  17  34  1   
 35  17  35  1   
 36  18  19  1   
 37  18  36  1   
 38  18  37  1   
 39  19  38  1   
 40  19  39  1   
@<TRIPOS>SUBSTRUCTURE
  1 ****   9 GROUP 4 **** **** 0

# MOE 2024.06 (io_trps.svl 2023.06)
