@<TRIPOS>MOLECULE
NONAME
48 48 1 0 0 
SMALL
USER_CHARGES


@<TRIPOS>ATOM
  1 S        0.1760    -0.3000    -0.8330 S.2   1 <1>  -0.3800 
  2 C       -0.1880    -1.6510    -0.0360 C.2   1 <1>   0.5810 
  3 S       -1.9110    -2.0780     0.0210 S.3   1 <1>  -0.3710 
  4 N        0.7060    -2.4600     0.5760 N.am  1 <1>  -0.6600 
  5 C       -2.8060    -0.7710    -0.9670 C.3   1 <1>   0.1310 
  6 C        0.3340    -3.6910     1.3270 C.3   1 <1>   0.1400 
  7 C        2.1700    -2.1890     0.5460 C.3   1 <1>   0.1400 
  8 C       -4.3000    -1.0430    -1.0210 C.2   1 <1>   0.5690 
  9 C        0.3380    -4.8900     0.3800 C.3   1 <1>  -0.2400 
 10 C        2.5680    -1.3820     1.7800 C.3   1 <1>  -0.2400 
 11 O       -4.9420    -0.5210    -1.8980 O.2   1 <1>  -0.5700 
 12 N       -4.8490    -1.8670    -0.0800 N.am  1 <1>  -0.5470 
 13 C       -6.1650    -2.3400     0.0050 C.ar  1 <1>   0.1170 
 14 C       -6.4580    -3.6370    -0.4290 C.ar  1 <1>  -0.1430 
 15 C       -7.1850    -1.5470     0.5440 C.ar  1 <1>  -0.1430 
 16 C       -7.7510    -4.1220    -0.3260 C.ar  1 <1>  -0.1500 
 17 C       -5.3960    -4.5540    -1.0340 C.3   1 <1>  -0.0170 
 18 C       -8.4700    -2.0570     0.6390 C.ar  1 <1>  -0.1500 
 19 C       -6.9510    -0.1250     1.0510 C.3   1 <1>  -0.0170 
 20 C       -8.7550    -3.3370     0.2070 C.ar  1 <1>  -0.1500 
 21 C       -5.2820    -4.3260    -2.5430 C.3   1 <1>  -0.2400 
 22 C       -7.4790     0.9090     0.0520 C.3   1 <1>  -0.2400 
 23 H       -2.3970    -0.7800    -1.9610 H     1 <1>   0.0800 
 24 H       -2.6200     0.1780    -0.4990 H     1 <1>   0.0800 
 25 H       -0.6370    -3.5810     1.7780 H     1 <1>   0.0800 
 26 H        1.0370    -3.8560     2.1250 H     1 <1>   0.0800 
 27 H        2.4330    -1.6430    -0.3450 H     1 <1>   0.0800 
 28 H        2.7130    -3.1190     0.5240 H     1 <1>   0.0800 
 29 H       -0.3770    -4.7440    -0.4090 H     1 <1>   0.0800 
 30 H        0.0700    -5.7780     0.9220 H     1 <1>   0.0800 
 31 H        1.3150    -5.0320    -0.0450 H     1 <1>   0.0800 
 32 H        2.0450    -0.4420     1.7920 H     1 <1>   0.0800 
 33 H        3.6230    -1.1810     1.7540 H     1 <1>   0.0800 
 34 H        2.3460    -1.9260     2.6790 H     1 <1>   0.0800 
 35 H       -4.1760    -2.3330     0.5290 H     1 <1>   0.3700 
 36 H       -7.9870    -5.1160    -0.6640 H     1 <1>   0.1500 
 37 H       -5.6600    -5.5810    -0.8520 H     1 <1>   0.0800 
 38 H       -4.4410    -4.3890    -0.5690 H     1 <1>   0.0800 
 39 H       -9.2590    -1.4540     1.0510 H     1 <1>   0.1500 
 40 H       -5.9070     0.0560     1.2310 H     1 <1>   0.0800 
 41 H       -7.4580     0.0010     1.9910 H     1 <1>   0.0800 
 42 H       -9.7570    -3.7210     0.2830 H     1 <1>   0.1500 
 43 H       -6.2230    -4.5320    -3.0200 H     1 <1>   0.0800 
 44 H       -4.5300    -4.9700    -2.9620 H     1 <1>   0.0800 
 45 H       -5.0150    -3.3040    -2.7470 H     1 <1>   0.0800 
 46 H       -6.9870     0.7890    -0.8970 H     1 <1>   0.0800 
 47 H       -7.2930     1.9040     0.4130 H     1 <1>   0.0800 
 48 H       -8.5360     0.7840    -0.0950 H     1 <1>   0.0800 
@<TRIPOS>BOND
  1   1   2  2   
  2   2   3  1   
  3   2   4  am  
  4   3   5  1   
  5   4   6  1   
  6   4   7  1   
  7   5   8  1   
  8   5  23  1   
  9   5  24  1   
 10   6   9  1   
 11   6  25  1   
 12   6  26  1   
 13   7  10  1   
 14   7  27  1   
 15   7  28  1   
 16   8  11  2   
 17   8  12  am  
 18   9  29  1   
 19   9  30  1   
 20   9  31  1   
 21  10  32  1   
 22  10  33  1   
 23  10  34  1   
 24  12  13  1   
 25  12  35  1   
 26  13  14  ar  
 27  13  15  ar  
 28  14  16  ar  
 29  14  17  1   
 30  15  18  ar  
 31  15  19  1   
 32  16  20  ar  
 33  16  36  1   
 34  17  21  1   
 35  17  37  1   
 36  17  38  1   
 37  18  20  ar  
 38  18  39  1   
 39  19  22  1   
 40  19  40  1   
 41  19  41  1   
 42  20  42  1   
 43  21  43  1   
 44  21  44  1   
 45  21  45  1   
 46  22  46  1   
 47  22  47  1   
 48  22  48  1   
@<TRIPOS>SUBSTRUCTURE
  1 ****  12 GROUP 4 **** **** 0

# MOE 2024.06 (io_trps.svl 2023.06)
