@<TRIPOS>MOLECULE
NONAME
38 39 1 0 0 
SMALL
USER_CHARGES


@<TRIPOS>ATOM
  1 F        0.4740     0.7740     0.1470 F     1 <1>  -0.1900 
  2 C        1.7210     1.1510     0.0430 C.ar  1 <1>   0.1900 
  3 C        2.0000     2.3800    -0.5230 C.ar  1 <1>  -0.1500 
  4 C        2.7130     0.3060     0.5030 C.ar  1 <1>  -0.1500 
  5 C        3.3240     2.7720    -0.6290 C.ar  1 <1>  -0.1500 
  6 C        4.0340     0.7060     0.3930 C.ar  1 <1>  -0.1500 
  7 C        4.3430     1.9440    -0.1750 C.ar  1 <1>   0.0830 
  8 O        5.6090     2.4100    -0.3200 O.3   1 <1>  -0.3630 
  9 C        6.7200     1.6620     0.1050 C.3   1 <1>   0.1200 
 10 C        7.9650     2.4910    -0.2060 C.3   1 <1>  -0.1600 
 11 C        9.2290     1.7570     0.2360 C.3   1 <1>   0.3430 
 12 N       10.4430     2.5200    -0.1680 N.4   1 <1>  -0.9590 
 13 C       11.6560     1.6530    -0.0920 C.3   1 <1>   0.3430 
 14 C       10.6220     3.7740     0.6270 C.3   1 <1>   0.3430 
 15 C       12.8640     2.4020    -0.6570 C.3   1 <1>  -0.1600 
 16 C       11.8090     4.5690     0.0800 C.3   1 <1>  -0.1600 
 17 C       13.0960     3.7340     0.0680 C.3   1 <1>  -0.1600 
 18 H        1.2010     3.0100    -0.8700 H     1 <1>   0.1500 
 19 H        2.4500    -0.6420     0.9370 H     1 <1>   0.1500 
 20 H        3.5730     3.7230    -1.0650 H     1 <1>   0.1500 
 21 H        4.7980     0.0440     0.7520 H     1 <1>   0.1500 
 22 H        6.7240     0.7300    -0.4340 H     1 <1>   0.0800 
 23 H        6.6210     1.4860     1.1630 H     1 <1>   0.0800 
 24 H        7.8780     3.4290     0.3120 H     1 <1>   0.0800 
 25 H        7.9990     2.6660    -1.2670 H     1 <1>   0.0800 
 26 H        9.2450     0.7850    -0.2320 H     1 <1>   0.0800 
 27 H        9.2210     1.6150     1.3050 H     1 <1>   0.0800 
 28 H       10.3360     2.7990    -1.1520 H     1 <1>   0.4500 
 29 H       11.5020     0.7480    -0.6570 H     1 <1>   0.0800 
 30 H       11.8490     1.3840     0.9350 H     1 <1>   0.0800 
 31 H       10.7990     3.5290     1.6620 H     1 <1>   0.0800 
 32 H        9.7340     4.3840     0.5710 H     1 <1>   0.0800 
 33 H       12.7180     2.5770    -1.7090 H     1 <1>   0.0800 
 34 H       13.7410     1.7860    -0.5530 H     1 <1>   0.0800 
 35 H       11.9580     5.4420     0.6910 H     1 <1>   0.0800 
 36 H       11.5820     4.9100    -0.9150 H     1 <1>   0.0800 
 37 H       13.8850     4.2840    -0.4190 H     1 <1>   0.0800 
 38 H       13.4090     3.5420     1.0810 H     1 <1>   0.0800 
@<TRIPOS>BOND
  1   1   2  1   
  2   2   3  ar  
  3   2   4  ar  
  4   3   5  ar  
  5   3  18  1   
  6   4   6  ar  
  7   4  19  1   
  8   5   7  ar  
  9   5  20  1   
 10   6   7  ar  
 11   6  21  1   
 12   7   8  1   
 13   8   9  1   
 14   9  10  1   
 15   9  22  1   
 16   9  23  1   
 17  10  11  1   
 18  10  24  1   
 19  10  25  1   
 20  11  12  1   
 21  11  26  1   
 22  11  27  1   
 23  12  13  1   
 24  12  14  1   
 25  12  28  1   
 26  13  15  1   
 27  13  29  1   
 28  13  30  1   
 29  14  16  1   
 30  14  31  1   
 31  14  32  1   
 32  15  17  1   
 33  15  33  1   
 34  15  34  1   
 35  16  17  1   
 36  16  35  1   
 37  16  36  1   
 38  17  37  1   
 39  17  38  1   
@<TRIPOS>SUBSTRUCTURE
  1 ****   9 GROUP 4 **** **** 0

# MOE 2024.06 (io_trps.svl 2023.06)
