@<TRIPOS>MOLECULE
NONAME
39 41 1 0 0 
SMALL
USER_CHARGES


@<TRIPOS>ATOM
  1 CL      -2.2970     1.0220    -1.8020 Cl    1 <1>  -0.1770 
  2 C       -1.1890     2.1400    -1.0340 C.ar  1 <1>   0.1770 
  3 C       -0.0880     2.6140    -1.7290 C.ar  1 <1>   0.1770 
  4 C       -1.4360     2.5490     0.2690 C.ar  1 <1>  -0.1440 
  5 CL       0.2150     2.1050    -3.3720 Cl    1 <1>  -0.1770 
  6 C        0.7850     3.5040    -1.1310 C.ar  1 <1>  -0.1500 
  7 C       -0.5540     3.4430     0.8660 C.ar  1 <1>  -0.1500 
  8 C       -2.6420     2.0240     1.0260 C.3   1 <1>   0.4870 
  9 C        0.5480     3.9160     0.1700 C.ar  1 <1>  -0.1500 
 10 N       -3.8880     2.5670     0.4220 N.4   1 <1>  -0.9590 
 11 C       -3.9550     4.0750     0.4850 C.3   1 <1>   0.3430 
 12 C       -5.1190     1.9470     1.0320 C.3   1 <1>   0.3430 
 13 C       -5.2540     4.6330    -0.1310 C.3   1 <1>   0.2090 
 14 C       -6.4220     2.4960     0.4170 C.3   1 <1>   0.2090 
 15 N       -6.4610     3.9880     0.4650 N.pl3 1 <1>  -0.8380 
 16 C       -7.6520     4.5290     0.0340 C.ar  1 <1>   0.4100 
 17 N       -7.9570     4.3280    -1.2400 N.ar  1 <1>  -0.6200 
 18 C       -8.4540     5.2410     0.9210 C.ar  1 <1>  -0.1500 
 19 C       -9.1030     4.8540    -1.6420 C.ar  1 <1>   0.1600 
 20 C       -9.6410     5.7820     0.4880 C.ar  1 <1>  -0.1500 
 21 C       -9.9670     5.5760    -0.8380 C.ar  1 <1>  -0.1500 
 22 H        1.6390     3.8660    -1.6790 H     1 <1>   0.1500 
 23 H       -0.7060     3.7780     1.8800 H     1 <1>   0.1500 
 24 H       -2.5770     2.3110     2.0630 H     1 <1>   0.0800 
 25 H       -2.6480     0.9470     0.9730 H     1 <1>   0.0800 
 26 H        1.2300     4.6070     0.6410 H     1 <1>   0.1500 
 27 H       -3.8770     2.3060    -0.5750 H     1 <1>   0.4500 
 28 H       -3.1140     4.5030    -0.0350 H     1 <1>   0.0800 
 29 H       -3.9090     4.3970     1.5120 H     1 <1>   0.0800 
 30 H       -5.1400     2.1490     2.0900 H     1 <1>   0.0800 
 31 H       -5.0960     0.8770     0.8990 H     1 <1>   0.0800 
 32 H       -5.2490     4.4730    -1.1970 H     1 <1>   0.0800 
 33 H       -5.3030     5.6950     0.0380 H     1 <1>   0.0800 
 34 H       -7.2660     2.1040     0.9600 H     1 <1>   0.0800 
 35 H       -6.5090     2.1650    -0.6040 H     1 <1>   0.0800 
 36 H       -8.1310     5.3570     1.9370 H     1 <1>   0.1500 
 37 H       -9.3710     4.7020    -2.6740 H     1 <1>   0.1500 
 38 H      -10.2860     6.3380     1.1470 H     1 <1>   0.1500 
 39 H      -10.8810     5.9720    -1.2420 H     1 <1>   0.1500 
@<TRIPOS>BOND
  1   1   2  1   
  2   2   3  ar  
  3   2   4  ar  
  4   3   5  1   
  5   3   6  ar  
  6   4   7  ar  
  7   4   8  1   
  8   6   9  ar  
  9   6  22  1   
 10   7   9  ar  
 11   7  23  1   
 12   8  10  1   
 13   8  24  1   
 14   8  25  1   
 15   9  26  1   
 16  10  11  1   
 17  10  12  1   
 18  10  27  1   
 19  11  13  1   
 20  11  28  1   
 21  11  29  1   
 22  12  14  1   
 23  12  30  1   
 24  12  31  1   
 25  13  15  1   
 26  13  32  1   
 27  13  33  1   
 28  14  15  1   
 29  14  34  1   
 30  14  35  1   
 31  15  16  1   
 32  16  17  ar  
 33  16  18  ar  
 34  17  19  ar  
 35  18  20  ar  
 36  18  36  1   
 37  19  21  ar  
 38  19  37  1   
 39  20  21  ar  
 40  20  38  1   
 41  21  39  1   
@<TRIPOS>SUBSTRUCTURE
  1 ****  11 GROUP 4 **** **** 0

# MOE 2024.06 (io_trps.svl 2023.06)
