@<TRIPOS>MOLECULE
NONAME
52 54 1 0 0 
SMALL
USER_CHARGES


@<TRIPOS>ATOM
  1 O       -2.1910     0.0770     1.5520 O.3   1 <1>  -0.3630 
  2 C       -2.5040     0.9070     0.5160 C.ar  1 <1>   0.0830 
  3 C       -0.9040     0.0170     2.1270 C.3   1 <1>   0.0400 
  4 C       -1.7690     2.0210     0.0710 C.ar  1 <1>   0.0830 
  5 C       -3.6840     0.5710    -0.1250 C.ar  1 <1>  -0.1500 
  6 O       -0.6160     2.3830     0.7040 O.3   1 <1>  -0.3630 
  7 C       -2.2510     2.7490    -1.0160 C.ar  1 <1>  -0.1500 
  8 C       -4.1650     1.3110    -1.1930 C.ar  1 <1>  -0.1430 
  9 C        0.1860     3.4610     0.2720 C.3   1 <1>   0.0400 
 10 C       -3.4350     2.3990    -1.6420 C.ar  1 <1>  -0.1500 
 11 C       -5.4800     0.9340    -1.8450 C.3   1 <1>   0.4860 
 12 N       -6.5730     1.1880    -0.8690 N.4   1 <1>  -0.9590 
 13 C       -7.8670     0.6160    -1.3330 C.3   1 <1>   0.3430 
 14 C       -6.6830     2.6360    -0.5260 C.3   1 <1>   0.3430 
 15 C       -8.9150     0.7670    -0.2330 C.3   1 <1>  -0.1600 
 16 C       -7.7150     2.8230     0.5870 C.3   1 <1>  -0.1600 
 17 C       -9.0820     2.2350     0.2040 C.3   1 <1>  -0.0800 
 18 C      -10.0850     2.3800     1.3640 C.3   1 <1>  -0.0170 
 19 C      -11.4520     1.8270     0.9910 C.ar  1 <1>  -0.1430 
 20 C      -12.2820     2.5360     0.1360 C.ar  1 <1>  -0.1500 
 21 C      -11.8810     0.6080     1.4960 C.ar  1 <1>  -0.1500 
 22 C      -13.5190     2.0280    -0.2200 C.ar  1 <1>  -0.1500 
 23 C      -13.1180     0.0990     1.1410 C.ar  1 <1>  -0.1500 
 24 C      -13.9370     0.8080     0.2810 C.ar  1 <1>  -0.1500 
 25 H       -0.8660    -0.8370     2.7780 H     1 <1>   0.0800 
 26 H       -0.7340     0.9140     2.6950 H     1 <1>   0.0800 
 27 H       -0.1740    -0.0850     1.3440 H     1 <1>   0.0800 
 28 H       -4.2150    -0.2920     0.2370 H     1 <1>   0.1500 
 29 H       -1.7170     3.6000    -1.3950 H     1 <1>   0.1500 
 30 H        1.0420     3.5200     0.9210 H     1 <1>   0.0800 
 31 H       -0.3830     4.3710     0.3390 H     1 <1>   0.0800 
 32 H        0.5080     3.2770    -0.7380 H     1 <1>   0.0800 
 33 H       -3.7730     2.9870    -2.4790 H     1 <1>   0.1500 
 34 H       -5.4550    -0.1100    -2.1130 H     1 <1>   0.0800 
 35 H       -5.6320     1.5160    -2.7400 H     1 <1>   0.0800 
 36 H       -6.3020     0.7060    -0.0030 H     1 <1>   0.4500 
 37 H       -7.7490    -0.4290    -1.5720 H     1 <1>   0.0800 
 38 H       -8.2000     1.1330    -2.2180 H     1 <1>   0.0800 
 39 H       -6.9850     3.1970    -1.3960 H     1 <1>   0.0800 
 40 H       -5.7290     3.0130    -0.1930 H     1 <1>   0.0800 
 41 H       -8.6430     0.1560     0.6090 H     1 <1>   0.0800 
 42 H       -9.8520     0.3930    -0.6110 H     1 <1>   0.0800 
 43 H       -7.8200     3.8760     0.7850 H     1 <1>   0.0800 
 44 H       -7.3480     2.3630     1.4880 H     1 <1>   0.0800 
 45 H       -9.4670     2.7930    -0.6340 H     1 <1>   0.0800 
 46 H      -10.1950     3.4190     1.6230 H     1 <1>   0.0800 
 47 H       -9.7160     1.8710     2.2380 H     1 <1>   0.0800 
 48 H      -11.9720     3.4880    -0.2580 H     1 <1>   0.1500 
 49 H      -11.2570     0.0460     2.1690 H     1 <1>   0.1500 
 50 H      -14.1590     2.5830    -0.8850 H     1 <1>   0.1500 
 51 H      -13.4460    -0.8470     1.5350 H     1 <1>   0.1500 
 52 H      -14.8990     0.4130     0.0050 H     1 <1>   0.1500 
@<TRIPOS>BOND
  1   1   2  1   
  2   1   3  1   
  3   2   4  ar  
  4   2   5  ar  
  5   3  25  1   
  6   3  26  1   
  7   3  27  1   
  8   4   6  1   
  9   4   7  ar  
 10   5   8  ar  
 11   5  28  1   
 12   6   9  1   
 13   7  10  ar  
 14   7  29  1   
 15   8  10  ar  
 16   8  11  1   
 17   9  30  1   
 18   9  31  1   
 19   9  32  1   
 20  10  33  1   
 21  11  12  1   
 22  11  34  1   
 23  11  35  1   
 24  12  13  1   
 25  12  14  1   
 26  12  36  1   
 27  13  15  1   
 28  13  37  1   
 29  13  38  1   
 30  14  16  1   
 31  14  39  1   
 32  14  40  1   
 33  15  17  1   
 34  15  41  1   
 35  15  42  1   
 36  16  17  1   
 37  16  43  1   
 38  16  44  1   
 39  17  18  1   
 40  17  45  1   
 41  18  19  1   
 42  18  46  1   
 43  18  47  1   
 44  19  20  ar  
 45  19  21  ar  
 46  20  22  ar  
 47  20  48  1   
 48  21  23  ar  
 49  21  49  1   
 50  22  24  ar  
 51  22  50  1   
 52  23  24  ar  
 53  23  51  1   
 54  24  52  1   
@<TRIPOS>SUBSTRUCTURE
  1 ****  12 GROUP 4 **** **** 0

# MOE 2024.06 (io_trps.svl 2023.06)
