@<TRIPOS>MOLECULE
NONAME
52 54 1 0 0 
SMALL
USER_CHARGES


@<TRIPOS>ATOM
  1 S        1.2760    -0.9840     1.1430 S.o2  1 <1>   1.4470 
  2 O        2.4120    -1.8720     1.2660 O.2   1 <1>  -0.6500 
  3 O        1.1680     0.1490     2.0340 O.2   1 <1>  -0.6500 
  4 N        1.2990    -0.3720    -0.4380 N.am  1 <1>  -0.8490 
  5 C       -0.2610    -1.9470     1.2170 C.ar  1 <1>  -0.0090 
  6 C        2.2730     0.7200    -0.5780 C.3   1 <1>   0.1960 
  7 C        1.5760    -1.4060    -1.4500 C.3   1 <1>   0.1960 
  8 C       -1.4130    -1.5290     0.5690 C.ar  1 <1>  -0.1500 
  9 C       -0.3280    -3.1250     1.9470 C.ar  1 <1>  -0.1500 
 10 C        2.2920     1.2690    -2.0170 C.3   1 <1>   0.1200 
 11 C        1.5980    -0.7990    -2.8650 C.3   1 <1>   0.1200 
 12 C       -2.6170    -2.2380     0.6010 C.ar  1 <1>   0.0860 
 13 C       -1.4970    -3.8560     2.0140 C.ar  1 <1>  -0.1500 
 14 O        2.5340     0.2400    -2.9360 O.3   1 <1>  -0.5600 
 15 C       -2.6430    -3.4290     1.3480 C.ar  1 <1>   0.0830 
 16 C       -3.7560    -1.7110    -0.1370 C.2   1 <1>   0.5440 
 17 O       -3.7920    -4.1510     1.4020 O.3   1 <1>  -0.3630 
 18 O       -3.5790    -0.9730    -1.0890 O.2   1 <1>  -0.5700 
 19 N       -5.0400    -2.0090     0.2150 N.am  1 <1>  -0.7300 
 20 C       -3.8960    -5.3980     2.0560 C.3   1 <1>   0.0400 
 21 C       -6.2650    -1.5590    -0.4620 C.3   1 <1>   0.2200 
 22 C       -7.2130    -0.9600     0.5810 C.3   1 <1>  -0.1600 
 23 C       -6.9030    -2.7560    -1.1720 C.3   1 <1>  -0.1600 
 24 C       -8.5600    -0.5740    -0.0490 C.3   1 <1>  -0.1600 
 25 C       -8.2490    -2.3740    -1.8060 C.3   1 <1>  -0.1600 
 26 C       -9.2020    -1.7710    -0.7640 C.3   1 <1>  -0.1600 
 27 H        3.2590     0.3720    -0.3180 H     1 <1>   0.0800 
 28 H        2.0160     1.5220     0.0940 H     1 <1>   0.0800 
 29 H        0.8170    -2.1680    -1.4090 H     1 <1>   0.0800 
 30 H        2.5290    -1.8710    -1.2590 H     1 <1>   0.0800 
 31 H       -1.3780    -0.6080     0.0100 H     1 <1>   0.1500 
 32 H        0.5500    -3.4720     2.4680 H     1 <1>   0.1500 
 33 H        3.0740     1.9990    -2.1270 H     1 <1>   0.0800 
 34 H        1.3490     1.7300    -2.2560 H     1 <1>   0.0800 
 35 H        0.6280    -0.4100    -3.1240 H     1 <1>   0.0800 
 36 H        1.8790    -1.5440    -3.5860 H     1 <1>   0.0800 
 37 H       -1.4900    -4.7600     2.5950 H     1 <1>   0.1500 
 38 H       -5.1650    -2.7480     0.9110 H     1 <1>   0.3700 
 39 H       -4.8960    -5.7670     1.9160 H     1 <1>   0.0800 
 40 H       -3.7020    -5.2620     3.1060 H     1 <1>   0.0800 
 41 H       -3.1910    -6.0830     1.6190 H     1 <1>   0.0800 
 42 H       -6.0220    -0.8030    -1.1910 H     1 <1>   0.0800 
 43 H       -6.7580    -0.0860     1.0130 H     1 <1>   0.0800 
 44 H       -7.3870    -1.6780     1.3640 H     1 <1>   0.0800 
 45 H       -7.0620    -3.5520    -0.4660 H     1 <1>   0.0800 
 46 H       -6.2360    -3.1080    -1.9400 H     1 <1>   0.0800 
 47 H       -8.4040     0.2220    -0.7570 H     1 <1>   0.0800 
 48 H       -9.2250    -0.2100     0.7150 H     1 <1>   0.0800 
 49 H       -8.7010    -3.2450    -2.2480 H     1 <1>   0.0800 
 50 H       -8.0800    -1.6560    -2.5910 H     1 <1>   0.0800 
 51 H      -10.1110    -1.4560    -1.2470 H     1 <1>   0.0800 
 52 H       -9.4580    -2.5230    -0.0380 H     1 <1>   0.0800 
@<TRIPOS>BOND
  1   1   2  2   
  2   1   3  2   
  3   1   4  am  
  4   1   5  1   
  5   4   6  1   
  6   4   7  1   
  7   5   8  ar  
  8   5   9  ar  
  9   6  10  1   
 10   6  27  1   
 11   6  28  1   
 12   7  11  1   
 13   7  29  1   
 14   7  30  1   
 15   8  12  ar  
 16   8  31  1   
 17   9  13  ar  
 18   9  32  1   
 19  10  14  1   
 20  10  33  1   
 21  10  34  1   
 22  11  14  1   
 23  11  35  1   
 24  11  36  1   
 25  12  15  ar  
 26  12  16  1   
 27  13  15  ar  
 28  13  37  1   
 29  15  17  1   
 30  16  18  2   
 31  16  19  am  
 32  17  20  1   
 33  19  21  1   
 34  19  38  1   
 35  20  39  1   
 36  20  40  1   
 37  20  41  1   
 38  21  22  1   
 39  21  23  1   
 40  21  42  1   
 41  22  24  1   
 42  22  43  1   
 43  22  44  1   
 44  23  25  1   
 45  23  45  1   
 46  23  46  1   
 47  24  26  1   
 48  24  47  1   
 49  24  48  1   
 50  25  26  1   
 51  25  49  1   
 52  25  50  1   
 53  26  51  1   
 54  26  52  1   
@<TRIPOS>SUBSTRUCTURE
  1 ****  12 GROUP 4 **** **** 0

# MOE 2024.06 (io_trps.svl 2023.06)
