@<TRIPOS>MOLECULE
NONAME
39 39 1 0 0 
SMALL
USER_CHARGES


@<TRIPOS>ATOM
  1 S       -0.4670     0.2360    -0.0980 S.3   1 <1>  -0.4600 
  2 C        0.8330    -0.9740     0.2480 C.3   1 <1>   0.1500 
  3 C       -2.0010    -0.7070     0.0960 C.3   1 <1>   0.0700 
  4 C        2.0980    -0.1840     0.5720 C.3   1 <1>  -0.2400 
  5 C        1.0000    -1.8520    -0.9910 C.3   1 <1>  -0.2400 
  6 C       -3.1670     0.2640    -0.0910 C.3   1 <1>  -0.1600 
  7 C       -4.5150    -0.4540     0.0580 C.3   1 <1>  -0.1600 
  8 C       -5.6810     0.5160    -0.1300 C.3   1 <1>   0.1200 
  9 O       -6.8780    -0.2100     0.0180 O.3   1 <1>  -0.3630 
 10 C       -8.1010     0.3860    -0.0970 C.ar  1 <1>   0.0820 
 11 C       -9.2380    -0.4130     0.0620 C.ar  1 <1>   0.0820 
 12 C       -8.2480     1.7450    -0.3640 C.ar  1 <1>  -0.1500 
 13 O       -9.0590    -1.7410     0.3230 O.3   1 <1>  -0.3630 
 14 C      -10.5010     0.1630    -0.0500 C.ar  1 <1>  -0.1500 
 15 C       -9.5090     2.3040    -0.4720 C.ar  1 <1>  -0.1500 
 16 C      -10.1490    -2.6170     0.4960 C.3   1 <1>   0.0400 
 17 C      -10.6340     1.5150    -0.3150 C.ar  1 <1>  -0.1500 
 18 H        0.5160    -1.5530     1.1000 H     1 <1>   0.0800 
 19 H       -1.9960    -1.1370     1.0830 H     1 <1>   0.0800 
 20 H       -2.0070    -1.4800    -0.6510 H     1 <1>   0.0800 
 21 H        2.3770     0.4330    -0.2630 H     1 <1>   0.0800 
 22 H        2.9080    -0.8550     0.7940 H     1 <1>   0.0800 
 23 H        1.9280     0.4440     1.4270 H     1 <1>   0.0800 
 24 H        1.2360    -1.2450    -1.8470 H     1 <1>   0.0800 
 25 H        0.0960    -2.3980    -1.1900 H     1 <1>   0.0800 
 26 H        1.7960    -2.5570    -0.8370 H     1 <1>   0.0800 
 27 H       -3.0980     0.7080    -1.0690 H     1 <1>   0.0800 
 28 H       -3.0910     1.0470     0.6440 H     1 <1>   0.0800 
 29 H       -4.5830    -0.8950     1.0370 H     1 <1>   0.0800 
 30 H       -4.5900    -1.2350    -0.6790 H     1 <1>   0.0800 
 31 H       -5.6650     0.9450    -1.1170 H     1 <1>   0.0800 
 32 H       -5.6580     1.2890     0.6180 H     1 <1>   0.0800 
 33 H       -7.3970     2.3860    -0.4910 H     1 <1>   0.1500 
 34 H      -11.3930    -0.4210     0.0670 H     1 <1>   0.1500 
 35 H       -9.6160     3.3550    -0.6790 H     1 <1>   0.1500 
 36 H       -9.7570    -3.6000     0.6890 H     1 <1>   0.0800 
 37 H      -10.7350    -2.6280    -0.4050 H     1 <1>   0.0800 
 38 H      -10.7320    -2.2850     1.3370 H     1 <1>   0.0800 
 39 H      -11.6130     1.9520    -0.4000 H     1 <1>   0.1500 
@<TRIPOS>BOND
  1   1   2  1   
  2   1   3  1   
  3   2   4  1   
  4   2   5  1   
  5   2  18  1   
  6   3   6  1   
  7   3  19  1   
  8   3  20  1   
  9   4  21  1   
 10   4  22  1   
 11   4  23  1   
 12   5  24  1   
 13   5  25  1   
 14   5  26  1   
 15   6   7  1   
 16   6  27  1   
 17   6  28  1   
 18   7   8  1   
 19   7  29  1   
 20   7  30  1   
 21   8   9  1   
 22   8  31  1   
 23   8  32  1   
 24   9  10  1   
 25  10  11  ar  
 26  10  12  ar  
 27  11  13  1   
 28  11  14  ar  
 29  12  15  ar  
 30  12  33  1   
 31  13  16  1   
 32  14  17  ar  
 33  14  34  1   
 34  15  17  ar  
 35  15  35  1   
 36  16  36  1   
 37  16  37  1   
 38  16  38  1   
 39  17  39  1   
@<TRIPOS>SUBSTRUCTURE
  1 ****   8 GROUP 4 **** **** 0

# MOE 2024.06 (io_trps.svl 2023.06)
