@<TRIPOS>MOLECULE
NONAME
56 60 1 0 0 
SMALL
USER_CHARGES


@<TRIPOS>ATOM
  1 O        0.2690    -0.8770     2.4650 O.2   1 <1>  -0.5700 
  2 C        0.2280    -1.6110     1.5110 C.2   1 <1>   0.4950 
  3 C        1.3630    -2.2140     0.9020 C.2   1 <1>  -0.1240 
  4 C       -1.1150    -1.9550     0.8810 C.3   1 <1>  -0.0990 
  5 C        1.3060    -3.1470    -0.0470 C.2   1 <1>  -0.0620 
  6 C        2.8040    -1.9150     1.2090 C.3   1 <1>   0.2020 
  7 C       -1.1760    -3.4050     0.3200 C.3   1 <1>   0.0000 
  8 O        2.4820    -3.5740    -0.4770 O.3   1 <1>  -0.3570 
  9 C        0.0210    -3.7000    -0.6280 C.3   1 <1>  -0.0220 
 10 C        3.1720    -0.4350     1.0900 C.ar  1 <1>  -0.1430 
 11 C        3.5330    -2.8560     0.1930 C.3   1 <1>   0.4020 
 12 C       -1.1590    -4.4030     1.4930 C.3   1 <1>  -0.2400 
 13 C       -2.4930    -3.5960    -0.4480 C.3   1 <1>  -0.2400 
 14 C        2.6930     0.3750     0.0720 C.ar  1 <1>   0.0830 
 15 C        4.0320     0.1540     2.0140 C.ar  1 <1>  -0.1500 
 16 C        4.4360    -3.8760     0.8940 C.2   1 <1>   0.4480 
 17 C        4.3870    -2.1240    -0.8570 C.2   1 <1>   0.4480 
 18 O        1.8540     0.0570    -0.9210 O.3   1 <1>  -0.3630 
 19 C        3.0700     1.6820    -0.0460 C.ar  1 <1>   0.0830 
 20 C        4.4050     1.4910     1.9020 C.ar  1 <1>  -0.1500 
 21 O        4.2960    -4.2340     2.0270 O.2   1 <1>  -0.5700 
 22 C        5.5970    -4.4010     0.0680 C.3   1 <1>  -0.0990 
 23 O        4.0030    -1.7900    -1.9410 O.2   1 <1>  -0.5700 
 24 C        5.8430    -1.9120    -0.4750 C.3   1 <1>  -0.0990 
 25 C        1.7590     1.2000    -1.7640 C.3   1 <1>   0.4000 
 26 O        2.5060     2.2320    -1.1260 O.3   1 <1>  -0.3630 
 27 C        3.9270     2.2730     0.8600 C.ar  1 <1>  -0.1500 
 28 C        6.5810    -3.2640    -0.3030 C.3   1 <1>   0.0000 
 29 C        7.2950    -3.6350    -1.6130 C.3   1 <1>  -0.2400 
 30 C        7.6420    -3.1150     0.8000 C.3   1 <1>  -0.2400 
 31 H       -1.2810    -1.2530     0.0850 H     1 <1>   0.0800 
 32 H       -1.8890    -1.8090     1.6120 H     1 <1>   0.0800 
 33 H        2.9810    -2.2190     2.2250 H     1 <1>   0.0800 
 34 H        0.1190    -4.7600    -0.7850 H     1 <1>   0.0800 
 35 H       -0.1340    -3.2370    -1.5860 H     1 <1>   0.0800 
 36 H       -0.2430    -4.3320     2.0540 H     1 <1>   0.0800 
 37 H       -1.2480    -5.4130     1.1330 H     1 <1>   0.0800 
 38 H       -1.9770    -4.2130     2.1650 H     1 <1>   0.0800 
 39 H       -2.5540    -2.9100    -1.2750 H     1 <1>   0.0800 
 40 H       -3.3360    -3.4230     0.1970 H     1 <1>   0.0800 
 41 H       -2.5630    -4.5980    -0.8360 H     1 <1>   0.0800 
 42 H        4.4180    -0.4230     2.8380 H     1 <1>   0.1500 
 43 H        5.0680     1.9240     2.6310 H     1 <1>   0.1500 
 44 H        5.1850    -4.8460    -0.8210 H     1 <1>   0.0800 
 45 H        6.1030    -5.1830     0.6070 H     1 <1>   0.0800 
 46 H        5.8650    -1.3500     0.4400 H     1 <1>   0.0800 
 47 H        6.3230    -1.3050    -1.2230 H     1 <1>   0.0800 
 48 H        0.7300     1.4990    -1.8550 H     1 <1>   0.0800 
 49 H        2.1980     0.9750    -2.7190 H     1 <1>   0.0800 
 50 H        4.2050     3.3050     0.7500 H     1 <1>   0.1500 
 51 H        6.5910    -3.6980    -2.4250 H     1 <1>   0.0800 
 52 H        7.7910    -4.5860    -1.5200 H     1 <1>   0.0800 
 53 H        8.0340    -2.8960    -1.8680 H     1 <1>   0.0800 
 54 H        7.1810    -2.9070     1.7500 H     1 <1>   0.0800 
 55 H        8.3210    -2.3130     0.5680 H     1 <1>   0.0800 
 56 H        8.2160    -4.0200     0.9000 H     1 <1>   0.0800 
@<TRIPOS>BOND
  1   1   2  2   
  2   2   3  1   
  3   2   4  1   
  4   3   5  2   
  5   3   6  1   
  6   4   7  1   
  7   4  31  1   
  8   4  32  1   
  9   5   8  1   
 10   5   9  1   
 11   6  10  1   
 12   6  11  1   
 13   6  33  1   
 14   7   9  1   
 15   7  12  1   
 16   7  13  1   
 17   8  11  1   
 18   9  34  1   
 19   9  35  1   
 20  10  14  ar  
 21  10  15  ar  
 22  11  16  1   
 23  11  17  1   
 24  12  36  1   
 25  12  37  1   
 26  12  38  1   
 27  13  39  1   
 28  13  40  1   
 29  13  41  1   
 30  14  18  1   
 31  14  19  ar  
 32  15  20  ar  
 33  15  42  1   
 34  16  21  2   
 35  16  22  1   
 36  17  23  2   
 37  17  24  1   
 38  18  25  1   
 39  19  26  1   
 40  19  27  ar  
 41  20  27  ar  
 42  20  43  1   
 43  22  28  1   
 44  22  44  1   
 45  22  45  1   
 46  24  28  1   
 47  24  46  1   
 48  24  47  1   
 49  25  26  1   
 50  25  48  1   
 51  25  49  1   
 52  27  50  1   
 53  28  29  1   
 54  28  30  1   
 55  29  51  1   
 56  29  52  1   
 57  29  53  1   
 58  30  54  1   
 59  30  55  1   
 60  30  56  1   
@<TRIPOS>SUBSTRUCTURE
  1 ****   6 GROUP 4 **** **** 0

# MOE 2024.06 (io_trps.svl 2023.06)
