@<TRIPOS>MOLECULE
NONAME
49 51 1 0 0 
SMALL
USER_CHARGES


@<TRIPOS>ATOM
  1 S       -0.4360    -0.2770     0.0970 S.3   1 <1>  -0.0800 
  2 C       -1.0310     1.2820    -0.4950 C.2   1 <1>   0.4420 
  3 C        1.2010     0.3330     0.0360 C.ar  1 <1>   0.0400 
  4 N       -0.1130     2.1430    -0.7120 N.2   1 <1>  -0.5650 
  5 N       -2.3690     1.5150    -0.6950 N.am  1 <1>  -0.4940 
  6 C        1.1460     1.6360    -0.4210 C.ar  1 <1>   0.2270 
  7 C        2.3700    -0.3200     0.3720 C.ar  1 <1>  -0.1500 
  8 C       -3.4890     0.7930    -0.3830 C.2   1 <1>   0.5690 
  9 C        2.3420     2.3290    -0.5530 C.ar  1 <1>  -0.1500 
 10 C        3.5620     0.3870     0.2360 C.ar  1 <1>   0.0820 
 11 O       -3.4400    -0.2960     0.1260 O.2   1 <1>  -0.5700 
 12 C       -4.8480     1.4280    -0.7060 C.3   1 <1>  -0.0190 
 13 C        3.5350     1.7040    -0.2250 C.ar  1 <1>  -0.1500 
 14 O        4.7850    -0.1220     0.5280 O.3   1 <1>  -0.3620 
 15 C       -5.3490     2.3470     0.4420 C.3   1 <1>  -0.0190 
 16 C       -5.9230     0.3860    -1.0980 C.3   1 <1>  -0.0220 
 17 C        4.9840    -1.4580     0.9410 C.3   1 <1>   0.1200 
 18 C       -4.3590     3.4610     0.7720 C.2   1 <1>   0.6590 
 19 C       -5.7280     1.5330     1.6970 C.3   1 <1>  -0.0220 
 20 C       -6.6900    -0.1540     0.0990 C.2   1 <1>  -0.2880 
 21 C        4.9680    -2.3760    -0.2830 C.3   1 <1>  -0.2400 
 22 O       -4.1110     3.8080     1.8970 O.2   1 <1>  -0.5700 
 23 O       -3.7510     4.0070    -0.2700 O.3   1 <1>  -0.4300 
 24 C       -6.5980     0.3450     1.3330 C.2   1 <1>  -0.2880 
 25 C       -2.7000     4.9310    -0.1100 C.3   1 <1>   0.2580 
 26 C       -2.0020     5.1050    -1.4500 C.2   1 <1>  -0.2880 
 27 C       -2.4080     4.6560    -2.6440 C.2   1 <1>  -0.3000 
 28 H       -2.5300     2.4530    -1.0660 H     1 <1>   0.3700 
 29 H        2.3260    -1.3330     0.7200 H     1 <1>   0.1500 
 30 H        2.3240     3.3430    -0.9080 H     1 <1>   0.1500 
 31 H       -4.7000     2.0330    -1.5820 H     1 <1>   0.0800 
 32 H        4.4660     2.2330    -0.3240 H     1 <1>   0.1500 
 33 H       -6.2450     2.8310     0.0970 H     1 <1>   0.0800 
 34 H       -5.4600    -0.4310    -1.6240 H     1 <1>   0.0800 
 35 H       -6.6330     0.8420    -1.7660 H     1 <1>   0.0800 
 36 H        4.2370    -1.7250     1.6670 H     1 <1>   0.0800 
 37 H        5.9490    -1.5010     1.4150 H     1 <1>   0.0800 
 38 H       -6.2610     2.1690     2.3820 H     1 <1>   0.0800 
 39 H       -4.8430     1.1750     2.1970 H     1 <1>   0.0800 
 40 H       -7.3180    -0.9950    -0.1440 H     1 <1>   0.1500 
 41 H        4.0140    -2.3430    -0.7760 H     1 <1>   0.0800 
 42 H        5.1580    -3.3890     0.0230 H     1 <1>   0.0800 
 43 H        5.7360    -2.0780    -0.9740 H     1 <1>   0.0800 
 44 H       -7.1290    -0.0700     2.1740 H     1 <1>   0.1500 
 45 H       -2.0090     4.5380     0.6180 H     1 <1>   0.0800 
 46 H       -3.1090     5.8620     0.2450 H     1 <1>   0.0800 
 47 H       -1.0850     5.6600    -1.3410 H     1 <1>   0.1500 
 48 H       -1.8570     4.8120    -3.5560 H     1 <1>   0.1500 
 49 H       -3.3160     4.1070    -2.8200 H     1 <1>   0.1500 
@<TRIPOS>BOND
  1   1   2  1   
  2   1   3  1   
  3   2   4  2   
  4   2   5  1   
  5   3   6  ar  
  6   3   7  ar  
  7   4   6  1   
  8   5   8  am  
  9   5  28  1   
 10   6   9  ar  
 11   7  10  ar  
 12   7  29  1   
 13   8  11  2   
 14   8  12  1   
 15   9  13  ar  
 16   9  30  1   
 17  10  13  ar  
 18  10  14  1   
 19  12  15  1   
 20  12  16  1   
 21  12  31  1   
 22  13  32  1   
 23  14  17  1   
 24  15  18  1   
 25  15  19  1   
 26  15  33  1   
 27  16  20  1   
 28  16  34  1   
 29  16  35  1   
 30  17  21  1   
 31  17  36  1   
 32  17  37  1   
 33  18  22  2   
 34  18  23  1   
 35  19  24  1   
 36  19  38  1   
 37  19  39  1   
 38  20  24  2   
 39  20  40  1   
 40  21  41  1   
 41  21  42  1   
 42  21  43  1   
 43  23  25  1   
 44  24  44  1   
 45  25  26  1   
 46  25  45  1   
 47  25  46  1   
 48  26  27  2   
 49  26  47  1   
 50  27  48  1   
 51  27  49  1   
@<TRIPOS>SUBSTRUCTURE
  1 ****   2 GROUP 4 **** **** 0

# MOE 2024.06 (io_trps.svl 2023.06)
