@<TRIPOS>MOLECULE
NONAME
33 34 1 0 0 
SMALL
USER_CHARGES


@<TRIPOS>ATOM
  1 BR       0.7070    -0.0280     1.3390 Br    1 <1>  -0.1110 
  2 C       -0.7810     0.7920     0.4180 C.ar  1 <1>   0.1110 
  3 C       -0.7210     2.1290     0.0310 C.ar  1 <1>   0.0830 
  4 C       -1.8920     0.0100     0.1700 C.ar  1 <1>  -0.1500 
  5 O        0.3610     2.9080     0.2650 O.3   1 <1>  -0.3630 
  6 C       -1.8200     2.6870    -0.6020 C.ar  1 <1>  -0.1500 
  7 C       -2.9780     0.5790    -0.4760 C.ar  1 <1>  -0.1500 
  8 C        1.5260     2.6390    -0.4780 C.3   1 <1>   0.1200 
  9 C       -2.9410     1.9130    -0.8570 C.ar  1 <1>  -0.1500 
 10 C        2.7140     2.7550     0.4840 C.3   1 <1>   0.3430 
 11 N        3.9670     2.1420    -0.0620 N.4   1 <1>  -0.9590 
 12 C        3.9000     0.6420    -0.1890 C.3   1 <1>   0.3430 
 13 C        5.1780     2.5280     0.7380 C.3   1 <1>   0.3430 
 14 C        5.2440     0.0510    -0.6740 C.3   1 <1>   0.1200 
 15 C        6.4630     1.8830     0.1640 C.3   1 <1>   0.1200 
 16 O        6.1740     1.0660    -0.9390 O.3   1 <1>  -0.5600 
 17 H       -1.9140    -1.0210     0.4770 H     1 <1>   0.1500 
 18 H       -1.7990     3.7230    -0.8930 H     1 <1>   0.1500 
 19 H       -3.8550    -0.0130    -0.6790 H     1 <1>   0.1500 
 20 H        1.5900     3.3680    -1.2670 H     1 <1>   0.0800 
 21 H        1.4500     1.6530    -0.8990 H     1 <1>   0.0800 
 22 H       -3.7920     2.3500    -1.3530 H     1 <1>   0.1500 
 23 H        2.4550     2.2650     1.4080 H     1 <1>   0.0800 
 24 H        2.8800     3.7990     0.6910 H     1 <1>   0.0800 
 25 H        4.1570     2.4910    -1.0140 H     1 <1>   0.4500 
 26 H        3.1270     0.3610    -0.8850 H     1 <1>   0.0800 
 27 H        3.6490     0.2020     0.7630 H     1 <1>   0.0800 
 28 H        5.0590     2.2140     1.7610 H     1 <1>   0.0800 
 29 H        5.2960     3.5990     0.7400 H     1 <1>   0.0800 
 30 H        5.0980    -0.5070    -1.5820 H     1 <1>   0.0800 
 31 H        5.6580    -0.6130     0.0650 H     1 <1>   0.0800 
 32 H        6.9590     1.2900     0.9130 H     1 <1>   0.0800 
 33 H        7.1460     2.6470    -0.1650 H     1 <1>   0.0800 
@<TRIPOS>BOND
  1   1   2  1   
  2   2   3  ar  
  3   2   4  ar  
  4   3   5  1   
  5   3   6  ar  
  6   4   7  ar  
  7   4  17  1   
  8   5   8  1   
  9   6   9  ar  
 10   6  18  1   
 11   7   9  ar  
 12   7  19  1   
 13   8  10  1   
 14   8  20  1   
 15   8  21  1   
 16   9  22  1   
 17  10  11  1   
 18  10  23  1   
 19  10  24  1   
 20  11  12  1   
 21  11  13  1   
 22  11  25  1   
 23  12  14  1   
 24  12  26  1   
 25  12  27  1   
 26  13  15  1   
 27  13  28  1   
 28  13  29  1   
 29  14  16  1   
 30  14  30  1   
 31  14  31  1   
 32  15  16  1   
 33  15  32  1   
 34  15  33  1   
@<TRIPOS>SUBSTRUCTURE
  1 ****   8 GROUP 4 **** **** 0

# MOE 2024.06 (io_trps.svl 2023.06)
