@<TRIPOS>MOLECULE
NONAME
37 38 1 0 0 
SMALL
USER_CHARGES


@<TRIPOS>ATOM
  1 O       -6.3560     4.2760     2.4860 O.2   1 <1>  -0.5700 
  2 C       -5.6330     3.7050     1.6940 C.2   1 <1>   0.5440 
  3 N       -4.5940     4.4160     1.1200 N.am  1 <1>  -0.6600 
  4 C       -5.8920     2.3220     1.3630 C.ar  1 <1>   0.0860 
  5 C       -3.7980     3.9100    -0.0390 C.3   1 <1>   0.1400 
  6 C       -4.4560     5.8860     1.3410 C.3   1 <1>   0.1400 
  7 C       -6.4540     1.9670     0.1350 C.ar  1 <1>   0.0830 
  8 C       -5.5780     1.3060     2.2640 C.ar  1 <1>  -0.1500 
  9 C       -4.2090     4.6610    -1.3220 C.3   1 <1>   0.3430 
 10 C       -4.8960     6.6330     0.0690 C.3   1 <1>   0.3430 
 11 O       -6.8000     2.9560    -0.7270 O.3   1 <1>  -0.3630 
 12 C       -6.6440     0.6250    -0.2070 C.ar  1 <1>   0.0830 
 13 C       -5.7850    -0.0210     1.9440 C.ar  1 <1>  -0.1500 
 14 N       -4.1440     6.1570    -1.1480 N.4   1 <1>  -0.9060 
 15 C       -8.1830     3.2140    -0.8460 C.3   1 <1>   0.0400 
 16 O       -7.1430     0.3420    -1.4440 O.3   1 <1>  -0.3630 
 17 C       -6.3110    -0.3650     0.7100 C.ar  1 <1>  -0.1500 
 18 C       -7.4280    -0.9810    -1.8440 C.3   1 <1>   0.0400 
 19 H       -3.9460     2.8540    -0.1800 H     1 <1>   0.0800 
 20 H       -2.7510     4.0600     0.1570 H     1 <1>   0.0800 
 21 H       -3.4330     6.1200     1.5790 H     1 <1>   0.0800 
 22 H       -5.0600     6.2100     2.1720 H     1 <1>   0.0800 
 23 H       -5.1690     1.5690     3.2250 H     1 <1>   0.1500 
 24 H       -5.2150     4.3730    -1.5760 H     1 <1>   0.0800 
 25 H       -3.5690     4.3550    -2.1330 H     1 <1>   0.0800 
 26 H       -4.7470     7.6910     0.2080 H     1 <1>   0.0800 
 27 H       -5.9520     6.4620    -0.0670 H     1 <1>   0.0800 
 28 H       -5.5360    -0.7920     2.6550 H     1 <1>   0.1500 
 29 H       -4.5250     6.6140    -1.9860 H     1 <1>   0.4500 
 30 H       -3.1610     6.4420    -1.0650 H     1 <1>   0.4500 
 31 H       -8.3210     4.0350    -1.5260 H     1 <1>   0.0800 
 32 H       -8.5750     3.4670     0.1240 H     1 <1>   0.0800 
 33 H       -8.6770     2.3380    -1.2280 H     1 <1>   0.0800 
 34 H       -6.4500    -1.4070     0.4900 H     1 <1>   0.1500 
 35 H       -7.8360    -0.9490    -2.8380 H     1 <1>   0.0800 
 36 H       -8.1500    -1.4030    -1.1680 H     1 <1>   0.0800 
 37 H       -6.5170    -1.5520    -1.8420 H     1 <1>   0.0800 
@<TRIPOS>BOND
  1   1   2  2   
  2   2   3  am  
  3   2   4  1   
  4   3   5  1   
  5   3   6  1   
  6   4   7  ar  
  7   4   8  ar  
  8   5   9  1   
  9   5  19  1   
 10   5  20  1   
 11   6  10  1   
 12   6  21  1   
 13   6  22  1   
 14   7  11  1   
 15   7  12  ar  
 16   8  13  ar  
 17   8  23  1   
 18   9  14  1   
 19   9  24  1   
 20   9  25  1   
 21  10  14  1   
 22  10  26  1   
 23  10  27  1   
 24  11  15  1   
 25  12  16  1   
 26  12  17  ar  
 27  13  17  ar  
 28  13  28  1   
 29  14  29  1   
 30  14  30  1   
 31  15  31  1   
 32  15  32  1   
 33  15  33  1   
 34  16  18  1   
 35  17  34  1   
 36  18  35  1   
 37  18  36  1   
 38  18  37  1   
@<TRIPOS>SUBSTRUCTURE
  1 ****   7 GROUP 4 **** **** 0

# MOE 2024.06 (io_trps.svl 2023.06)
