@<TRIPOS>MOLECULE
NONAME
36 36 1 0 0 
SMALL
USER_CHARGES


@<TRIPOS>ATOM
  1 S       -0.0090     0.2570    -0.4350 S.o2  1 <1>   1.3330 
  2 O        1.3310     0.4110    -0.9460 O.2   1 <1>  -0.6500 
  3 O       -0.4970     1.1900     0.5510 O.2   1 <1>  -0.6500 
  4 N       -0.1110    -1.3540     0.2090 N.am  1 <1>  -0.6930 
  5 C       -1.1020     0.2620    -1.8390 C.3   1 <1>  -0.1350 
  6 C        0.9220    -2.2460    -0.0410 C.ar  1 <1>   0.1990 
  7 C       -1.3730    -1.9360     0.7790 C.3   1 <1>   0.3370 
  8 C        0.9510    -2.9940    -1.2170 C.ar  1 <1>  -0.1500 
  9 C        1.9350    -2.4110     0.8990 C.ar  1 <1>  -0.1500 
 10 C       -2.2120    -2.7090    -0.2710 C.2   1 <1>   0.5690 
 11 C       -2.2170    -0.9240     1.5650 C.3   1 <1>  -0.2400 
 12 C        1.9700    -3.9020    -1.4500 C.ar  1 <1>  -0.1500 
 13 C        2.9610    -3.3150     0.6810 C.ar  1 <1>  -0.1500 
 14 O       -2.8720    -2.0610    -1.0540 O.2   1 <1>  -0.5700 
 15 N       -2.2180    -4.0910    -0.3280 N.am  1 <1>  -0.6600 
 16 C        2.9560    -4.0460    -0.4920 C.ar  1 <1>   0.1900 
 17 C       -1.3530    -4.9930     0.4850 C.3   1 <1>   0.0600 
 18 C       -3.1230    -4.8210    -1.2630 C.3   1 <1>   0.0600 
 19 F        3.9180    -4.9080    -0.7020 F     1 <1>  -0.1900 
 20 H       -0.9610     1.1610    -2.4050 H     1 <1>   0.0800 
 21 H       -2.1230     0.2260    -1.5190 H     1 <1>   0.0800 
 22 H       -0.9020    -0.5780    -2.4730 H     1 <1>   0.0800 
 23 H       -1.0630    -2.6500     1.5180 H     1 <1>   0.0800 
 24 H        0.1730    -2.8630    -1.9470 H     1 <1>   0.1500 
 25 H        1.9150    -1.8180     1.7960 H     1 <1>   0.1500 
 26 H       -2.6620    -0.1970     0.9100 H     1 <1>   0.0800 
 27 H       -1.6160    -0.4270     2.3050 H     1 <1>   0.0800 
 28 H       -3.0150    -1.4380     2.0690 H     1 <1>   0.0800 
 29 H        2.0050    -4.4840    -2.3520 H     1 <1>   0.1500 
 30 H        3.7510    -3.4490     1.3980 H     1 <1>   0.1500 
 31 H       -0.4280    -4.5150     0.7520 H     1 <1>   0.0800 
 32 H       -1.1120    -5.8780    -0.0800 H     1 <1>   0.0800 
 33 H       -1.8740    -5.2850     1.3810 H     1 <1>   0.0800 
 34 H       -3.8240    -4.1500    -1.7300 H     1 <1>   0.0800 
 35 H       -3.6790    -5.5680    -0.7240 H     1 <1>   0.0800 
 36 H       -2.5420    -5.2980    -2.0320 H     1 <1>   0.0800 
@<TRIPOS>BOND
  1   1   2  2   
  2   1   3  2   
  3   1   4  am  
  4   1   5  1   
  5   4   6  1   
  6   4   7  1   
  7   5  20  1   
  8   5  21  1   
  9   5  22  1   
 10   6   8  ar  
 11   6   9  ar  
 12   7  10  1   
 13   7  11  1   
 14   7  23  1   
 15   8  12  ar  
 16   8  24  1   
 17   9  13  ar  
 18   9  25  1   
 19  10  14  2   
 20  10  15  am  
 21  11  26  1   
 22  11  27  1   
 23  11  28  1   
 24  12  16  ar  
 25  12  29  1   
 26  13  16  ar  
 27  13  30  1   
 28  15  17  1   
 29  15  18  1   
 30  16  19  1   
 31  17  31  1   
 32  17  32  1   
 33  17  33  1   
 34  18  34  1   
 35  18  35  1   
 36  18  36  1   
@<TRIPOS>SUBSTRUCTURE
  1 ****   6 GROUP 4 **** **** 0

# MOE 2024.06 (io_trps.svl 2023.06)
