@<TRIPOS>MOLECULE
NONAME
28 27 1 0 0 
SMALL
USER_CHARGES


@<TRIPOS>ATOM
  1 O        0.9550    -1.3720    -1.8160 O.2   1 <1>  -0.5700 
  2 C        1.4930    -1.5120    -0.7500 C.2   1 <1>   0.6590 
  3 O        2.2070    -0.5080    -0.2450 O.3   1 <1>  -0.4300 
  4 C        1.3650    -2.8260     0.0000 C.3   1 <1>   0.0420 
  5 C        2.5890    -0.3500     1.1050 C.3   1 <1>   0.0400 
  6 C        2.4050    -3.7300    -0.6110 C.2   1 <1>   0.6590 
  7 C       -0.0820    -3.3760    -0.0600 C.3   1 <1>  -0.0190 
  8 O        2.1370    -4.5940    -1.4060 O.2   1 <1>  -0.5700 
  9 O        3.6500    -3.5200    -0.2000 O.3   1 <1>  -0.4300 
 10 C       -1.0430    -2.3030     0.4440 C.2   1 <1>   0.4480 
 11 C       -0.2530    -4.6690     0.7630 C.3   1 <1>  -0.2400 
 12 C        4.7340    -4.2770    -0.7000 C.3   1 <1>   0.0400 
 13 O       -0.7970    -1.6670     1.4240 O.2   1 <1>  -0.5700 
 14 C       -2.3090    -2.0700    -0.3490 C.3   1 <1>  -0.1790 
 15 H        1.6170    -2.7000     1.0330 H     1 <1>   0.0800 
 16 H        3.0370     0.6220     1.2130 H     1 <1>   0.0800 
 17 H        3.3050    -1.1100     1.3620 H     1 <1>   0.0800 
 18 H        1.7130    -0.4160     1.7290 H     1 <1>   0.0800 
 19 H       -0.3230    -3.5930    -1.0880 H     1 <1>   0.0800 
 20 H       -0.0120    -4.4930     1.7980 H     1 <1>   0.0800 
 21 H        0.3810    -5.4530     0.3880 H     1 <1>   0.0800 
 22 H       -1.2710    -5.0100     0.7070 H     1 <1>   0.0800 
 23 H        4.5700    -5.3160    -0.4700 H     1 <1>   0.0800 
 24 H        5.6380    -3.9310    -0.2330 H     1 <1>   0.0800 
 25 H        4.7920    -4.1390    -1.7670 H     1 <1>   0.0800 
 26 H       -2.8780    -2.9790    -0.4110 H     1 <1>   0.0800 
 27 H       -2.0600    -1.7340    -1.3390 H     1 <1>   0.0800 
 28 H       -2.9050    -1.3170     0.1330 H     1 <1>   0.0800 
@<TRIPOS>BOND
  1   1   2  2   
  2   2   3  1   
  3   2   4  1   
  4   3   5  1   
  5   4   6  1   
  6   4   7  1   
  7   4  15  1   
  8   5  16  1   
  9   5  17  1   
 10   5  18  1   
 11   6   8  2   
 12   6   9  1   
 13   7  10  1   
 14   7  11  1   
 15   7  19  1   
 16   9  12  1   
 17  10  13  2   
 18  10  14  1   
 19  11  20  1   
 20  11  21  1   
 21  11  22  1   
 22  12  23  1   
 23  12  24  1   
 24  12  25  1   
 25  14  26  1   
 26  14  27  1   
 27  14  28  1   
@<TRIPOS>SUBSTRUCTURE
  1 ****   4 GROUP 4 **** **** 0

# MOE 2024.06 (io_trps.svl 2023.06)
