@<TRIPOS>MOLECULE
NONAME
42 43 1 0 0 
SMALL
USER_CHARGES


@<TRIPOS>ATOM
  1 N        0.0110     0.1010    -0.1030 N.3   1 <1>  -0.8100 
  2 C        1.2290     0.8210     0.3650 C.3   1 <1>   0.1900 
  3 C       -1.2620     0.8080     0.2240 C.3   1 <1>   0.1100 
  4 C       -0.0690    -1.3100     0.3730 C.3   1 <1>   0.1100 
  5 C        1.2680     2.2460    -0.2210 C.3   1 <1>  -0.1600 
  6 C        2.4990     0.0620    -0.0690 C.3   1 <1>  -0.1600 
  7 C       -2.5150     0.0720    -0.2980 C.3   1 <1>   0.3430 
  8 C       -1.3160    -2.0560    -0.1510 C.3   1 <1>   0.3430 
  9 C        2.5880     2.9700     0.0360 C.3   1 <1>   0.3430 
 10 C        3.7860     0.8430     0.1840 C.3   1 <1>   0.3430 
 11 N       -2.5850    -1.3410     0.2010 N.4   1 <1>  -0.9590 
 12 N        3.7150     2.1620    -0.4940 N.4   1 <1>  -0.9590 
 13 C       -3.7640    -2.0730    -0.3300 C.3   1 <1>   0.3430 
 14 C        5.0090     2.9000    -0.3690 C.3   1 <1>   0.2630 
 15 C       -5.0340    -1.5480     0.3300 C.3   1 <1>  -0.2400 
 16 H        1.2120     0.8860     1.4420 H     1 <1>   0.0800 
 17 H       -1.2730     1.7790    -0.2360 H     1 <1>   0.0800 
 18 H       -1.3440     0.9440     1.2890 H     1 <1>   0.0800 
 19 H       -0.0610    -1.3370     1.4490 H     1 <1>   0.0800 
 20 H        0.7810    -1.8660     0.0210 H     1 <1>   0.0800 
 21 H        0.5020     2.8500     0.2280 H     1 <1>   0.0800 
 22 H        1.0910     2.2090    -1.2820 H     1 <1>   0.0800 
 23 H        2.4390    -0.1820    -1.1150 H     1 <1>   0.0800 
 24 H        2.5890    -0.8530     0.4860 H     1 <1>   0.0800 
 25 H       -2.4880     0.0750    -1.3750 H     1 <1>   0.0800 
 26 H       -3.3930     0.6150     0.0120 H     1 <1>   0.0800 
 27 H       -1.3300    -3.0510     0.2620 H     1 <1>   0.0800 
 28 H       -1.2340    -2.1430    -1.2220 H     1 <1>   0.0800 
 29 H        2.7160     3.1260     1.0960 H     1 <1>   0.0800 
 30 H        2.5660     3.9340    -0.4470 H     1 <1>   0.0800 
 31 H        4.6260     0.2800    -0.1920 H     1 <1>   0.0800 
 32 H        3.9230     0.9840     1.2450 H     1 <1>   0.0800 
 33 H       -2.6590    -1.3140     1.2260 H     1 <1>   0.4500 
 34 H        3.5340     1.9900    -1.4940 H     1 <1>   0.4500 
 35 H       -3.6680    -3.1250    -0.1100 H     1 <1>   0.0800 
 36 H       -3.8260    -1.9560    -1.4010 H     1 <1>   0.0800 
 37 H        5.2320     3.0980     0.6670 H     1 <1>   0.0800 
 38 H        4.9570     3.8400    -0.8960 H     1 <1>   0.0800 
 39 H        5.8140     2.3190    -0.7900 H     1 <1>   0.0800 
 40 H       -4.9780    -1.6410     1.4000 H     1 <1>   0.0800 
 41 H       -5.8710    -2.1340    -0.0080 H     1 <1>   0.0800 
 42 H       -5.2260    -0.5250     0.0620 H     1 <1>   0.0800 
@<TRIPOS>BOND
  1   1   2  1   
  2   1   3  1   
  3   1   4  1   
  4   2   5  1   
  5   2   6  1   
  6   2  16  1   
  7   3   7  1   
  8   3  17  1   
  9   3  18  1   
 10   4   8  1   
 11   4  19  1   
 12   4  20  1   
 13   5   9  1   
 14   5  21  1   
 15   5  22  1   
 16   6  10  1   
 17   6  23  1   
 18   6  24  1   
 19   7  11  1   
 20   7  25  1   
 21   7  26  1   
 22   8  11  1   
 23   8  27  1   
 24   8  28  1   
 25   9  12  1   
 26   9  29  1   
 27   9  30  1   
 28  10  12  1   
 29  10  31  1   
 30  10  32  1   
 31  11  13  1   
 32  11  33  1   
 33  12  14  1   
 34  12  34  1   
 35  13  15  1   
 36  13  35  1   
 37  13  36  1   
 38  14  37  1   
 39  14  38  1   
 40  14  39  1   
 41  15  40  1   
 42  15  41  1   
 43  15  42  1   
@<TRIPOS>SUBSTRUCTURE
  1 ****   1 GROUP 4 **** **** 0

# MOE 2024.06 (io_trps.svl 2023.06)
