@<TRIPOS>MOLECULE
NONAME
47 48 1 0 0 
SMALL
USER_CHARGES


@<TRIPOS>ATOM
  1 O       -0.7820     0.3260    -1.3100 O.3   1 <1>  -0.5320 
  2 C       -1.8940     0.7950    -0.7240 C.ar  1 <1>   0.0830 
  3 C       -1.9810     2.1410    -0.4200 C.ar  1 <1>  -0.1500 
  4 C       -2.9430    -0.0610    -0.4270 C.ar  1 <1>  -0.1500 
  5 C       -3.1220     2.6370     0.1860 C.ar  1 <1>  -0.1500 
  6 C       -4.0830     0.4400     0.1770 C.ar  1 <1>  -0.1500 
  7 C       -4.1800     1.7900     0.4860 C.ar  1 <1>  -0.1430 
  8 C       -5.4330     2.3410     1.1420 C.3   1 <1>  -0.0170 
  9 C       -6.3820     2.8850     0.0620 C.3   1 <1>  -0.1600 
 10 C       -7.7340     3.3500     0.6140 C.3   1 <1>   0.4230 
 11 N       -8.5880     3.6950    -0.5370 N.4   1 <1>  -0.9060 
 12 C       -7.6070     4.5830     1.5090 C.3   1 <1>  -0.2400 
 13 C      -10.0340     3.7500    -0.2450 C.3   1 <1>   0.4230 
 14 C      -10.6040     2.3280    -0.1470 C.3   1 <1>  -0.1600 
 15 C      -10.6940     4.6060    -1.3320 C.3   1 <1>  -0.1600 
 16 C      -11.7430     2.2670     0.8820 C.3   1 <1>  -0.1600 
 17 C      -12.2310     4.5620    -1.3760 C.3   1 <1>  -0.1600 
 18 C      -13.0450     2.9440     0.4340 C.3   1 <1>  -0.1600 
 19 C      -12.9150     4.4120    -0.0080 C.3   1 <1>  -0.1600 
 20 H       -0.8080    -0.6330    -1.4700 H     1 <1>   0.4500 
 21 H       -1.1560     2.7880    -0.6550 H     1 <1>   0.1500 
 22 H       -2.8750    -1.1070    -0.6610 H     1 <1>   0.1500 
 23 H       -3.1750     3.6850     0.4210 H     1 <1>   0.1500 
 24 H       -4.8910    -0.2320     0.4070 H     1 <1>   0.1500 
 25 H       -5.1490     3.1180     1.8310 H     1 <1>   0.0800 
 26 H       -5.9140     1.5600     1.7060 H     1 <1>   0.0800 
 27 H       -6.5470     2.0920    -0.6470 H     1 <1>   0.0800 
 28 H       -5.8910     3.6950    -0.4490 H     1 <1>   0.0800 
 29 H       -8.1810     2.5420     1.1720 H     1 <1>   0.0800 
 30 H       -8.4410     3.0140    -1.2880 H     1 <1>   0.4500 
 31 H       -8.2870     4.6050    -0.8980 H     1 <1>   0.4500 
 32 H       -7.1150     5.3890     0.9920 H     1 <1>   0.0800 
 33 H       -7.0250     4.3470     2.3820 H     1 <1>   0.0800 
 34 H       -8.5680     4.9160     1.8560 H     1 <1>   0.0800 
 35 H      -10.1870     4.2400     0.7030 H     1 <1>   0.0800 
 36 H       -9.8470     1.6400     0.1830 H     1 <1>   0.0800 
 37 H      -10.9570     1.9880    -1.1050 H     1 <1>   0.0800 
 38 H      -10.3350     4.3150    -2.3040 H     1 <1>   0.0800 
 39 H      -10.4030     5.6290    -1.1650 H     1 <1>   0.0800 
 40 H      -11.4190     2.7020     1.8120 H     1 <1>   0.0800 
 41 H      -11.9660     1.2320     1.0840 H     1 <1>   0.0800 
 42 H      -12.5540     3.7610    -2.0210 H     1 <1>   0.0800 
 43 H      -12.5770     5.4750    -1.8330 H     1 <1>   0.0800 
 44 H      -13.7380     2.9030     1.2580 H     1 <1>   0.0800 
 45 H      -13.4870     2.3720    -0.3650 H     1 <1>   0.0800 
 46 H      -13.9160     4.8020    -0.1030 H     1 <1>   0.0800 
 47 H      -12.4240     5.0030     0.7460 H     1 <1>   0.0800 
@<TRIPOS>BOND
  1   1   2  1   
  2   1  20  1   
  3   2   3  ar  
  4   2   4  ar  
  5   3   5  ar  
  6   3  21  1   
  7   4   6  ar  
  8   4  22  1   
  9   5   7  ar  
 10   5  23  1   
 11   6   7  ar  
 12   6  24  1   
 13   7   8  1   
 14   8   9  1   
 15   8  25  1   
 16   8  26  1   
 17   9  10  1   
 18   9  27  1   
 19   9  28  1   
 20  10  11  1   
 21  10  12  1   
 22  10  29  1   
 23  11  13  1   
 24  11  30  1   
 25  11  31  1   
 26  12  32  1   
 27  12  33  1   
 28  12  34  1   
 29  13  14  1   
 30  13  15  1   
 31  13  35  1   
 32  14  16  1   
 33  14  36  1   
 34  14  37  1   
 35  15  17  1   
 36  15  38  1   
 37  15  39  1   
 38  16  18  1   
 39  16  40  1   
 40  16  41  1   
 41  17  19  1   
 42  17  42  1   
 43  17  43  1   
 44  18  19  1   
 45  18  44  1   
 46  18  45  1   
 47  19  46  1   
 48  19  47  1   
@<TRIPOS>SUBSTRUCTURE
  1 ****   9 GROUP 4 **** **** 0

# MOE 2024.06 (io_trps.svl 2023.06)
