@<TRIPOS>MOLECULE
NONAME
50 52 1 0 0 
SMALL
USER_CHARGES


@<TRIPOS>ATOM
  1 S        0.1390    -0.3230     0.4570 S.3   1 <1>  -0.0800 
  2 C        1.1130     1.0400    -0.1170 C.2   1 <1>   0.1040 
  3 C       -1.3220     0.6080     0.2440 C.2   1 <1>  -0.1400 
  4 N        2.4850     0.8840    -0.2530 N.am  1 <1>  -0.4940 
  5 C        0.3200     2.1220    -0.4200 C.2   1 <1>  -0.0860 
  6 C       -1.0690     1.8220    -0.2080 C.2   1 <1>  -0.1810 
  7 C       -2.7550     0.2550     0.4810 C.3   1 <1>   0.0200 
  8 C        3.3480     0.0050     0.3550 C.2   1 <1>   0.5690 
  9 C        0.7740     3.4000    -0.8910 C.2   1 <1>   0.8060 
 10 C       -2.3530     2.5930    -0.3890 C.3   1 <1>   0.0210 
 11 C       -3.4440     1.5820     0.0700 C.3   1 <1>  -0.1600 
 12 O        3.0540    -0.6230     1.3430 O.2   1 <1>  -0.5700 
 13 C        4.7540    -0.1510    -0.2560 C.3   1 <1>   0.1710 
 14 O        0.1120     4.1440    -1.5830 O.2   1 <1>  -0.5700 
 15 O        2.0090     3.8040    -0.5850 O.3   1 <1>  -0.4300 
 16 N        5.3890    -1.4920    -0.0860 N.3   1 <1>  -0.8100 
 17 C        2.3530     4.0080     0.7680 C.3   1 <1>   0.1200 
 18 C        4.5680    -2.6060    -0.6280 C.3   1 <1>   0.1100 
 19 C        6.7780    -1.5600    -0.5910 C.3   1 <1>   0.1100 
 20 C        3.8440     4.3210     0.8330 C.3   1 <1>  -0.2400 
 21 C        5.1960    -3.9900    -0.3310 C.3   1 <1>   0.3430 
 22 C        7.4310    -2.9370    -0.3030 C.3   1 <1>   0.3430 
 23 N        6.4840    -3.8460     0.4270 N.4   1 <1>  -0.9590 
 24 C        7.0860    -5.1460     0.8360 C.3   1 <1>   0.2630 
 25 H        2.9250     1.5700    -0.8680 H     1 <1>   0.3700 
 26 H       -2.9240     0.0180     1.5160 H     1 <1>   0.0800 
 27 H       -3.0540    -0.5640    -0.1500 H     1 <1>   0.0800 
 28 H       -2.4830     2.8670    -1.4210 H     1 <1>   0.0800 
 29 H       -2.3540     3.4760     0.2250 H     1 <1>   0.0800 
 30 H       -3.9860     1.9860     0.9080 H     1 <1>   0.0800 
 31 H       -4.1380     1.4030    -0.7320 H     1 <1>   0.0800 
 32 H        5.3840     0.5860     0.2090 H     1 <1>   0.0800 
 33 H        4.6980     0.0770    -1.3060 H     1 <1>   0.0800 
 34 H        2.1240     3.1240     1.3390 H     1 <1>   0.0800 
 35 H        1.7730     4.8360     1.1410 H     1 <1>   0.0800 
 36 H        4.4440    -2.4900    -1.6910 H     1 <1>   0.0800 
 37 H        3.5860    -2.5870    -0.1850 H     1 <1>   0.0800 
 38 H        7.3680    -0.7930    -0.1170 H     1 <1>   0.0800 
 39 H        6.7940    -1.3730    -1.6510 H     1 <1>   0.0800 
 40 H        4.4190     3.4960     0.4570 H     1 <1>   0.0800 
 41 H        4.1310     4.5000     1.8540 H     1 <1>   0.0800 
 42 H        4.0610     5.2050     0.2590 H     1 <1>   0.0800 
 43 H        5.3680    -4.5090    -1.2590 H     1 <1>   0.0800 
 44 H        4.4950    -4.5700     0.2460 H     1 <1>   0.0800 
 45 H        8.3190    -2.7840     0.2870 H     1 <1>   0.0800 
 46 H        7.7300    -3.3890    -1.2340 H     1 <1>   0.0800 
 47 H        6.2040    -3.2920     1.2570 H     1 <1>   0.4500 
 48 H        7.3670    -5.7190    -0.0330 H     1 <1>   0.0800 
 49 H        6.3780    -5.7190     1.4140 H     1 <1>   0.0800 
 50 H        7.9630    -4.9780     1.4390 H     1 <1>   0.0800 
@<TRIPOS>BOND
  1   1   2  1   
  2   1   3  1   
  3   2   4  1   
  4   2   5  2   
  5   3   6  2   
  6   3   7  1   
  7   4   8  am  
  8   4  25  1   
  9   5   6  1   
 10   5   9  1   
 11   6  10  1   
 12   7  11  1   
 13   7  26  1   
 14   7  27  1   
 15   8  12  2   
 16   8  13  1   
 17   9  14  2   
 18   9  15  1   
 19  10  11  1   
 20  10  28  1   
 21  10  29  1   
 22  11  30  1   
 23  11  31  1   
 24  13  16  1   
 25  13  32  1   
 26  13  33  1   
 27  15  17  1   
 28  16  18  1   
 29  16  19  1   
 30  17  20  1   
 31  17  34  1   
 32  17  35  1   
 33  18  21  1   
 34  18  36  1   
 35  18  37  1   
 36  19  22  1   
 37  19  38  1   
 38  19  39  1   
 39  20  40  1   
 40  20  41  1   
 41  20  42  1   
 42  21  23  1   
 43  21  43  1   
 44  21  44  1   
 45  22  23  1   
 46  22  45  1   
 47  22  46  1   
 48  23  24  1   
 49  23  47  1   
 50  24  48  1   
 51  24  49  1   
 52  24  50  1   
@<TRIPOS>SUBSTRUCTURE
  1 ****   4 GROUP 4 **** **** 0

# MOE 2024.06 (io_trps.svl 2023.06)
