@<TRIPOS>MOLECULE
NONAME
51 53 1 0 0 
SMALL
USER_CHARGES


@<TRIPOS>ATOM
  1 S       -0.0370     0.0230     0.8090 S.o2  1 <1>   1.4470 
  2 O        0.1070    -0.4440     2.1720 O.2   1 <1>  -0.6500 
  3 O       -1.1130     0.9280     0.4700 O.2   1 <1>  -0.6500 
  4 N       -0.1030    -1.3670    -0.1740 N.am  1 <1>  -0.8490 
  5 C        1.5030     0.8480     0.3000 C.ar  1 <1>  -0.0090 
  6 C       -1.3070    -2.2020     0.0400 C.3   1 <1>   0.2760 
  7 C        1.1050    -2.1840     0.0510 C.3   1 <1>   0.1960 
  8 C        1.7590     1.1210    -1.0370 C.ar  1 <1>  -0.1500 
  9 C        2.4620     1.2380     1.2270 C.ar  1 <1>  -0.1500 
 10 C       -1.2950    -3.4040    -0.9250 C.3   1 <1>  -0.1600 
 11 C       -2.6160    -1.4440    -0.2060 C.3   1 <1>  -0.2400 
 12 C        1.1880    -3.3440    -0.9410 C.3   1 <1>  -0.1600 
 13 C        2.9290     1.7450    -1.4320 C.ar  1 <1>  -0.1500 
 14 C        3.6320     1.8640     0.8350 C.ar  1 <1>  -0.1500 
 15 C       -0.0290    -4.2530    -0.8010 C.3   1 <1>  -0.1600 
 16 C        3.9020     2.1260    -0.5100 C.ar  1 <1>   0.0860 
 17 C        5.1300     2.7690    -0.9440 C.2   1 <1>   0.5440 
 18 O        5.1410     3.4440    -1.9530 O.2   1 <1>  -0.5700 
 19 N        6.2890     2.5810    -0.2250 N.am  1 <1>  -0.5470 
 20 C        7.5550     3.1760    -0.3510 C.ar  1 <1>   0.1170 
 21 C        8.6720     2.4770     0.0890 C.ar  1 <1>  -0.1500 
 22 C        7.7320     4.4520    -0.8780 C.ar  1 <1>  -0.1500 
 23 C        9.9430     3.0360     0.0030 C.ar  1 <1>   0.0820 
 24 C        8.9930     5.0150    -0.9660 C.ar  1 <1>  -0.1500 
 25 O       11.0750     2.4080     0.4100 O.3   1 <1>  -0.3620 
 26 C       10.0960     4.3070    -0.5250 C.ar  1 <1>  -0.1500 
 27 C       11.0500     1.0820     0.8900 C.3   1 <1>   0.0400 
 28 H       -1.3090    -2.5710     1.0550 H     1 <1>   0.0800 
 29 H        1.1060    -2.5700     1.0580 H     1 <1>   0.0800 
 30 H        1.9920    -1.5890    -0.0760 H     1 <1>   0.0800 
 31 H        1.0260     0.8420    -1.7780 H     1 <1>   0.1500 
 32 H        2.2830     1.0520     2.2750 H     1 <1>   0.1500 
 33 H       -1.3810    -3.0390    -1.9340 H     1 <1>   0.0800 
 34 H       -2.1480    -4.0300    -0.7320 H     1 <1>   0.0800 
 35 H       -2.5560    -0.8690    -1.1130 H     1 <1>   0.0800 
 36 H       -2.8470    -0.7970     0.6200 H     1 <1>   0.0800 
 37 H       -3.4390    -2.1300    -0.2910 H     1 <1>   0.0800 
 38 H        2.0840    -3.9100    -0.7580 H     1 <1>   0.0800 
 39 H        1.2440    -2.9490    -1.9410 H     1 <1>   0.0800 
 40 H        3.0970     1.9460    -2.4780 H     1 <1>   0.1500 
 41 H        4.3370     2.1640     1.5900 H     1 <1>   0.1500 
 42 H       -0.0160    -5.0120    -1.5650 H     1 <1>   0.0800 
 43 H       -0.0130    -4.7380     0.1590 H     1 <1>   0.0800 
 44 H        6.2410     1.8360     0.4650 H     1 <1>   0.3700 
 45 H        8.5360     1.4950     0.4930 H     1 <1>   0.1500 
 46 H        6.8830     5.0150    -1.2210 H     1 <1>   0.1500 
 47 H        9.1130     6.0010    -1.3780 H     1 <1>   0.1500 
 48 H       11.0800     4.7350    -0.5890 H     1 <1>   0.1500 
 49 H       12.0600     0.7920     1.1180 H     1 <1>   0.0800 
 50 H       10.6500     0.4420     0.1240 H     1 <1>   0.0800 
 51 H       10.4500     1.0450     1.7810 H     1 <1>   0.0800 
@<TRIPOS>BOND
  1   1   2  2   
  2   1   3  2   
  3   1   4  am  
  4   1   5  1   
  5   4   6  1   
  6   4   7  1   
  7   5   8  ar  
  8   5   9  ar  
  9   6  10  1   
 10   6  11  1   
 11   6  28  1   
 12   7  12  1   
 13   7  29  1   
 14   7  30  1   
 15   8  13  ar  
 16   8  31  1   
 17   9  14  ar  
 18   9  32  1   
 19  10  15  1   
 20  10  33  1   
 21  10  34  1   
 22  11  35  1   
 23  11  36  1   
 24  11  37  1   
 25  12  15  1   
 26  12  38  1   
 27  12  39  1   
 28  13  16  ar  
 29  13  40  1   
 30  14  16  ar  
 31  14  41  1   
 32  15  42  1   
 33  15  43  1   
 34  16  17  1   
 35  17  18  2   
 36  17  19  am  
 37  19  20  1   
 38  19  44  1   
 39  20  21  ar  
 40  20  22  ar  
 41  21  23  ar  
 42  21  45  1   
 43  22  24  ar  
 44  22  46  1   
 45  23  25  1   
 46  23  26  ar  
 47  24  26  ar  
 48  24  47  1   
 49  25  27  1   
 50  26  48  1   
 51  27  49  1   
 52  27  50  1   
 53  27  51  1   
@<TRIPOS>SUBSTRUCTURE
  1 ****  16 GROUP 4 **** **** 0

# MOE 2024.06 (io_trps.svl 2023.06)
