@<TRIPOS>MOLECULE
NONAME
41 44 1 0 0 
SMALL
USER_CHARGES


@<TRIPOS>ATOM
  1 O       -1.1880     1.1810     1.7430 O.2   1 <1>  -0.5700 
  2 C       -1.1130     2.1680     1.0590 C.2   1 <1>   0.5690 
  3 N       -1.9710     2.5040     0.0480 N.am  1 <1>  -0.4200 
  4 C       -0.0240     3.2140     1.2380 C.3   1 <1>  -0.0190 
  5 C       -1.6570     3.6820    -0.5720 C.2   1 <1>   0.5690 
  6 C       -3.1210     1.6580    -0.3530 C.3   1 <1>   0.1400 
  7 C       -0.4230     4.3250     0.0400 C.3   1 <1>  -0.0190 
  8 C        1.5200     2.7070     0.9380 C.3   1 <1>   0.0580 
  9 O       -2.2660     4.1770    -1.4850 O.2   1 <1>  -0.5700 
 10 C       -4.3760     2.0520     0.4310 C.3   1 <1>  -0.0220 
 11 C        0.8880     4.4630    -0.9550 C.3   1 <1>   0.0580 
 12 C        2.7730     3.0640    -0.0350 C.2   1 <1>  -0.2880 
 13 C        1.1630     3.5730    -0.0060 C.3   1 <1>  -0.1600 
 14 C       -5.6110     1.2200     0.0860 C.2   1 <1>  -0.2760 
 15 C        2.4410     3.9870    -1.0300 C.2   1 <1>  -0.2880 
 16 C       -5.6630     0.2420    -0.8300 C.2   1 <1>  -0.2880 
 17 C       -6.8290     1.6150     0.9170 C.3   1 <1>  -0.0220 
 18 C       -6.9000    -0.5900    -1.1320 C.3   1 <1>  -0.0220 
 19 C       -8.1340     1.0440     0.3450 C.3   1 <1>  -0.1600 
 20 C       -7.9680    -0.4290    -0.0420 C.3   1 <1>  -0.1600 
 21 H       -0.1090     3.6450     2.2210 H     1 <1>   0.0800 
 22 H       -2.8860     0.6240    -0.1630 H     1 <1>   0.0800 
 23 H       -3.3000     1.7790    -1.4080 H     1 <1>   0.0800 
 24 H       -0.6960     5.2790     0.4610 H     1 <1>   0.0800 
 25 H        1.4100     1.6400     0.7890 H     1 <1>   0.0800 
 26 H       -4.5940     3.0870     0.2320 H     1 <1>   0.0800 
 27 H       -4.1730     1.9390     1.4820 H     1 <1>   0.0800 
 28 H        0.5060     4.1540    -1.9190 H     1 <1>   0.0800 
 29 H        3.7210     2.5840     0.1500 H     1 <1>   0.1500 
 30 H        1.5150     4.4860     0.7230 H     1 <1>   0.0800 
 31 H        0.7870     2.7010    -0.6900 H     1 <1>   0.0800 
 32 H        3.0690     4.3980    -1.8050 H     1 <1>   0.1500 
 33 H       -4.8320    -0.0510    -1.4460 H     1 <1>   0.1500 
 34 H       -6.9160     2.6870     0.9570 H     1 <1>   0.0800 
 35 H       -6.6910     1.2570     1.9230 H     1 <1>   0.0800 
 36 H       -6.6270    -1.6280    -1.2040 H     1 <1>   0.0800 
 37 H       -7.2990    -0.2810    -2.0820 H     1 <1>   0.0800 
 38 H       -8.4100     1.6080    -0.5300 H     1 <1>   0.0800 
 39 H       -8.9210     1.1490     1.0710 H     1 <1>   0.0800 
 40 H       -7.6700    -0.9890     0.8280 H     1 <1>   0.0800 
 41 H       -8.9040    -0.8280    -0.3920 H     1 <1>   0.0800 
@<TRIPOS>BOND
  1   1   2  2   
  2   2   3  am  
  3   2   4  1   
  4   3   5  am  
  5   3   6  1   
  6   4   7  1   
  7   4   8  1   
  8   4  21  1   
  9   5   7  1   
 10   5   9  2   
 11   6  10  1   
 12   6  22  1   
 13   6  23  1   
 14   7  11  1   
 15   7  24  1   
 16   8  12  1   
 17   8  13  1   
 18   8  25  1   
 19  10  14  1   
 20  10  26  1   
 21  10  27  1   
 22  11  13  1   
 23  11  15  1   
 24  11  28  1   
 25  12  15  2   
 26  12  29  1   
 27  13  30  1   
 28  13  31  1   
 29  14  16  2   
 30  14  17  1   
 31  15  32  1   
 32  16  18  1   
 33  16  33  1   
 34  17  19  1   
 35  17  34  1   
 36  17  35  1   
 37  18  20  1   
 38  18  36  1   
 39  18  37  1   
 40  19  20  1   
 41  19  38  1   
 42  19  39  1   
 43  20  40  1   
 44  20  41  1   
@<TRIPOS>SUBSTRUCTURE
  1 ****   3 GROUP 4 **** **** 0

# MOE 2024.06 (io_trps.svl 2023.06)
