@<TRIPOS>MOLECULE
NONAME
30 30 1 0 0 
SMALL
USER_CHARGES


@<TRIPOS>ATOM
  1 S       -0.1060     0.2970     0.0080 S.o2  1 <1>   1.3330 
  2 O        0.2260     1.4350     0.8260 O.2   1 <1>  -0.6500 
  3 O       -1.1760     0.3440    -0.9560 O.2   1 <1>  -0.6500 
  4 N        1.2690    -0.1260    -0.9240 N.am  1 <1>  -0.7570 
  5 C       -0.3240    -1.1460     1.0270 C.3   1 <1>  -0.1350 
  6 C        2.5950    -0.3060    -0.5430 C.ar  1 <1>   0.1990 
  7 C        3.0850     0.0720     0.7030 C.ar  1 <1>  -0.1500 
  8 C        3.4710    -0.8990    -1.4440 C.ar  1 <1>  -0.1500 
  9 C        4.4090    -0.1490     1.0380 C.ar  1 <1>  -0.1500 
 10 C        4.7970    -1.1220    -1.1150 C.ar  1 <1>  -0.1500 
 11 C        5.2750    -0.7460     0.1370 C.ar  1 <1>   0.0830 
 12 O        6.5570    -0.9250     0.5590 O.3   1 <1>  -0.3630 
 13 C        7.5840    -1.3950    -0.2870 C.3   1 <1>   0.2000 
 14 C        8.7160    -1.8790     0.6140 C.3   1 <1>  -0.2400 
 15 C        8.0510    -0.2480    -1.1870 C.3   1 <1>  -0.2400 
 16 H        1.0110    -0.2440    -1.8990 H     1 <1>   0.4200 
 17 H       -1.1930    -1.0300     1.6450 H     1 <1>   0.0800 
 18 H        0.5300    -1.2870     1.6580 H     1 <1>   0.0800 
 19 H       -0.4510    -2.0170     0.4150 H     1 <1>   0.0800 
 20 H        2.4460     0.5510     1.4210 H     1 <1>   0.1500 
 21 H        3.1130    -1.1930    -2.4130 H     1 <1>   0.1500 
 22 H        4.7830     0.1470     2.0020 H     1 <1>   0.1500 
 23 H        5.4360    -1.5840    -1.8420 H     1 <1>   0.1500 
 24 H        7.2130    -2.2260    -0.8610 H     1 <1>   0.0800 
 25 H        9.0810    -1.0730     1.2250 H     1 <1>   0.0800 
 26 H        9.5270    -2.2540     0.0180 H     1 <1>   0.0800 
 27 H        8.3650    -2.6730     1.2480 H     1 <1>   0.0800 
 28 H        8.4060     0.5720    -0.5890 H     1 <1>   0.0800 
 29 H        7.2500     0.0960    -1.8140 H     1 <1>   0.0800 
 30 H        8.8530    -0.5830    -1.8190 H     1 <1>   0.0800 
@<TRIPOS>BOND
  1   1   2  2   
  2   1   3  2   
  3   1   4  am  
  4   1   5  1   
  5   4   6  1   
  6   4  16  1   
  7   5  17  1   
  8   5  18  1   
  9   5  19  1   
 10   6   7  ar  
 11   6   8  ar  
 12   7   9  ar  
 13   7  20  1   
 14   8  10  ar  
 15   8  21  1   
 16   9  11  ar  
 17   9  22  1   
 18  10  11  ar  
 19  10  23  1   
 20  11  12  1   
 21  12  13  1   
 22  13  14  1   
 23  13  15  1   
 24  13  24  1   
 25  14  25  1   
 26  14  26  1   
 27  14  27  1   
 28  15  28  1   
 29  15  29  1   
 30  15  30  1   
@<TRIPOS>SUBSTRUCTURE
  1 ****   7 GROUP 4 **** **** 0

# MOE 2024.06 (io_trps.svl 2023.06)
