@<TRIPOS>MOLECULE
NONAME
45 48 1 0 0 
SMALL
USER_CHARGES


@<TRIPOS>ATOM
  1 F       -1.6870     2.2560     2.5460 F     1 <1>  -0.1900 
  2 C       -1.9900     1.9560     1.3130 C.ar  1 <1>   0.1900 
  3 C       -0.9910     1.9900     0.3470 C.ar  1 <1>   0.0860 
  4 C       -3.3010     1.6100     1.0360 C.ar  1 <1>  -0.1500 
  5 C       -1.3920     1.6360    -0.9380 C.ar  1 <1>   0.1900 
  6 C        0.3630     2.3710     0.6490 C.2   1 <1>   0.5440 
  7 C       -3.6560     1.2750    -0.2620 C.ar  1 <1>  -0.1500 
  8 F       -0.5000     1.6080    -1.8910 F     1 <1>  -0.1900 
  9 C       -2.6930     1.2870    -1.2590 C.ar  1 <1>  -0.1500 
 10 O        0.7170     3.5230     0.4990 O.2   1 <1>  -0.5700 
 11 N        1.3130     1.4530     1.0430 N.am  1 <1>  -0.6600 
 12 C        1.4800     0.1690     0.3090 C.3   1 <1>   0.1400 
 13 C        2.5960     1.9480     1.6220 C.3   1 <1>   0.1400 
 14 C        2.4830     0.3740    -0.8470 C.3   1 <1>   0.3430 
 15 C        3.5980     2.1950     0.4810 C.3   1 <1>   0.3430 
 16 N        3.7920     0.9660    -0.3830 N.4   1 <1>  -0.9590 
 17 C        4.6830     1.2690    -1.5340 C.3   1 <1>   0.4860 
 18 C        6.0610     1.5980    -0.9970 C.ar  1 <1>  -0.1440 
 19 C        6.8760     0.5780    -0.5100 C.ar  1 <1>  -0.1500 
 20 C        6.5130     2.9190    -0.9840 C.ar  1 <1>  -0.1500 
 21 C        8.1160     0.9190    -0.0100 C.ar  1 <1>   0.0820 
 22 C        7.7670     3.2390    -0.4780 C.ar  1 <1>  -0.1500 
 23 O        9.0460     0.1130     0.5080 O.3   1 <1>  -0.3620 
 24 C        8.5500     2.2110     0.0060 C.ar  1 <1>   0.0820 
 25 C       10.1550     0.9410     0.8610 C.3   1 <1>   0.4000 
 26 O        9.7760     2.2770     0.5350 O.3   1 <1>  -0.3620 
 27 H       -4.0330     1.6060     1.8260 H     1 <1>   0.1500 
 28 H       -4.6740     1.0070    -0.4930 H     1 <1>   0.1500 
 29 H       -2.9490     1.0280    -2.2720 H     1 <1>   0.1500 
 30 H        0.5370    -0.1680    -0.0840 H     1 <1>   0.0800 
 31 H        1.8400    -0.5880     0.9850 H     1 <1>   0.0800 
 32 H        2.9880     1.2270     2.3180 H     1 <1>   0.0800 
 33 H        2.4270     2.8660     2.1600 H     1 <1>   0.0800 
 34 H        2.0270     1.0340    -1.5680 H     1 <1>   0.0800 
 35 H        2.6600    -0.5720    -1.3330 H     1 <1>   0.0800 
 36 H        4.5410     2.5060     0.9000 H     1 <1>   0.0800 
 37 H        3.2190     3.0080    -0.1200 H     1 <1>   0.0800 
 38 H        4.2840     0.2750     0.1960 H     1 <1>   0.4500 
 39 H        4.2950     2.1010    -2.0990 H     1 <1>   0.0800 
 40 H        4.7520     0.4140    -2.1870 H     1 <1>   0.0800 
 41 H        6.5840    -0.4570    -0.5110 H     1 <1>   0.1500 
 42 H        5.8990     3.7170    -1.3680 H     1 <1>   0.1500 
 43 H        8.1340     4.2500    -0.4600 H     1 <1>   0.1500 
 44 H       11.0160     0.6580     0.2820 H     1 <1>   0.0800 
 45 H       10.3430     0.8650     1.9170 H     1 <1>   0.0800 
@<TRIPOS>BOND
  1   1   2  1   
  2   2   3  ar  
  3   2   4  ar  
  4   3   5  ar  
  5   3   6  1   
  6   4   7  ar  
  7   4  27  1   
  8   5   8  1   
  9   5   9  ar  
 10   6  10  2   
 11   6  11  am  
 12   7   9  ar  
 13   7  28  1   
 14   9  29  1   
 15  11  12  1   
 16  11  13  1   
 17  12  14  1   
 18  12  30  1   
 19  12  31  1   
 20  13  15  1   
 21  13  32  1   
 22  13  33  1   
 23  14  16  1   
 24  14  34  1   
 25  14  35  1   
 26  15  16  1   
 27  15  36  1   
 28  15  37  1   
 29  16  17  1   
 30  16  38  1   
 31  17  18  1   
 32  17  39  1   
 33  17  40  1   
 34  18  19  ar  
 35  18  20  ar  
 36  19  21  ar  
 37  19  41  1   
 38  20  22  ar  
 39  20  42  1   
 40  21  23  1   
 41  21  24  ar  
 42  22  24  ar  
 43  22  43  1   
 44  23  25  1   
 45  24  26  1   
 46  25  26  1   
 47  25  44  1   
 48  25  45  1   
@<TRIPOS>SUBSTRUCTURE
  1 ****  15 GROUP 4 **** **** 0

# MOE 2024.06 (io_trps.svl 2023.06)
