@<TRIPOS>MOLECULE
NONAME
37 39 1 0 0 
SMALL
USER_CHARGES


@<TRIPOS>ATOM
  1 O        0.3740    -0.6170    -1.6320 O.2   1 <1>  -0.5700 
  2 C        1.1870    -1.4370    -1.2420 C.2   1 <1>   0.6900 
  3 N        0.9520    -2.6000    -0.5700 N.am  1 <1>  -0.1680 
  4 N        2.5020    -1.2400    -1.3750 N.am  1 <1>  -0.7300 
  5 N        2.2400    -3.2220    -0.1860 N.3   1 <1>  -0.6390 
  6 C       -0.2670    -3.1100    -0.0820 C.ar  1 <1>   0.1170 
  7 C        3.2490    -2.2080    -0.5910 C.3   1 <1>   0.5700 
  8 C       -0.3050    -3.8730     1.0850 C.ar  1 <1>  -0.1500 
  9 C       -1.4710    -2.8820    -0.7480 C.ar  1 <1>  -0.1500 
 10 C        3.7930    -1.5350     0.6780 C.3   1 <1>  -0.1600 
 11 C        4.2900    -2.8620    -1.5100 C.3   1 <1>  -0.1600 
 12 C       -1.4950    -4.3890     1.5670 C.ar  1 <1>  -0.1500 
 13 C       -2.6630    -3.3940    -0.2690 C.ar  1 <1>  -0.1500 
 14 C        5.1350    -0.7960     0.5200 C.3   1 <1>  -0.1600 
 15 C        5.4140    -3.6290    -0.7910 C.3   1 <1>  -0.1600 
 16 C       -2.6780    -4.1500     0.8900 C.ar  1 <1>  -0.1500 
 17 C        6.3410    -1.7300     0.7170 C.3   1 <1>  -0.1600 
 18 C        6.5990    -2.7190    -0.4290 C.3   1 <1>  -0.1600 
 19 H        2.8330    -0.2820    -1.4070 H     1 <1>   0.3700 
 20 H        2.3760    -3.9550    -0.8870 H     1 <1>   0.3600 
 21 H        0.6060    -4.0610     1.6220 H     1 <1>   0.1500 
 22 H       -1.4770    -2.2990    -1.6520 H     1 <1>   0.1500 
 23 H        3.9070    -2.2830     1.4420 H     1 <1>   0.0800 
 24 H        3.0520    -0.8430     1.0390 H     1 <1>   0.0800 
 25 H        4.7390    -2.1020    -2.1250 H     1 <1>   0.0800 
 26 H        3.7810    -3.5320    -2.1800 H     1 <1>   0.0800 
 27 H       -1.5010    -4.9740     2.4700 H     1 <1>   0.1500 
 28 H       -3.5800    -3.2040    -0.7990 H     1 <1>   0.1500 
 29 H        5.1850    -0.0400     1.2860 H     1 <1>   0.0800 
 30 H        5.1920    -0.2910    -0.4280 H     1 <1>   0.0800 
 31 H        5.7810    -4.3860    -1.4640 H     1 <1>   0.0800 
 32 H        5.0400    -4.1350     0.0830 H     1 <1>   0.0800 
 33 H       -3.6050    -4.5480     1.2630 H     1 <1>   0.1500 
 34 H        6.2240    -2.2770     1.6370 H     1 <1>   0.0800 
 35 H        7.2220    -1.1210     0.8290 H     1 <1>   0.0800 
 36 H        6.9140    -2.1750    -1.3030 H     1 <1>   0.0800 
 37 H        7.4270    -3.3460    -0.1400 H     1 <1>   0.0800 
@<TRIPOS>BOND
  1   1   2  2   
  2   2   3  am  
  3   2   4  am  
  4   3   5  1   
  5   3   6  1   
  6   4   7  1   
  7   4  19  1   
  8   5   7  1   
  9   5  20  1   
 10   6   8  ar  
 11   6   9  ar  
 12   7  10  1   
 13   7  11  1   
 14   8  12  ar  
 15   8  21  1   
 16   9  13  ar  
 17   9  22  1   
 18  10  14  1   
 19  10  23  1   
 20  10  24  1   
 21  11  15  1   
 22  11  25  1   
 23  11  26  1   
 24  12  16  ar  
 25  12  27  1   
 26  13  16  ar  
 27  13  28  1   
 28  14  17  1   
 29  14  29  1   
 30  14  30  1   
 31  15  18  1   
 32  15  31  1   
 33  15  32  1   
 34  16  33  1   
 35  17  18  1   
 36  17  34  1   
 37  17  35  1   
 38  18  36  1   
 39  18  37  1   
@<TRIPOS>SUBSTRUCTURE
  1 ****   5 GROUP 4 **** **** 0

# MOE 2024.06 (io_trps.svl 2023.06)
