@<TRIPOS>MOLECULE
NONAME
56 60 1 0 0 
SMALL
USER_CHARGES


@<TRIPOS>ATOM
  1 S       -0.3110     0.2500     1.0540 S.3   1 <1>  -0.0800 
  2 C       -1.7690    -0.6070     0.5700 C.ar  1 <1>   0.2970 
  3 C        0.7400    -1.1310     0.6410 C.2   1 <1>  -0.0450 
  4 N       -2.9340    -0.0030     0.6470 N.ar  1 <1>  -0.5670 
  5 C       -1.4640    -1.8930     0.1390 C.ar  1 <1>   0.0000 
  6 C       -0.0390    -2.1580     0.1890 C.2   1 <1>   0.0830 
  7 C        2.1520    -1.0330     0.8530 C.2   1 <1>   0.7150 
  8 C       -3.9440    -0.7540     0.2380 C.ar  1 <1>   0.4100 
  9 C       -2.5540    -2.6740    -0.2680 C.ar  1 <1>  -0.1430 
 10 N        0.5260    -3.3590    -0.1960 N.pl3 1 <1>  -0.8830 
 11 O        2.8000    -2.0490     1.0770 O.2   1 <1>  -0.5700 
 12 N        2.8390     0.1670     0.8120 N.am  1 <1>  -0.6600 
 13 N       -5.1890    -0.1660     0.3210 N.pl3 1 <1>  -0.8380 
 14 C       -3.8020    -2.0730    -0.2360 C.ar  1 <1>  -0.1430 
 15 C       -2.3680    -4.1160    -0.7400 C.3   1 <1>  -0.0170 
 16 C        2.5440     1.2210    -0.1980 C.3   1 <1>   0.1400 
 17 C        4.1160     0.3510     1.5560 C.3   1 <1>   0.1400 
 18 C       -5.8300    -0.1790     1.6630 C.3   1 <1>   0.2090 
 19 C       -5.3690     1.1530    -0.3490 C.3   1 <1>   0.2090 
 20 C       -5.0550    -2.8160    -0.7070 C.3   1 <1>  -0.0170 
 21 C       -3.6780    -4.8950    -0.8940 C.3   1 <1>  -0.1600 
 22 C        3.7130     1.3480    -1.1820 C.3   1 <1>  -0.1600 
 23 C        5.2850     0.4600     0.5730 C.3   1 <1>  -0.1600 
 24 C       -7.2960     0.2840     1.5680 C.3   1 <1>   0.1200 
 25 C       -6.8550     1.5560    -0.3580 C.3   1 <1>   0.1200 
 26 C       -4.7370    -4.0340    -1.5780 C.3   1 <1>  -0.1600 
 27 C        5.0500     1.5690    -0.4600 C.3   1 <1>  -0.1600 
 28 O       -7.3940     1.5330     0.9380 O.3   1 <1>  -0.5600 
 29 H       -0.0350    -4.2110    -0.1980 H     1 <1>   0.4000 
 30 H        1.5080    -3.5110     0.0850 H     1 <1>   0.4000 
 31 H       -1.7610    -4.6490    -0.0320 H     1 <1>   0.0800 
 32 H       -1.8540    -4.0960    -1.6860 H     1 <1>   0.0800 
 33 H        2.3840     2.1570     0.3090 H     1 <1>   0.0800 
 34 H        1.6530     0.9780    -0.7510 H     1 <1>   0.0800 
 35 H        4.2810    -0.4740     2.2290 H     1 <1>   0.0800 
 36 H        4.0490     1.2500     2.1440 H     1 <1>   0.0800 
 37 H       -5.2890     0.4760     2.3240 H     1 <1>   0.0800 
 38 H       -5.7890    -1.1740     2.0710 H     1 <1>   0.0800 
 39 H       -5.0020     1.0930    -1.3590 H     1 <1>   0.0800 
 40 H       -4.8000     1.9040     0.1710 H     1 <1>   0.0800 
 41 H       -5.6830    -2.1520    -1.2750 H     1 <1>   0.0800 
 42 H       -5.6090    -3.1290     0.1600 H     1 <1>   0.0800 
 43 H       -4.0340    -5.1880     0.0790 H     1 <1>   0.0800 
 44 H       -3.5020    -5.7890    -1.4670 H     1 <1>   0.0800 
 45 H        3.5250     2.1670    -1.8530 H     1 <1>   0.0800 
 46 H        3.7670     0.4490    -1.7710 H     1 <1>   0.0800 
 47 H        5.4040    -0.4870     0.0730 H     1 <1>   0.0800 
 48 H        6.1910     0.6570     1.1180 H     1 <1>   0.0800 
 49 H       -7.7180     0.3790     2.5520 H     1 <1>   0.0800 
 50 H       -7.8750    -0.4290     1.0080 H     1 <1>   0.0800 
 51 H       -7.4200     0.8810    -0.9760 H     1 <1>   0.0800 
 52 H       -6.9650     2.5540    -0.7410 H     1 <1>   0.0800 
 53 H       -4.3710    -3.7040    -2.5350 H     1 <1>   0.0800 
 54 H       -5.6340    -4.6070    -1.7380 H     1 <1>   0.0800 
 55 H        5.0350     2.5240     0.0360 H     1 <1>   0.0800 
 56 H        5.8530     1.5770    -1.1760 H     1 <1>   0.0800 
@<TRIPOS>BOND
  1   1   2  1   
  2   1   3  1   
  3   2   4  ar  
  4   2   5  ar  
  5   3   6  2   
  6   3   7  1   
  7   4   8  ar  
  8   5   6  1   
  9   5   9  ar  
 10   6  10  1   
 11   7  11  2   
 12   7  12  am  
 13   8  13  1   
 14   8  14  ar  
 15   9  14  ar  
 16   9  15  1   
 17  10  29  1   
 18  10  30  1   
 19  12  16  1   
 20  12  17  1   
 21  13  18  1   
 22  13  19  1   
 23  14  20  1   
 24  15  21  1   
 25  15  31  1   
 26  15  32  1   
 27  16  22  1   
 28  16  33  1   
 29  16  34  1   
 30  17  23  1   
 31  17  35  1   
 32  17  36  1   
 33  18  24  1   
 34  18  37  1   
 35  18  38  1   
 36  19  25  1   
 37  19  39  1   
 38  19  40  1   
 39  20  26  1   
 40  20  41  1   
 41  20  42  1   
 42  21  26  1   
 43  21  43  1   
 44  21  44  1   
 45  22  27  1   
 46  22  45  1   
 47  22  46  1   
 48  23  27  1   
 49  23  47  1   
 50  23  48  1   
 51  24  28  1   
 52  24  49  1   
 53  24  50  1   
 54  25  28  1   
 55  25  51  1   
 56  25  52  1   
 57  26  53  1   
 58  26  54  1   
 59  27  55  1   
 60  27  56  1   
@<TRIPOS>SUBSTRUCTURE
  1 ****   2 GROUP 4 **** **** 0

# MOE 2024.06 (io_trps.svl 2023.06)
