@<TRIPOS>MOLECULE
NONAME
50 52 1 0 0 
SMALL
USER_CHARGES


@<TRIPOS>ATOM
  1 O       -0.7410    -2.7570     2.2370 O.2   1 <1>  -0.5700 
  2 C       -0.1380    -2.3090     1.2920 C.2   1 <1>   0.5690 
  3 N       -0.6830    -1.5170     0.3210 N.am  1 <1>  -0.5470 
  4 C        1.3500    -2.6330     1.1360 C.3   1 <1>   0.1710 
  5 C       -1.9680    -1.0020     0.1000 C.ar  1 <1>   0.1170 
  6 N        2.0880    -1.6620     0.2710 N.3   1 <1>  -0.8100 
  7 C       -2.1530    -0.1140    -0.9520 C.ar  1 <1>  -0.1500 
  8 C       -3.0730    -1.3350     0.8770 C.ar  1 <1>  -0.1500 
  9 C        3.3840    -2.2300    -0.1670 C.3   1 <1>   0.1100 
 10 C        2.3420    -0.3920     0.9990 C.3   1 <1>   0.1100 
 11 C       -3.3970     0.4280    -1.2200 C.ar  1 <1>  -0.1500 
 12 C       -4.3180    -0.7950     0.6110 C.ar  1 <1>  -0.1500 
 13 C        4.1700    -1.2650    -1.0740 C.3   1 <1>   0.2090 
 14 C        3.0960     0.6400     0.1390 C.3   1 <1>   0.2090 
 15 C       -4.4950     0.0930    -0.4400 C.ar  1 <1>  -0.1430 
 16 N        4.3630     0.0650    -0.4150 N.pl3 1 <1>  -0.8380 
 17 C       -5.8780     0.6790    -0.7190 C.3   1 <1>   0.0630 
 18 C        5.5350     0.7880    -0.5110 C.ar  1 <1>   0.7200 
 19 C       -6.3730     0.2730    -2.1110 C.3   1 <1>  -0.2400 
 20 C       -5.8670     2.2030    -0.5680 C.3   1 <1>  -0.2400 
 21 N        5.5260     2.0320    -0.0320 N.ar  1 <1>  -0.6200 
 22 N        6.5800     0.1830    -1.0780 N.ar  1 <1>  -0.6200 
 23 C        6.6450     2.7070    -0.1320 C.ar  1 <1>   0.1600 
 24 C        7.6850     0.8810    -1.1640 C.ar  1 <1>   0.1600 
 25 C        7.7730     2.1690    -0.6990 C.ar  1 <1>  -0.1500 
 26 H        0.0380    -1.2220    -0.3440 H     1 <1>   0.3700 
 27 H        1.4100    -3.6140     0.7000 H     1 <1>   0.0800 
 28 H        1.8020    -2.6780     2.1110 H     1 <1>   0.0800 
 29 H       -1.3170     0.1590    -1.5690 H     1 <1>   0.1500 
 30 H       -2.9690    -2.0210     1.6960 H     1 <1>   0.1500 
 31 H        3.2080    -3.1420    -0.7110 H     1 <1>   0.0800 
 32 H        3.9910    -2.4650     0.6910 H     1 <1>   0.0800 
 33 H        2.9260    -0.5880     1.8820 H     1 <1>   0.0800 
 34 H        1.4080     0.0420     1.3120 H     1 <1>   0.0800 
 35 H       -3.5080     1.1130    -2.0410 H     1 <1>   0.1500 
 36 H       -5.1510    -1.0740     1.2320 H     1 <1>   0.1500 
 37 H        3.6300    -1.1240    -1.9930 H     1 <1>   0.0800 
 38 H        5.1130    -1.7210    -1.3140 H     1 <1>   0.0800 
 39 H        3.2970     1.5020     0.7500 H     1 <1>   0.0800 
 40 H        2.4680     0.9520    -0.6750 H     1 <1>   0.0800 
 41 H       -6.5720     0.2840     0.0040 H     1 <1>   0.0800 
 42 H       -5.7420     0.6840    -2.8770 H     1 <1>   0.0800 
 43 H       -7.3770     0.6240    -2.2660 H     1 <1>   0.0800 
 44 H       -6.3670    -0.7990    -2.2000 H     1 <1>   0.0800 
 45 H       -5.2250     2.6570    -1.3010 H     1 <1>   0.0800 
 46 H       -5.5100     2.4700     0.4110 H     1 <1>   0.0800 
 47 H       -6.8600     2.5970    -0.6900 H     1 <1>   0.0800 
 48 H        6.6620     3.7140     0.2480 H     1 <1>   0.1500 
 49 H        8.5430     0.4130    -1.6180 H     1 <1>   0.1500 
 50 H        8.6840     2.7310    -0.7750 H     1 <1>   0.1500 
@<TRIPOS>BOND
  1   1   2  2   
  2   2   3  am  
  3   2   4  1   
  4   3   5  1   
  5   3  26  1   
  6   4   6  1   
  7   4  27  1   
  8   4  28  1   
  9   5   7  ar  
 10   5   8  ar  
 11   6   9  1   
 12   6  10  1   
 13   7  11  ar  
 14   7  29  1   
 15   8  12  ar  
 16   8  30  1   
 17   9  13  1   
 18   9  31  1   
 19   9  32  1   
 20  10  14  1   
 21  10  33  1   
 22  10  34  1   
 23  11  15  ar  
 24  11  35  1   
 25  12  15  ar  
 26  12  36  1   
 27  13  16  1   
 28  13  37  1   
 29  13  38  1   
 30  14  16  1   
 31  14  39  1   
 32  14  40  1   
 33  15  17  1   
 34  16  18  1   
 35  17  19  1   
 36  17  20  1   
 37  17  41  1   
 38  18  21  ar  
 39  18  22  ar  
 40  19  42  1   
 41  19  43  1   
 42  19  44  1   
 43  20  45  1   
 44  20  46  1   
 45  20  47  1   
 46  21  23  ar  
 47  22  24  ar  
 48  23  25  ar  
 49  23  48  1   
 50  24  25  ar  
 51  24  49  1   
 52  25  50  1   
@<TRIPOS>SUBSTRUCTURE
  1 ****  10 GROUP 4 **** **** 0

# MOE 2024.06 (io_trps.svl 2023.06)
