@<TRIPOS>MOLECULE
NONAME
51 52 1 0 0 
SMALL
USER_CHARGES


@<TRIPOS>ATOM
  1 S        0.7380    -0.3030    -1.4010 S.o2  1 <1>   1.3330 
  2 O        0.5130    -0.7910    -0.0650 O.2   1 <1>  -0.6500 
  3 O        2.0300    -0.4770    -2.0210 O.2   1 <1>  -0.6500 
  4 N        0.4090     1.3930    -1.4250 N.am  1 <1>  -0.6930 
  5 C       -0.5090    -0.9440    -2.4960 C.3   1 <1>  -0.1350 
  6 C       -0.6610     1.8910    -0.6840 C.ar  1 <1>   0.1990 
  7 C        1.5770     2.2850    -1.7220 C.3   1 <1>   0.3370 
  8 C       -1.8520     2.2190    -1.3190 C.ar  1 <1>  -0.1500 
  9 C       -0.5650     2.0690     0.6910 C.ar  1 <1>  -0.1500 
 10 C        2.5740     2.4040    -0.5430 C.2   1 <1>   0.5690 
 11 C        1.0770     3.6470    -2.2360 C.3   1 <1>  -0.2400 
 12 C       -2.9280     2.7130    -0.6030 C.ar  1 <1>  -0.1500 
 13 C       -1.6360     2.5630     1.4120 C.ar  1 <1>  -0.1500 
 14 O        2.5450     3.3870     0.1620 O.2   1 <1>  -0.5700 
 15 N        3.4650     1.3820    -0.3410 N.am  1 <1>  -0.5470 
 16 C       -2.8230     2.8870     0.7740 C.ar  1 <1>   0.0830 
 17 C        4.4840     1.2050     0.6140 C.ar  1 <1>   0.1170 
 18 O       -3.8250     3.3650     1.5590 O.3   1 <1>  -0.3630 
 19 C        4.9250    -0.0910     0.8960 C.ar  1 <1>   0.0830 
 20 C        5.0910     2.2620     1.2860 C.ar  1 <1>  -0.1500 
 21 C       -5.0610     3.7470     1.0020 C.3   1 <1>   0.1200 
 22 O        4.3590    -1.1450     0.2610 O.3   1 <1>  -0.3630 
 23 C        5.9390    -0.3200     1.8100 C.ar  1 <1>  -0.1500 
 24 C        6.1000     2.0350     2.2070 C.ar  1 <1>  -0.1500 
 25 C       -5.9530     4.2470     2.1340 C.3   1 <1>  -0.2400 
 26 C        3.3740    -1.8340     0.9960 C.3   1 <1>   0.0400 
 27 C        6.5270     0.7450     2.4700 C.ar  1 <1>  -0.1500 
 28 H       -0.3970    -2.0050    -2.5990 H     1 <1>   0.0800 
 29 H       -0.4210    -0.4930    -3.4650 H     1 <1>   0.0800 
 30 H       -1.4860    -0.7380    -2.1040 H     1 <1>   0.0800 
 31 H        2.1250     1.8550    -2.5410 H     1 <1>   0.0800 
 32 H       -1.9290     2.0900    -2.3830 H     1 <1>   0.1500 
 33 H        0.3500     1.8180     1.1970 H     1 <1>   0.1500 
 34 H        0.5590     4.1810    -1.4590 H     1 <1>   0.0800 
 35 H        0.4250     3.5130    -3.0790 H     1 <1>   0.0800 
 36 H        1.9160     4.2440    -2.5420 H     1 <1>   0.0800 
 37 H       -3.8310     2.9560    -1.1290 H     1 <1>   0.1500 
 38 H       -1.5570     2.7000     2.4760 H     1 <1>   0.1500 
 39 H        3.3070     0.5320    -0.9030 H     1 <1>   0.3700 
 40 H        4.7810     3.2720     1.0910 H     1 <1>   0.1500 
 41 H       -5.5000     2.8890     0.5230 H     1 <1>   0.0800 
 42 H       -4.8840     4.5300     0.2840 H     1 <1>   0.0800 
 43 H        6.2660    -1.3260     2.0000 H     1 <1>   0.1500 
 44 H        6.5540     2.8670     2.7170 H     1 <1>   0.1500 
 45 H       -6.1090     3.4630     2.8540 H     1 <1>   0.0800 
 46 H       -6.9070     4.5480     1.7410 H     1 <1>   0.0800 
 47 H       -5.4970     5.0920     2.6170 H     1 <1>   0.0800 
 48 H        2.8920    -2.5360     0.3400 H     1 <1>   0.0800 
 49 H        2.6530    -1.1270     1.3680 H     1 <1>   0.0800 
 50 H        3.8450    -2.3510     1.8130 H     1 <1>   0.0800 
 51 H        7.3140     0.5710     3.1840 H     1 <1>   0.1500 
@<TRIPOS>BOND
  1   1   2  2   
  2   1   3  2   
  3   1   4  am  
  4   1   5  1   
  5   4   6  1   
  6   4   7  1   
  7   5  28  1   
  8   5  29  1   
  9   5  30  1   
 10   6   8  ar  
 11   6   9  ar  
 12   7  10  1   
 13   7  11  1   
 14   7  31  1   
 15   8  12  ar  
 16   8  32  1   
 17   9  13  ar  
 18   9  33  1   
 19  10  14  2   
 20  10  15  am  
 21  11  34  1   
 22  11  35  1   
 23  11  36  1   
 24  12  16  ar  
 25  12  37  1   
 26  13  16  ar  
 27  13  38  1   
 28  15  17  1   
 29  15  39  1   
 30  16  18  1   
 31  17  19  ar  
 32  17  20  ar  
 33  18  21  1   
 34  19  22  1   
 35  19  23  ar  
 36  20  24  ar  
 37  20  40  1   
 38  21  25  1   
 39  21  41  1   
 40  21  42  1   
 41  22  26  1   
 42  23  27  ar  
 43  23  43  1   
 44  24  27  ar  
 45  24  44  1   
 46  25  45  1   
 47  25  46  1   
 48  25  47  1   
 49  26  48  1   
 50  26  49  1   
 51  26  50  1   
 52  27  51  1   
@<TRIPOS>SUBSTRUCTURE
  1 ****   4 GROUP 4 **** **** 0

# MOE 2024.06 (io_trps.svl 2023.06)
