@<TRIPOS>MOLECULE
NONAME
54 57 1 0 0 
SMALL
USER_CHARGES


@<TRIPOS>ATOM
  1 CL       0.3400     2.2590     4.2000 Cl    1 <1>  -0.1770 
  2 C       -0.5310     3.1540     2.9820 C.ar  1 <1>   0.1770 
  3 C       -1.8490     3.4990     3.2050 C.ar  1 <1>  -0.1500 
  4 C        0.1070     3.5050     1.8110 C.ar  1 <1>  -0.1500 
  5 C       -2.5400     4.2100     2.2370 C.ar  1 <1>  -0.1500 
  6 C       -0.5900     4.2160     0.8490 C.ar  1 <1>  -0.1500 
  7 C       -1.9220     4.5790     1.0420 C.ar  1 <1>  -0.1430 
  8 C       -2.6480     5.3720    -0.0620 C.3   1 <1>   0.4240 
  9 O       -2.3980     4.7090    -1.2460 O.3   1 <1>  -0.6800 
 10 C       -4.1780     5.4370     0.0880 C.3   1 <1>  -0.1600 
 11 C       -2.0640     6.7860    -0.1960 C.3   1 <1>  -0.1600 
 12 C       -4.8330     6.2710    -1.0160 C.3   1 <1>   0.1400 
 13 C       -2.7620     7.6020    -1.2880 C.3   1 <1>   0.1400 
 14 N       -4.2270     7.6320    -1.0110 N.am  1 <1>  -0.6600 
 15 C       -4.9850     8.7450    -0.7280 C.2   1 <1>   0.5690 
 16 O       -6.1540     8.6490    -0.4390 O.2   1 <1>  -0.5700 
 17 C       -4.3630    10.1370    -0.7300 C.3   1 <1>  -0.0190 
 18 C       -3.5740    10.3900     0.5600 C.3   1 <1>   0.1400 
 19 C       -5.3360    11.3320    -0.8410 C.3   1 <1>  -0.0990 
 20 N       -3.6980    11.8430     0.7600 N.am  1 <1>  -0.6600 
 21 C       -4.6480    12.3900    -0.0270 C.2   1 <1>   0.5690 
 22 C       -2.7840    12.5940     1.6470 C.3   1 <1>   0.2840 
 23 O       -4.9100    13.5640    -0.1000 O.2   1 <1>  -0.5700 
 24 C       -1.3490    12.3900     1.1840 C.ar  1 <1>  -0.1430 
 25 C       -0.4680    11.6140     1.9260 C.ar  1 <1>  -0.1500 
 26 C       -0.9230    12.9760     0.0000 C.ar  1 <1>  -0.1500 
 27 C        0.8310    11.4230     1.4860 C.ar  1 <1>  -0.1500 
 28 C        0.3750    12.7900    -0.4440 C.ar  1 <1>  -0.1500 
 29 C        1.2380    12.0120     0.3040 C.ar  1 <1>   0.1770 
 30 CL       2.8730    11.7680    -0.2540 Cl    1 <1>  -0.1770 
 31 H       -2.3240     3.2140     4.1260 H     1 <1>   0.1500 
 32 H        1.1340     3.2260     1.6570 H     1 <1>   0.1500 
 33 H       -3.5630     4.4630     2.4460 H     1 <1>   0.1500 
 34 H       -0.0830     4.4860    -0.0630 H     1 <1>   0.1500 
 35 H       -2.4700     3.7520    -1.0740 H     1 <1>   0.4000 
 36 H       -4.4300     5.9020     1.0230 H     1 <1>   0.0800 
 37 H       -4.5910     4.4450     0.0900 H     1 <1>   0.0800 
 38 H       -1.0140     6.7260    -0.4140 H     1 <1>   0.0800 
 39 H       -2.1690     7.2980     0.7420 H     1 <1>   0.0800 
 40 H       -5.8960     6.3210    -0.8510 H     1 <1>   0.0800 
 41 H       -4.6700     5.8140    -1.9770 H     1 <1>   0.0800 
 42 H       -2.5980     7.1400    -2.2480 H     1 <1>   0.0800 
 43 H       -2.3370     8.5860    -1.3230 H     1 <1>   0.0800 
 44 H       -3.6880    10.2150    -1.5600 H     1 <1>   0.0800 
 45 H       -2.5440    10.0940     0.4550 H     1 <1>   0.0800 
 46 H       -4.0220     9.8770     1.3950 H     1 <1>   0.0800 
 47 H       -6.2900    11.1300    -0.3890 H     1 <1>   0.0800 
 48 H       -5.4710    11.6490    -1.8580 H     1 <1>   0.0800 
 49 H       -2.9100    12.2490     2.6590 H     1 <1>   0.0800 
 50 H       -3.0290    13.6420     1.6170 H     1 <1>   0.0800 
 51 H       -0.7880    11.1570     2.8470 H     1 <1>   0.1500 
 52 H       -1.6070    13.5770    -0.5770 H     1 <1>   0.1500 
 53 H        1.5250    10.8260     2.0510 H     1 <1>   0.1500 
 54 H        0.7160    13.2400    -1.3590 H     1 <1>   0.1500 
@<TRIPOS>BOND
  1   1   2  1   
  2   2   3  ar  
  3   2   4  ar  
  4   3   5  ar  
  5   3  31  1   
  6   4   6  ar  
  7   4  32  1   
  8   5   7  ar  
  9   5  33  1   
 10   6   7  ar  
 11   6  34  1   
 12   7   8  1   
 13   8   9  1   
 14   8  10  1   
 15   8  11  1   
 16   9  35  1   
 17  10  12  1   
 18  10  36  1   
 19  10  37  1   
 20  11  13  1   
 21  11  38  1   
 22  11  39  1   
 23  12  14  1   
 24  12  40  1   
 25  12  41  1   
 26  13  14  1   
 27  13  42  1   
 28  13  43  1   
 29  14  15  am  
 30  15  16  2   
 31  15  17  1   
 32  17  18  1   
 33  17  19  1   
 34  17  44  1   
 35  18  20  1   
 36  18  45  1   
 37  18  46  1   
 38  19  21  1   
 39  19  47  1   
 40  19  48  1   
 41  20  21  am  
 42  20  22  1   
 43  21  23  2   
 44  22  24  1   
 45  22  49  1   
 46  22  50  1   
 47  24  25  ar  
 48  24  26  ar  
 49  25  27  ar  
 50  25  51  1   
 51  26  28  ar  
 52  26  52  1   
 53  27  29  ar  
 54  27  53  1   
 55  28  29  ar  
 56  28  54  1   
 57  29  30  1   
@<TRIPOS>SUBSTRUCTURE
  1 ****  11 GROUP 4 **** **** 0

# MOE 2024.06 (io_trps.svl 2023.06)
