@<TRIPOS>MOLECULE
NONAME
45 47 1 0 0 
SMALL
USER_CHARGES


@<TRIPOS>ATOM
  1 O        0.6640     0.0800     0.9950 O.3   1 <1>  -0.6800 
  2 C        1.8100    -0.6850     0.9060 C.3   1 <1>   0.1200 
  3 C        2.8880     0.1370     0.1810 C.3   1 <1>  -0.0800 
  4 C        4.1160    -0.7460    -0.1070 C.3   1 <1>   0.3430 
  5 C        3.2730     1.4120     0.9600 C.3   1 <1>  -0.1600 
  6 N        5.3980     0.0310    -0.1300 N.4   1 <1>  -0.9590 
  7 C        4.3320     2.2280     0.1950 C.3   1 <1>  -0.1600 
  8 C        5.2260     1.3870    -0.7240 C.3   1 <1>   0.3430 
  9 C        6.5030    -0.7320    -0.7700 C.3   1 <1>   0.4860 
 10 C        7.8080    -0.0040    -0.5140 C.ar  1 <1>  -0.1440 
 11 C        8.3970    -0.0350     0.7420 C.ar  1 <1>  -0.1500 
 12 C        8.4260     0.7070    -1.5320 C.ar  1 <1>  -0.1500 
 13 C        9.5780     0.6450     0.9740 C.ar  1 <1>  -0.1500 
 14 C        9.6060     1.3850    -1.2910 C.ar  1 <1>  -0.1500 
 15 C       10.2030     1.3700    -0.0350 C.ar  1 <1>   0.0000 
 16 C       11.4360     2.0820     0.2120 C.ar  1 <1>   0.0000 
 17 C       11.5100     3.0710     1.1900 C.ar  1 <1>  -0.1500 
 18 C       12.5850     1.8000    -0.5210 C.ar  1 <1>  -0.1500 
 19 C       12.6890     3.7550     1.4270 C.ar  1 <1>  -0.1500 
 20 C       13.7660     2.4810    -0.2880 C.ar  1 <1>  -0.1500 
 21 C       13.8200     3.4600     0.6870 C.ar  1 <1>  -0.1500 
 22 H       -0.0550    -0.3980     1.4580 H     1 <1>   0.4000 
 23 H        1.5670    -1.5790     0.3570 H     1 <1>   0.0800 
 24 H        2.1200    -0.9450     1.9050 H     1 <1>   0.0800 
 25 H        2.4730     0.4300    -0.7690 H     1 <1>   0.0800 
 26 H        3.9660    -1.2380    -1.0550 H     1 <1>   0.0800 
 27 H        4.1880    -1.5090     0.6510 H     1 <1>   0.0800 
 28 H        3.6590     1.1350     1.9270 H     1 <1>   0.0800 
 29 H        2.4040     2.0280     1.1270 H     1 <1>   0.0800 
 30 H        5.6870     0.2030     0.8410 H     1 <1>   0.4500 
 31 H        4.9450     2.7650     0.8990 H     1 <1>   0.0800 
 32 H        3.8400     2.9680    -0.4130 H     1 <1>   0.0800 
 33 H        4.7650     1.2990    -1.6940 H     1 <1>   0.0800 
 34 H        6.1780     1.8810    -0.8420 H     1 <1>   0.0800 
 35 H        6.3320    -0.8200    -1.8310 H     1 <1>   0.0800 
 36 H        6.5640    -1.7220    -0.3500 H     1 <1>   0.0800 
 37 H        7.9540    -0.5900     1.5520 H     1 <1>   0.1500 
 38 H        8.0020     0.7420    -2.5220 H     1 <1>   0.1500 
 39 H       10.0360     0.6140     1.9490 H     1 <1>   0.1500 
 40 H       10.0800     1.9390    -2.0830 H     1 <1>   0.1500 
 41 H       10.6350     3.3090     1.7660 H     1 <1>   0.1500 
 42 H       12.5530     1.0370    -1.2770 H     1 <1>   0.1500 
 43 H       12.7280     4.5160     2.1860 H     1 <1>   0.1500 
 44 H       14.6450     2.2480    -0.8650 H     1 <1>   0.1500 
 45 H       14.7380     3.9910     0.8700 H     1 <1>   0.1500 
@<TRIPOS>BOND
  1   1   2  1   
  2   1  22  1   
  3   2   3  1   
  4   2  23  1   
  5   2  24  1   
  6   3   4  1   
  7   3   5  1   
  8   3  25  1   
  9   4   6  1   
 10   4  26  1   
 11   4  27  1   
 12   5   7  1   
 13   5  28  1   
 14   5  29  1   
 15   6   8  1   
 16   6   9  1   
 17   6  30  1   
 18   7   8  1   
 19   7  31  1   
 20   7  32  1   
 21   8  33  1   
 22   8  34  1   
 23   9  10  1   
 24   9  35  1   
 25   9  36  1   
 26  10  11  ar  
 27  10  12  ar  
 28  11  13  ar  
 29  11  37  1   
 30  12  14  ar  
 31  12  38  1   
 32  13  15  ar  
 33  13  39  1   
 34  14  15  ar  
 35  14  40  1   
 36  15  16  1   
 37  16  17  ar  
 38  16  18  ar  
 39  17  19  ar  
 40  17  41  1   
 41  18  20  ar  
 42  18  42  1   
 43  19  21  ar  
 44  19  43  1   
 45  20  21  ar  
 46  20  44  1   
 47  21  45  1   
@<TRIPOS>SUBSTRUCTURE
  1 ****  10 GROUP 4 **** **** 0

# MOE 2024.06 (io_trps.svl 2023.06)
