@<TRIPOS>MOLECULE
NONAME
50 52 1 0 0 
SMALL
USER_CHARGES


@<TRIPOS>ATOM
  1 O       -0.0250    -0.5150    -0.1930 O.3   1 <1>  -0.5600 
  2 C        0.9670     0.4510    -0.3740 C.3   1 <1>   0.1200 
  3 C        0.2820    -1.4440     0.8050 C.3   1 <1>   0.1200 
  4 C        2.2980    -0.2210    -0.7600 C.3   1 <1>   0.1100 
  5 C        1.5920    -2.1770     0.4640 C.3   1 <1>   0.1100 
  6 N        2.7090    -1.2260     0.2520 N.3   1 <1>  -0.8100 
  7 C        3.9410    -1.9310    -0.1130 C.3   1 <1>   0.1100 
  8 C        5.1540    -1.0370     0.1780 C.3   1 <1>   0.3430 
  9 N        6.4380    -1.7700    -0.0280 N.4   1 <1>  -0.9060 
 10 C        7.6280    -0.9620     0.2980 C.3   1 <1>   0.4230 
 11 C        7.8430     0.1210    -0.7700 C.3   1 <1>  -0.1600 
 12 C        8.8370    -1.9000     0.3770 C.3   1 <1>  -0.1600 
 13 C        9.1350     0.9110    -0.5050 C.3   1 <1>  -0.1600 
 14 C       10.1310    -1.1150     0.6510 C.3   1 <1>  -0.1600 
 15 C       10.3580    -0.0150    -0.3990 C.3   1 <1>   0.0630 
 16 C       11.6240     0.7810    -0.0940 C.ar  1 <1>  -0.1440 
 17 C       11.7560     1.5160     1.0770 C.ar  1 <1>  -0.1500 
 18 C       12.6740     0.7770    -1.0020 C.ar  1 <1>  -0.1500 
 19 C       12.9120     2.2310     1.3350 C.ar  1 <1>  -0.1500 
 20 C       13.8310     1.4920    -0.7460 C.ar  1 <1>  -0.1500 
 21 C       13.9520     2.2200     0.4230 C.ar  1 <1>  -0.1500 
 22 H        1.0720     1.0140     0.5360 H     1 <1>   0.0800 
 23 H        0.6390     1.1120    -1.1570 H     1 <1>   0.0800 
 24 H       -0.5340    -2.1420     0.8650 H     1 <1>   0.0800 
 25 H        0.3680    -0.9270     1.7450 H     1 <1>   0.0800 
 26 H        3.0500     0.5420    -0.8500 H     1 <1>   0.0800 
 27 H        2.1740    -0.6900    -1.7210 H     1 <1>   0.0800 
 28 H        1.4340    -2.7680    -0.4230 H     1 <1>   0.0800 
 29 H        1.8330    -2.8440     1.2740 H     1 <1>   0.0800 
 30 H        3.9080    -2.2140    -1.1520 H     1 <1>   0.0800 
 31 H        4.0200    -2.8210     0.4890 H     1 <1>   0.0800 
 32 H        5.0880    -0.7010     1.2010 H     1 <1>   0.0800 
 33 H        5.1130    -0.1760    -0.4670 H     1 <1>   0.0800 
 34 H        6.5140    -2.0920    -0.9990 H     1 <1>   0.4500 
 35 H        6.4460    -2.6050     0.5700 H     1 <1>   0.4500 
 36 H        7.4980    -0.4890     1.2590 H     1 <1>   0.0800 
 37 H        7.0220     0.8160    -0.7710 H     1 <1>   0.0800 
 38 H        7.9120    -0.3300    -1.7440 H     1 <1>   0.0800 
 39 H        8.9530    -2.4350    -0.5500 H     1 <1>   0.0800 
 40 H        8.6990    -2.6130     1.1710 H     1 <1>   0.0800 
 41 H        9.0280     1.4750     0.4060 H     1 <1>   0.0800 
 42 H        9.2990     1.6180    -1.3010 H     1 <1>   0.0800 
 43 H       10.9730    -1.7880     0.6420 H     1 <1>   0.0800 
 44 H       10.0820    -0.6760     1.6320 H     1 <1>   0.0800 
 45 H       10.4870    -0.4960    -1.3540 H     1 <1>   0.0800 
 46 H       10.9630     1.5410     1.8020 H     1 <1>   0.1500 
 47 H       12.6030     0.2180    -1.9180 H     1 <1>   0.1500 
 48 H       13.0050     2.7970     2.2450 H     1 <1>   0.1500 
 49 H       14.6390     1.4810    -1.4570 H     1 <1>   0.1500 
 50 H       14.8510     2.7760     0.6230 H     1 <1>   0.1500 
@<TRIPOS>BOND
  1   1   2  1   
  2   1   3  1   
  3   2   4  1   
  4   2  22  1   
  5   2  23  1   
  6   3   5  1   
  7   3  24  1   
  8   3  25  1   
  9   4   6  1   
 10   4  26  1   
 11   4  27  1   
 12   5   6  1   
 13   5  28  1   
 14   5  29  1   
 15   6   7  1   
 16   7   8  1   
 17   7  30  1   
 18   7  31  1   
 19   8   9  1   
 20   8  32  1   
 21   8  33  1   
 22   9  10  1   
 23   9  34  1   
 24   9  35  1   
 25  10  11  1   
 26  10  12  1   
 27  10  36  1   
 28  11  13  1   
 29  11  37  1   
 30  11  38  1   
 31  12  14  1   
 32  12  39  1   
 33  12  40  1   
 34  13  15  1   
 35  13  41  1   
 36  13  42  1   
 37  14  15  1   
 38  14  43  1   
 39  14  44  1   
 40  15  16  1   
 41  15  45  1   
 42  16  17  ar  
 43  16  18  ar  
 44  17  19  ar  
 45  17  46  1   
 46  18  20  ar  
 47  18  47  1   
 48  19  21  ar  
 49  19  48  1   
 50  20  21  ar  
 51  20  49  1   
 52  21  50  1   
@<TRIPOS>SUBSTRUCTURE
  1 ****  10 GROUP 4 **** **** 0

# MOE 2024.06 (io_trps.svl 2023.06)
