@<TRIPOS>MOLECULE
NONAME
37 38 1 0 0 
SMALL
USER_CHARGES


@<TRIPOS>ATOM
  1 F       -0.3070     0.4540     0.1790 F     1 <1>  -0.1900 
  2 C       -0.3160     1.7470    -0.0210 C.ar  1 <1>   0.1900 
  3 C       -1.4610     2.4790     0.2550 C.ar  1 <1>  -0.1440 
  4 C        0.8430     2.3290    -0.5010 C.ar  1 <1>  -0.1500 
  5 C       -1.4170     3.8500     0.0390 C.ar  1 <1>  -0.1500 
  6 C       -2.7300     1.8310     0.7880 C.3   1 <1>   0.2840 
  7 C        0.8650     3.6970    -0.7150 C.ar  1 <1>  -0.1500 
  8 C       -0.2650     4.4520    -0.4440 C.ar  1 <1>  -0.1500 
  9 N       -3.8510     2.0920    -0.1250 N.am  1 <1>  -0.7300 
 10 C       -5.1270     1.7430     0.1590 C.2   1 <1>   0.5690 
 11 O       -5.3590     0.9430     1.0400 O.2   1 <1>  -0.5700 
 12 C       -6.2700     2.3520    -0.6800 C.3   1 <1>  -0.0190 
 13 C       -6.4950     3.8830    -0.4760 C.3   1 <1>  -0.1860 
 14 C       -7.5990     1.5540    -0.5380 C.3   1 <1>  -0.1600 
 15 C       -5.1940     4.6530    -0.2880 C.2   1 <1>   0.9060 
 16 C       -7.5650     4.1410     0.6050 C.3   1 <1>  -0.1600 
 17 C       -8.8390     2.4110    -0.8190 C.3   1 <1>  -0.1600 
 18 O       -4.9520     5.2560     0.7600 O.co2 1 <1>  -0.9000 
 19 O       -4.3690     4.6010    -1.2090 O.co2 1 <1>  -0.9000 
 20 C       -8.9370     3.5730     0.1890 C.3   1 <1>  -0.1600 
 21 H        1.7060     1.7220    -0.7030 H     1 <1>   0.1500 
 22 H       -2.2890     4.4580     0.2400 H     1 <1>   0.1500 
 23 H       -2.9650     2.2500     1.7510 H     1 <1>   0.0800 
 24 H       -2.6130     0.7680     0.9020 H     1 <1>   0.0800 
 25 H        1.7530     4.1740    -1.0900 H     1 <1>   0.1500 
 26 H       -0.2650     5.5150    -0.6110 H     1 <1>   0.1500 
 27 H       -3.7340     2.9590    -0.6910 H     1 <1>   0.3700 
 28 H       -5.9520     2.2450    -1.7020 H     1 <1>   0.0800 
 29 H       -6.8910     4.2740    -1.3940 H     1 <1>   0.0800 
 30 H       -7.7000     1.1790     0.4660 H     1 <1>   0.0800 
 31 H       -7.5750     0.7030    -1.1960 H     1 <1>   0.0800 
 32 H       -7.6490     5.1980     0.7910 H     1 <1>   0.0800 
 33 H       -7.2360     3.6790     1.5210 H     1 <1>   0.0800 
 34 H       -9.7280     1.8070    -0.7600 H     1 <1>   0.0800 
 35 H       -8.7740     2.8040    -1.8190 H     1 <1>   0.0800 
 36 H       -9.5280     4.3570    -0.2500 H     1 <1>   0.0800 
 37 H       -9.4470     3.2390     1.0760 H     1 <1>   0.0800 
@<TRIPOS>BOND
  1   1   2  1   
  2   2   3  ar  
  3   2   4  ar  
  4   3   5  ar  
  5   3   6  1   
  6   4   7  ar  
  7   4  21  1   
  8   5   8  ar  
  9   5  22  1   
 10   6   9  1   
 11   6  23  1   
 12   6  24  1   
 13   7   8  ar  
 14   7  25  1   
 15   8  26  1   
 16   9  10  am  
 17   9  27  1   
 18  10  11  2   
 19  10  12  1   
 20  12  13  1   
 21  12  14  1   
 22  12  28  1   
 23  13  15  1   
 24  13  16  1   
 25  13  29  1   
 26  14  17  1   
 27  14  30  1   
 28  14  31  1   
 29  15  18  ar  
 30  15  19  ar  
 31  16  20  1   
 32  16  32  1   
 33  16  33  1   
 34  17  20  1   
 35  17  34  1   
 36  17  35  1   
 37  20  36  1   
 38  20  37  1   
@<TRIPOS>SUBSTRUCTURE
  1 ****   9 GROUP 4 **** **** 0

# MOE 2024.06 (io_trps.svl 2023.06)
