@<TRIPOS>MOLECULE
NONAME
48 49 1 0 0 
SMALL
USER_CHARGES


@<TRIPOS>ATOM
  1 O       -0.1440    -0.3410    -0.1220 O.2   1 <1>  -0.5700 
  2 C        0.1840    -1.4920     0.0320 C.2   1 <1>   0.5690 
  3 N        1.4410    -1.8830     0.4050 N.am  1 <1>  -0.5470 
  4 C       -0.8350    -2.6080    -0.2100 C.3   1 <1>  -0.0190 
  5 C        2.6260    -1.1900     0.6950 C.ar  1 <1>   0.1170 
  6 C       -2.0500    -2.1500    -1.0440 C.3   1 <1>  -0.1600 
  7 C       -1.3160    -3.2160     1.1220 C.3   1 <1>  -0.1600 
  8 C        3.8440    -1.8850     0.7530 C.ar  1 <1>  -0.1430 
  9 C        2.6210     0.1800     0.9430 C.ar  1 <1>  -0.1500 
 10 C       -3.0570    -3.2830    -1.2490 C.3   1 <1>   0.1400 
 11 C       -2.3320    -4.3390     0.8980 C.3   1 <1>   0.1400 
 12 C        5.0060    -1.1830     1.0470 C.ar  1 <1>  -0.1500 
 13 C        3.9890    -3.3980     0.5100 C.3   1 <1>   0.0640 
 14 C        3.7860     0.8620     1.2330 C.ar  1 <1>  -0.1500 
 15 N       -3.4640    -3.8300     0.0760 N.am  1 <1>  -0.6600 
 16 C        4.9840     0.1790     1.2840 C.ar  1 <1>  -0.1500 
 17 C        3.6330    -3.7850    -0.9400 C.3   1 <1>  -0.1600 
 18 C        3.2400    -4.2250     1.5690 C.3   1 <1>  -0.2400 
 19 C       -4.7480    -3.8560     0.5570 C.2   1 <1>   0.5690 
 20 C        3.9770    -5.2410    -1.2850 C.3   1 <1>  -0.2400 
 21 O       -5.0240    -4.3330     1.6310 O.2   1 <1>  -0.5700 
 22 C       -5.8890    -3.2810    -0.2500 C.3   1 <1>  -0.1790 
 23 H        1.5740    -2.8890     0.4380 H     1 <1>   0.3700 
 24 H       -0.3350    -3.3790    -0.7700 H     1 <1>   0.0800 
 25 H       -1.7150    -1.7910    -2.0010 H     1 <1>   0.0800 
 26 H       -2.5460    -1.3330    -0.5470 H     1 <1>   0.0800 
 27 H       -1.7750    -2.4510     1.7240 H     1 <1>   0.0800 
 28 H       -0.4820    -3.6070     1.6760 H     1 <1>   0.0800 
 29 H        1.7020     0.7330     0.9170 H     1 <1>   0.1500 
 30 H       -2.6080    -4.0720    -1.8280 H     1 <1>   0.0800 
 31 H       -3.9030    -2.9120    -1.7980 H     1 <1>   0.0800 
 32 H       -2.6830    -4.6990     1.8510 H     1 <1>   0.0800 
 33 H       -1.8700    -5.1640     0.3840 H     1 <1>   0.0800 
 34 H        5.9540    -1.6890     1.0950 H     1 <1>   0.1500 
 35 H        5.0300    -3.6420     0.6350 H     1 <1>   0.0800 
 36 H        3.7580     1.9220     1.4180 H     1 <1>   0.1500 
 37 H        5.8960     0.7050     1.5080 H     1 <1>   0.1500 
 38 H        4.1840    -3.1400    -1.6030 H     1 <1>   0.0800 
 39 H        2.5900    -3.6240    -1.1380 H     1 <1>   0.0800 
 40 H        2.1810    -4.2360     1.4050 H     1 <1>   0.0800 
 41 H        3.4330    -3.8180     2.5470 H     1 <1>   0.0800 
 42 H        3.5910    -5.2410     1.5610 H     1 <1>   0.0800 
 43 H        5.0160    -5.4390    -1.0910 H     1 <1>   0.0800 
 44 H        3.7880    -5.4230    -2.3280 H     1 <1>   0.0800 
 45 H        3.3780    -5.9260    -0.7110 H     1 <1>   0.0800 
 46 H       -5.9890    -3.8170    -1.1740 H     1 <1>   0.0800 
 47 H       -5.7080    -2.2410    -0.4450 H     1 <1>   0.0800 
 48 H       -6.8050    -3.3720     0.3020 H     1 <1>   0.0800 
@<TRIPOS>BOND
  1   1   2  2   
  2   2   3  am  
  3   2   4  1   
  4   3   5  1   
  5   3  23  1   
  6   4   6  1   
  7   4   7  1   
  8   4  24  1   
  9   5   8  ar  
 10   5   9  ar  
 11   6  10  1   
 12   6  25  1   
 13   6  26  1   
 14   7  11  1   
 15   7  27  1   
 16   7  28  1   
 17   8  12  ar  
 18   8  13  1   
 19   9  14  ar  
 20   9  29  1   
 21  10  15  1   
 22  10  30  1   
 23  10  31  1   
 24  11  15  1   
 25  11  32  1   
 26  11  33  1   
 27  12  16  ar  
 28  12  34  1   
 29  13  17  1   
 30  13  18  1   
 31  13  35  1   
 32  14  16  ar  
 33  14  36  1   
 34  15  19  am  
 35  16  37  1   
 36  17  20  1   
 37  17  38  1   
 38  17  39  1   
 39  18  40  1   
 40  18  41  1   
 41  18  42  1   
 42  19  21  2   
 43  19  22  1   
 44  20  43  1   
 45  20  44  1   
 46  20  45  1   
 47  22  46  1   
 48  22  47  1   
 49  22  48  1   
@<TRIPOS>SUBSTRUCTURE
  1 ****   2 GROUP 4 **** **** 0

# MOE 2024.06 (io_trps.svl 2023.06)
