@<TRIPOS>MOLECULE
NONAME
43 44 1 0 0 
SMALL
USER_CHARGES


@<TRIPOS>ATOM
  1 O       -1.6280    -0.2300     1.6750 O.2   1 <1>  -0.5700 
  2 C       -2.3400    -0.8740     0.9290 C.2   1 <1>   0.7060 
  3 O       -3.5750    -0.4190     0.7340 O.3   1 <1>  -0.2330 
  4 C       -1.9350    -2.0830     0.2590 C.2   1 <1>  -0.1240 
  5 C       -4.4780    -1.0200    -0.0700 C.ar  1 <1>   0.0820 
  6 C       -2.8110    -2.7500    -0.5420 C.2   1 <1>  -0.1670 
  7 C       -0.4930    -2.5370     0.5150 C.3   1 <1>  -0.0220 
  8 C       -4.1310    -2.2040    -0.7390 C.ar  1 <1>   0.0280 
  9 C       -5.7350    -0.4340    -0.2050 C.ar  1 <1>  -0.1440 
 10 C       -2.4840    -4.0690    -1.2480 C.3   1 <1>  -0.1020 
 11 C       -0.4210    -3.4640     1.7320 C.3   1 <1>  -0.2400 
 12 C       -5.1060    -2.7740    -1.5640 C.ar  1 <1>  -0.1500 
 13 C       -6.6850    -1.0430    -1.0140 C.ar  1 <1>   0.0830 
 14 C       -6.0490     0.8620     0.5460 C.3   1 <1>  -0.0970 
 15 C       -6.3560    -2.2110    -1.7000 C.ar  1 <1>  -0.1500 
 16 O       -7.9130    -0.4800    -1.1050 O.3   1 <1>  -0.3630 
 17 C       -9.0390    -1.1980    -1.5890 C.3   1 <1>   0.1810 
 18 C      -10.3460    -0.4680    -1.2820 C.2   1 <1>   0.5690 
 19 O      -11.0710    -0.2300    -2.2210 O.2   1 <1>  -0.5700 
 20 N      -10.6960    -0.1250     0.0080 N.am  1 <1>  -0.6600 
 21 C      -11.9380     0.6460     0.2970 C.3   1 <1>   0.0600 
 22 C       -9.8600    -0.4040     1.2090 C.3   1 <1>   0.0600 
 23 H        0.1400    -1.6820     0.6860 H     1 <1>   0.0800 
 24 H       -0.0870    -3.0330    -0.3460 H     1 <1>   0.0800 
 25 H       -2.4670    -3.9200    -2.3130 H     1 <1>   0.0800 
 26 H       -3.2310    -4.8050    -1.0100 H     1 <1>   0.0800 
 27 H       -1.5410    -4.4840    -0.9550 H     1 <1>   0.0800 
 28 H       -0.7650    -2.9460     2.6110 H     1 <1>   0.0800 
 29 H        0.5940    -3.7800     1.8970 H     1 <1>   0.0800 
 30 H       -1.0350    -4.3330     1.5810 H     1 <1>   0.0800 
 31 H       -4.8940    -3.6700    -2.1160 H     1 <1>   0.1500 
 32 H       -5.2140     1.5380     0.4920 H     1 <1>   0.0800 
 33 H       -6.2480     0.6430     1.5790 H     1 <1>   0.0800 
 34 H       -6.9000     1.3710     0.1310 H     1 <1>   0.0800 
 35 H       -7.0650    -2.6860    -2.3520 H     1 <1>   0.1500 
 36 H       -9.0580    -2.1650    -1.1240 H     1 <1>   0.0800 
 37 H       -8.9320    -1.3060    -2.6530 H     1 <1>   0.0800 
 38 H      -12.4680     0.8800    -0.6110 H     1 <1>   0.0800 
 39 H      -11.6860     1.5690     0.7900 H     1 <1>   0.0800 
 40 H      -12.5860     0.0680     0.9320 H     1 <1>   0.0800 
 41 H      -10.4900    -0.6450     2.0480 H     1 <1>   0.0800 
 42 H       -9.2730     0.4660     1.4480 H     1 <1>   0.0800 
 43 H       -9.1980    -1.2340     1.0380 H     1 <1>   0.0800 
@<TRIPOS>BOND
  1   1   2  2   
  2   2   3  1   
  3   2   4  1   
  4   3   5  1   
  5   4   6  2   
  6   4   7  1   
  7   5   8  ar  
  8   5   9  ar  
  9   6   8  1   
 10   6  10  1   
 11   7  11  1   
 12   7  23  1   
 13   7  24  1   
 14   8  12  ar  
 15   9  13  ar  
 16   9  14  1   
 17  10  25  1   
 18  10  26  1   
 19  10  27  1   
 20  11  28  1   
 21  11  29  1   
 22  11  30  1   
 23  12  15  ar  
 24  12  31  1   
 25  13  15  ar  
 26  13  16  1   
 27  14  32  1   
 28  14  33  1   
 29  14  34  1   
 30  15  35  1   
 31  16  17  1   
 32  17  18  1   
 33  17  36  1   
 34  17  37  1   
 35  18  19  2   
 36  18  20  am  
 37  20  21  1   
 38  20  22  1   
 39  21  38  1   
 40  21  39  1   
 41  21  40  1   
 42  22  41  1   
 43  22  42  1   
 44  22  43  1   
@<TRIPOS>SUBSTRUCTURE
  1 ****   9 GROUP 4 **** **** 0

# MOE 2024.06 (io_trps.svl 2023.06)
