@<TRIPOS>MOLECULE
NONAME
26 27 1 0 0 
SMALL
USER_CHARGES


@<TRIPOS>ATOM
  1 S       -0.0840     0.4620    -1.7760 S.o2  1 <1>   1.4470 
  2 O       -0.1620     1.2290    -2.9980 O.2   1 <1>  -0.6500 
  3 O       -0.0840    -0.9830    -1.8520 O.2   1 <1>  -0.6500 
  4 N       -1.4620     0.8880    -0.9180 N.am  1 <1>  -0.7890 
  5 C        1.2730     1.0670    -0.7390 C.ar  1 <1>  -0.0090 
  6 C       -1.7090     0.0910     0.2590 C.3   1 <1>   0.1310 
  7 C        2.0970     0.1880    -0.0490 C.ar  1 <1>  -0.1500 
  8 C        1.5040     2.4300    -0.5910 C.ar  1 <1>  -0.1500 
  9 C       -2.6450     0.6420     1.2770 C.3   1 <1>  -0.2000 
 10 C       -1.1730     0.5690     1.5640 C.3   1 <1>  -0.2000 
 11 C        3.1230     0.6390     0.7690 C.ar  1 <1>   0.1000 
 12 C        2.5260     2.8990     0.2180 C.ar  1 <1>  -0.1500 
 13 N        3.9230    -0.2580     1.4490 N.pl3 1 <1>  -0.9000 
 14 C        3.3320     2.0040     0.8940 C.ar  1 <1>  -0.1500 
 15 H       -2.2170     0.7170    -1.5770 H     1 <1>   0.4200 
 16 H       -1.7430    -0.9720     0.0660 H     1 <1>   0.1000 
 17 H        1.9430    -0.8720    -0.1490 H     1 <1>   0.1500 
 18 H        0.8760     3.1310    -1.1160 H     1 <1>   0.1500 
 19 H       -3.2970    -0.0300     1.8070 H     1 <1>   0.1000 
 20 H       -3.0880     1.6070     1.1070 H     1 <1>   0.1000 
 21 H       -0.6060     1.4840     1.5920 H     1 <1>   0.1000 
 22 H       -0.8270    -0.1560     2.2800 H     1 <1>   0.1000 
 23 H        2.6930     3.9580     0.3170 H     1 <1>   0.1500 
 24 H        4.4200     0.0930     2.2720 H     1 <1>   0.4000 
 25 H        3.5550    -1.2030     1.5880 H     1 <1>   0.4000 
 26 H        4.1300     2.3630     1.5180 H     1 <1>   0.1500 
@<TRIPOS>BOND
  1   1   2  2   
  2   1   3  2   
  3   1   4  am  
  4   1   5  1   
  5   4   6  1   
  6   4  15  1   
  7   5   7  ar  
  8   5   8  ar  
  9   6   9  1   
 10   6  10  1   
 11   6  16  1   
 12   7  11  ar  
 13   7  17  1   
 14   8  12  ar  
 15   8  18  1   
 16   9  10  1   
 17   9  19  1   
 18   9  20  1   
 19  10  21  1   
 20  10  22  1   
 21  11  13  1   
 22  11  14  ar  
 23  12  14  ar  
 24  12  23  1   
 25  13  24  1   
 26  13  25  1   
 27  14  26  1   
@<TRIPOS>SUBSTRUCTURE
  1 ****   5 GROUP 4 **** **** 0

# MOE 2024.06 (io_trps.svl 2023.06)
