@<TRIPOS>MOLECULE
NONAME
36 37 1 0 0 
SMALL
USER_CHARGES


@<TRIPOS>ATOM
  1 S        0.1890    -0.0470    -0.7970 S.3   1 <1>  -0.4600 
  2 C        1.8330     0.7150    -0.7880 C.3   1 <1>   0.0700 
  3 C        0.5730    -1.8150    -0.8810 C.3   1 <1>   0.0700 
  4 C        2.6730     0.0810     0.3280 C.3   1 <1>   0.3430 
  5 C        1.5510    -2.1670     0.2490 C.3   1 <1>   0.3430 
  6 N        2.8460    -1.4080     0.1520 N.4   1 <1>  -0.9590 
  7 C        3.8430    -1.9440     1.1210 C.3   1 <1>   0.4860 
  8 C        5.1940    -1.3240     0.8210 C.ar  1 <1>  -0.1430 
  9 C        5.9290    -1.7320    -0.2840 C.ar  1 <1>  -0.1500 
 10 C        5.7040    -0.3350     1.6510 C.ar  1 <1>  -0.1500 
 11 C        7.1520    -1.1500    -0.5670 C.ar  1 <1>  -0.1500 
 12 C        6.9260     0.2470     1.3670 C.ar  1 <1>  -0.1500 
 13 C        7.6560    -0.1500     0.2600 C.ar  1 <1>   0.0830 
 14 O        8.8400     0.4760     0.0570 O.3   1 <1>  -0.3630 
 15 C        9.7130     0.0920    -0.9800 C.3   1 <1>   0.1200 
 16 C       10.9610     0.9640    -0.8920 C.3   1 <1>  -0.2400 
 17 H        1.6900     1.7680    -0.6140 H     1 <1>   0.0800 
 18 H        2.2740     0.5680    -1.7570 H     1 <1>   0.0800 
 19 H        0.9870    -2.0190    -1.8520 H     1 <1>   0.0800 
 20 H       -0.3580    -2.3420    -0.7670 H     1 <1>   0.0800 
 21 H        2.2000     0.2830     1.2760 H     1 <1>   0.0800 
 22 H        3.6390     0.5600     0.3320 H     1 <1>   0.0800 
 23 H        1.7490    -3.2260     0.2080 H     1 <1>   0.0800 
 24 H        1.0760    -1.9550     1.1940 H     1 <1>   0.0800 
 25 H        3.2480    -1.5530    -0.7820 H     1 <1>   0.4500 
 26 H        3.9190    -3.0150     1.0240 H     1 <1>   0.0800 
 27 H        3.5470    -1.7130     2.1310 H     1 <1>   0.0800 
 28 H        5.5660    -2.5090    -0.9360 H     1 <1>   0.1500 
 29 H        5.1680    -0.0070     2.5260 H     1 <1>   0.1500 
 30 H        7.7010    -1.4830    -1.4280 H     1 <1>   0.1500 
 31 H        7.3300     1.0150     2.0040 H     1 <1>   0.1500 
 32 H        9.2130     0.2400    -1.9210 H     1 <1>   0.0800 
 33 H        9.9650    -0.9460    -0.8480 H     1 <1>   0.0800 
 34 H       10.6980     2.0000    -1.0080 H     1 <1>   0.0800 
 35 H       11.6500     0.6950    -1.6710 H     1 <1>   0.0800 
 36 H       11.4450     0.8220     0.0580 H     1 <1>   0.0800 
@<TRIPOS>BOND
  1   1   2  1   
  2   1   3  1   
  3   2   4  1   
  4   2  17  1   
  5   2  18  1   
  6   3   5  1   
  7   3  19  1   
  8   3  20  1   
  9   4   6  1   
 10   4  21  1   
 11   4  22  1   
 12   5   6  1   
 13   5  23  1   
 14   5  24  1   
 15   6   7  1   
 16   6  25  1   
 17   7   8  1   
 18   7  26  1   
 19   7  27  1   
 20   8   9  ar  
 21   8  10  ar  
 22   9  11  ar  
 23   9  28  1   
 24  10  12  ar  
 25  10  29  1   
 26  11  13  ar  
 27  11  30  1   
 28  12  13  ar  
 29  12  31  1   
 30  13  14  1   
 31  14  15  1   
 32  15  16  1   
 33  15  32  1   
 34  15  33  1   
 35  16  34  1   
 36  16  35  1   
 37  16  36  1   
@<TRIPOS>SUBSTRUCTURE
  1 ****   8 GROUP 4 **** **** 0

# MOE 2024.06 (io_trps.svl 2023.06)
