@<TRIPOS>MOLECULE
NONAME
51 53 1 0 0 
SMALL
USER_CHARGES


@<TRIPOS>ATOM
  1 S       -0.8370     0.2500     1.8120 S.o2  1 <1>   1.4470 
  2 O       -0.9720    -0.9600     2.5870 O.2   1 <1>  -0.6500 
  3 O       -0.8500     1.5310     2.4770 O.2   1 <1>  -0.6500 
  4 N        0.7110     0.0800     1.0920 N.am  1 <1>  -0.7570 
  5 C       -1.9840     0.2360     0.3950 C.ar  1 <1>  -0.0090 
  6 C        1.4250     0.9380     0.2600 C.ar  1 <1>   0.1990 
  7 C       -2.1420    -0.8510    -0.4710 C.ar  1 <1>  -0.1440 
  8 C       -2.7450     1.3730     0.1480 C.ar  1 <1>  -0.1500 
  9 C        2.6940     0.5630    -0.2000 C.ar  1 <1>  -0.1440 
 10 C        0.8980     2.1650    -0.1310 C.ar  1 <1>  -0.1500 
 11 C       -3.0290    -0.7700    -1.5340 C.ar  1 <1>  -0.1500 
 12 C       -1.3610    -2.1490    -0.2950 C.3   1 <1>  -0.0970 
 13 C       -3.6470     1.4720    -0.9060 C.ar  1 <1>   0.0860 
 14 C        3.4090     1.4170    -1.0390 C.ar  1 <1>  -0.1430 
 15 C        3.2660    -0.7910     0.2360 C.3   1 <1>  -0.0970 
 16 C        1.6050     3.0050    -0.9650 C.ar  1 <1>  -0.1500 
 17 C       -3.7690     0.3740    -1.7500 C.ar  1 <1>  -0.1500 
 18 C       -4.4240     2.6790    -1.1080 C.2   1 <1>   0.5440 
 19 C        2.8550     2.6310    -1.4160 C.ar  1 <1>  -0.1500 
 20 C        4.7960     1.0810    -1.5740 C.3   1 <1>  -0.0970 
 21 O       -3.8440     3.7410    -1.2310 O.2   1 <1>  -0.5700 
 22 N       -5.8020     2.6570    -1.1450 N.am  1 <1>  -0.6600 
 23 C       -6.6350     1.5330    -0.6210 C.3   1 <1>   0.1400 
 24 C       -6.6070     3.8720    -1.4740 C.3   1 <1>   0.1400 
 25 C       -7.5670     2.0290     0.4980 C.3   1 <1>   0.1200 
 26 C       -7.5340     4.2350    -0.3030 C.3   1 <1>   0.1200 
 27 O       -8.3140     3.1320     0.0690 O.3   1 <1>  -0.5600 
 28 H        1.2020    -0.6970     1.5140 H     1 <1>   0.4200 
 29 H       -2.6420     2.2290     0.7940 H     1 <1>   0.1500 
 30 H       -0.0660     2.4850     0.2130 H     1 <1>   0.1500 
 31 H       -3.1480    -1.6020    -2.2080 H     1 <1>   0.1500 
 32 H       -0.3060    -1.9670    -0.3860 H     1 <1>   0.0800 
 33 H       -1.6340    -2.8700    -1.0450 H     1 <1>   0.0800 
 34 H       -1.5650    -2.5840     0.6670 H     1 <1>   0.0800 
 35 H        2.5730    -1.5760    -0.0060 H     1 <1>   0.0800 
 36 H        3.4360    -0.7860     1.2970 H     1 <1>   0.0800 
 37 H        4.1950    -1.0290    -0.2440 H     1 <1>   0.0800 
 38 H        1.1840     3.9500    -1.2620 H     1 <1>   0.1500 
 39 H       -4.4480     0.4280    -2.5830 H     1 <1>   0.1500 
 40 H        3.3940     3.2990    -2.0650 H     1 <1>   0.1500 
 41 H        5.4730     0.9050    -0.7570 H     1 <1>   0.0800 
 42 H        5.1910     1.8870    -2.1650 H     1 <1>   0.0800 
 43 H        4.7490     0.2040    -2.1940 H     1 <1>   0.0800 
 44 H       -6.0180     0.7430    -0.2320 H     1 <1>   0.0800 
 45 H       -7.2300     1.1290    -1.4220 H     1 <1>   0.0800 
 46 H       -7.2030     3.6760    -2.3480 H     1 <1>   0.0800 
 47 H       -5.9680     4.7090    -1.6930 H     1 <1>   0.0800 
 48 H       -6.9980     2.3150     1.3660 H     1 <1>   0.0800 
 49 H       -8.2580     1.2540     0.7780 H     1 <1>   0.0800 
 50 H       -8.2010     5.0280    -0.5890 H     1 <1>   0.0800 
 51 H       -6.9580     4.5560     0.5470 H     1 <1>   0.0800 
@<TRIPOS>BOND
  1   1   2  2   
  2   1   3  2   
  3   1   4  am  
  4   1   5  1   
  5   4   6  1   
  6   4  28  1   
  7   5   7  ar  
  8   5   8  ar  
  9   6   9  ar  
 10   6  10  ar  
 11   7  11  ar  
 12   7  12  1   
 13   8  13  ar  
 14   8  29  1   
 15   9  14  ar  
 16   9  15  1   
 17  10  16  ar  
 18  10  30  1   
 19  11  17  ar  
 20  11  31  1   
 21  12  32  1   
 22  12  33  1   
 23  12  34  1   
 24  13  17  ar  
 25  13  18  1   
 26  14  19  ar  
 27  14  20  1   
 28  15  35  1   
 29  15  36  1   
 30  15  37  1   
 31  16  19  ar  
 32  16  38  1   
 33  17  39  1   
 34  18  21  2   
 35  18  22  am  
 36  19  40  1   
 37  20  41  1   
 38  20  42  1   
 39  20  43  1   
 40  22  23  1   
 41  22  24  1   
 42  23  25  1   
 43  23  44  1   
 44  23  45  1   
 45  24  26  1   
 46  24  46  1   
 47  24  47  1   
 48  25  27  1   
 49  25  48  1   
 50  25  49  1   
 51  26  27  1   
 52  26  50  1   
 53  26  51  1   
@<TRIPOS>SUBSTRUCTURE
  1 ****   8 GROUP 4 **** **** 0

# MOE 2024.06 (io_trps.svl 2023.06)
