@<TRIPOS>MOLECULE
NONAME
47 48 1 0 0 
SMALL
USER_CHARGES


@<TRIPOS>ATOM
  1 O        0.1220    -0.6680     1.6280 O.3   1 <1>  -0.5320 
  2 C        0.2640    -1.7740     0.8820 C.ar  1 <1>   0.0830 
  3 C        1.3410    -1.9430    -0.0040 C.ar  1 <1>  -0.1430 
  4 C       -0.7230    -2.7480     1.0320 C.ar  1 <1>  -0.1430 
  5 C        1.3730    -3.1370    -0.7180 C.ar  1 <1>  -0.1500 
  6 C        2.5030    -0.9390    -0.2770 C.3   1 <1>   0.1440 
  7 C       -0.6430    -3.9180     0.3020 C.ar  1 <1>  -0.1500 
  8 C       -1.9010    -2.5600     1.9850 C.3   1 <1>  -0.0970 
  9 C        0.4100    -4.1210    -0.5700 C.ar  1 <1>  -0.1430 
 10 C        3.8490    -1.6140     0.0480 C.3   1 <1>  -0.2400 
 11 C        2.4890    -0.5380    -1.7640 C.3   1 <1>  -0.2400 
 12 C        2.4830     0.3770     0.5200 C.3   1 <1>  -0.2400 
 13 C        0.5210    -5.4160    -1.3490 C.3   1 <1>   0.4870 
 14 N        0.9970    -6.4820    -0.4270 N.4   1 <1>  -0.9590 
 15 C        2.3610    -6.1840     0.1040 C.3   1 <1>   0.3430 
 16 C        0.9160    -7.8290    -1.0580 C.3   1 <1>   0.3430 
 17 C        2.7460    -7.2300     1.1520 C.3   1 <1>  -0.1600 
 18 C        1.2740    -8.9020    -0.0280 C.3   1 <1>  -0.1600 
 19 C        2.6550    -8.6570     0.5940 C.3   1 <1>  -0.1600 
 20 H       -0.6840    -0.6840     2.1680 H     1 <1>   0.4500 
 21 H        2.1730    -3.3110    -1.4150 H     1 <1>   0.1500 
 22 H       -1.4080    -4.6670     0.4160 H     1 <1>   0.1500 
 23 H       -2.4750    -1.6970     1.6970 H     1 <1>   0.0800 
 24 H       -1.5470    -2.4320     2.9930 H     1 <1>   0.0800 
 25 H       -2.5560    -3.4120     1.9680 H     1 <1>   0.0800 
 26 H        4.0320    -2.4660    -0.5760 H     1 <1>   0.0800 
 27 H        3.8550    -1.9330     1.0750 H     1 <1>   0.0800 
 28 H        4.6620    -0.9250    -0.0950 H     1 <1>   0.0800 
 29 H        2.6460    -1.3810    -2.4090 H     1 <1>   0.0800 
 30 H        3.2600     0.1810    -1.9720 H     1 <1>   0.0800 
 31 H        1.5390    -0.0960    -2.0100 H     1 <1>   0.0800 
 32 H        2.5290     0.1800     1.5760 H     1 <1>   0.0800 
 33 H        1.5890     0.9350     0.3060 H     1 <1>   0.0800 
 34 H        3.3240     0.9970     0.2650 H     1 <1>   0.0800 
 35 H        1.2090    -5.2950    -2.1700 H     1 <1>   0.0800 
 36 H       -0.4470    -5.6720    -1.7480 H     1 <1>   0.0800 
 37 H        0.3670    -6.4660     0.3840 H     1 <1>   0.4500 
 38 H        2.3790    -5.2050     0.5590 H     1 <1>   0.0800 
 39 H        3.0790    -6.1970    -0.7000 H     1 <1>   0.0800 
 40 H        1.6040    -7.8850    -1.8860 H     1 <1>   0.0800 
 41 H       -0.0800    -8.0080    -1.4290 H     1 <1>   0.0800 
 42 H        2.1040    -7.1280     2.0090 H     1 <1>   0.0800 
 43 H        3.7530    -7.0410     1.4830 H     1 <1>   0.0800 
 44 H        1.2670    -9.8660    -0.5080 H     1 <1>   0.0800 
 45 H        0.5230    -8.9230     0.7430 H     1 <1>   0.0800 
 46 H        2.8330    -9.3690     1.3830 H     1 <1>   0.0800 
 47 H        3.4170    -8.8000    -0.1540 H     1 <1>   0.0800 
@<TRIPOS>BOND
  1   1   2  1   
  2   1  20  1   
  3   2   3  ar  
  4   2   4  ar  
  5   3   5  ar  
  6   3   6  1   
  7   4   7  ar  
  8   4   8  1   
  9   5   9  ar  
 10   5  21  1   
 11   6  10  1   
 12   6  11  1   
 13   6  12  1   
 14   7   9  ar  
 15   7  22  1   
 16   8  23  1   
 17   8  24  1   
 18   8  25  1   
 19   9  13  1   
 20  10  26  1   
 21  10  27  1   
 22  10  28  1   
 23  11  29  1   
 24  11  30  1   
 25  11  31  1   
 26  12  32  1   
 27  12  33  1   
 28  12  34  1   
 29  13  14  1   
 30  13  35  1   
 31  13  36  1   
 32  14  15  1   
 33  14  16  1   
 34  14  37  1   
 35  15  17  1   
 36  15  38  1   
 37  15  39  1   
 38  16  18  1   
 39  16  40  1   
 40  16  41  1   
 41  17  19  1   
 42  17  42  1   
 43  17  43  1   
 44  18  19  1   
 45  18  44  1   
 46  18  45  1   
 47  19  46  1   
 48  19  47  1   
@<TRIPOS>SUBSTRUCTURE
  1 ****   9 GROUP 4 **** **** 0

# MOE 2024.06 (io_trps.svl 2023.06)
