@<TRIPOS>MOLECULE
NONAME
41 41 1 0 0 
SMALL
USER_CHARGES


@<TRIPOS>ATOM
  1 O        0.5510    -1.4720    -2.1660 O.co2 1 <1>  -0.9000 
  2 C        1.2420    -2.2850    -1.5290 C.2   1 <1>   0.9790 
  3 O        2.4850    -2.1620    -1.5980 O.co2 1 <1>  -0.9000 
  4 C        0.6130    -3.3370    -0.7330 C.ar  1 <1>  -0.1790 
  5 C        1.3350    -4.2350     0.0780 C.ar  1 <1>   0.1170 
  6 C       -0.7780    -3.4740    -0.7620 C.ar  1 <1>  -0.1500 
  7 N        2.7290    -4.1280     0.1280 N.am  1 <1>  -0.5470 
  8 C        0.6560    -5.2100     0.8060 C.ar  1 <1>  -0.1500 
  9 C       -1.4400    -4.4430    -0.0340 C.ar  1 <1>  -0.1500 
 10 C        3.7230    -4.6660     0.8860 C.2   1 <1>   0.5690 
 11 C       -0.7180    -5.3180     0.7550 C.ar  1 <1>  -0.1500 
 12 O        3.5420    -5.4760     1.7680 O.2   1 <1>  -0.5700 
 13 C        5.1340    -4.2060     0.6150 C.3   1 <1>  -0.0380 
 14 C        6.0090    -5.3510     0.1630 C.2   1 <1>   0.5690 
 15 O        6.8240    -5.1410    -0.7100 O.2   1 <1>  -0.5700 
 16 N        5.8820    -6.5740     0.7450 N.am  1 <1>  -0.4300 
 17 N        6.7890    -7.7090     0.5460 N.am  1 <1>  -0.4300 
 18 C        7.8540    -8.0090     1.3350 C.2   1 <1>   0.5690 
 19 O        8.0500    -7.4830     2.4090 O.2   1 <1>  -0.5700 
 20 C        8.8350    -9.0590     0.8500 C.3   1 <1>  -0.0990 
 21 C        9.7500    -8.5200    -0.2620 C.3   1 <1>  -0.1600 
 22 C       10.7360    -9.5910    -0.7440 C.3   1 <1>  -0.1600 
 23 C       11.6420    -9.0440    -1.8490 C.3   1 <1>  -0.2400 
 24 H       -1.3490    -2.7960    -1.3750 H     1 <1>   0.1500 
 25 H        3.0350    -3.3930    -0.5420 H     1 <1>   0.3700 
 26 H        1.2040    -5.8970     1.4210 H     1 <1>   0.1500 
 27 H       -2.5120    -4.5140    -0.0840 H     1 <1>   0.1500 
 28 H       -1.2240    -6.0760     1.3250 H     1 <1>   0.1500 
 29 H        5.5450    -3.7900     1.5140 H     1 <1>   0.0800 
 30 H        5.1320    -3.4420    -0.1410 H     1 <1>   0.0800 
 31 H        5.1310    -6.6890     1.4480 H     1 <1>   0.3700 
 32 H        6.7000    -8.1820    -0.3570 H     1 <1>   0.3700 
 33 H        8.2870    -9.9130     0.4970 H     1 <1>   0.0800 
 34 H        9.4350    -9.3750     1.6860 H     1 <1>   0.0800 
 35 H       10.2970    -7.6720     0.1160 H     1 <1>   0.0800 
 36 H        9.1530    -8.1810    -1.0910 H     1 <1>   0.0800 
 37 H       10.1940   -10.4430    -1.1200 H     1 <1>   0.0800 
 38 H       11.3450    -9.9200     0.0820 H     1 <1>   0.0800 
 39 H       11.0580    -8.7290    -2.6950 H     1 <1>   0.0800 
 40 H       12.3290    -9.8070    -2.1730 H     1 <1>   0.0800 
 41 H       12.2100    -8.2050    -1.4890 H     1 <1>   0.0800 
@<TRIPOS>BOND
  1   1   2  ar  
  2   2   3  ar  
  3   2   4  1   
  4   4   5  ar  
  5   4   6  ar  
  6   5   7  1   
  7   5   8  ar  
  8   6   9  ar  
  9   6  24  1   
 10   7  10  am  
 11   7  25  1   
 12   8  11  ar  
 13   8  26  1   
 14   9  11  ar  
 15   9  27  1   
 16  10  12  2   
 17  10  13  1   
 18  11  28  1   
 19  13  14  1   
 20  13  29  1   
 21  13  30  1   
 22  14  15  2   
 23  14  16  am  
 24  16  17  1   
 25  16  31  1   
 26  17  18  am  
 27  17  32  1   
 28  18  19  2   
 29  18  20  1   
 30  20  21  1   
 31  20  33  1   
 32  20  34  1   
 33  21  22  1   
 34  21  35  1   
 35  21  36  1   
 36  22  23  1   
 37  22  37  1   
 38  22  38  1   
 39  23  39  1   
 40  23  40  1   
 41  23  41  1   
@<TRIPOS>SUBSTRUCTURE
  1 ****  10 GROUP 4 **** **** 0

# MOE 2024.06 (io_trps.svl 2023.06)
