@<TRIPOS>MOLECULE
NONAME
38 39 1 0 0 
SMALL
USER_CHARGES


@<TRIPOS>ATOM
  1 O       -1.2470     0.5710    -1.6670 O.2   1 <1>  -0.5700 
  2 C       -1.0020     1.7530    -1.7390 C.2   1 <1>   0.4950 
  3 C        0.2530     2.3050    -1.3240 C.2   1 <1>   0.0290 
  4 C       -2.1150     2.6270    -2.3100 C.3   1 <1>   0.0420 
  5 C        0.5840     3.6350    -1.7520 C.2   1 <1>   0.4950 
  6 C        1.0930     1.5440    -0.5380 C.2   1 <1>  -0.0500 
  7 C       -3.4510     2.3690    -1.6180 C.2   1 <1>   0.4230 
  8 C       -1.7970     4.1330    -2.3440 C.3   1 <1>  -0.1600 
  9 O        1.5570     4.2600    -1.3950 O.2   1 <1>  -0.5700 
 10 C       -0.3340     4.3580    -2.7220 C.3   1 <1>  -0.0990 
 11 N        2.2980     1.9240    -0.0520 N.pl3 1 <1>  -0.8690 
 12 O       -4.4280     2.4390    -2.3190 O.2   1 <1>  -0.5700 
 13 C       -3.5420     2.0740    -0.1990 C.ar  1 <1>   0.0860 
 14 C        3.2090     1.1020     0.7830 C.3   1 <1>   0.2090 
 15 C       -2.6590     2.5810     0.7610 C.ar  1 <1>  -0.1500 
 16 C       -4.5690     1.2490     0.2650 C.ar  1 <1>  -0.1500 
 17 C        3.3170     1.7060     2.1860 C.3   1 <1>   0.1200 
 18 C       -2.7850     2.2650     2.1020 C.ar  1 <1>  -0.1500 
 19 C       -4.7030     0.9310     1.6030 C.ar  1 <1>  -0.1500 
 20 O        4.0940     0.8860     2.9960 O.3   1 <1>  -0.6800 
 21 C       -3.8070     1.4370     2.5260 C.ar  1 <1>  -0.1500 
 22 H       -2.2320     2.3050    -3.3300 H     1 <1>   0.0800 
 23 H        0.7750     0.5450    -0.2730 H     1 <1>   0.1500 
 24 H       -2.4430     4.6210    -3.0550 H     1 <1>   0.0800 
 25 H       -1.9830     4.5790    -1.3820 H     1 <1>   0.0800 
 26 H       -0.1170     5.4120    -2.7000 H     1 <1>   0.0800 
 27 H       -0.1400     4.0020    -3.7180 H     1 <1>   0.0800 
 28 H        2.6500     2.8740    -0.2830 H     1 <1>   0.4000 
 29 H        2.8230     0.1000     0.8460 H     1 <1>   0.0800 
 30 H        4.1820     1.0750     0.3230 H     1 <1>   0.0800 
 31 H       -1.8590     3.2370     0.4770 H     1 <1>   0.1500 
 32 H       -5.2740     0.8500    -0.4450 H     1 <1>   0.1500 
 33 H        2.3440     1.8010     2.6360 H     1 <1>   0.0800 
 34 H        3.7920     2.6700     2.1410 H     1 <1>   0.0800 
 35 H       -2.0890     2.6640     2.8200 H     1 <1>   0.1500 
 36 H       -5.5040     0.2880     1.9270 H     1 <1>   0.1500 
 37 H        3.6270     0.0530     3.2000 H     1 <1>   0.4000 
 38 H       -3.9080     1.1900     3.5700 H     1 <1>   0.1500 
@<TRIPOS>BOND
  1   1   2  2   
  2   2   3  1   
  3   2   4  1   
  4   3   5  1   
  5   3   6  2   
  6   4   7  1   
  7   4   8  1   
  8   4  22  1   
  9   5   9  2   
 10   5  10  1   
 11   6  11  1   
 12   6  23  1   
 13   7  12  2   
 14   7  13  1   
 15   8  10  1   
 16   8  24  1   
 17   8  25  1   
 18  10  26  1   
 19  10  27  1   
 20  11  14  1   
 21  11  28  1   
 22  13  15  ar  
 23  13  16  ar  
 24  14  17  1   
 25  14  29  1   
 26  14  30  1   
 27  15  18  ar  
 28  15  31  1   
 29  16  19  ar  
 30  16  32  1   
 31  17  20  1   
 32  17  33  1   
 33  17  34  1   
 34  18  21  ar  
 35  18  35  1   
 36  19  21  ar  
 37  19  36  1   
 38  20  37  1   
 39  21  38  1   
@<TRIPOS>SUBSTRUCTURE
  1 ****   2 GROUP 4 **** **** 0

# MOE 2024.06 (io_trps.svl 2023.06)
