@<TRIPOS>MOLECULE
NONAME
30 30 1 0 0 
SMALL
USER_CHARGES


@<TRIPOS>ATOM
  1 S       -0.0160    -0.0190    -0.2150 S.o2  1 <1>   1.3330 
  2 O       -0.0900    -0.1350    -1.6550 O.2   1 <1>  -0.6500 
  3 O        0.0880    -1.2110     0.5970 O.2   1 <1>  -0.6500 
  4 N       -1.3880     0.8310     0.2910 N.am  1 <1>  -0.8490 
  5 C        1.3200     1.0930     0.2340 C.3   1 <1>  -0.0550 
  6 C       -2.4490    -0.0560     0.8070 C.3   1 <1>   0.1960 
  7 C       -1.9270     1.7540    -0.7140 C.3   1 <1>   0.1960 
  8 C        2.7170     0.5590    -0.1240 C.3   1 <1>  -0.1600 
  9 C       -3.8580     0.5800     0.7980 C.3   1 <1>   0.1200 
 10 C       -3.0830     2.6070    -0.1390 C.3   1 <1>   0.1200 
 11 C        3.8140     1.5500     0.2810 C.3   1 <1>  -0.1600 
 12 O       -3.7920     1.9730     0.8960 O.3   1 <1>  -0.5600 
 13 C        5.2000     1.0100    -0.0790 C.3   1 <1>  -0.2400 
 14 H        1.2770     1.2700     1.2920 H     1 <1>   0.0800 
 15 H        1.1720     2.0330    -0.2600 H     1 <1>   0.0800 
 16 H       -2.1970    -0.3390     1.8150 H     1 <1>   0.0800 
 17 H       -2.4880    -0.9610     0.2240 H     1 <1>   0.0800 
 18 H       -2.2920     1.1930    -1.5580 H     1 <1>   0.0800 
 19 H       -1.1520     2.4090    -1.0740 H     1 <1>   0.0800 
 20 H        2.7640     0.3790    -1.1850 H     1 <1>   0.0800 
 21 H        2.8740    -0.3810     0.3790 H     1 <1>   0.0800 
 22 H       -4.4370     0.2130     1.6260 H     1 <1>   0.0800 
 23 H       -4.3740     0.3320    -0.1130 H     1 <1>   0.0800 
 24 H       -3.7790     2.8590    -0.9190 H     1 <1>   0.0800 
 25 H       -2.6880     3.5210     0.2680 H     1 <1>   0.0800 
 26 H        3.7690     1.7270     1.3430 H     1 <1>   0.0800 
 27 H        3.6600     2.4900    -0.2220 H     1 <1>   0.0800 
 28 H        5.3860     0.0810     0.4300 H     1 <1>   0.0800 
 29 H        5.9580     1.7160     0.2120 H     1 <1>   0.0800 
 30 H        5.2760     0.8460    -1.1400 H     1 <1>   0.0800 
@<TRIPOS>BOND
  1   1   2  2   
  2   1   3  2   
  3   1   4  am  
  4   1   5  1   
  5   4   6  1   
  6   4   7  1   
  7   5   8  1   
  8   5  14  1   
  9   5  15  1   
 10   6   9  1   
 11   6  16  1   
 12   6  17  1   
 13   7  10  1   
 14   7  18  1   
 15   7  19  1   
 16   8  11  1   
 17   8  20  1   
 18   8  21  1   
 19   9  12  1   
 20   9  22  1   
 21   9  23  1   
 22  10  12  1   
 23  10  24  1   
 24  10  25  1   
 25  11  13  1   
 26  11  26  1   
 27  11  27  1   
 28  13  28  1   
 29  13  29  1   
 30  13  30  1   
@<TRIPOS>SUBSTRUCTURE
  1 ****   1 GROUP 4 **** **** 0

# MOE 2024.06 (io_trps.svl 2023.06)
