@<TRIPOS>MOLECULE
NONAME
44 45 1 0 0 
SMALL
USER_CHARGES


@<TRIPOS>ATOM
  1 O       -0.9150    -0.1110    -0.1710 O.2   1 <1>  -0.5700 
  2 C       -0.6800    -1.2190     0.2710 C.2   1 <1>   0.6900 
  3 N       -1.6110    -1.8620     1.0410 N.am  1 <1>  -0.6600 
  4 N        0.5070    -1.8320     0.0320 N.am  1 <1>  -0.7300 
  5 C       -2.8990    -1.1740     1.3690 C.3   1 <1>   0.3200 
  6 C       -1.5470    -3.3040     1.3920 C.3   1 <1>   0.1400 
  7 C        1.6430    -1.3850    -0.7740 C.3   1 <1>   0.3000 
  8 C       -4.0430    -1.6630     0.4920 C.2   1 <1>   0.2980 
  9 C       -0.9010    -3.4610     2.7660 C.3   1 <1>  -0.2400 
 10 C        2.6800    -2.5050    -0.7170 C.3   1 <1>  -0.2400 
 11 C        2.2340    -0.1090    -0.1740 C.3   1 <1>  -0.2400 
 12 C        1.2020    -1.1720    -2.2230 C.3   1 <1>  -0.2400 
 13 O       -4.0280    -1.3710    -0.7820 O.3   1 <1>  -0.0190 
 14 N       -5.0380    -2.3500     0.8820 N.2   1 <1>  -0.5650 
 15 N       -5.1070    -1.9210    -1.2440 N.2   1 <1>  -0.4100 
 16 C       -5.7070    -2.5020    -0.2660 C.2   1 <1>   0.4620 
 17 C       -6.9560    -3.2420    -0.3570 C.ar  1 <1>   0.0540 
 18 C       -7.5500    -3.8240     0.7650 C.ar  1 <1>  -0.1500 
 19 C       -7.6150    -3.4010    -1.5780 C.ar  1 <1>  -0.1500 
 20 C       -8.7370    -4.5280     0.6750 C.ar  1 <1>  -0.1500 
 21 C       -8.8030    -4.1030    -1.6760 C.ar  1 <1>  -0.1500 
 22 C       -9.3670    -4.6700    -0.5480 C.ar  1 <1>  -0.1500 
 23 H        0.6770    -2.6880     0.5470 H     1 <1>   0.3700 
 24 H       -2.8040    -0.1090     1.2540 H     1 <1>   0.0800 
 25 H       -3.1430    -1.3660     2.3980 H     1 <1>   0.0800 
 26 H       -0.9810    -3.8410     0.6490 H     1 <1>   0.0800 
 27 H       -2.5380    -3.7260     1.4050 H     1 <1>   0.0800 
 28 H        0.0900    -3.0440     2.7670 H     1 <1>   0.0800 
 29 H       -0.8330    -4.5040     3.0170 H     1 <1>   0.0800 
 30 H       -1.4940    -2.9700     3.5160 H     1 <1>   0.0800 
 31 H        2.2750    -3.4150    -1.1210 H     1 <1>   0.0800 
 32 H        2.9980    -2.6750     0.2960 H     1 <1>   0.0800 
 33 H        3.5440    -2.2360    -1.2970 H     1 <1>   0.0800 
 34 H        2.4990    -0.2630     0.8550 H     1 <1>   0.0800 
 35 H        1.5270     0.6990    -0.2350 H     1 <1>   0.0800 
 36 H        3.1150     0.1820    -0.7160 H     1 <1>   0.0800 
 37 H        0.7420    -2.0620    -2.6110 H     1 <1>   0.0800 
 38 H        2.0500    -0.9280    -2.8370 H     1 <1>   0.0800 
 39 H        0.5010    -0.3600    -2.2910 H     1 <1>   0.0800 
 40 H       -7.0740    -3.7240     1.7250 H     1 <1>   0.1500 
 41 H       -7.1900    -2.9660    -2.4670 H     1 <1>   0.1500 
 42 H       -9.1710    -4.9670     1.5570 H     1 <1>   0.1500 
 43 H       -9.2880    -4.2100    -2.6310 H     1 <1>   0.1500 
 44 H      -10.2910    -5.2170    -0.6210 H     1 <1>   0.1500 
@<TRIPOS>BOND
  1   1   2  2   
  2   2   3  am  
  3   2   4  am  
  4   3   5  1   
  5   3   6  1   
  6   4   7  1   
  7   4  23  1   
  8   5   8  1   
  9   5  24  1   
 10   5  25  1   
 11   6   9  1   
 12   6  26  1   
 13   6  27  1   
 14   7  10  1   
 15   7  11  1   
 16   7  12  1   
 17   8  13  1   
 18   8  14  2   
 19   9  28  1   
 20   9  29  1   
 21   9  30  1   
 22  10  31  1   
 23  10  32  1   
 24  10  33  1   
 25  11  34  1   
 26  11  35  1   
 27  11  36  1   
 28  12  37  1   
 29  12  38  1   
 30  12  39  1   
 31  13  15  1   
 32  14  16  1   
 33  15  16  2   
 34  16  17  1   
 35  17  18  ar  
 36  17  19  ar  
 37  18  20  ar  
 38  18  40  1   
 39  19  21  ar  
 40  19  41  1   
 41  20  22  ar  
 42  20  42  1   
 43  21  22  ar  
 44  21  43  1   
 45  22  44  1   
@<TRIPOS>SUBSTRUCTURE
  1 ****   8 GROUP 4 **** **** 0

# MOE 2024.06 (io_trps.svl 2023.06)
