@<TRIPOS>MOLECULE
NONAME
41 43 1 0 0 
SMALL
USER_CHARGES


@<TRIPOS>ATOM
  1 S       -0.3700    -0.0660     0.1950 S.3   1 <1>  -0.0800 
  2 C       -1.3040     1.3130    -0.2860 C.2   1 <1>   0.4420 
  3 C        1.0430     0.9030    -0.0390 C.2   1 <1>   0.1980 
  4 N       -0.5660     2.3240    -0.5670 N.2   1 <1>  -0.3380 
  5 N       -2.6750     1.1520    -0.3020 N.am  1 <1>  -0.4940 
  6 N        0.7730     2.0820    -0.4240 N.2   1 <1>  -0.3380 
  7 C        2.3920     0.2750     0.2250 C.3   1 <1>  -0.0600 
  8 C       -3.6460     2.0510    -0.6430 C.2   1 <1>   0.5690 
  9 O       -3.4100     3.1630    -1.0350 O.2   1 <1>  -0.5700 
 10 C       -5.0980     1.6010    -0.5470 C.3   1 <1>  -0.0190 
 11 C       -6.1010     2.7670    -0.5460 C.3   1 <1>   0.1400 
 12 C       -5.4410     0.7820     0.7140 C.3   1 <1>  -0.0990 
 13 N       -7.2110     2.2710     0.2940 N.am  1 <1>  -0.6600 
 14 C       -6.8630     1.1740     0.9990 C.2   1 <1>   0.5690 
 15 C       -8.5230     2.9540     0.3910 C.3   1 <1>   0.2200 
 16 O       -7.5620     0.5600     1.7650 O.2   1 <1>  -0.5700 
 17 C       -9.2800     2.8460    -0.9390 C.3   1 <1>  -0.1600 
 18 C       -8.3420     4.4190     0.8130 C.3   1 <1>  -0.1600 
 19 C      -10.6360     3.5630    -0.8580 C.3   1 <1>  -0.1600 
 20 C       -9.6980     5.1360     0.8980 C.3   1 <1>  -0.1600 
 21 C      -10.4660     5.0270    -0.4270 C.3   1 <1>  -0.1600 
 22 H       -2.9930     0.2320    -0.0140 H     1 <1>   0.3700 
 23 H        2.4530    -0.0450     1.2490 H     1 <1>   0.0800 
 24 H        3.1700     0.9930     0.0370 H     1 <1>   0.0800 
 25 H        2.5350    -0.5710    -0.4220 H     1 <1>   0.0800 
 26 H       -5.3130     1.0020    -1.4130 H     1 <1>   0.0800 
 27 H       -6.4300     2.9990    -1.5450 H     1 <1>   0.0800 
 28 H       -5.6790     3.6460    -0.0890 H     1 <1>   0.0800 
 29 H       -4.8410     1.0760     1.5570 H     1 <1>   0.0800 
 30 H       -5.3680    -0.2760     0.5490 H     1 <1>   0.0800 
 31 H       -9.1080     2.4580     1.1490 H     1 <1>   0.0800 
 32 H       -9.4400     1.8080    -1.1720 H     1 <1>   0.0800 
 33 H       -8.7020     3.2920    -1.7270 H     1 <1>   0.0800 
 34 H       -7.7260     4.9340     0.0990 H     1 <1>   0.0800 
 35 H       -7.8600     4.4540     1.7740 H     1 <1>   0.0800 
 36 H      -11.2650     3.0540    -0.1470 H     1 <1>   0.0800 
 37 H      -11.1240     3.5230    -1.8170 H     1 <1>   0.0800 
 38 H       -9.5430     6.1730     1.1410 H     1 <1>   0.0800 
 39 H      -10.2850     4.6960     1.6870 H     1 <1>   0.0800 
 40 H      -11.4340     5.4850    -0.3200 H     1 <1>   0.0800 
 41 H       -9.9320     5.5630    -1.1930 H     1 <1>   0.0800 
@<TRIPOS>BOND
  1   1   2  1   
  2   1   3  1   
  3   2   4  2   
  4   2   5  1   
  5   3   6  2   
  6   3   7  1   
  7   4   6  1   
  8   5   8  am  
  9   5  22  1   
 10   7  23  1   
 11   7  24  1   
 12   7  25  1   
 13   8   9  2   
 14   8  10  1   
 15  10  11  1   
 16  10  12  1   
 17  10  26  1   
 18  11  13  1   
 19  11  27  1   
 20  11  28  1   
 21  12  14  1   
 22  12  29  1   
 23  12  30  1   
 24  13  14  am  
 25  13  15  1   
 26  14  16  2   
 27  15  17  1   
 28  15  18  1   
 29  15  31  1   
 30  17  19  1   
 31  17  32  1   
 32  17  33  1   
 33  18  20  1   
 34  18  34  1   
 35  18  35  1   
 36  19  21  1   
 37  19  36  1   
 38  19  37  1   
 39  20  21  1   
 40  20  38  1   
 41  20  39  1   
 42  21  40  1   
 43  21  41  1   
@<TRIPOS>SUBSTRUCTURE
  1 ****  10 GROUP 4 **** **** 0

# MOE 2024.06 (io_trps.svl 2023.06)
