@<TRIPOS>MOLECULE
NONAME
40 42 1 0 0 
SMALL
USER_CHARGES


@<TRIPOS>ATOM
  1 S       -0.2260    -1.1450     1.7970 S.o2  1 <1>   1.4470 
  2 O        0.0310    -0.6450     3.1280 O.2   1 <1>  -0.6500 
  3 O       -0.3540    -2.5660     1.5630 O.2   1 <1>  -0.6500 
  4 N       -1.7500    -0.5040     1.2650 N.am  1 <1>  -0.5780 
  5 C        0.9360    -0.4310     0.6000 C.ar  1 <1>  -0.0090 
  6 N       -2.2180     0.8040     1.3060 N.2   1 <1>  -0.4300 
  7 C        1.1230     0.9430     0.5230 C.ar  1 <1>  -0.1500 
  8 C        1.6640    -1.2330    -0.2720 C.ar  1 <1>  -0.1500 
  9 C       -3.3490     1.1070     0.8160 C.2   1 <1>   0.3890 
 10 C        2.0020     1.5000    -0.3900 C.ar  1 <1>  -0.1500 
 11 C        2.5450    -0.6830    -1.1880 C.ar  1 <1>  -0.1500 
 12 C       -4.3020     0.1390     0.1280 C.3   1 <1>  -0.1000 
 13 C       -3.8890     2.5350     0.8810 C.3   1 <1>  -0.0990 
 14 C        2.7170     0.6890    -1.2530 C.ar  1 <1>  -0.1430 
 15 C       -4.3180     0.3930    -1.3470 C.3   1 <1>  -0.1950 
 16 C       -4.1590    -1.0020    -0.8390 C.3   1 <1>  -0.2000 
 17 C       -4.4160     3.1370    -0.4480 C.3   1 <1>  -0.1600 
 18 C        3.6840     1.2930    -2.2550 C.3   1 <1>  -0.0960 
 19 C       -5.5510     1.1770    -1.7860 C.3   1 <1>  -0.0650 
 20 C       -5.7170     2.4900    -0.9850 C.3   1 <1>  -0.1600 
 21 H       -2.3180    -1.2340     0.8370 H     1 <1>   0.4200 
 22 H        0.5700     1.5850     1.1880 H     1 <1>   0.1500 
 23 H        1.5430    -2.3020    -0.2360 H     1 <1>   0.1500 
 24 H        2.1250     2.5690    -0.4230 H     1 <1>   0.1500 
 25 H        3.0960    -1.3290    -1.8490 H     1 <1>   0.1500 
 26 H       -5.2290     0.1050     0.6730 H     1 <1>   0.1000 
 27 H       -4.6760     2.5600     1.6130 H     1 <1>   0.0800 
 28 H       -3.1020     3.1690     1.2490 H     1 <1>   0.0800 
 29 H       -3.4250     0.7930    -1.8020 H     1 <1>   0.1000 
 30 H       -3.2040    -1.4810    -0.9700 H     1 <1>   0.1000 
 31 H       -4.9790    -1.6850    -0.9730 H     1 <1>   0.1000 
 32 H       -4.6260     4.1760    -0.2610 H     1 <1>   0.0800 
 33 H       -3.6450     3.1100    -1.1990 H     1 <1>   0.0800 
 34 H        3.3830     2.2930    -2.5140 H     1 <1>   0.0800 
 35 H        3.7090     0.7040    -3.1540 H     1 <1>   0.0800 
 36 H        4.6720     1.3270    -1.8330 H     1 <1>   0.0800 
 37 H       -5.4540     1.4020    -2.8340 H     1 <1>   0.0800 
 38 H       -6.4350     0.5740    -1.6650 H     1 <1>   0.0800 
 39 H       -6.2150     3.2000    -1.6240 H     1 <1>   0.0800 
 40 H       -6.3790     2.3110    -0.1550 H     1 <1>   0.0800 
@<TRIPOS>BOND
  1   1   2  2   
  2   1   3  2   
  3   1   4  am  
  4   1   5  1   
  5   4   6  1   
  6   4  21  1   
  7   5   7  ar  
  8   5   8  ar  
  9   6   9  2   
 10   7  10  ar  
 11   7  22  1   
 12   8  11  ar  
 13   8  23  1   
 14   9  12  1   
 15   9  13  1   
 16  10  14  ar  
 17  10  24  1   
 18  11  14  ar  
 19  11  25  1   
 20  12  15  1   
 21  12  16  1   
 22  12  26  1   
 23  13  17  1   
 24  13  27  1   
 25  13  28  1   
 26  14  18  1   
 27  15  16  1   
 28  15  19  1   
 29  15  29  1   
 30  16  30  1   
 31  16  31  1   
 32  17  20  1   
 33  17  32  1   
 34  17  33  1   
 35  18  34  1   
 36  18  35  1   
 37  18  36  1   
 38  19  20  1   
 39  19  37  1   
 40  19  38  1   
 41  20  39  1   
 42  20  40  1   
@<TRIPOS>SUBSTRUCTURE
  1 ****   4 GROUP 4 **** **** 0

# MOE 2024.06 (io_trps.svl 2023.06)
