@<TRIPOS>MOLECULE
NONAME
46 50 1 0 0 
SMALL
USER_CHARGES


@<TRIPOS>ATOM
  1 BR       1.1860    -1.7530     0.2940 Br    1 <1>  -0.1110 
  2 C        2.2760    -0.1710     0.2020 C.ar  1 <1>   0.1110 
  3 C        2.7780     0.3630     1.3710 C.ar  1 <1>  -0.1500 
  4 C        2.5290     0.3960    -1.0300 C.ar  1 <1>  -0.1500 
  5 C        3.5620     1.5010     1.2990 C.ar  1 <1>  -0.1500 
  6 C        3.3150     1.5330    -1.0880 C.ar  1 <1>  -0.1500 
  7 C        3.8500     2.0980     0.0710 C.ar  1 <1>  -0.1430 
  8 C        4.7300     3.3630    -0.0180 C.3   1 <1>   0.4240 
  9 O        5.3300     3.3940    -1.2980 O.3   1 <1>  -0.4300 
 10 C        4.0220     4.7120     0.2350 C.3   1 <1>   0.0610 
 11 C        5.9450     3.3680     0.9270 C.3   1 <1>   0.2000 
 12 C        6.6000     3.0400    -1.2910 C.2   1 <1>   0.6590 
 13 C        5.1910     5.5120     0.8000 C.2   1 <1>   0.6590 
 14 C        3.3740     5.3630    -1.0010 C.3   1 <1>  -0.1600 
 15 C        2.8570     4.6880     1.2450 C.3   1 <1>  -0.1600 
 16 O        6.1840     4.7320     1.1860 O.3   1 <1>  -0.4300 
 17 C        7.0900     2.7530     0.1200 C.3   1 <1>   0.0610 
 18 O        7.2510     2.9680    -2.2980 O.2   1 <1>  -0.5700 
 19 O        5.2450     6.7080     0.9060 O.2   1 <1>  -0.5700 
 20 C        2.3310     6.3520    -0.4670 C.3   1 <1>  -0.1600 
 21 C        2.0970     5.9920     1.0050 C.3   1 <1>  -0.1600 
 22 C        8.4930     3.3010     0.4280 C.3   1 <1>  -0.1600 
 23 C        7.2430     1.2440     0.3600 C.3   1 <1>  -0.1600 
 24 C        9.4700     2.2040    -0.0050 C.3   1 <1>  -0.1600 
 25 C        8.6570     0.9080    -0.1150 C.3   1 <1>  -0.1600 
 26 H        2.5540    -0.1040     2.3140 H     1 <1>   0.1500 
 27 H        2.1200    -0.0430    -1.9230 H     1 <1>   0.1500 
 28 H        3.9290     1.9100     2.2240 H     1 <1>   0.1500 
 29 H        3.5040     1.9700    -2.0550 H     1 <1>   0.1500 
 30 H        5.7840     2.8850     1.8720 H     1 <1>   0.0800 
 31 H        2.8710     4.6090    -1.5820 H     1 <1>   0.0800 
 32 H        4.1000     5.8540    -1.6280 H     1 <1>   0.0800 
 33 H        3.1890     4.6030     2.2660 H     1 <1>   0.0800 
 34 H        2.1830     3.8780     1.0240 H     1 <1>   0.0800 
 35 H        1.4180     6.2810    -1.0340 H     1 <1>   0.0800 
 36 H        2.7050     7.3600    -0.5370 H     1 <1>   0.0800 
 37 H        2.5070     6.7700     1.6280 H     1 <1>   0.0800 
 38 H        1.0490     5.8870     1.2280 H     1 <1>   0.0800 
 39 H        8.5940     3.4600     1.4880 H     1 <1>   0.0800 
 40 H        8.6850     4.2310    -0.0810 H     1 <1>   0.0800 
 41 H        6.5010     0.6620    -0.1620 H     1 <1>   0.0800 
 42 H        7.1760     1.0320     1.4130 H     1 <1>   0.0800 
 43 H       10.2720     2.1040     0.7070 H     1 <1>   0.0800 
 44 H        9.8900     2.4460    -0.9670 H     1 <1>   0.0800 
 45 H        8.6270     0.5970    -1.1470 H     1 <1>   0.0800 
 46 H        9.0910     0.1150     0.4710 H     1 <1>   0.0800 
@<TRIPOS>BOND
  1   1   2  1   
  2   2   3  ar  
  3   2   4  ar  
  4   3   5  ar  
  5   3  26  1   
  6   4   6  ar  
  7   4  27  1   
  8   5   7  ar  
  9   5  28  1   
 10   6   7  ar  
 11   6  29  1   
 12   7   8  1   
 13   8   9  1   
 14   8  10  1   
 15   8  11  1   
 16   9  12  1   
 17  10  13  1   
 18  10  14  1   
 19  10  15  1   
 20  11  16  1   
 21  11  17  1   
 22  11  30  1   
 23  12  17  1   
 24  12  18  2   
 25  13  16  1   
 26  13  19  2   
 27  14  20  1   
 28  14  31  1   
 29  14  32  1   
 30  15  21  1   
 31  15  33  1   
 32  15  34  1   
 33  17  22  1   
 34  17  23  1   
 35  20  21  1   
 36  20  35  1   
 37  20  36  1   
 38  21  37  1   
 39  21  38  1   
 40  22  24  1   
 41  22  39  1   
 42  22  40  1   
 43  23  25  1   
 44  23  41  1   
 45  23  42  1   
 46  24  25  1   
 47  24  43  1   
 48  24  44  1   
 49  25  45  1   
 50  25  46  1   
@<TRIPOS>SUBSTRUCTURE
  1 ****   8 GROUP 4 **** **** 0

# MOE 2024.06 (io_trps.svl 2023.06)
