@<TRIPOS>MOLECULE
NONAME
29 30 1 0 0 
SMALL
USER_CHARGES


@<TRIPOS>ATOM
  1 O        0.0230     0.0330    -0.9570 O.2   1 <1>  -0.5700 
  2 C        1.0570     0.3980    -0.4420 C.2   1 <1>   0.5690 
  3 N        2.1280    -0.3730    -0.0390 N.am  1 <1>  -0.1150 
  4 C        1.3710     1.8550    -0.1350 C.3   1 <1>   0.1220 
  5 N        3.1290     0.4180     0.4960 N.2   1 <1>  -0.5120 
  6 C        2.2650    -1.7790    -0.1430 C.ar  1 <1>   0.1170 
  7 C        2.7580     1.6230     0.4620 C.2   1 <1>   0.3280 
  8 C        1.4190     2.7140    -1.4150 C.3   1 <1>  -0.2400 
  9 C        0.3830     2.4530     0.8860 C.3   1 <1>  -0.2400 
 10 C        1.1710    -2.6310    -0.0150 C.ar  1 <1>  -0.1500 
 11 C        3.5150    -2.3490    -0.3720 C.ar  1 <1>  -0.1500 
 12 C        3.5900     2.7870     0.9640 C.3   1 <1>  -0.1790 
 13 C        1.3190    -4.0030    -0.1170 C.ar  1 <1>  -0.1500 
 14 C        3.6690    -3.7200    -0.4740 C.ar  1 <1>  -0.1500 
 15 C        2.5690    -4.5500    -0.3470 C.ar  1 <1>  -0.1500 
 16 H        2.1270     2.3020    -2.1130 H     1 <1>   0.0800 
 17 H        1.7020     3.7260    -1.1890 H     1 <1>   0.0800 
 18 H        0.4510     2.7250    -1.8850 H     1 <1>   0.0800 
 19 H        0.3740     1.8620     1.7850 H     1 <1>   0.0800 
 20 H       -0.6110     2.4580     0.4750 H     1 <1>   0.0800 
 21 H        0.6560     3.4620     1.1380 H     1 <1>   0.0800 
 22 H        0.1940    -2.2220     0.1670 H     1 <1>   0.1500 
 23 H        4.3730    -1.7090    -0.4700 H     1 <1>   0.1500 
 24 H        3.0730     3.3000     1.7540 H     1 <1>   0.0800 
 25 H        3.7910     3.4740     0.1630 H     1 <1>   0.0800 
 26 H        4.5270     2.4240     1.3470 H     1 <1>   0.0800 
 27 H        0.4610    -4.6450    -0.0170 H     1 <1>   0.1500 
 28 H        4.6430    -4.1410    -0.6520 H     1 <1>   0.1500 
 29 H        2.6850    -5.6170    -0.4270 H     1 <1>   0.1500 
@<TRIPOS>BOND
  1   1   2  2   
  2   2   3  am  
  3   2   4  1   
  4   3   5  1   
  5   3   6  1   
  6   4   7  1   
  7   4   8  1   
  8   4   9  1   
  9   5   7  2   
 10   6  10  ar  
 11   6  11  ar  
 12   7  12  1   
 13   8  16  1   
 14   8  17  1   
 15   8  18  1   
 16   9  19  1   
 17   9  20  1   
 18   9  21  1   
 19  10  13  ar  
 20  10  22  1   
 21  11  14  ar  
 22  11  23  1   
 23  12  24  1   
 24  12  25  1   
 25  12  26  1   
 26  13  15  ar  
 27  13  27  1   
 28  14  15  ar  
 29  14  28  1   
 30  15  29  1   
@<TRIPOS>SUBSTRUCTURE
  1 ****   3 GROUP 4 **** **** 0

# MOE 2024.06 (io_trps.svl 2023.06)
