@<TRIPOS>MOLECULE
NONAME
39 42 1 0 0 
SMALL
USER_CHARGES


@<TRIPOS>ATOM
  1 S       -0.1210    -0.1820     0.3530 S.3   1 <1>  -0.0800 
  2 C       -1.7310     0.5260     0.1650 C.2   1 <1>   0.1660 
  3 C        0.5970     1.4090     0.1750 C.2   1 <1>  -0.1400 
  4 N       -2.8710    -0.2200     0.2030 N.2   1 <1>  -0.5760 
  5 C       -1.6630     1.8790    -0.0170 C.2   1 <1>  -0.0010 
  6 C       -0.3130     2.3550    -0.0060 C.2   1 <1>  -0.1810 
  7 C        2.0240     1.8530     0.1940 C.3   1 <1>   0.0200 
  8 C       -3.9790     0.4290     0.0520 C.2   1 <1>   0.3980 
  9 C       -2.8910     2.5670    -0.1800 C.2   1 <1>   0.1870 
 10 C        0.3360     3.7040    -0.1550 C.3   1 <1>   0.0210 
 11 C        1.8530     3.3800    -0.0250 C.3   1 <1>  -0.1600 
 12 N       -4.0290     1.8250    -0.1420 N.pl3 1 <1>   0.2940 
 13 C       -5.3040    -0.3400     0.0830 C.3   1 <1>  -0.0990 
 14 N       -3.1340     3.8380    -0.3680 N.2   1 <1>  -0.3380 
 15 C       -4.9460     2.7900    -0.3260 C.2   1 <1>   0.2420 
 16 C       -5.1800    -1.8600     0.2960 C.3   1 <1>  -0.2400 
 17 N       -4.4520     3.9720    -0.4600 N.2   1 <1>  -0.3380 
 18 S       -6.7220     2.5120    -0.3850 S.3   1 <1>  -0.2860 
 19 C       -7.4080     4.2130    -0.6770 C.3   1 <1>   0.1310 
 20 C       -8.9230     4.1710    -0.7040 C.2   1 <1>   0.6590 
 21 O       -9.5410     4.3280    -1.7250 O.2   1 <1>  -0.5700 
 22 O       -9.5250     3.9650     0.4630 O.3   1 <1>  -0.4300 
 23 C      -10.9320     3.9060     0.5700 C.3   1 <1>   0.0400 
 24 H        2.5770     1.3930    -0.6060 H     1 <1>   0.0800 
 25 H        2.4780     1.6330     1.1440 H     1 <1>   0.0800 
 26 H        0.0060     4.3670     0.6260 H     1 <1>   0.0800 
 27 H        0.1040     4.1280    -1.1160 H     1 <1>   0.0800 
 28 H        2.3680     3.6810    -0.9200 H     1 <1>   0.0800 
 29 H        2.2710     3.9180     0.8080 H     1 <1>   0.0800 
 30 H       -5.8160    -0.1780    -0.8490 H     1 <1>   0.0800 
 31 H       -5.9130     0.0560     0.8750 H     1 <1>   0.0800 
 32 H       -4.6000    -2.3040    -0.4940 H     1 <1>   0.0800 
 33 H       -6.1540    -2.3150     0.3040 H     1 <1>   0.0800 
 34 H       -4.6960    -2.0690     1.2350 H     1 <1>   0.0800 
 35 H       -7.0230     4.5560    -1.6190 H     1 <1>   0.0800 
 36 H       -7.0610     4.8440     0.1190 H     1 <1>   0.0800 
 37 H      -11.1890     3.7300     1.5990 H     1 <1>   0.0800 
 38 H      -11.2950     3.1010    -0.0460 H     1 <1>   0.0800 
 39 H      -11.3470     4.8420     0.2380 H     1 <1>   0.0800 
@<TRIPOS>BOND
  1   1   2  1   
  2   1   3  1   
  3   2   4  1   
  4   2   5  2   
  5   3   6  2   
  6   3   7  1   
  7   4   8  2   
  8   5   6  1   
  9   5   9  1   
 10   6  10  1   
 11   7  11  1   
 12   7  24  1   
 13   7  25  1   
 14   8  12  1   
 15   8  13  1   
 16   9  12  1   
 17   9  14  2   
 18  10  11  1   
 19  10  26  1   
 20  10  27  1   
 21  11  28  1   
 22  11  29  1   
 23  12  15  1   
 24  13  16  1   
 25  13  30  1   
 26  13  31  1   
 27  14  17  1   
 28  15  17  2   
 29  15  18  1   
 30  16  32  1   
 31  16  33  1   
 32  16  34  1   
 33  18  19  1   
 34  19  20  1   
 35  19  35  1   
 36  19  36  1   
 37  20  21  2   
 38  20  22  1   
 39  22  23  1   
 40  23  37  1   
 41  23  38  1   
 42  23  39  1   
@<TRIPOS>SUBSTRUCTURE
  1 ****  12 GROUP 4 **** **** 0

# MOE 2024.06 (io_trps.svl 2023.06)
