@<TRIPOS>MOLECULE
NONAME
50 52 1 0 0 
SMALL
USER_CHARGES


@<TRIPOS>ATOM
  1 F       -7.0170    -1.0450     3.4470 F     1 <1>  -0.3400 
  2 C       -6.6560    -0.6020     2.2480 C.3   1 <1>   1.1640 
  3 F       -6.8580     0.7110     2.2710 F     1 <1>  -0.3400 
  4 F       -7.5500    -1.0960     1.3980 F     1 <1>  -0.3400 
  5 C       -5.2170    -0.9660     1.8690 C.ar  1 <1>  -0.1440 
  6 C       -4.7290    -0.6860     0.5870 C.ar  1 <1>   0.1170 
  7 C       -4.3750    -1.5670     2.8020 C.ar  1 <1>  -0.1500 
  8 N       -5.5430    -0.0950    -0.3960 N.am  1 <1>  -0.5470 
  9 C       -3.4120    -1.0190     0.2830 C.ar  1 <1>  -0.1500 
 10 C       -3.0700    -1.8910     2.4800 C.ar  1 <1>  -0.1500 
 11 C       -5.2570     0.7440    -1.4360 C.2   1 <1>   0.5690 
 12 C       -2.5870    -1.6140     1.2160 C.ar  1 <1>  -0.1500 
 13 O       -4.1520     1.1530    -1.6970 O.2   1 <1>  -0.5700 
 14 C       -6.4460     1.1770    -2.2960 C.3   1 <1>   0.1710 
 15 N       -7.7520     1.0710    -1.5810 N.3   1 <1>  -0.8100 
 16 C       -7.9290     2.2000    -0.6300 C.3   1 <1>   0.1100 
 17 C       -8.8860     1.0630    -2.5340 C.3   1 <1>   0.1100 
 18 C       -9.2630     2.1100     0.1360 C.3   1 <1>   0.2090 
 19 C      -10.2440     0.9470    -1.8140 C.3   1 <1>   0.2090 
 20 N      -10.4160     2.0350    -0.8090 N.pl3 1 <1>  -0.8380 
 21 C      -11.6820     2.1420    -0.2450 C.ar  1 <1>   0.1000 
 22 C      -12.5040     3.2010    -0.5980 C.ar  1 <1>  -0.1500 
 23 C      -12.1530     1.2050     0.6680 C.ar  1 <1>  -0.1500 
 24 C      -13.7720     3.3360    -0.0580 C.ar  1 <1>   0.0830 
 25 C      -13.4170     1.3280     1.2160 C.ar  1 <1>  -0.1500 
 26 O      -14.5040     4.4050    -0.4660 O.3   1 <1>  -0.3620 
 27 C      -14.2290     2.3900     0.8570 C.ar  1 <1>  -0.1500 
 28 C      -15.8040     4.6320     0.0290 C.3   1 <1>   0.0400 
 29 H       -4.7210    -1.7920     3.7970 H     1 <1>   0.1500 
 30 H       -6.5600    -0.2430    -0.3320 H     1 <1>   0.3700 
 31 H       -3.0220    -0.8130    -0.6980 H     1 <1>   0.1500 
 32 H       -2.4290    -2.3550     3.2110 H     1 <1>   0.1500 
 33 H       -1.5720    -1.8610     0.9580 H     1 <1>   0.1500 
 34 H       -6.4580     0.5360    -3.1590 H     1 <1>   0.0800 
 35 H       -6.2880     2.1860    -2.6350 H     1 <1>   0.0800 
 36 H       -7.9080     3.1350    -1.1630 H     1 <1>   0.0800 
 37 H       -7.1240     2.2090     0.0830 H     1 <1>   0.0800 
 38 H       -8.7830     0.2300    -3.2070 H     1 <1>   0.0800 
 39 H       -8.8830     1.9690    -3.1160 H     1 <1>   0.0800 
 40 H       -9.3770     2.9770     0.7630 H     1 <1>   0.0800 
 41 H       -9.2520     1.2380     0.7660 H     1 <1>   0.0800 
 42 H      -10.3060    -0.0090    -1.3240 H     1 <1>   0.0800 
 43 H      -11.0400     1.0070    -2.5360 H     1 <1>   0.0800 
 44 H      -12.1460     3.9260    -1.3020 H     1 <1>   0.1500 
 45 H      -11.5240     0.3800     0.9450 H     1 <1>   0.1500 
 46 H      -13.7680     0.5960     1.9230 H     1 <1>   0.1500 
 47 H      -15.2050     2.4630     1.2960 H     1 <1>   0.1500 
 48 H      -16.1840     5.5280    -0.4290 H     1 <1>   0.0800 
 49 H      -15.7540     4.7600     1.0960 H     1 <1>   0.0800 
 50 H      -16.4280     3.7960    -0.2320 H     1 <1>   0.0800 
@<TRIPOS>BOND
  1   1   2  1   
  2   2   3  1   
  3   2   4  1   
  4   2   5  1   
  5   5   6  ar  
  6   5   7  ar  
  7   6   8  1   
  8   6   9  ar  
  9   7  10  ar  
 10   7  29  1   
 11   8  11  am  
 12   8  30  1   
 13   9  12  ar  
 14   9  31  1   
 15  10  12  ar  
 16  10  32  1   
 17  11  13  2   
 18  11  14  1   
 19  12  33  1   
 20  14  15  1   
 21  14  34  1   
 22  14  35  1   
 23  15  16  1   
 24  15  17  1   
 25  16  18  1   
 26  16  36  1   
 27  16  37  1   
 28  17  19  1   
 29  17  38  1   
 30  17  39  1   
 31  18  20  1   
 32  18  40  1   
 33  18  41  1   
 34  19  20  1   
 35  19  42  1   
 36  19  43  1   
 37  20  21  1   
 38  21  22  ar  
 39  21  23  ar  
 40  22  24  ar  
 41  22  44  1   
 42  23  25  ar  
 43  23  45  1   
 44  24  26  1   
 45  24  27  ar  
 46  25  27  ar  
 47  25  46  1   
 48  26  28  1   
 49  27  47  1   
 50  28  48  1   
 51  28  49  1   
 52  28  50  1   
@<TRIPOS>SUBSTRUCTURE
  1 ****  18 GROUP 4 **** **** 0

# MOE 2024.06 (io_trps.svl 2023.06)
