@<TRIPOS>MOLECULE
NONAME
33 33 1 0 0 
SMALL
USER_CHARGES


@<TRIPOS>ATOM
  1 O       -6.4660     0.7890     0.7230 O.2   1 <1>  -0.5700 
  2 C       -6.4830     1.5450    -0.2290 C.2   1 <1>   0.6900 
  3 N       -7.5930     1.6110    -1.0160 N.am  1 <1>  -0.6600 
  4 N       -5.4510     2.3700    -0.5010 N.am  1 <1>  -0.7300 
  5 C       -8.4090     0.3720    -1.1580 C.3   1 <1>   0.1400 
  6 C       -8.4180     2.8440    -0.9140 C.3   1 <1>   0.1400 
  7 C       -4.1750     2.4000     0.2440 C.3   1 <1>   0.1400 
  8 C       -9.3870     0.2420     0.0280 C.3   1 <1>   0.3430 
  9 C       -9.3980     2.7210     0.2730 C.3   1 <1>   0.3430 
 10 C       -3.7000     3.8480     0.3620 C.3   1 <1>  -0.1600 
 11 N      -10.2460     1.4730     0.1930 N.4   1 <1>  -0.9590 
 12 C       -2.3770     3.9380     1.1300 C.3   1 <1>  -0.2400 
 13 C      -11.1080     1.3440     1.4060 C.3   1 <1>   0.2630 
 14 H       -5.4330     2.7970    -1.4250 H     1 <1>   0.3700 
 15 H       -7.7570    -0.4860    -1.1760 H     1 <1>   0.0800 
 16 H       -8.9480     0.3950    -2.0890 H     1 <1>   0.0800 
 17 H       -8.9580     2.9970    -1.8320 H     1 <1>   0.0800 
 18 H       -7.7810     3.6990    -0.7590 H     1 <1>   0.0800 
 19 H       -3.4440     1.8090    -0.2820 H     1 <1>   0.0800 
 20 H       -4.3130     1.9770     1.2260 H     1 <1>   0.0800 
 21 H       -8.8040     0.0840     0.9220 H     1 <1>   0.0800 
 22 H      -10.0080    -0.6260    -0.1180 H     1 <1>   0.0800 
 23 H      -10.0300     3.5930     0.3030 H     1 <1>   0.0800 
 24 H       -8.8190     2.7010     1.1820 H     1 <1>   0.0800 
 25 H       -4.4460     4.4250     0.8810 H     1 <1>   0.0800 
 26 H       -3.5630     4.2640    -0.6210 H     1 <1>   0.0800 
 27 H      -10.8460     1.5500    -0.6400 H     1 <1>   0.4500 
 28 H       -2.4920     3.5440     2.1250 H     1 <1>   0.0800 
 29 H       -2.0630     4.9640     1.2030 H     1 <1>   0.0800 
 30 H       -1.6080     3.3810     0.6230 H     1 <1>   0.0800 
 31 H      -10.4970     1.2570     2.2910 H     1 <1>   0.0800 
 32 H      -11.7320     0.4680     1.3320 H     1 <1>   0.0800 
 33 H      -11.7430     2.2100     1.5100 H     1 <1>   0.0800 
@<TRIPOS>BOND
  1   1   2  2   
  2   2   3  am  
  3   2   4  am  
  4   3   5  1   
  5   3   6  1   
  6   4   7  1   
  7   4  14  1   
  8   5   8  1   
  9   5  15  1   
 10   5  16  1   
 11   6   9  1   
 12   6  17  1   
 13   6  18  1   
 14   7  10  1   
 15   7  19  1   
 16   7  20  1   
 17   8  11  1   
 18   8  21  1   
 19   8  22  1   
 20   9  11  1   
 21   9  23  1   
 22   9  24  1   
 23  10  12  1   
 24  10  25  1   
 25  10  26  1   
 26  11  13  1   
 27  11  27  1   
 28  12  28  1   
 29  12  29  1   
 30  12  30  1   
 31  13  31  1   
 32  13  32  1   
 33  13  33  1   
@<TRIPOS>SUBSTRUCTURE
  1 ****   2 GROUP 4 **** **** 0

# MOE 2024.06 (io_trps.svl 2023.06)
