@<TRIPOS>MOLECULE
NONAME
37 38 1 0 0 
SMALL
USER_CHARGES


@<TRIPOS>ATOM
  1 O       -1.1700     1.2040     0.9700 O.2   1 <1>  -0.5700 
  2 C       -1.5530     1.2960    -0.1710 C.2   1 <1>   0.6590 
  3 O       -2.1370     0.2780    -0.7920 O.3   1 <1>  -0.4300 
  4 C       -1.4110     2.5710    -0.9830 C.3   1 <1>   0.0420 
  5 C       -2.3430    -0.9660    -0.1540 C.3   1 <1>   0.0400 
  6 C        0.0260     3.0630    -0.9600 C.2   1 <1>   0.5690 
  7 C       -2.4080     3.6960    -0.6050 C.3   1 <1>  -0.0800 
  8 O        0.4860     3.4740    -1.9990 O.2   1 <1>  -0.5700 
  9 N        0.7410     3.0580     0.2000 N.am  1 <1>  -0.4930 
 10 C       -2.2750     4.2810     0.8030 C.3   1 <1>  -0.1600 
 11 C       -3.8800     3.2890    -0.6820 C.3   1 <1>  -0.1600 
 12 C        2.0230     3.5300     0.4750 C.2   1 <1>   0.3520 
 13 C       -3.6020     4.9990     1.0550 C.3   1 <1>  -0.1600 
 14 C       -4.6240     4.3760     0.0960 C.3   1 <1>  -0.1600 
 15 N        2.5410     3.4210     1.6480 N.2   1 <1>  -0.4100 
 16 C        2.9110     4.1630    -0.3970 C.2   1 <1>  -0.1500 
 17 O        3.7330     3.9580     1.5700 O.3   1 <1>  -0.0190 
 18 C        3.9830     4.4080     0.3680 C.2   1 <1>  -0.0400 
 19 C        5.3120     5.0680     0.0680 C.3   1 <1>  -0.0600 
 20 H       -1.6210     2.3030    -2.0020 H     1 <1>   0.0800 
 21 H       -1.3890    -1.3710     0.1380 H     1 <1>   0.0800 
 22 H       -2.8300    -1.6290    -0.8470 H     1 <1>   0.0800 
 23 H       -2.9630    -0.8150     0.7130 H     1 <1>   0.0800 
 24 H       -2.2620     4.5060    -1.3020 H     1 <1>   0.0800 
 25 H        0.3020     2.5950     1.0030 H     1 <1>   0.3700 
 26 H       -1.4400     4.9550     0.8870 H     1 <1>   0.0800 
 27 H       -2.1690     3.4970     1.5330 H     1 <1>   0.0800 
 28 H       -4.0400     2.3460    -0.1890 H     1 <1>   0.0800 
 29 H       -4.2280     3.2170    -1.6980 H     1 <1>   0.0800 
 30 H       -3.4980     6.0480     0.8370 H     1 <1>   0.0800 
 31 H       -3.9080     4.8880     2.0810 H     1 <1>   0.0800 
 32 H       -5.4630     3.9620     0.6290 H     1 <1>   0.0800 
 33 H       -4.9830     5.1300    -0.5840 H     1 <1>   0.0800 
 34 H        2.7370     4.3820    -1.4330 H     1 <1>   0.1500 
 35 H        5.3490     5.3770    -0.9610 H     1 <1>   0.0800 
 36 H        6.1120     4.3760     0.2550 H     1 <1>   0.0800 
 37 H        5.4410     5.9300     0.6970 H     1 <1>   0.0800 
@<TRIPOS>BOND
  1   1   2  2   
  2   2   3  1   
  3   2   4  1   
  4   3   5  1   
  5   4   6  1   
  6   4   7  1   
  7   4  20  1   
  8   5  21  1   
  9   5  22  1   
 10   5  23  1   
 11   6   8  2   
 12   6   9  am  
 13   7  10  1   
 14   7  11  1   
 15   7  24  1   
 16   9  12  1   
 17   9  25  1   
 18  10  13  1   
 19  10  26  1   
 20  10  27  1   
 21  11  14  1   
 22  11  28  1   
 23  11  29  1   
 24  12  15  2   
 25  12  16  1   
 26  13  14  1   
 27  13  30  1   
 28  13  31  1   
 29  14  32  1   
 30  14  33  1   
 31  15  17  1   
 32  16  18  2   
 33  16  34  1   
 34  17  18  1   
 35  18  19  1   
 36  19  35  1   
 37  19  36  1   
 38  19  37  1   
@<TRIPOS>SUBSTRUCTURE
  1 ****   9 GROUP 4 **** **** 0

# MOE 2024.06 (io_trps.svl 2023.06)
