@<TRIPOS>MOLECULE
NONAME
32 33 1 0 0 
SMALL
USER_CHARGES


@<TRIPOS>ATOM
  1 F       -0.6780    -0.3590    -1.5500 F     1 <1>  -0.1900 
  2 C       -1.7220    -0.8850    -0.9710 C.ar  1 <1>   0.1900 
  3 C       -2.1030    -0.4160     0.2710 C.ar  1 <1>  -0.1500 
  4 C       -2.4090    -1.8920    -1.6200 C.ar  1 <1>  -0.1500 
  5 C       -3.2150    -0.9730     0.8800 C.ar  1 <1>  -0.1500 
  6 C       -3.5190    -2.4440    -1.0050 C.ar  1 <1>  -0.1500 
  7 C       -3.9310    -1.9820     0.2420 C.ar  1 <1>  -0.1430 
  8 C       -5.1600    -2.5760     0.9060 C.3   1 <1>   0.4870 
  9 N       -6.3730    -2.0600     0.2100 N.4   1 <1>  -0.9590 
 10 C       -6.5050    -0.5770     0.3680 C.3   1 <1>   0.3430 
 11 C       -7.5980    -2.7960     0.6410 C.3   1 <1>   0.3430 
 12 C       -7.6930    -0.0710    -0.4460 C.3   1 <1>  -0.1600 
 13 C       -8.8010    -2.3230    -0.1710 C.3   1 <1>  -0.1600 
 14 C       -8.9630    -0.8110    -0.0380 C.3   1 <1>   0.2000 
 15 O       -9.9890    -0.4060    -0.8530 O.3   1 <1>  -0.6800 
 16 H       -1.5350     0.3660     0.7450 H     1 <1>   0.1500 
 17 H       -2.0720    -2.2320    -2.5840 H     1 <1>   0.1500 
 18 H       -3.5080    -0.6110     1.8520 H     1 <1>   0.1500 
 19 H       -4.0470    -3.2360    -1.5090 H     1 <1>   0.1500 
 20 H       -5.1830    -2.3080     1.9490 H     1 <1>   0.0800 
 21 H       -5.1170    -3.6510     0.8300 H     1 <1>   0.0800 
 22 H       -6.2220    -2.2360    -0.7910 H     1 <1>   0.4500 
 23 H       -5.6070    -0.0850     0.0280 H     1 <1>   0.0800 
 24 H       -6.6520    -0.3310     1.4080 H     1 <1>   0.0800 
 25 H       -7.7820    -2.6170     1.6890 H     1 <1>   0.0800 
 26 H       -7.4650    -3.8570     0.4970 H     1 <1>   0.0800 
 27 H       -7.4900    -0.2080    -1.4930 H     1 <1>   0.0800 
 28 H       -7.8200     0.9810    -0.2600 H     1 <1>   0.0800 
 29 H       -9.6860    -2.8080     0.2010 H     1 <1>   0.0800 
 30 H       -8.6690    -2.6020    -1.2010 H     1 <1>   0.0800 
 31 H       -9.2370    -0.5530     0.9730 H     1 <1>   0.0800 
 32 H       -9.8110    -0.5930    -1.7950 H     1 <1>   0.4000 
@<TRIPOS>BOND
  1   1   2  1   
  2   2   3  ar  
  3   2   4  ar  
  4   3   5  ar  
  5   3  16  1   
  6   4   6  ar  
  7   4  17  1   
  8   5   7  ar  
  9   5  18  1   
 10   6   7  ar  
 11   6  19  1   
 12   7   8  1   
 13   8   9  1   
 14   8  20  1   
 15   8  21  1   
 16   9  10  1   
 17   9  11  1   
 18   9  22  1   
 19  10  12  1   
 20  10  23  1   
 21  10  24  1   
 22  11  13  1   
 23  11  25  1   
 24  11  26  1   
 25  12  14  1   
 26  12  27  1   
 27  12  28  1   
 28  13  14  1   
 29  13  29  1   
 30  13  30  1   
 31  14  15  1   
 32  14  31  1   
 33  15  32  1   
@<TRIPOS>SUBSTRUCTURE
  1 ****   9 GROUP 4 **** **** 0

# MOE 2024.06 (io_trps.svl 2023.06)
