@<TRIPOS>MOLECULE
NONAME
38 41 1 0 0 
SMALL
USER_CHARGES


@<TRIPOS>ATOM
  1 O       -0.1000     1.0220     0.7440 O.2   1 <1>  -0.5700 
  2 C       -0.0090     0.1090    -0.0370 C.2   1 <1>   0.7200 
  3 O        1.1360    -0.4980    -0.3440 O.3   1 <1>  -0.2330 
  4 C       -1.2330    -0.4500    -0.7500 C.3   1 <1>  -0.1000 
  5 C        2.3860    -0.2150     0.1050 C.ar  1 <1>   0.0820 
  6 C       -2.5040    -0.7710    -0.0180 C.3   1 <1>  -0.1950 
  7 C       -1.6270    -1.8750    -0.5460 C.3   1 <1>  -0.1950 
  8 C        3.2740    -1.3090     0.2690 C.ar  1 <1>   0.0000 
  9 C        2.7950     1.0700     0.3740 C.ar  1 <1>  -0.1500 
 10 C       -3.9390    -1.2540    -0.2240 C.3   1 <1>  -0.0650 
 11 C       -1.6080    -2.9660     0.5200 C.3   1 <1>  -0.0650 
 12 C        4.5860    -1.0500     0.7260 C.ar  1 <1>   0.0000 
 13 C        2.9170    -2.6500     0.0010 C.ar  1 <1>  -0.1500 
 14 C        4.0930     1.3180     0.8260 C.ar  1 <1>  -0.1500 
 15 C       -4.1440    -2.4730     0.7080 C.3   1 <1>  -0.1600 
 16 C       -3.0370    -3.5540     0.5720 C.3   1 <1>  -0.1600 
 17 C        4.9660     0.2800     0.9980 C.ar  1 <1>  -0.1500 
 18 C        5.4770    -2.1280     0.8970 C.ar  1 <1>  -0.1500 
 19 C        3.8030    -3.6780     0.1750 C.ar  1 <1>  -0.1500 
 20 C        5.0990    -3.4140     0.6290 C.ar  1 <1>  -0.1500 
 21 H       -1.3380    -0.0250    -1.7300 H     1 <1>   0.1000 
 22 H       -2.4200    -0.4440     1.0060 H     1 <1>   0.1000 
 23 H       -1.8480    -2.3360    -1.4950 H     1 <1>   0.1000 
 24 H        2.1350     1.9080     0.2410 H     1 <1>   0.1500 
 25 H       -4.1050    -1.5330    -1.2500 H     1 <1>   0.0800 
 26 H       -4.6320    -0.4710     0.0310 H     1 <1>   0.0800 
 27 H       -1.3370    -2.5580     1.4790 H     1 <1>   0.0800 
 28 H       -0.8950    -3.7300     0.2620 H     1 <1>   0.0800 
 29 H        1.9230    -2.8610    -0.3490 H     1 <1>   0.1500 
 30 H        4.3900     2.3310     1.0350 H     1 <1>   0.1500 
 31 H       -5.1060    -2.9140     0.5180 H     1 <1>   0.0800 
 32 H       -4.1470    -2.1210     1.7260 H     1 <1>   0.0800 
 33 H       -3.1110    -4.2510     1.3890 H     1 <1>   0.0800 
 34 H       -3.2110    -4.1030    -0.3370 H     1 <1>   0.0800 
 35 H        5.9650     0.4660     1.3470 H     1 <1>   0.1500 
 36 H        6.4720    -1.9200     1.2460 H     1 <1>   0.1500 
 37 H        3.5180    -4.6940    -0.0340 H     1 <1>   0.1500 
 38 H        5.7850    -4.2330     0.7610 H     1 <1>   0.1500 
@<TRIPOS>BOND
  1   1   2  2   
  2   2   3  1   
  3   2   4  1   
  4   3   5  1   
  5   4   6  1   
  6   4   7  1   
  7   4  21  1   
  8   5   8  ar  
  9   5   9  ar  
 10   6   7  1   
 11   6  10  1   
 12   6  22  1   
 13   7  11  1   
 14   7  23  1   
 15   8  12  ar  
 16   8  13  ar  
 17   9  14  ar  
 18   9  24  1   
 19  10  15  1   
 20  10  25  1   
 21  10  26  1   
 22  11  16  1   
 23  11  27  1   
 24  11  28  1   
 25  12  17  ar  
 26  12  18  ar  
 27  13  19  ar  
 28  13  29  1   
 29  14  17  ar  
 30  14  30  1   
 31  15  16  1   
 32  15  31  1   
 33  15  32  1   
 34  16  33  1   
 35  16  34  1   
 36  17  35  1   
 37  18  20  ar  
 38  18  36  1   
 39  19  20  ar  
 40  19  37  1   
 41  20  38  1   
@<TRIPOS>SUBSTRUCTURE
  1 ****   3 GROUP 4 **** **** 0

# MOE 2024.06 (io_trps.svl 2023.06)
