@<TRIPOS>MOLECULE
NONAME
42 42 1 0 0 
SMALL
USER_CHARGES


@<TRIPOS>ATOM
  1 BR       0.4020     0.4210     0.2970 Br    1 <1>  -0.1110 
  2 C        1.9610     1.5200     0.0010 C.ar  1 <1>   0.1110 
  3 C        1.9190     2.8860     0.2460 C.ar  1 <1>   0.0820 
  4 C        3.1050     0.8830    -0.4400 C.ar  1 <1>  -0.1500 
  5 O        0.7870     3.4780     0.7080 O.3   1 <1>  -0.3630 
  6 C        3.0790     3.6330     0.0430 C.ar  1 <1>   0.0820 
  7 C        4.2600     1.6280    -0.6330 C.ar  1 <1>  -0.1440 
  8 C       -0.2460     3.7410    -0.2160 C.3   1 <1>   0.2000 
  9 O        3.0380     4.9690     0.2960 O.3   1 <1>  -0.3630 
 10 C        4.2400     2.9980    -0.3970 C.ar  1 <1>  -0.1500 
 11 C        5.5370     0.9460    -1.0730 C.3   1 <1>   0.4870 
 12 C        0.0290     5.0770    -0.9060 C.3   1 <1>  -0.2400 
 13 C       -1.5540     3.7800     0.5690 C.3   1 <1>  -0.2400 
 14 C        3.9270     5.8700    -0.3200 C.3   1 <1>   0.1200 
 15 N        6.2200     0.5050     0.1620 N.4   1 <1>  -0.9060 
 16 C        3.4150     7.2830    -0.0610 C.3   1 <1>  -0.2400 
 17 C        7.5220    -0.1710    -0.1050 C.3   1 <1>   0.3430 
 18 C        8.2090    -0.6180     1.1910 C.3   1 <1>   0.1200 
 19 O        9.4000    -1.2200     0.8360 O.3   1 <1>  -0.6800 
 20 H        3.0690    -0.1780    -0.6180 H     1 <1>   0.1500 
 21 H       -0.2790     2.9440    -0.9400 H     1 <1>   0.0800 
 22 H        5.1320     3.5780    -0.5480 H     1 <1>   0.1500 
 23 H        6.1550     1.6370    -1.6240 H     1 <1>   0.0800 
 24 H        5.3080     0.1020    -1.7040 H     1 <1>   0.0800 
 25 H        0.1410     5.8560    -0.1740 H     1 <1>   0.0800 
 26 H       -0.7870     5.3290    -1.5590 H     1 <1>   0.0800 
 27 H        0.9240     5.0130    -1.4970 H     1 <1>   0.0800 
 28 H       -1.5210     4.5590     1.3100 H     1 <1>   0.0800 
 29 H       -1.7180     2.8350     1.0540 H     1 <1>   0.0800 
 30 H       -2.3780     3.9690    -0.0940 H     1 <1>   0.0800 
 31 H        3.9480     5.6640    -1.3760 H     1 <1>   0.0800 
 32 H        4.9040     5.7390     0.1110 H     1 <1>   0.0800 
 33 H        5.5810    -0.1190     0.6700 H     1 <1>   0.4500 
 34 H        6.3500     1.3300     0.7600 H     1 <1>   0.4500 
 35 H        2.4330     7.4030    -0.4820 H     1 <1>   0.0800 
 36 H        4.0730     8.0010    -0.5150 H     1 <1>   0.0800 
 37 H        3.3750     7.4730     0.9970 H     1 <1>   0.0800 
 38 H        8.1830     0.5030    -0.6270 H     1 <1>   0.0800 
 39 H        7.3630    -1.0400    -0.7240 H     1 <1>   0.0800 
 40 H        7.6150    -1.3430     1.7210 H     1 <1>   0.0800 
 41 H        8.4370     0.2220     1.8250 H     1 <1>   0.0800 
 42 H        9.9020    -1.5370     1.6190 H     1 <1>   0.4000 
@<TRIPOS>BOND
  1   1   2  1   
  2   2   3  ar  
  3   2   4  ar  
  4   3   5  1   
  5   3   6  ar  
  6   4   7  ar  
  7   4  20  1   
  8   5   8  1   
  9   6   9  1   
 10   6  10  ar  
 11   7  10  ar  
 12   7  11  1   
 13   8  12  1   
 14   8  13  1   
 15   8  21  1   
 16   9  14  1   
 17  10  22  1   
 18  11  15  1   
 19  11  23  1   
 20  11  24  1   
 21  12  25  1   
 22  12  26  1   
 23  12  27  1   
 24  13  28  1   
 25  13  29  1   
 26  13  30  1   
 27  14  16  1   
 28  14  31  1   
 29  14  32  1   
 30  15  17  1   
 31  15  33  1   
 32  15  34  1   
 33  16  35  1   
 34  16  36  1   
 35  16  37  1   
 36  17  18  1   
 37  17  38  1   
 38  17  39  1   
 39  18  19  1   
 40  18  40  1   
 41  18  41  1   
 42  19  42  1   
@<TRIPOS>SUBSTRUCTURE
  1 ****  10 GROUP 4 **** **** 0

# MOE 2024.06 (io_trps.svl 2023.06)
