@<TRIPOS>MOLECULE
NONAME
50 52 1 0 0 
SMALL
USER_CHARGES


@<TRIPOS>ATOM
  1 S        1.3900     0.5340     2.0550 S.o2  1 <1>   1.3330 
  2 O        0.6490     0.0110     3.1750 O.2   1 <1>  -0.6500 
  3 O        2.8300     0.6240     2.1120 O.2   1 <1>  -0.6500 
  4 N        0.8150     2.1350     1.7620 N.am  1 <1>  -0.6930 
  5 C        0.9410    -0.3230     0.5600 C.3   1 <1>  -0.1350 
  6 C       -0.4550     2.3650     1.2440 C.ar  1 <1>   0.1990 
  7 C        1.4130     3.2120     2.6130 C.3   1 <1>   0.2570 
  8 C       -0.6290     3.0170     0.0200 C.ar  1 <1>  -0.1440 
  9 C       -1.5790     1.9370     1.9420 C.ar  1 <1>  -0.1500 
 10 C        2.5720     3.9520     1.9410 C.2   1 <1>   0.5690 
 11 C       -1.9070     3.2170    -0.4750 C.ar  1 <1>  -0.1500 
 12 C        0.5590     3.5270    -0.7900 C.3   1 <1>  -0.0970 
 13 C       -2.8490     2.1380     1.4380 C.ar  1 <1>  -0.1500 
 14 O        2.5040     5.1510     1.8030 O.2   1 <1>  -0.5700 
 15 N        3.6460     3.2450     1.5080 N.am  1 <1>  -0.7300 
 16 C       -3.0200     2.7780     0.2230 C.ar  1 <1>  -0.1430 
 17 C        4.7860     3.7740     0.7450 C.3   1 <1>   0.2200 
 18 C       -4.4120     3.0070    -0.3370 C.3   1 <1>  -0.0970 
 19 C        4.7100     3.4160    -0.7550 C.3   1 <1>  -0.0800 
 20 C        6.0970     3.1100     1.1920 C.3   1 <1>  -0.1600 
 21 C        6.1790     3.4930    -1.1420 C.3   1 <1>  -0.1600 
 22 C        4.4500     1.9090    -0.9560 C.3   1 <1>  -0.1600 
 23 C        6.6320     2.4780    -0.1050 C.3   1 <1>  -0.0800 
 24 C        5.7540     1.2650    -0.4550 C.3   1 <1>  -0.1600 
 25 H        1.2840    -1.3380     0.6010 H     1 <1>   0.0800 
 26 H        1.3830     0.1570    -0.2900 H     1 <1>   0.0800 
 27 H       -0.1250    -0.3260     0.4390 H     1 <1>   0.0800 
 28 H        1.7650     2.7880     3.5360 H     1 <1>   0.0800 
 29 H        0.6530     3.9330     2.8540 H     1 <1>   0.0800 
 30 H       -1.4580     1.4450     2.8900 H     1 <1>   0.1500 
 31 H       -2.0430     3.7230    -1.4150 H     1 <1>   0.1500 
 32 H        1.3690     2.8220    -0.7680 H     1 <1>   0.0800 
 33 H        0.9030     4.4600    -0.3810 H     1 <1>   0.0800 
 34 H        0.2830     3.6880    -1.8160 H     1 <1>   0.0800 
 35 H       -3.7030     1.7970     1.9970 H     1 <1>   0.1500 
 36 H        3.6480     2.2210     1.6330 H     1 <1>   0.3700 
 37 H        4.8500     4.8440     0.8670 H     1 <1>   0.0800 
 38 H       -4.7540     3.9900    -0.0670 H     1 <1>   0.0800 
 39 H       -5.1020     2.2800     0.0530 H     1 <1>   0.0800 
 40 H       -4.4030     2.9240    -1.4090 H     1 <1>   0.0800 
 41 H        4.0620     4.0630    -1.3190 H     1 <1>   0.0800 
 42 H        5.9530     2.3780     1.9680 H     1 <1>   0.0800 
 43 H        6.7800     3.8640     1.5400 H     1 <1>   0.0800 
 44 H        6.6030     4.4710    -0.9830 H     1 <1>   0.0800 
 45 H        6.3650     3.1690    -2.1520 H     1 <1>   0.0800 
 46 H        4.3150     1.6980    -2.0030 H     1 <1>   0.0800 
 47 H        3.5880     1.5520    -0.4230 H     1 <1>   0.0800 
 48 H        7.6880     2.2690    -0.0900 H     1 <1>   0.0800 
 49 H        6.2080     0.6840    -1.2390 H     1 <1>   0.0800 
 50 H        5.5850     0.6330     0.4010 H     1 <1>   0.0800 
@<TRIPOS>BOND
  1   1   2  2   
  2   1   3  2   
  3   1   4  am  
  4   1   5  1   
  5   4   6  1   
  6   4   7  1   
  7   5  25  1   
  8   5  26  1   
  9   5  27  1   
 10   6   8  ar  
 11   6   9  ar  
 12   7  10  1   
 13   7  28  1   
 14   7  29  1   
 15   8  11  ar  
 16   8  12  1   
 17   9  13  ar  
 18   9  30  1   
 19  10  14  2   
 20  10  15  am  
 21  11  16  ar  
 22  11  31  1   
 23  12  32  1   
 24  12  33  1   
 25  12  34  1   
 26  13  16  ar  
 27  13  35  1   
 28  15  17  1   
 29  15  36  1   
 30  16  18  1   
 31  17  19  1   
 32  17  20  1   
 33  17  37  1   
 34  18  38  1   
 35  18  39  1   
 36  18  40  1   
 37  19  21  1   
 38  19  22  1   
 39  19  41  1   
 40  20  23  1   
 41  20  42  1   
 42  20  43  1   
 43  21  23  1   
 44  21  44  1   
 45  21  45  1   
 46  22  24  1   
 47  22  46  1   
 48  22  47  1   
 49  23  24  1   
 50  23  48  1   
 51  24  49  1   
 52  24  50  1   
@<TRIPOS>SUBSTRUCTURE
  1 ****   4 GROUP 4 **** **** 0

# MOE 2024.06 (io_trps.svl 2023.06)
