@<TRIPOS>MOLECULE
NONAME
44 46 1 0 0 
SMALL
USER_CHARGES


@<TRIPOS>ATOM
  1 CL       3.7040    -0.9140     1.6980 Cl    1 <1>  -0.1770 
  2 C        2.2700    -1.8780     1.4420 C.ar  1 <1>   0.1770 
  3 C        1.9410    -2.2790     0.1590 C.ar  1 <1>  -0.1440 
  4 C        1.4970    -2.2310     2.5350 C.ar  1 <1>  -0.1500 
  5 C        0.8110    -3.0620    -0.0030 C.ar  1 <1>   0.1770 
  6 C        2.7890    -1.8660    -1.0250 C.3   1 <1>   0.4870 
  7 C        0.3660    -3.0090     2.3490 C.ar  1 <1>  -0.1500 
  8 CL       0.3740    -3.6220    -1.5980 Cl    1 <1>  -0.1770 
  9 C        0.0210    -3.4280     1.0730 C.ar  1 <1>  -0.1500 
 10 N        4.0220    -2.6920    -1.0650 N.4   1 <1>  -0.9590 
 11 C        5.0440    -2.1930    -2.0390 C.3   1 <1>   0.3430 
 12 C        3.7750    -4.1620    -1.2550 C.3   1 <1>   0.3430 
 13 C        6.3670    -2.9860    -1.9080 C.3   1 <1>   0.1100 
 14 C        5.1000    -4.9660    -1.2620 C.3   1 <1>   0.1100 
 15 N        6.2750    -4.1200    -0.9460 N.3   1 <1>  -0.8100 
 16 C        7.5350    -4.9230    -0.9570 C.3   1 <1>   0.1710 
 17 C        8.7910    -4.1210    -0.6030 C.2   1 <1>   0.5690 
 18 O        9.6300    -3.9560    -1.4570 O.2   1 <1>  -0.5700 
 19 N        8.8940    -3.5920     0.6450 N.am  1 <1>  -0.5790 
 20 C       10.0110    -2.7800     1.1450 C.3   1 <1>   0.0490 
 21 C       10.3430    -2.8630     2.5970 C.3   1 <1>  -0.2000 
 22 C        9.6950    -1.6300     2.0420 C.3   1 <1>  -0.2000 
 23 H        1.7760    -1.9000     3.5210 H     1 <1>   0.1500 
 24 H        3.0510    -0.8250    -0.9210 H     1 <1>   0.0800 
 25 H        2.2350    -1.9820    -1.9420 H     1 <1>   0.0800 
 26 H       -0.2450    -3.2870     3.1930 H     1 <1>   0.1500 
 27 H       -0.8550    -4.0350     0.9160 H     1 <1>   0.1500 
 28 H        4.4940    -2.6270    -0.1490 H     1 <1>   0.4500 
 29 H        5.2470    -1.1490    -1.8640 H     1 <1>   0.0800 
 30 H        4.6730    -2.2920    -3.0460 H     1 <1>   0.0800 
 31 H        3.2510    -4.3350    -2.1810 H     1 <1>   0.0800 
 32 H        3.1520    -4.5330    -0.4570 H     1 <1>   0.0800 
 33 H        7.1380    -2.3050    -1.5860 H     1 <1>   0.0800 
 34 H        6.6550    -3.3500    -2.8810 H     1 <1>   0.0800 
 35 H        5.2270    -5.4200    -2.2310 H     1 <1>   0.0800 
 36 H        5.0250    -5.7620    -0.5410 H     1 <1>   0.0800 
 37 H        7.6810    -5.3570    -1.9310 H     1 <1>   0.0800 
 38 H        7.4500    -5.7280    -0.2490 H     1 <1>   0.0800 
 39 H        8.1190    -3.7130     1.2970 H     1 <1>   0.3700 
 40 H       10.8180    -2.6780     0.4350 H     1 <1>   0.1000 
 41 H       11.3760    -2.8040     2.8930 H     1 <1>   0.1000 
 42 H        9.7690    -3.5190     3.2280 H     1 <1>   0.1000 
 43 H        8.6690    -1.4240     2.2920 H     1 <1>   0.1000 
 44 H       10.2900    -0.7370     1.9660 H     1 <1>   0.1000 
@<TRIPOS>BOND
  1   1   2  1   
  2   2   3  ar  
  3   2   4  ar  
  4   3   5  ar  
  5   3   6  1   
  6   4   7  ar  
  7   4  23  1   
  8   5   8  1   
  9   5   9  ar  
 10   6  10  1   
 11   6  24  1   
 12   6  25  1   
 13   7   9  ar  
 14   7  26  1   
 15   9  27  1   
 16  10  11  1   
 17  10  12  1   
 18  10  28  1   
 19  11  13  1   
 20  11  29  1   
 21  11  30  1   
 22  12  14  1   
 23  12  31  1   
 24  12  32  1   
 25  13  15  1   
 26  13  33  1   
 27  13  34  1   
 28  14  15  1   
 29  14  35  1   
 30  14  36  1   
 31  15  16  1   
 32  16  17  1   
 33  16  37  1   
 34  16  38  1   
 35  17  18  2   
 36  17  19  am  
 37  19  20  1   
 38  19  39  1   
 39  20  21  1   
 40  20  22  1   
 41  20  40  1   
 42  21  22  1   
 43  21  41  1   
 44  21  42  1   
 45  22  43  1   
 46  22  44  1   
@<TRIPOS>SUBSTRUCTURE
  1 ****  10 GROUP 4 **** **** 0

# MOE 2024.06 (io_trps.svl 2023.06)
