@<TRIPOS>MOLECULE
NONAME
35 35 1 0 0 
SMALL
USER_CHARGES


@<TRIPOS>ATOM
  1 O       -9.8290     1.2890     0.0750 O.3   1 <1>  -0.3630 
  2 C      -11.0570     0.7110     0.0790 C.ar  1 <1>   0.0830 
  3 C       -8.6590     0.5170     0.0020 C.3   1 <1>   0.1200 
  4 C      -11.2710    -0.6630     0.0120 C.ar  1 <1>  -0.1500 
  5 C      -12.1440     1.5630     0.1530 C.ar  1 <1>  -0.1500 
  6 C       -7.4800     1.4910     0.0210 C.3   1 <1>   0.3430 
  7 C      -12.5580    -1.1780     0.0210 C.ar  1 <1>  -0.1440 
  8 C      -13.4290     1.0540     0.1620 C.ar  1 <1>  -0.1500 
  9 N       -6.1670     0.7800    -0.0530 N.4   1 <1>  -0.9060 
 10 C      -13.6460    -0.3140     0.0960 C.ar  1 <1>  -0.1430 
 11 C      -12.7560    -2.6870    -0.0530 C.3   1 <1>  -0.0970 
 12 C       -5.0290     1.7500    -0.0330 C.3   1 <1>   0.3430 
 13 C      -15.0770    -0.8320     0.1080 C.3   1 <1>  -0.0970 
 14 C       -3.6700     1.0420    -0.1080 C.3   1 <1>   0.1200 
 15 O       -2.6960     2.0210    -0.0830 O.3   1 <1>  -0.6800 
 16 H       -8.6880    -0.0430    -0.9160 H     1 <1>   0.0800 
 17 H       -8.6390    -0.1360     0.8570 H     1 <1>   0.0800 
 18 H      -10.4490    -1.3480    -0.0460 H     1 <1>   0.1500 
 19 H      -11.9850     2.6250     0.2040 H     1 <1>   0.1500 
 20 H       -7.5290     2.0710     0.9290 H     1 <1>   0.0800 
 21 H       -7.5770     2.1630    -0.8180 H     1 <1>   0.0800 
 22 H      -14.2610     1.7340     0.2200 H     1 <1>   0.1500 
 23 H       -6.1250     0.2220    -0.9150 H     1 <1>   0.4500 
 24 H       -6.0790     0.1350     0.7440 H     1 <1>   0.4500 
 25 H      -11.8140    -3.2020    -0.1060 H     1 <1>   0.0800 
 26 H      -13.3280    -2.9400    -0.9270 H     1 <1>   0.0800 
 27 H      -13.2790    -3.0320     0.8210 H     1 <1>   0.0800 
 28 H       -5.0630     2.3320     0.8740 H     1 <1>   0.0800 
 29 H       -5.1110     2.4230    -0.8720 H     1 <1>   0.0800 
 30 H      -15.2290    -1.4750     0.9560 H     1 <1>   0.0800 
 31 H      -15.2780    -1.3830    -0.7920 H     1 <1>   0.0800 
 32 H      -15.7810    -0.0220     0.1700 H     1 <1>   0.0800 
 33 H       -3.5640     0.4910    -1.0260 H     1 <1>   0.0800 
 34 H       -3.5150     0.3980     0.7420 H     1 <1>   0.0800 
 35 H       -1.7910     1.6420    -0.1280 H     1 <1>   0.4000 
@<TRIPOS>BOND
  1   1   2  1   
  2   1   3  1   
  3   2   4  ar  
  4   2   5  ar  
  5   3   6  1   
  6   3  16  1   
  7   3  17  1   
  8   4   7  ar  
  9   4  18  1   
 10   5   8  ar  
 11   5  19  1   
 12   6   9  1   
 13   6  20  1   
 14   6  21  1   
 15   7  10  ar  
 16   7  11  1   
 17   8  10  ar  
 18   8  22  1   
 19   9  12  1   
 20   9  23  1   
 21   9  24  1   
 22  10  13  1   
 23  11  25  1   
 24  11  26  1   
 25  11  27  1   
 26  12  14  1   
 27  12  28  1   
 28  12  29  1   
 29  13  30  1   
 30  13  31  1   
 31  13  32  1   
 32  14  15  1   
 33  14  33  1   
 34  14  34  1   
 35  15  35  1   
@<TRIPOS>SUBSTRUCTURE
  1 ****   1 GROUP 4 **** **** 0

# MOE 2024.06 (io_trps.svl 2023.06)
