@<TRIPOS>MOLECULE
NONAME
47 50 1 0 0 
SMALL
USER_CHARGES


@<TRIPOS>ATOM
  1 F       -0.0640    -1.8910    -2.5980 F     1 <1>  -0.1900 
  2 C       -1.0100    -1.7200    -1.7040 C.ar  1 <1>   0.1900 
  3 C       -0.8540    -2.2430    -0.4140 C.ar  1 <1>   0.1000 
  4 C       -2.1330    -1.0180    -2.0960 C.ar  1 <1>  -0.1500 
  5 N        0.2620    -2.9610     0.0360 N.pl3 1 <1>  -0.8380 
  6 C       -1.8940    -2.0230     0.4800 C.ar  1 <1>  -0.1500 
  7 C       -3.1530    -0.8170    -1.1790 C.ar  1 <1>  -0.1500 
  8 C        0.4940    -4.2850    -0.6100 C.3   1 <1>   0.2090 
  9 C        1.5380    -2.1950     0.1270 C.3   1 <1>   0.2090 
 10 C       -3.0290    -1.3210     0.1060 C.ar  1 <1>  -0.1500 
 11 C        1.5660    -5.0800     0.1580 C.3   1 <1>   0.1100 
 12 C        2.6110    -3.0050     0.8800 C.3   1 <1>   0.1100 
 13 N        2.8460    -4.3410     0.2720 N.3   1 <1>  -0.8100 
 14 C        3.8470    -5.1410     1.0200 C.3   1 <1>   0.2900 
 15 C        5.2490    -4.5360     1.0480 C.2   1 <1>   0.2980 
 16 O        5.5050    -3.5960     1.9210 O.3   1 <1>  -0.0190 
 17 N        6.2290    -4.8750     0.3140 N.2   1 <1>  -0.5650 
 18 N        6.7490    -3.3010     1.7140 N.2   1 <1>  -0.4100 
 19 C        7.1820    -4.0500     0.7620 C.2   1 <1>   0.4620 
 20 C        8.5290    -4.0360     0.2150 C.ar  1 <1>   0.0540 
 21 C        8.8870    -4.8260    -0.8790 C.ar  1 <1>  -0.1500 
 22 C        9.5250    -3.2260     0.7630 C.ar  1 <1>  -0.1500 
 23 C       10.1690    -4.8110    -1.3960 C.ar  1 <1>  -0.1500 
 24 C       10.8090    -3.2070     0.2490 C.ar  1 <1>  -0.1500 
 25 C       11.1410    -4.0010    -0.8340 C.ar  1 <1>  -0.1430 
 26 C       12.5490    -3.9820    -1.4010 C.3   1 <1>  -0.0970 
 27 H       -2.2070    -0.6370    -3.0980 H     1 <1>   0.1500 
 28 H       -1.8000    -2.4130     1.4770 H     1 <1>   0.1500 
 29 H       -4.0360    -0.2730    -1.4640 H     1 <1>   0.1500 
 30 H        0.8180    -4.1440    -1.6260 H     1 <1>   0.0800 
 31 H       -0.4280    -4.8400    -0.6230 H     1 <1>   0.0800 
 32 H        1.3610    -1.2680     0.6430 H     1 <1>   0.0800 
 33 H        1.8990    -1.9680    -0.8610 H     1 <1>   0.0800 
 34 H       -3.8190    -1.1660     0.8200 H     1 <1>   0.1500 
 35 H        1.7370    -6.0090    -0.3580 H     1 <1>   0.0800 
 36 H        1.1840    -5.3050     1.1390 H     1 <1>   0.0800 
 37 H        2.3010    -3.1170     1.9040 H     1 <1>   0.0800 
 38 H        3.5230    -2.4350     0.8630 H     1 <1>   0.0800 
 39 H        3.9260    -6.1070     0.5540 H     1 <1>   0.0800 
 40 H        3.5110    -5.2890     2.0320 H     1 <1>   0.0800 
 41 H        8.1480    -5.4620    -1.3330 H     1 <1>   0.1500 
 42 H        9.2910    -2.6000     1.6060 H     1 <1>   0.1500 
 43 H       10.4070    -5.4330    -2.2410 H     1 <1>   0.1500 
 44 H       11.5500    -2.5680     0.6980 H     1 <1>   0.1500 
 45 H       12.7950    -4.9370    -1.8290 H     1 <1>   0.0800 
 46 H       13.2630    -3.7630    -0.6270 H     1 <1>   0.0800 
 47 H       12.6230    -3.2290    -2.1650 H     1 <1>   0.0800 
@<TRIPOS>BOND
  1   1   2  1   
  2   2   3  ar  
  3   2   4  ar  
  4   3   5  1   
  5   3   6  ar  
  6   4   7  ar  
  7   4  27  1   
  8   5   8  1   
  9   5   9  1   
 10   6  10  ar  
 11   6  28  1   
 12   7  10  ar  
 13   7  29  1   
 14   8  11  1   
 15   8  30  1   
 16   8  31  1   
 17   9  12  1   
 18   9  32  1   
 19   9  33  1   
 20  10  34  1   
 21  11  13  1   
 22  11  35  1   
 23  11  36  1   
 24  12  13  1   
 25  12  37  1   
 26  12  38  1   
 27  13  14  1   
 28  14  15  1   
 29  14  39  1   
 30  14  40  1   
 31  15  16  1   
 32  15  17  2   
 33  16  18  1   
 34  17  19  1   
 35  18  19  2   
 36  19  20  1   
 37  20  21  ar  
 38  20  22  ar  
 39  21  23  ar  
 40  21  41  1   
 41  22  24  ar  
 42  22  42  1   
 43  23  25  ar  
 44  23  43  1   
 45  24  25  ar  
 46  24  44  1   
 47  25  26  1   
 48  26  45  1   
 49  26  46  1   
 50  26  47  1   
@<TRIPOS>SUBSTRUCTURE
  1 ****  13 GROUP 4 **** **** 0

# MOE 2024.06 (io_trps.svl 2023.06)
