@<TRIPOS>MOLECULE
NONAME
38 39 1 0 0 
SMALL
USER_CHARGES


@<TRIPOS>ATOM
  1 CL       0.0980    -2.1460    -3.0940 Cl    1 <1>  -0.1770 
  2 C        0.5480    -2.6590    -1.4840 C.ar  1 <1>   0.1770 
  3 C       -0.3700    -2.6140    -0.4470 C.ar  1 <1>   0.1770 
  4 C        1.8340    -3.1110    -1.2630 C.ar  1 <1>  -0.1500 
  5 CL      -2.0000    -2.0500    -0.7120 Cl    1 <1>  -0.1770 
  6 C        0.0000    -3.0200     0.8220 C.ar  1 <1>  -0.1500 
  7 C        2.2300    -3.5350     0.0060 C.ar  1 <1>   0.0860 
  8 C        1.2910    -3.4730     1.0400 C.ar  1 <1>  -0.1500 
  9 C        3.5810    -4.0090     0.2360 C.2   1 <1>   0.5440 
 10 O        4.5090    -3.2800    -0.0560 O.2   1 <1>  -0.5700 
 11 N        3.8430    -5.2570     0.7660 N.am  1 <1>  -0.6600 
 12 C        2.8470    -6.3620     0.8220 C.3   1 <1>   0.1400 
 13 C        5.2230    -5.6580     1.1640 C.3   1 <1>   0.1400 
 14 C        3.3090    -7.5120    -0.0760 C.3   1 <1>  -0.1600 
 15 C        5.7060    -6.7960     0.2620 C.3   1 <1>  -0.1600 
 16 C        4.7320    -7.9900     0.2830 C.3   1 <1>  -0.0190 
 17 C        5.2260    -9.1190    -0.6210 C.2   1 <1>   0.6590 
 18 O        4.6680    -9.4260    -1.6430 O.2   1 <1>  -0.5700 
 19 O        6.3160    -9.7490    -0.2010 O.3   1 <1>  -0.4300 
 20 C        6.8830   -10.8060    -0.9380 C.3   1 <1>   0.1200 
 21 C        8.1160   -11.2980    -0.1880 C.3   1 <1>  -0.2400 
 22 H        2.5410    -3.1330    -2.0740 H     1 <1>   0.1500 
 23 H       -0.7160    -2.9770     1.6250 H     1 <1>   0.1500 
 24 H        1.5880    -3.7830     2.0280 H     1 <1>   0.1500 
 25 H        1.8790    -6.0300     0.4920 H     1 <1>   0.0800 
 26 H        2.7570    -6.7030     1.8390 H     1 <1>   0.0800 
 27 H        5.2110    -5.9800     2.1910 H     1 <1>   0.0800 
 28 H        5.9010    -4.8240     1.0890 H     1 <1>   0.0800 
 29 H        3.2860    -7.1810    -1.1010 H     1 <1>   0.0800 
 30 H        2.6200    -8.3340     0.0140 H     1 <1>   0.0800 
 31 H        6.6800    -7.1130     0.5920 H     1 <1>   0.0800 
 32 H        5.8070    -6.4220    -0.7420 H     1 <1>   0.0800 
 33 H        4.7070    -8.3840     1.2830 H     1 <1>   0.0800 
 34 H        7.1450   -10.4380    -1.9160 H     1 <1>   0.0800 
 35 H        6.1480   -11.5890    -1.0320 H     1 <1>   0.0800 
 36 H        8.8340   -10.5030    -0.0930 H     1 <1>   0.0800 
 37 H        8.5720   -12.1070    -0.7310 H     1 <1>   0.0800 
 38 H        7.8400   -11.6540     0.7880 H     1 <1>   0.0800 
@<TRIPOS>BOND
  1   1   2  1   
  2   2   3  ar  
  3   2   4  ar  
  4   3   5  1   
  5   3   6  ar  
  6   4   7  ar  
  7   4  22  1   
  8   6   8  ar  
  9   6  23  1   
 10   7   8  ar  
 11   7   9  1   
 12   8  24  1   
 13   9  10  2   
 14   9  11  am  
 15  11  12  1   
 16  11  13  1   
 17  12  14  1   
 18  12  25  1   
 19  12  26  1   
 20  13  15  1   
 21  13  27  1   
 22  13  28  1   
 23  14  16  1   
 24  14  29  1   
 25  14  30  1   
 26  15  16  1   
 27  15  31  1   
 28  15  32  1   
 29  16  17  1   
 30  16  33  1   
 31  17  18  2   
 32  17  19  1   
 33  19  20  1   
 34  20  21  1   
 35  20  34  1   
 36  20  35  1   
 37  21  36  1   
 38  21  37  1   
 39  21  38  1   
@<TRIPOS>SUBSTRUCTURE
  1 ****  11 GROUP 4 **** **** 0

# MOE 2024.06 (io_trps.svl 2023.06)
