@<TRIPOS>MOLECULE
NONAME
43 45 1 0 0 
SMALL
USER_CHARGES


@<TRIPOS>ATOM
  1 CL       0.1000    -0.2090     0.4440 Cl    1 <1>  -0.1770 
  2 C       -1.4830    -0.9360     0.2830 C.ar  1 <1>   0.1770 
  3 C       -1.5910    -2.3140    -0.0090 C.ar  1 <1>   0.0000 
  4 C       -2.5760    -0.1340     0.4460 C.ar  1 <1>  -0.1500 
  5 C       -2.8900    -2.8620    -0.1320 C.ar  1 <1>   0.0000 
  6 C       -0.4760    -3.1660    -0.1830 C.ar  1 <1>  -0.1500 
  7 C       -3.8570    -0.6770     0.3250 C.ar  1 <1>  -0.1500 
  8 C       -4.0180    -2.0150     0.0420 C.ar  1 <1>   0.0830 
  9 C       -3.0060    -4.2400    -0.4260 C.ar  1 <1>  -0.1500 
 10 C       -0.6270    -4.4940    -0.4650 C.ar  1 <1>  -0.1500 
 11 O       -5.2400    -2.5930    -0.0840 O.3   1 <1>  -0.3620 
 12 C       -1.9080    -5.0380    -0.5890 C.ar  1 <1>  -0.1500 
 13 C       -6.4380    -1.8710     0.0730 C.3   1 <1>   0.1200 
 14 C       -7.5970    -2.8450    -0.1290 C.3   1 <1>  -0.1600 
 15 C       -8.9430    -2.1460     0.0790 C.3   1 <1>   0.1100 
 16 N      -10.0530    -3.0300    -0.3150 N.3   1 <1>  -0.8100 
 17 C      -11.2850    -2.2560    -0.5660 C.3   1 <1>   0.1100 
 18 C      -10.2850    -4.1280     0.6490 C.3   1 <1>   0.1100 
 19 C      -12.4250    -3.1660    -1.0660 C.3   1 <1>   0.3430 
 20 C      -11.4120    -5.0640     0.1680 C.3   1 <1>   0.3430 
 21 N      -12.6740    -4.3060    -0.1210 N.4   1 <1>  -0.9060 
 22 H       -2.4560     0.9110     0.6670 H     1 <1>   0.1500 
 23 H        0.5130    -2.7560    -0.0900 H     1 <1>   0.1500 
 24 H       -4.6900    -0.0140     0.4600 H     1 <1>   0.1500 
 25 H       -3.9890    -4.6640    -0.5230 H     1 <1>   0.1500 
 26 H        0.2290    -5.1340    -0.5960 H     1 <1>   0.1500 
 27 H       -2.0150    -6.0850    -0.8120 H     1 <1>   0.1500 
 28 H       -6.4620    -1.0870    -0.6640 H     1 <1>   0.0800 
 29 H       -6.4540    -1.4560     1.0670 H     1 <1>   0.0800 
 30 H       -7.4840    -3.6510     0.5730 H     1 <1>   0.0800 
 31 H       -7.5510    -3.2330    -1.1310 H     1 <1>   0.0800 
 32 H       -8.9580    -1.2640    -0.5400 H     1 <1>   0.0800 
 33 H       -9.0530    -1.8360     1.1060 H     1 <1>   0.0800 
 34 H      -11.0880    -1.5120    -1.3190 H     1 <1>   0.0800 
 35 H      -11.5900    -1.7450     0.3320 H     1 <1>   0.0800 
 36 H      -10.5300    -3.7250     1.6180 H     1 <1>   0.0800 
 37 H       -9.3890    -4.7150     0.7540 H     1 <1>   0.0800 
 38 H      -12.1460    -3.5520    -2.0330 H     1 <1>   0.0800 
 39 H      -13.3220    -2.5820    -1.1870 H     1 <1>   0.0800 
 40 H      -11.5950    -5.8170     0.9160 H     1 <1>   0.0800 
 41 H      -11.0750    -5.5600    -0.7280 H     1 <1>   0.0800 
 42 H      -13.3800    -4.9390    -0.5150 H     1 <1>   0.4500 
 43 H      -13.0450    -3.9320     0.7590 H     1 <1>   0.4500 
@<TRIPOS>BOND
  1   1   2  1   
  2   2   3  ar  
  3   2   4  ar  
  4   3   5  ar  
  5   3   6  ar  
  6   4   7  ar  
  7   4  22  1   
  8   5   8  ar  
  9   5   9  ar  
 10   6  10  ar  
 11   6  23  1   
 12   7   8  ar  
 13   7  24  1   
 14   8  11  1   
 15   9  12  ar  
 16   9  25  1   
 17  10  12  ar  
 18  10  26  1   
 19  11  13  1   
 20  12  27  1   
 21  13  14  1   
 22  13  28  1   
 23  13  29  1   
 24  14  15  1   
 25  14  30  1   
 26  14  31  1   
 27  15  16  1   
 28  15  32  1   
 29  15  33  1   
 30  16  17  1   
 31  16  18  1   
 32  17  19  1   
 33  17  34  1   
 34  17  35  1   
 35  18  20  1   
 36  18  36  1   
 37  18  37  1   
 38  19  21  1   
 39  19  38  1   
 40  19  39  1   
 41  20  21  1   
 42  20  40  1   
 43  20  41  1   
 44  21  42  1   
 45  21  43  1   
@<TRIPOS>SUBSTRUCTURE
  1 ****  11 GROUP 4 **** **** 0

# MOE 2024.06 (io_trps.svl 2023.06)
