@<TRIPOS>MOLECULE
NONAME
47 49 1 0 0 
SMALL
USER_CHARGES


@<TRIPOS>ATOM
  1 S       -0.3360    -0.2050    -1.5180 S.3   1 <1>  -0.0800 
  2 C        0.9730     0.6550    -0.6930 C.2   1 <1>   0.1040 
  3 C       -1.5080     0.9080    -0.8620 C.2   1 <1>  -0.1400 
  4 N        2.2800     0.2170    -0.8390 N.am  1 <1>  -0.4940 
  5 C        0.4890     1.7210     0.0300 C.2   1 <1>  -0.0860 
  6 C       -0.9410     1.8260    -0.1000 C.2   1 <1>  -0.1810 
  7 C       -2.9910     0.9770    -1.0260 C.3   1 <1>   0.0200 
  8 C        2.8730    -0.8210    -1.5070 C.2   1 <1>   0.5690 
  9 C        1.2650     2.6360     0.8210 C.2   1 <1>   0.8060 
 10 C       -1.9860     2.7670     0.4450 C.3   1 <1>   0.0210 
 11 C       -3.3150     2.2160    -0.1510 C.3   1 <1>  -0.1600 
 12 O        2.2880    -1.6430    -2.1690 O.2   1 <1>  -0.5700 
 13 C        4.3960    -0.9120    -1.3860 C.3   1 <1>   0.1710 
 14 O        0.7960     3.5990     1.3990 O.2   1 <1>  -0.5700 
 15 O        2.5840     2.4090     0.9240 O.3   1 <1>  -0.4300 
 16 N        4.9570    -0.1200    -0.2510 N.3   1 <1>  -0.9000 
 17 C        3.4650     3.2610     1.6250 C.3   1 <1>   0.1200 
 18 C        6.4170    -0.0870    -0.2770 C.3   1 <1>   0.2530 
 19 C        3.9190     4.3760     0.6850 C.3   1 <1>  -0.2400 
 20 C        6.9620    -1.4560     0.0950 C.ar  1 <1>  -0.1430 
 21 C        6.9180    -1.8880     1.4120 C.ar  1 <1>  -0.1500 
 22 C        7.5070    -2.2860    -0.8740 C.ar  1 <1>  -0.1500 
 23 C        7.4080    -3.1360     1.7570 C.ar  1 <1>  -0.1500 
 24 C        7.9970    -3.5340    -0.5310 C.ar  1 <1>  -0.1500 
 25 C        7.9470    -3.9600     0.7850 C.ar  1 <1>  -0.1500 
 26 H        2.9870     0.7700    -0.3370 H     1 <1>   0.3700 
 27 H       -3.4580     0.0850    -0.6480 H     1 <1>   0.0800 
 28 H       -3.2530     1.1350    -2.0570 H     1 <1>   0.0800 
 29 H       -1.7950     3.7720     0.1120 H     1 <1>   0.0800 
 30 H       -1.9960     2.7360     1.5200 H     1 <1>   0.0800 
 31 H       -3.9830     1.9370     0.6450 H     1 <1>   0.0800 
 32 H       -3.7890     2.9740    -0.7490 H     1 <1>   0.0800 
 33 H        4.8130    -0.5590    -2.3120 H     1 <1>   0.0800 
 34 H        4.6610    -1.9500    -1.2740 H     1 <1>   0.0800 
 35 H        4.7040    -0.6190     0.6140 H     1 <1>   0.3600 
 36 H        4.3080     2.6700     1.9370 H     1 <1>   0.0800 
 37 H        2.9710     3.6540     2.4980 H     1 <1>   0.0800 
 38 H        6.7650     0.6370     0.4400 H     1 <1>   0.0800 
 39 H        6.7670     0.2170    -1.2500 H     1 <1>   0.0800 
 40 H        4.3990     3.9590    -0.1830 H     1 <1>   0.0800 
 41 H        4.6220     5.0120     1.1920 H     1 <1>   0.0800 
 42 H        3.0790     4.9750     0.3820 H     1 <1>   0.0800 
 43 H        6.5020    -1.2540     2.1760 H     1 <1>   0.1500 
 44 H        7.5520    -1.9670    -1.9010 H     1 <1>   0.1500 
 45 H        7.3710    -3.4660     2.7800 H     1 <1>   0.1500 
 46 H        8.4170    -4.1740    -1.2860 H     1 <1>   0.1500 
 47 H        8.3280    -4.9300     1.0520 H     1 <1>   0.1500 
@<TRIPOS>BOND
  1   1   2  1   
  2   1   3  1   
  3   2   4  1   
  4   2   5  2   
  5   3   6  2   
  6   3   7  1   
  7   4   8  am  
  8   4  26  1   
  9   5   6  1   
 10   5   9  1   
 11   6  10  1   
 12   7  11  1   
 13   7  27  1   
 14   7  28  1   
 15   8  12  2   
 16   8  13  1   
 17   9  14  2   
 18   9  15  1   
 19  10  11  1   
 20  10  29  1   
 21  10  30  1   
 22  11  31  1   
 23  11  32  1   
 24  13  16  1   
 25  13  33  1   
 26  13  34  1   
 27  15  17  1   
 28  16  18  1   
 29  16  35  1   
 30  17  19  1   
 31  17  36  1   
 32  17  37  1   
 33  18  20  1   
 34  18  38  1   
 35  18  39  1   
 36  19  40  1   
 37  19  41  1   
 38  19  42  1   
 39  20  21  ar  
 40  20  22  ar  
 41  21  23  ar  
 42  21  43  1   
 43  22  24  ar  
 44  22  44  1   
 45  23  25  ar  
 46  23  45  1   
 47  24  25  ar  
 48  24  46  1   
 49  25  47  1   
@<TRIPOS>SUBSTRUCTURE
  1 ****   4 GROUP 4 **** **** 0

# MOE 2024.06 (io_trps.svl 2023.06)
