@<TRIPOS>MOLECULE
NONAME
42 45 1 0 0 
SMALL
USER_CHARGES


@<TRIPOS>ATOM
  1 O       -2.2820     0.5060    -0.2570 O.co2 1 <1>  -0.9000 
  2 C       -2.2700     1.6740    -0.6720 C.2   1 <1>   0.9790 
  3 O       -2.9270     1.9580    -1.6900 O.co2 1 <1>  -0.9000 
  4 C       -1.4790     2.6860    -0.0090 C.ar  1 <1>  -0.1790 
  5 C       -2.0470     3.7910     0.6600 C.ar  1 <1>   0.0860 
  6 C       -0.0900     2.5460    -0.0350 C.ar  1 <1>  -0.1500 
  7 C       -3.4790     4.0410     0.7990 C.2   1 <1>   0.5440 
  8 C       -1.1700     4.7050     1.2520 C.ar  1 <1>  -0.1500 
  9 C        0.7470     3.4670     0.5600 C.ar  1 <1>  -0.1500 
 10 O       -3.9020     4.5930     1.8010 O.2   1 <1>  -0.5700 
 11 N       -4.3620     3.7090    -0.1870 N.am  1 <1>  -0.7300 
 12 C        0.2030     4.5570     1.2070 C.ar  1 <1>  -0.1500 
 13 C       -5.8220     3.5800    -0.1350 C.3   1 <1>   0.3000 
 14 C       -6.2740     2.9970    -1.4860 C.3   1 <1>  -0.1600 
 15 C       -6.4980     4.9490     0.0660 C.3   1 <1>  -0.1600 
 16 C       -6.2470     2.6130     0.9850 C.3   1 <1>  -0.1600 
 17 C       -7.8050     2.8230    -1.5130 C.3   1 <1>  -0.0800 
 18 C       -8.0310     4.7860     0.0590 C.3   1 <1>  -0.0800 
 19 C       -7.7790     2.4430     0.9830 C.3   1 <1>  -0.0800 
 20 C       -8.4710     4.1950    -1.2940 C.3   1 <1>  -0.1600 
 21 C       -8.2200     1.8690    -0.3770 C.3   1 <1>  -0.1600 
 22 C       -8.4410     3.8210     1.1900 C.3   1 <1>  -0.1600 
 23 H        0.3250     1.6870    -0.5370 H     1 <1>   0.1500 
 24 H       -1.5840     5.5550     1.7650 H     1 <1>   0.1500 
 25 H        1.8130     3.3320     0.5200 H     1 <1>   0.1500 
 26 H       -3.9630     3.1320    -0.9540 H     1 <1>   0.3700 
 27 H        0.8420     5.2830     1.6760 H     1 <1>   0.1500 
 28 H       -5.7980     2.0430    -1.6420 H     1 <1>   0.0800 
 29 H       -5.9690     3.6510    -2.2830 H     1 <1>   0.0800 
 30 H       -6.1950     5.6190    -0.7180 H     1 <1>   0.0800 
 31 H       -6.1910     5.3720     1.0050 H     1 <1>   0.0800 
 32 H       -5.9350     2.9980     1.9390 H     1 <1>   0.0800 
 33 H       -5.7690     1.6600     0.8370 H     1 <1>   0.0800 
 34 H       -8.1060     2.4150    -2.4620 H     1 <1>   0.0800 
 35 H       -8.4980     5.7440     0.2100 H     1 <1>   0.0800 
 36 H       -8.0690     1.7740     1.7740 H     1 <1>   0.0800 
 37 H       -8.1930     4.8640    -2.0900 H     1 <1>   0.0800 
 38 H       -9.5420     4.0870    -1.3140 H     1 <1>   0.0800 
 39 H       -7.7620     0.9060    -0.5280 H     1 <1>   0.0800 
 40 H       -9.2870     1.7300    -0.3870 H     1 <1>   0.0800 
 41 H       -9.5110     3.7120     1.2070 H     1 <1>   0.0800 
 42 H       -8.1370     4.2270     2.1400 H     1 <1>   0.0800 
@<TRIPOS>BOND
  1   1   2  ar  
  2   2   3  ar  
  3   2   4  1   
  4   4   5  ar  
  5   4   6  ar  
  6   5   7  1   
  7   5   8  ar  
  8   6   9  ar  
  9   6  23  1   
 10   7  10  2   
 11   7  11  am  
 12   8  12  ar  
 13   8  24  1   
 14   9  12  ar  
 15   9  25  1   
 16  11  13  1   
 17  11  26  1   
 18  12  27  1   
 19  13  14  1   
 20  13  15  1   
 21  13  16  1   
 22  14  17  1   
 23  14  28  1   
 24  14  29  1   
 25  15  18  1   
 26  15  30  1   
 27  15  31  1   
 28  16  19  1   
 29  16  32  1   
 30  16  33  1   
 31  17  20  1   
 32  17  21  1   
 33  17  34  1   
 34  18  20  1   
 35  18  22  1   
 36  18  35  1   
 37  19  21  1   
 38  19  22  1   
 39  19  36  1   
 40  20  37  1   
 41  20  38  1   
 42  21  39  1   
 43  21  40  1   
 44  22  41  1   
 45  22  42  1   
@<TRIPOS>SUBSTRUCTURE
  1 ****  11 GROUP 4 **** **** 0

# MOE 2024.06 (io_trps.svl 2023.06)
