@<TRIPOS>MOLECULE
NONAME
35 36 1 0 0 
SMALL
USER_CHARGES


@<TRIPOS>ATOM
  1 S        0.4600    -0.5030    -0.1000 S.o2  1 <1>   1.4470 
  2 O        0.4630     0.5790     0.8590 O.2   1 <1>  -0.6500 
  3 O        0.9880    -0.2880    -1.4270 O.2   1 <1>  -0.6500 
  4 N        1.3790    -1.7420     0.5610 N.am  1 <1>  -0.9140 
  5 C       -1.1980    -1.2320    -0.1920 C.ar  1 <1>  -0.0090 
  6 C        2.6630    -1.3070     1.1040 C.3   1 <1>   0.1960 
  7 C       -1.7420    -1.6400    -1.4050 C.ar  1 <1>  -0.1500 
  8 C       -1.9620    -1.4180     0.9570 C.ar  1 <1>  -0.1500 
  9 C        3.6860    -1.0960    -0.0270 C.3   1 <1>   0.2000 
 10 C       -3.0020    -2.2020    -1.4410 C.ar  1 <1>   0.1900 
 11 C       -3.2280    -1.9830     0.9160 C.ar  1 <1>  -0.1500 
 12 O        3.6420    -2.1800    -0.9000 O.3   1 <1>  -0.5600 
 13 C        5.1400    -1.0400     0.4220 C.3   1 <1>  -0.1600 
 14 F       -3.4720    -2.5690    -2.6070 F     1 <1>  -0.1900 
 15 C       -3.7730    -2.3870    -0.2990 C.ar  1 <1>   0.0830 
 16 C        4.8080    -2.2130    -1.6570 C.3   1 <1>   0.1200 
 17 C        5.8920    -1.5770    -0.7880 C.3   1 <1>  -0.1600 
 18 O       -5.0070    -2.9470    -0.4180 O.3   1 <1>  -0.3630 
 19 C       -5.8390    -3.1530     0.7020 C.3   1 <1>   0.0400 
 20 H        1.6630    -2.2980    -0.2540 H     1 <1>   0.4200 
 21 H        3.0320    -2.0810     1.7540 H     1 <1>   0.0800 
 22 H        2.5580    -0.4120     1.6940 H     1 <1>   0.0800 
 23 H       -1.1890    -1.5200    -2.3210 H     1 <1>   0.1500 
 24 H       -1.5510    -1.1110     1.9060 H     1 <1>   0.1500 
 25 H        3.4460    -0.2110    -0.5920 H     1 <1>   0.0800 
 26 H       -3.7690    -2.0990     1.8370 H     1 <1>   0.1500 
 27 H        5.2930    -1.6890     1.2670 H     1 <1>   0.0800 
 28 H        5.4370    -0.0390     0.6830 H     1 <1>   0.0800 
 29 H        4.6390    -1.6410    -2.5530 H     1 <1>   0.0800 
 30 H        5.0290    -3.2360    -1.9070 H     1 <1>   0.0800 
 31 H        6.6300    -2.3050    -0.5000 H     1 <1>   0.0800 
 32 H        6.3760    -0.7850    -1.3330 H     1 <1>   0.0800 
 33 H       -6.7540    -3.6000     0.3590 H     1 <1>   0.0800 
 34 H       -6.0470    -2.2030     1.1630 H     1 <1>   0.0800 
 35 H       -5.3440    -3.8170     1.3890 H     1 <1>   0.0800 
@<TRIPOS>BOND
  1   1   2  2   
  2   1   3  2   
  3   1   4  am  
  4   1   5  1   
  5   4   6  1   
  6   4  20  1   
  7   5   7  ar  
  8   5   8  ar  
  9   6   9  1   
 10   6  21  1   
 11   6  22  1   
 12   7  10  ar  
 13   7  23  1   
 14   8  11  ar  
 15   8  24  1   
 16   9  12  1   
 17   9  13  1   
 18   9  25  1   
 19  10  14  1   
 20  10  15  ar  
 21  11  15  ar  
 22  11  26  1   
 23  12  16  1   
 24  13  17  1   
 25  13  27  1   
 26  13  28  1   
 27  15  18  1   
 28  16  17  1   
 29  16  29  1   
 30  16  30  1   
 31  17  31  1   
 32  17  32  1   
 33  18  19  1   
 34  19  33  1   
 35  19  34  1   
 36  19  35  1   
@<TRIPOS>SUBSTRUCTURE
  1 ****   1 GROUP 4 **** **** 0

# MOE 2024.06 (io_trps.svl 2023.06)
