@<TRIPOS>MOLECULE
NONAME
44 44 1 0 0 
SMALL
USER_CHARGES


@<TRIPOS>ATOM
  1 CL       0.1290    -0.3900     0.3500 Cl    1 <1>  -0.1770 
  2 C        1.8550    -0.1360     0.1630 C.ar  1 <1>   0.1770 
  3 C        2.3310     1.1510    -0.0510 C.ar  1 <1>  -0.1440 
  4 C        2.7100    -1.2280     0.2330 C.ar  1 <1>  -0.1440 
  5 C        3.6960     1.3440    -0.1990 C.ar  1 <1>  -0.1500 
  6 C        1.3780     2.3360    -0.1240 C.3   1 <1>  -0.0960 
  7 C        4.0710    -1.0150     0.0830 C.ar  1 <1>  -0.1500 
  8 C        2.1780    -2.6340     0.4680 C.3   1 <1>  -0.0960 
  9 C        4.5700     0.2600    -0.1320 C.ar  1 <1>   0.0830 
 10 O        5.9160     0.3670    -0.2670 O.3   1 <1>  -0.3630 
 11 C        6.5340     1.6050    -0.5460 C.3   1 <1>   0.1200 
 12 C        8.0470     1.3750    -0.6550 C.3   1 <1>   0.2000 
 13 O        8.4870     0.6840     0.4760 O.3   1 <1>  -0.6800 
 14 C        8.8460     2.6880    -0.7700 C.3   1 <1>   0.3430 
 15 N       10.2500     2.4620    -0.3070 N.4   1 <1>  -0.9060 
 16 C       11.0330     3.6110     0.1380 C.3   1 <1>   0.5030 
 17 C       12.4090     3.0720     0.5150 C.3   1 <1>  -0.2400 
 18 C       11.1580     4.6170    -1.0050 C.3   1 <1>  -0.2400 
 19 C       10.3680     4.2420     1.3600 C.3   1 <1>  -0.2400 
 20 H        4.0590     2.3390    -0.3620 H     1 <1>   0.1500 
 21 H        0.8290     2.4220     0.7970 H     1 <1>   0.0800 
 22 H        0.6790     2.1950    -0.9290 H     1 <1>   0.0800 
 23 H        1.9080     3.2550    -0.2910 H     1 <1>   0.0800 
 24 H        4.7580    -1.8400     0.1310 H     1 <1>   0.1500 
 25 H        1.6550    -2.6760     1.4060 H     1 <1>   0.0800 
 26 H        2.9770    -3.3530     0.4910 H     1 <1>   0.0800 
 27 H        1.4980    -2.9060    -0.3200 H     1 <1>   0.0800 
 28 H        6.3080     2.2850     0.2580 H     1 <1>   0.0800 
 29 H        6.1360     1.9830    -1.4720 H     1 <1>   0.0800 
 30 H        8.2440     0.7550    -1.5140 H     1 <1>   0.0800 
 31 H        7.8320    -0.0280     0.6780 H     1 <1>   0.4000 
 32 H        8.3720     3.4230    -0.1420 H     1 <1>   0.0800 
 33 H        8.8300     3.0540    -1.7840 H     1 <1>   0.0800 
 34 H       10.7800     1.9460    -1.0120 H     1 <1>   0.4500 
 35 H       10.1470     1.8030     0.4840 H     1 <1>   0.4500 
 36 H       12.3380     2.3520     1.3110 H     1 <1>   0.0800 
 37 H       13.0360     3.8770     0.8580 H     1 <1>   0.0800 
 38 H       12.8950     2.6180    -0.3300 H     1 <1>   0.0800 
 39 H       11.5920     4.1600    -1.8770 H     1 <1>   0.0800 
 40 H       11.8010     5.4260    -0.7050 H     1 <1>   0.0800 
 41 H       10.2060     5.0440    -1.2620 H     1 <1>   0.0800 
 42 H       10.2200     3.5140     2.1380 H     1 <1>   0.0800 
 43 H        9.4260     4.6950     1.1120 H     1 <1>   0.0800 
 44 H       11.0000     5.0190     1.7540 H     1 <1>   0.0800 
@<TRIPOS>BOND
  1   1   2  1   
  2   2   3  ar  
  3   2   4  ar  
  4   3   5  ar  
  5   3   6  1   
  6   4   7  ar  
  7   4   8  1   
  8   5   9  ar  
  9   5  20  1   
 10   6  21  1   
 11   6  22  1   
 12   6  23  1   
 13   7   9  ar  
 14   7  24  1   
 15   8  25  1   
 16   8  26  1   
 17   8  27  1   
 18   9  10  1   
 19  10  11  1   
 20  11  12  1   
 21  11  28  1   
 22  11  29  1   
 23  12  13  1   
 24  12  14  1   
 25  12  30  1   
 26  13  31  1   
 27  14  15  1   
 28  14  32  1   
 29  14  33  1   
 30  15  16  1   
 31  15  34  1   
 32  15  35  1   
 33  16  17  1   
 34  16  18  1   
 35  16  19  1   
 36  17  36  1   
 37  17  37  1   
 38  17  38  1   
 39  18  39  1   
 40  18  40  1   
 41  18  41  1   
 42  19  42  1   
 43  19  43  1   
 44  19  44  1   
@<TRIPOS>SUBSTRUCTURE
  1 ****  11 GROUP 4 **** **** 0

# MOE 2024.06 (io_trps.svl 2023.06)
