@<TRIPOS>MOLECULE
NONAME
42 44 1 0 0 
SMALL
USER_CHARGES


@<TRIPOS>ATOM
  1 S       -0.1460    -0.2080    -0.7720 S.o2  1 <1>   1.4470 
  2 O       -0.3720    -1.5680    -0.3400 O.2   1 <1>  -0.6500 
  3 O        0.3280     0.0660    -2.1080 O.2   1 <1>  -0.6500 
  4 N        0.9350     0.4030     0.3600 N.am  1 <1>  -0.9140 
  5 C       -1.6370     0.7780    -0.4640 C.ar  1 <1>  -0.0090 
  6 C        2.3540     0.2870     0.1420 C.3   1 <1>   0.3560 
  7 C       -2.8600     0.1700    -0.1950 C.ar  1 <1>  -0.1500 
  8 C       -1.5730     2.1770    -0.5020 C.ar  1 <1>  -0.1500 
  9 C        2.8300     1.3610    -0.8370 C.3   1 <1>  -0.2400 
 10 C        2.7650    -1.1170    -0.3080 C.3   1 <1>  -0.2400 
 11 C        2.9840     0.5660     1.5050 C.3   1 <1>  -0.2400 
 12 C       -4.0270     0.9040     0.0420 C.ar  1 <1>   0.0280 
 13 C       -2.7070     2.9230    -0.2730 C.ar  1 <1>  -0.1430 
 14 C       -5.3470     0.4030     0.3300 C.2   1 <1>  -0.1670 
 15 C       -3.8940     2.2890    -0.0090 C.ar  1 <1>   0.1170 
 16 C       -2.9430     4.4220    -0.2490 C.3   1 <1>  -0.0170 
 17 C       -6.3680     1.2830     0.5320 C.2   1 <1>  -0.1360 
 18 C       -5.5710    -1.0990     0.4020 C.3   1 <1>  -0.1020 
 19 N       -4.9280     3.1600     0.1970 N.am  1 <1>  -0.4770 
 20 C       -4.4540     4.5540     0.0700 C.3   1 <1>   0.1400 
 21 C       -6.1930     2.7050     0.4710 C.2   1 <1>   0.6160 
 22 O       -7.1100     3.4900     0.6510 O.2   1 <1>  -0.5700 
 23 H        0.7470    -0.1730     1.1740 H     1 <1>   0.4200 
 24 H       -2.9090    -0.9050    -0.1700 H     1 <1>   0.1500 
 25 H       -0.6320     2.6590    -0.7130 H     1 <1>   0.1500 
 26 H        2.4990     1.1600    -1.8380 H     1 <1>   0.0800 
 27 H        3.9040     1.3890    -0.8580 H     1 <1>   0.0800 
 28 H        2.4720     2.3290    -0.5370 H     1 <1>   0.0800 
 29 H        2.3750    -1.8640     0.3590 H     1 <1>   0.0800 
 30 H        3.8370    -1.1990    -0.3160 H     1 <1>   0.0800 
 31 H        2.4250    -1.3230    -1.3070 H     1 <1>   0.0800 
 32 H        2.7030     1.5440     1.8570 H     1 <1>   0.0800 
 33 H        4.0560     0.5340     1.4340 H     1 <1>   0.0800 
 34 H        2.6770    -0.1690     2.2280 H     1 <1>   0.0800 
 35 H       -2.7170     4.8620    -1.2040 H     1 <1>   0.0800 
 36 H       -2.3520     4.8930     0.5150 H     1 <1>   0.0800 
 37 H       -7.3680     0.9630     0.7490 H     1 <1>   0.1500 
 38 H       -5.3200    -1.5550    -0.5400 H     1 <1>   0.0800 
 39 H       -6.5990    -1.3240     0.6240 H     1 <1>   0.0800 
 40 H       -4.9560    -1.5280     1.1730 H     1 <1>   0.0800 
 41 H       -4.9840     5.0440    -0.7290 H     1 <1>   0.0800 
 42 H       -4.6180     5.0780     0.9950 H     1 <1>   0.0800 
@<TRIPOS>BOND
  1   1   2  2   
  2   1   3  2   
  3   1   4  am  
  4   1   5  1   
  5   4   6  1   
  6   4  23  1   
  7   5   7  ar  
  8   5   8  ar  
  9   6   9  1   
 10   6  10  1   
 11   6  11  1   
 12   7  12  ar  
 13   7  24  1   
 14   8  13  ar  
 15   8  25  1   
 16   9  26  1   
 17   9  27  1   
 18   9  28  1   
 19  10  29  1   
 20  10  30  1   
 21  10  31  1   
 22  11  32  1   
 23  11  33  1   
 24  11  34  1   
 25  12  14  1   
 26  12  15  ar  
 27  13  15  ar  
 28  13  16  1   
 29  14  17  2   
 30  14  18  1   
 31  15  19  1   
 32  16  20  1   
 33  16  35  1   
 34  16  36  1   
 35  17  21  1   
 36  17  37  1   
 37  18  38  1   
 38  18  39  1   
 39  18  40  1   
 40  19  20  1   
 41  19  21  am  
 42  20  41  1   
 43  20  42  1   
 44  21  22  2   
@<TRIPOS>SUBSTRUCTURE
  1 ****   5 GROUP 4 **** **** 0

# MOE 2024.06 (io_trps.svl 2023.06)
