@<TRIPOS>MOLECULE
NONAME
30 30 1 0 0 
SMALL
USER_CHARGES


@<TRIPOS>ATOM
  1 BR      -0.2190    -0.4580     1.1890 Br    1 <1>  -0.1110 
  2 C        1.5820    -0.9730     0.7360 C.ar  1 <1>   0.1110 
  3 C        1.9200    -2.3110     0.6980 C.ar  1 <1>   0.1600 
  4 C        2.5070     0.0030     0.4480 C.ar  1 <1>  -0.1500 
  5 N        3.1330    -2.7490     0.3990 N.ar  1 <1>  -0.6200 
  6 C        3.7770    -0.4350     0.1340 C.ar  1 <1>  -0.1430 
  7 C        4.0470    -1.8170     0.1510 C.ar  1 <1>   0.4270 
  8 C        4.8150     0.6190    -0.2370 C.3   1 <1>  -0.0970 
  9 N        5.2760    -2.3720    -0.1320 N.am  1 <1>  -0.5470 
 10 C        6.5020    -2.1260     0.4120 C.2   1 <1>   0.5690 
 11 O        6.6930    -1.2130     1.1800 O.2   1 <1>  -0.5700 
 12 C        7.6900    -3.0520     0.0390 C.3   1 <1>   0.0610 
 13 C        8.3550    -3.5960     1.3170 C.3   1 <1>  -0.2400 
 14 C        8.7370    -2.2500    -0.7550 C.3   1 <1>  -0.2400 
 15 C        7.2680    -4.2640    -0.8210 C.3   1 <1>  -0.2400 
 16 H        1.1630    -3.0430     0.9200 H     1 <1>   0.1500 
 17 H        2.2380     1.0440     0.4680 H     1 <1>   0.1500 
 18 H        4.3440     1.4790    -0.6750 H     1 <1>   0.0800 
 19 H        5.5220     0.2290    -0.9470 H     1 <1>   0.0800 
 20 H        5.3470     0.9320     0.6440 H     1 <1>   0.0800 
 21 H        5.1740    -3.2880    -0.5550 H     1 <1>   0.3700 
 22 H        8.7160    -2.7850     1.9260 H     1 <1>   0.0800 
 23 H        9.1870    -4.2350     1.0780 H     1 <1>   0.0800 
 24 H        7.6450    -4.1570     1.8980 H     1 <1>   0.0800 
 25 H        9.5810    -2.8650    -1.0110 H     1 <1>   0.0800 
 26 H        9.0880    -1.4170    -0.1700 H     1 <1>   0.0800 
 27 H        8.3050    -1.8630    -1.6610 H     1 <1>   0.0800 
 28 H        8.1210    -4.8800    -1.0440 H     1 <1>   0.0800 
 29 H        6.8400    -3.9430    -1.7540 H     1 <1>   0.0800 
 30 H        6.5500    -4.8710    -0.2960 H     1 <1>   0.0800 
@<TRIPOS>BOND
  1   1   2  1   
  2   2   3  ar  
  3   2   4  ar  
  4   3   5  ar  
  5   3  16  1   
  6   4   6  ar  
  7   4  17  1   
  8   5   7  ar  
  9   6   7  ar  
 10   6   8  1   
 11   7   9  1   
 12   8  18  1   
 13   8  19  1   
 14   8  20  1   
 15   9  10  am  
 16   9  21  1   
 17  10  11  2   
 18  10  12  1   
 19  12  13  1   
 20  12  14  1   
 21  12  15  1   
 22  13  22  1   
 23  13  23  1   
 24  13  24  1   
 25  14  25  1   
 26  14  26  1   
 27  14  27  1   
 28  15  28  1   
 29  15  29  1   
 30  15  30  1   
@<TRIPOS>SUBSTRUCTURE
  1 ****   7 GROUP 4 **** **** 0

# MOE 2024.06 (io_trps.svl 2023.06)
