@<TRIPOS>MOLECULE
NONAME
43 44 1 0 0 
SMALL
USER_CHARGES


@<TRIPOS>ATOM
  1 O       -1.3830    -0.2570    -0.6140 O.3   1 <1>  -0.3630 
  2 C       -2.3960    -0.9620    -0.0420 C.ar  1 <1>   0.0830 
  3 C       -0.8890    -0.5740    -1.8950 C.3   1 <1>   0.0400 
  4 C       -2.8070    -0.5830     1.2310 C.ar  1 <1>  -0.1440 
  5 C       -3.0280    -2.0300    -0.6740 C.ar  1 <1>  -0.1500 
  6 C       -3.8340    -1.2750     1.8490 C.ar  1 <1>  -0.1500 
  7 C       -2.1400     0.5840     1.9460 C.3   1 <1>  -0.0960 
  8 C       -4.0570    -2.7200    -0.0530 C.ar  1 <1>  -0.1430 
  9 C       -4.4610    -2.3430     1.2240 C.ar  1 <1>  -0.1430 
 10 C       -4.7200    -3.8750    -0.7940 C.3   1 <1>  -0.0970 
 11 C       -5.5800    -3.0560     1.9700 C.3   1 <1>   0.3530 
 12 N       -6.8430    -2.3550     1.6700 N.pl3 1 <1>  -0.8690 
 13 C       -7.8790    -3.0910     1.1130 C.ar  1 <1>   0.1000 
 14 C       -8.4190    -2.7170    -0.1090 C.ar  1 <1>  -0.1500 
 15 C       -8.3960    -4.2080     1.7540 C.ar  1 <1>  -0.1500 
 16 C       -9.4390    -3.4450    -0.7000 C.ar  1 <1>  -0.1430 
 17 C       -9.4140    -4.9410     1.1750 C.ar  1 <1>  -0.1500 
 18 C       -9.9420    -4.5710    -0.0540 C.ar  1 <1>  -0.1430 
 19 C       -9.9880    -2.9910    -2.0450 C.3   1 <1>  -0.0970 
 20 C      -11.0620    -5.4040    -0.6590 C.3   1 <1>  -0.0970 
 21 H       -0.0940     0.1120    -2.1250 H     1 <1>   0.0800 
 22 H       -1.6840    -0.4670    -2.6120 H     1 <1>   0.0800 
 23 H       -0.5100    -1.5810    -1.8840 H     1 <1>   0.0800 
 24 H       -2.7250    -2.3330    -1.6570 H     1 <1>   0.1500 
 25 H       -4.1550    -0.9790     2.8330 H     1 <1>   0.1500 
 26 H       -2.2500     1.4780     1.3600 H     1 <1>   0.0800 
 27 H       -1.0920     0.3800     2.0700 H     1 <1>   0.0800 
 28 H       -2.5770     0.7500     2.9130 H     1 <1>   0.0800 
 29 H       -4.3690    -3.9390    -1.8070 H     1 <1>   0.0800 
 30 H       -5.7860    -3.7390    -0.8200 H     1 <1>   0.0800 
 31 H       -4.4990    -4.8040    -0.3000 H     1 <1>   0.0800 
 32 H       -5.4010    -3.0190     3.0300 H     1 <1>   0.0800 
 33 H       -5.6410    -4.0890     1.6780 H     1 <1>   0.0800 
 34 H       -6.6100    -1.5150     1.1300 H     1 <1>   0.4000 
 35 H       -8.0240    -1.8460    -0.5970 H     1 <1>   0.1500 
 36 H       -8.0010    -4.4930     2.7100 H     1 <1>   0.1500 
 37 H       -9.7970    -5.8030     1.6910 H     1 <1>   0.1500 
 38 H       -9.4780    -2.1110    -2.3920 H     1 <1>   0.0800 
 39 H      -11.0340    -2.7610    -1.9560 H     1 <1>   0.0800 
 40 H       -9.8590    -3.7670    -2.7770 H     1 <1>   0.0800 
 41 H      -11.9390    -4.7970    -0.7940 H     1 <1>   0.0800 
 42 H      -11.3170    -6.2300    -0.0210 H     1 <1>   0.0800 
 43 H      -10.7550    -5.7960    -1.6120 H     1 <1>   0.0800 
@<TRIPOS>BOND
  1   1   2  1   
  2   1   3  1   
  3   2   4  ar  
  4   2   5  ar  
  5   3  21  1   
  6   3  22  1   
  7   3  23  1   
  8   4   6  ar  
  9   4   7  1   
 10   5   8  ar  
 11   5  24  1   
 12   6   9  ar  
 13   6  25  1   
 14   7  26  1   
 15   7  27  1   
 16   7  28  1   
 17   8   9  ar  
 18   8  10  1   
 19   9  11  1   
 20  10  29  1   
 21  10  30  1   
 22  10  31  1   
 23  11  12  1   
 24  11  32  1   
 25  11  33  1   
 26  12  13  1   
 27  12  34  1   
 28  13  14  ar  
 29  13  15  ar  
 30  14  16  ar  
 31  14  35  1   
 32  15  17  ar  
 33  15  36  1   
 34  16  18  ar  
 35  16  19  1   
 36  17  18  ar  
 37  17  37  1   
 38  18  20  1   
 39  19  38  1   
 40  19  39  1   
 41  19  40  1   
 42  20  41  1   
 43  20  42  1   
 44  20  43  1   
@<TRIPOS>SUBSTRUCTURE
  1 ****   9 GROUP 4 **** **** 0

# MOE 2024.06 (io_trps.svl 2023.06)
