@<TRIPOS>MOLECULE
NONAME
33 34 1 0 0 
SMALL
USER_CHARGES


@<TRIPOS>ATOM
  1 BR       0.9070     0.5730     1.7210 Br    1 <1>  -0.1110 
  2 C        2.3110    -0.6100     1.1380 C.ar  1 <1>   0.1110 
  3 C        2.8660    -1.4860     2.0510 C.ar  1 <1>  -0.1500 
  4 C        2.7280    -0.5530    -0.1780 C.ar  1 <1>  -0.1500 
  5 C        3.8760    -2.3310     1.6260 C.ar  1 <1>  -0.1500 
  6 C        3.7360    -1.4060    -0.5900 C.ar  1 <1>  -0.1500 
  7 C        4.3220    -2.2970     0.3060 C.ar  1 <1>   0.1170 
  8 N        5.3480    -3.1600    -0.1130 N.am  1 <1>  -0.4770 
  9 C        5.1180    -4.4480    -0.5400 C.2   1 <1>   0.5690 
 10 C        6.7600    -2.6790    -0.1070 C.3   1 <1>   0.3580 
 11 O        6.0270    -5.1550    -0.9080 O.2   1 <1>  -0.5700 
 12 C        3.6900    -4.9930    -0.5590 C.3   1 <1>  -0.0990 
 13 C        6.9290    -1.4360     0.7580 C.2   1 <1>  -0.2880 
 14 C        7.2220    -2.3210    -1.5350 C.3   1 <1>  -0.0550 
 15 C        3.5470    -6.4140    -1.1320 C.3   1 <1>  -0.2400 
 16 C        7.2150    -0.3310     0.0760 C.2   1 <1>  -0.1670 
 17 S        7.3360    -0.5450    -1.6800 S.o2  1 <1>   1.2120 
 18 O        8.6610    -0.1830    -2.1260 O.2   1 <1>  -0.6500 
 19 O        6.1490    -0.0270    -2.3190 O.2   1 <1>  -0.6500 
 20 H        2.5140    -1.5020     3.0680 H     1 <1>   0.1500 
 21 H        2.2750     0.1430    -0.8630 H     1 <1>   0.1500 
 22 H        4.3240    -3.0220     2.3180 H     1 <1>   0.1500 
 23 H        4.0710    -1.3770    -1.6120 H     1 <1>   0.1500 
 24 H        7.3920    -3.4610     0.2800 H     1 <1>   0.0800 
 25 H        3.0800    -4.3280    -1.1420 H     1 <1>   0.0800 
 26 H        3.3140    -4.9900     0.4480 H     1 <1>   0.0800 
 27 H        6.7960    -1.5460     1.8210 H     1 <1>   0.1500 
 28 H        6.5670    -2.7340    -2.2770 H     1 <1>   0.0800 
 29 H        8.1980    -2.7390    -1.6790 H     1 <1>   0.0800 
 30 H        3.8980    -6.4420    -2.1490 H     1 <1>   0.0800 
 31 H        2.5170    -6.7230    -1.1140 H     1 <1>   0.0800 
 32 H        4.1270    -7.1100    -0.5520 H     1 <1>   0.0800 
 33 H        7.3670     0.6580     0.4610 H     1 <1>   0.1500 
@<TRIPOS>BOND
  1   1   2  1   
  2   2   3  ar  
  3   2   4  ar  
  4   3   5  ar  
  5   3  20  1   
  6   4   6  ar  
  7   4  21  1   
  8   5   7  ar  
  9   5  22  1   
 10   6   7  ar  
 11   6  23  1   
 12   7   8  1   
 13   8   9  am  
 14   8  10  1   
 15   9  11  2   
 16   9  12  1   
 17  10  13  1   
 18  10  14  1   
 19  10  24  1   
 20  12  15  1   
 21  12  25  1   
 22  12  26  1   
 23  13  16  2   
 24  13  27  1   
 25  14  17  1   
 26  14  28  1   
 27  14  29  1   
 28  15  30  1   
 29  15  31  1   
 30  15  32  1   
 31  16  17  1   
 32  16  33  1   
 33  17  18  2   
 34  17  19  2   
@<TRIPOS>SUBSTRUCTURE
  1 ****   7 GROUP 4 **** **** 0

# MOE 2024.06 (io_trps.svl 2023.06)
