@<TRIPOS>MOLECULE
NONAME
47 48 1 0 0 
SMALL
USER_CHARGES


@<TRIPOS>ATOM
  1 O        0.1960    -2.1740    -2.3440 O.2   1 <1>  -0.5700 
  2 C        0.5600    -2.3670    -1.2000 C.2   1 <1>   0.5440 
  3 N       -0.3680    -2.7940    -0.2800 N.am  1 <1>  -0.6600 
  4 C        1.9480    -2.1880    -0.8220 C.ar  1 <1>   0.0860 
  5 C       -1.7920    -2.2960    -0.3550 C.3   1 <1>   0.2810 
  6 C       -0.1530    -4.0990     0.3980 C.3   1 <1>   0.1400 
  7 C        2.9850    -2.5310    -1.6850 C.ar  1 <1>  -0.1500 
  8 C        2.2870    -1.6690     0.4260 C.ar  1 <1>  -0.1500 
  9 C       -1.9380    -0.8560    -0.8930 C.2   1 <1>   0.6590 
 10 C       -2.4510    -2.3800     1.0380 C.3   1 <1>  -0.1600 
 11 C       -0.7910    -4.1020     1.7870 C.3   1 <1>  -0.1600 
 12 C        4.3120    -2.3900    -1.3240 C.ar  1 <1>   0.0820 
 13 C        3.6120    -1.4990     0.8100 C.ar  1 <1>   0.0820 
 14 O       -1.3830     0.0880    -0.3800 O.2   1 <1>  -0.5700 
 15 O       -2.7500    -0.7040    -1.9370 O.3   1 <1>  -0.4300 
 16 C       -2.2790    -3.7490     1.7080 C.3   1 <1>  -0.1600 
 17 O        5.2260    -2.7880    -2.2510 O.3   1 <1>  -0.3630 
 18 C        4.6360    -1.8550    -0.0710 C.ar  1 <1>   0.0830 
 19 O        3.9550    -0.9880     2.0290 O.3   1 <1>  -0.3630 
 20 C       -2.9270     0.5500    -2.5590 C.3   1 <1>   0.0400 
 21 C        6.3510    -3.5360    -1.8410 C.3   1 <1>   0.0400 
 22 O        5.9300    -1.6670     0.2930 O.3   1 <1>  -0.3620 
 23 C        2.9850    -0.4900     2.9240 C.3   1 <1>   0.0400 
 24 C        6.4180    -0.3530     0.1510 C.3   1 <1>   0.0400 
 25 H       -2.3250    -2.9450    -1.0260 H     1 <1>   0.0800 
 26 H        0.9010    -4.3040     0.4840 H     1 <1>   0.0800 
 27 H       -0.5940    -4.8770    -0.2040 H     1 <1>   0.0800 
 28 H        2.7470    -2.9210    -2.6590 H     1 <1>   0.1500 
 29 H        1.4800    -1.3970     1.0790 H     1 <1>   0.1500 
 30 H       -3.5000    -2.1590     0.9430 H     1 <1>   0.0800 
 31 H       -2.0200    -1.6220     1.6690 H     1 <1>   0.0800 
 32 H       -0.2760    -3.3940     2.4130 H     1 <1>   0.0800 
 33 H       -0.6740    -5.0760     2.2280 H     1 <1>   0.0800 
 34 H       -2.8010    -4.5000     1.1390 H     1 <1>   0.0800 
 35 H       -2.7010    -3.7250     2.6980 H     1 <1>   0.0800 
 36 H       -3.6160     0.4320    -3.3760 H     1 <1>   0.0800 
 37 H       -1.9730     0.8900    -2.9240 H     1 <1>   0.0800 
 38 H       -3.3190     1.2460    -1.8370 H     1 <1>   0.0800 
 39 H        6.7010    -4.1030    -2.6830 H     1 <1>   0.0800 
 40 H        6.0640    -4.1970    -1.0420 H     1 <1>   0.0800 
 41 H        7.1190    -2.8590    -1.5150 H     1 <1>   0.0800 
 42 H        3.4960    -0.0960     3.7840 H     1 <1>   0.0800 
 43 H        2.3380    -1.2960     3.2230 H     1 <1>   0.0800 
 44 H        2.4290     0.2930     2.4390 H     1 <1>   0.0800 
 45 H        7.4510    -0.3450     0.4480 H     1 <1>   0.0800 
 46 H        5.8480     0.3030     0.7840 H     1 <1>   0.0800 
 47 H        6.3240    -0.0580    -0.8790 H     1 <1>   0.0800 
@<TRIPOS>BOND
  1   1   2  2   
  2   2   3  am  
  3   2   4  1   
  4   3   5  1   
  5   3   6  1   
  6   4   7  ar  
  7   4   8  ar  
  8   5   9  1   
  9   5  10  1   
 10   5  25  1   
 11   6  11  1   
 12   6  26  1   
 13   6  27  1   
 14   7  12  ar  
 15   7  28  1   
 16   8  13  ar  
 17   8  29  1   
 18   9  14  2   
 19   9  15  1   
 20  10  16  1   
 21  10  30  1   
 22  10  31  1   
 23  11  16  1   
 24  11  32  1   
 25  11  33  1   
 26  12  17  1   
 27  12  18  ar  
 28  13  18  ar  
 29  13  19  1   
 30  15  20  1   
 31  16  34  1   
 32  16  35  1   
 33  17  21  1   
 34  18  22  1   
 35  19  23  1   
 36  20  36  1   
 37  20  37  1   
 38  20  38  1   
 39  21  39  1   
 40  21  40  1   
 41  21  41  1   
 42  22  24  1   
 43  23  42  1   
 44  23  43  1   
 45  23  44  1   
 46  24  45  1   
 47  24  46  1   
 48  24  47  1   
@<TRIPOS>SUBSTRUCTURE
  1 ****   4 GROUP 4 **** **** 0

# MOE 2024.06 (io_trps.svl 2023.06)
