@<TRIPOS>MOLECULE
NONAME
45 47 1 0 0 
SMALL
USER_CHARGES


@<TRIPOS>ATOM
  1 S       -2.7850    -0.0440    -1.7350 S.3   1 <1>  -0.0800 
  2 C       -2.7530    -0.7290    -0.1430 C.2   1 <1>   0.4420 
  3 C       -1.7470     1.2030    -1.1370 C.2   1 <1>   0.1980 
  4 N       -2.0330    -0.0430     0.6670 N.2   1 <1>  -0.3380 
  5 N       -3.4840    -1.8830     0.0470 N.am  1 <1>  -0.4940 
  6 N       -1.4610     1.0590     0.0920 N.2   1 <1>  -0.3380 
  7 C       -1.3060     2.2860    -2.0950 C.3   1 <1>  -0.0600 
  8 C       -3.6530    -2.6290     1.1780 C.2   1 <1>   0.5690 
  9 O       -3.1760    -2.3560     2.2480 O.2   1 <1>  -0.5700 
 10 C       -4.5430    -3.8690     1.0730 C.3   1 <1>   0.1710 
 11 N       -5.9210    -3.5940     0.5570 N.3   1 <1>  -0.8100 
 12 C       -6.6850    -4.8600     0.4330 C.3   1 <1>   0.1100 
 13 C       -6.6350    -2.6550     1.4710 C.3   1 <1>   0.1100 
 14 C       -8.1300    -4.6420    -0.0830 C.3   1 <1>   0.3430 
 15 C       -8.1360    -2.4820     1.1300 C.3   1 <1>   0.3430 
 16 N       -8.4890    -3.1880    -0.1460 N.4   1 <1>  -0.9590 
 17 C       -9.8820    -2.9380    -0.6010 C.3   1 <1>   0.4860 
 18 C      -10.0740    -1.4460    -0.7900 C.ar  1 <1>  -0.1440 
 19 C       -9.4910    -0.7930    -1.8670 C.ar  1 <1>  -0.1500 
 20 C      -10.8320    -0.7210     0.1190 C.ar  1 <1>  -0.1500 
 21 C       -9.6550     0.5710    -2.0260 C.ar  1 <1>  -0.1500 
 22 C      -10.9960     0.6440    -0.0430 C.ar  1 <1>  -0.1500 
 23 C      -10.4060     1.2900    -1.1140 C.ar  1 <1>  -0.1500 
 24 H       -4.0000    -2.2110    -0.7630 H     1 <1>   0.3700 
 25 H       -0.7550     1.8520    -2.9090 H     1 <1>   0.0800 
 26 H       -0.6740     2.9890    -1.5810 H     1 <1>   0.0800 
 27 H       -2.1630     2.8050    -2.4810 H     1 <1>   0.0800 
 28 H       -4.6020    -4.3200     2.0490 H     1 <1>   0.0800 
 29 H       -4.0510    -4.5690     0.4220 H     1 <1>   0.0800 
 30 H       -6.7310    -5.3510     1.3920 H     1 <1>   0.0800 
 31 H       -6.1740    -5.5260    -0.2420 H     1 <1>   0.0800 
 32 H       -6.1650    -1.6860     1.4260 H     1 <1>   0.0800 
 33 H       -6.5520    -2.9960     2.4900 H     1 <1>   0.0800 
 34 H       -8.8130    -5.1650     0.5660 H     1 <1>   0.0800 
 35 H       -8.2160    -5.0790    -1.0650 H     1 <1>   0.0800 
 36 H       -8.3520    -1.4290     1.0450 H     1 <1>   0.0800 
 37 H       -8.7280    -2.8710     1.9410 H     1 <1>   0.0800 
 38 H       -7.8480    -2.7750    -0.8360 H     1 <1>   0.4500 
 39 H      -10.5850    -3.3080     0.1270 H     1 <1>   0.0800 
 40 H      -10.0640    -3.4400    -1.5380 H     1 <1>   0.0800 
 41 H       -8.9090    -1.3320    -2.5960 H     1 <1>   0.1500 
 42 H      -11.3080    -1.2020     0.9570 H     1 <1>   0.1500 
 43 H       -9.2040     1.0790    -2.8630 H     1 <1>   0.1500 
 44 H      -11.5860     1.2070     0.6610 H     1 <1>   0.1500 
 45 H      -10.5360     2.3520    -1.2400 H     1 <1>   0.1500 
@<TRIPOS>BOND
  1   1   2  1   
  2   1   3  1   
  3   2   4  2   
  4   2   5  1   
  5   3   6  2   
  6   3   7  1   
  7   4   6  1   
  8   5   8  am  
  9   5  24  1   
 10   7  25  1   
 11   7  26  1   
 12   7  27  1   
 13   8   9  2   
 14   8  10  1   
 15  10  11  1   
 16  10  28  1   
 17  10  29  1   
 18  11  12  1   
 19  11  13  1   
 20  12  14  1   
 21  12  30  1   
 22  12  31  1   
 23  13  15  1   
 24  13  32  1   
 25  13  33  1   
 26  14  16  1   
 27  14  34  1   
 28  14  35  1   
 29  15  16  1   
 30  15  36  1   
 31  15  37  1   
 32  16  17  1   
 33  16  38  1   
 34  17  18  1   
 35  17  39  1   
 36  17  40  1   
 37  18  19  ar  
 38  18  20  ar  
 39  19  21  ar  
 40  19  41  1   
 41  20  22  ar  
 42  20  42  1   
 43  21  23  ar  
 44  21  43  1   
 45  22  23  ar  
 46  22  44  1   
 47  23  45  1   
@<TRIPOS>SUBSTRUCTURE
  1 ****  13 GROUP 4 **** **** 0

# MOE 2024.06 (io_trps.svl 2023.06)
