@<TRIPOS>MOLECULE
NONAME
23 23 1 0 0 
SMALL
USER_CHARGES


@<TRIPOS>ATOM
  1 O       -0.0530    -0.3680    -0.0420 O.3   1 <1>  -0.3630 
  2 C       -0.0260    -1.7110     0.0010 C.ar  1 <1>   0.7020 
  3 C        1.1270     0.4060    -0.1240 C.3   1 <1>   0.0400 
  4 N        1.1360    -2.3110    -0.0130 N.ar  1 <1>  -0.6200 
  5 N       -1.1970    -2.2800     0.0560 N.ar  1 <1>  -0.6200 
  6 C        1.0590    -3.6210     0.0320 C.ar  1 <1>   0.7200 
  7 C       -1.1220    -3.5760     0.0880 C.ar  1 <1>   0.7200 
  8 N       -0.0530    -4.3100     0.0890 N.ar  1 <1>  -0.6200 
  9 N        2.2450    -4.3250     0.0210 N.pl3 1 <1>  -0.8380 
 10 N       -2.2850    -4.2260     0.1510 N.pl3 1 <1>  -0.9000 
 11 C        3.5630    -3.6780     0.2770 C.3   1 <1>   0.1290 
 12 C        2.2990    -5.7870    -0.2670 C.3   1 <1>   0.1290 
 13 H        0.8480     1.4440    -0.1530 H     1 <1>   0.0800 
 14 H        1.6570     0.1390    -1.0220 H     1 <1>   0.0800 
 15 H        1.7330     0.2100     0.7440 H     1 <1>   0.0800 
 16 H       -2.2490    -5.1900     0.4690 H     1 <1>   0.4000 
 17 H       -3.0960    -3.6740     0.4190 H     1 <1>   0.4000 
 18 H        3.4440    -2.7970     0.8840 H     1 <1>   0.0800 
 19 H        4.0160    -3.4010    -0.6590 H     1 <1>   0.0800 
 20 H        4.2130    -4.3590     0.7980 H     1 <1>   0.0800 
 21 H        1.4550    -6.0880    -0.8650 H     1 <1>   0.0800 
 22 H        2.2860    -6.3360     0.6580 H     1 <1>   0.0800 
 23 H        3.1970    -6.0240    -0.8090 H     1 <1>   0.0800 
@<TRIPOS>BOND
  1   1   2  1   
  2   1   3  1   
  3   2   4  ar  
  4   2   5  ar  
  5   3  13  1   
  6   3  14  1   
  7   3  15  1   
  8   4   6  ar  
  9   5   7  ar  
 10   6   8  ar  
 11   6   9  1   
 12   7   8  ar  
 13   7  10  1   
 14   9  11  1   
 15   9  12  1   
 16  10  16  1   
 17  10  17  1   
 18  11  18  1   
 19  11  19  1   
 20  11  20  1   
 21  12  21  1   
 22  12  22  1   
 23  12  23  1   
@<TRIPOS>SUBSTRUCTURE
  1 ****   6 GROUP 4 **** **** 0

# MOE 2024.06 (io_trps.svl 2023.06)
