@<TRIPOS>MOLECULE
NONAME
48 49 1 0 0 
SMALL
USER_CHARGES


@<TRIPOS>ATOM
  1 S        0.7500    -0.2900     1.6710 S.o2  1 <1>   1.4470 
  2 O        1.6640    -0.9680     2.5600 O.2   1 <1>  -0.6500 
  3 O        0.1660     0.9790     2.0360 O.2   1 <1>  -0.6500 
  4 N        1.5930     0.0700     0.2660 N.am  1 <1>  -0.9140 
  5 C       -0.5290    -1.4410     1.0970 C.ar  1 <1>  -0.0090 
  6 C        2.9490     0.5490     0.5340 C.3   1 <1>   0.1960 
  7 C       -1.8670    -1.2520     1.4110 C.ar  1 <1>  -0.1500 
  8 C       -0.1960    -2.5560     0.3370 C.ar  1 <1>  -0.1500 
  9 C        3.6500     0.9140    -0.7750 C.3   1 <1>   0.1200 
 10 C       -2.8720    -2.1210     0.9880 C.ar  1 <1>   0.0860 
 11 C       -1.1640    -3.4420    -0.0950 C.ar  1 <1>  -0.1500 
 12 O        4.9000     1.4480    -0.4730 O.3   1 <1>  -0.5600 
 13 C       -2.5020    -3.2350     0.2260 C.ar  1 <1>   0.0830 
 14 C       -4.2430    -1.8500     1.3680 C.2   1 <1>   0.5440 
 15 C        5.6550     1.7890    -1.5900 C.3   1 <1>   0.0400 
 16 O       -3.4770    -4.0850    -0.1750 O.3   1 <1>  -0.3620 
 17 O       -4.5240    -1.8640     2.5530 O.2   1 <1>  -0.5700 
 18 N       -5.2230    -1.5210     0.4490 N.am  1 <1>  -0.6600 
 19 C       -3.2070    -5.3270    -0.7860 C.3   1 <1>   0.0400 
 20 C       -6.6430    -1.3170     0.8540 C.3   1 <1>   0.1400 
 21 C       -4.9800    -1.3880    -1.0140 C.3   1 <1>   0.1400 
 22 C       -7.1220     0.0610     0.3890 C.3   1 <1>  -0.1600 
 23 C       -5.4510    -0.0110    -1.4960 C.3   1 <1>  -0.1600 
 24 C       -6.9160     0.2520    -1.1200 C.3   1 <1>  -0.1600 
 25 H        1.0730     0.8640    -0.1030 H     1 <1>   0.4200 
 26 H        3.5170    -0.2240     1.0260 H     1 <1>   0.0800 
 27 H        2.9100     1.4150     1.1740 H     1 <1>   0.0800 
 28 H       -2.1530    -0.4030     2.0100 H     1 <1>   0.1500 
 29 H        0.8380    -2.7280     0.0860 H     1 <1>   0.1500 
 30 H        3.0860     1.6560    -1.3120 H     1 <1>   0.0800 
 31 H        3.7880     0.0340    -1.3790 H     1 <1>   0.0800 
 32 H       -0.8550    -4.2890    -0.6790 H     1 <1>   0.1500 
 33 H        6.5930     2.1910    -1.2490 H     1 <1>   0.0800 
 34 H        5.1290     2.5330    -2.1630 H     1 <1>   0.0800 
 35 H        5.8330     0.9080    -2.1820 H     1 <1>   0.0800 
 36 H       -4.1430    -5.8360    -0.9320 H     1 <1>   0.0800 
 37 H       -2.5740    -5.9060    -0.1370 H     1 <1>   0.0800 
 38 H       -2.7340    -5.1550    -1.7370 H     1 <1>   0.0800 
 39 H       -6.7530    -1.3930     1.9230 H     1 <1>   0.0800 
 40 H       -7.2460    -2.0870     0.4050 H     1 <1>   0.0800 
 41 H       -5.5240    -2.1630    -1.5260 H     1 <1>   0.0800 
 42 H       -3.9380    -1.5040    -1.2460 H     1 <1>   0.0800 
 43 H       -6.5760     0.8140     0.9300 H     1 <1>   0.0800 
 44 H       -8.1640     0.1740     0.6300 H     1 <1>   0.0800 
 45 H       -5.3360     0.0500    -2.5630 H     1 <1>   0.0800 
 46 H       -4.8240     0.7430    -1.0540 H     1 <1>   0.0800 
 47 H       -7.1920     1.2530    -1.4020 H     1 <1>   0.0800 
 48 H       -7.5510    -0.4330    -1.6560 H     1 <1>   0.0800 
@<TRIPOS>BOND
  1   1   2  2   
  2   1   3  2   
  3   1   4  am  
  4   1   5  1   
  5   4   6  1   
  6   4  25  1   
  7   5   7  ar  
  8   5   8  ar  
  9   6   9  1   
 10   6  26  1   
 11   6  27  1   
 12   7  10  ar  
 13   7  28  1   
 14   8  11  ar  
 15   8  29  1   
 16   9  12  1   
 17   9  30  1   
 18   9  31  1   
 19  10  13  ar  
 20  10  14  1   
 21  11  13  ar  
 22  11  32  1   
 23  12  15  1   
 24  13  16  1   
 25  14  17  2   
 26  14  18  am  
 27  15  33  1   
 28  15  34  1   
 29  15  35  1   
 30  16  19  1   
 31  18  20  1   
 32  18  21  1   
 33  19  36  1   
 34  19  37  1   
 35  19  38  1   
 36  20  22  1   
 37  20  39  1   
 38  20  40  1   
 39  21  23  1   
 40  21  41  1   
 41  21  42  1   
 42  22  24  1   
 43  22  43  1   
 44  22  44  1   
 45  23  24  1   
 46  23  45  1   
 47  23  46  1   
 48  24  47  1   
 49  24  48  1   
@<TRIPOS>SUBSTRUCTURE
  1 ****   7 GROUP 4 **** **** 0

# MOE 2024.06 (io_trps.svl 2023.06)
