@<TRIPOS>MOLECULE
NONAME
31 31 1 0 0 
SMALL
USER_CHARGES


@<TRIPOS>ATOM
  1 S        0.0450     0.0640    -0.7000 S.o2  1 <1>   1.3830 
  2 O        0.3120     1.4090    -0.2240 O.2   1 <1>  -0.6500 
  3 O       -0.0680    -0.1750    -2.1220 O.2   1 <1>  -0.6500 
  4 N        1.2130    -0.9560    -0.0810 N.2   1 <1>  -0.6380 
  5 C       -1.4480    -0.5460     0.1000 C.3   1 <1>  -0.0550 
  6 C        2.4270    -0.6080    -0.2710 C.2   1 <1>   0.4860 
  7 C       -2.7330     0.2150    -0.2730 C.3   1 <1>  -0.2400 
  8 N        2.9180     0.5250    -0.8490 N.pl3 1 <1>  -0.4710 
  9 C        3.5800    -1.3120     0.1470 C.2   1 <1>  -0.1360 
 10 O        4.2920     0.5540    -0.7550 O.3   1 <1>  -0.0560 
 11 C        4.6620    -0.5700    -0.1560 C.2   1 <1>  -0.0620 
 12 C        6.1550    -0.8170     0.0660 C.3   1 <1>   0.1380 
 13 C        6.7330     0.3010     0.9420 C.3   1 <1>  -0.2400 
 14 C        6.3810    -2.1640     0.7670 C.3   1 <1>  -0.2400 
 15 C        6.8770    -0.8350    -1.2870 C.3   1 <1>  -0.2400 
 16 H       -1.3160    -0.4920     1.1630 H     1 <1>   0.0800 
 17 H       -1.5770    -1.5800    -0.1570 H     1 <1>   0.0800 
 18 H       -2.6430     1.2530     0.0000 H     1 <1>   0.0800 
 19 H       -3.5790    -0.2060     0.2400 H     1 <1>   0.0800 
 20 H       -2.9050     0.1530    -1.3340 H     1 <1>   0.0800 
 21 H        2.4130     1.4190    -0.7850 H     1 <1>   0.4000 
 22 H        3.5210    -2.2700     0.6250 H     1 <1>   0.1500 
 23 H        6.2210     0.3360     1.8870 H     1 <1>   0.0800 
 24 H        6.6170     1.2560     0.4600 H     1 <1>   0.0800 
 25 H        7.7810     0.1380     1.1240 H     1 <1>   0.0800 
 26 H        7.4310    -2.3360     0.9230 H     1 <1>   0.0800 
 27 H        5.8910    -2.1770     1.7240 H     1 <1>   0.0800 
 28 H        5.9920    -2.9690     0.1690 H     1 <1>   0.0800 
 29 H        6.7620     0.1100    -1.7880 H     1 <1>   0.0800 
 30 H        6.4660    -1.6020    -1.9170 H     1 <1>   0.0800 
 31 H        7.9280    -1.0230    -1.1550 H     1 <1>   0.0800 
@<TRIPOS>BOND
  1   1   2  2   
  2   1   3  2   
  3   1   4  1   
  4   1   5  1   
  5   4   6  2   
  6   5   7  1   
  7   5  16  1   
  8   5  17  1   
  9   6   8  1   
 10   6   9  1   
 11   7  18  1   
 12   7  19  1   
 13   7  20  1   
 14   8  10  1   
 15   8  21  1   
 16   9  11  2   
 17   9  22  1   
 18  10  11  1   
 19  11  12  1   
 20  12  13  1   
 21  12  14  1   
 22  12  15  1   
 23  13  23  1   
 24  13  24  1   
 25  13  25  1   
 26  14  26  1   
 27  14  27  1   
 28  14  28  1   
 29  15  29  1   
 30  15  30  1   
 31  15  31  1   
@<TRIPOS>SUBSTRUCTURE
  1 ****   6 GROUP 4 **** **** 0

# MOE 2024.06 (io_trps.svl 2023.06)
