@<TRIPOS>MOLECULE
NONAME
26 26 1 0 0 
SMALL
USER_CHARGES


@<TRIPOS>ATOM
  1 BR       0.1460     0.0190     0.9450 Br    1 <1>  -0.1110 
  2 C       -1.4690    -0.8280     0.3220 C.ar  1 <1>   0.1110 
  3 C       -1.5980    -2.1960     0.4580 C.ar  1 <1>  -0.1500 
  4 C       -2.4510    -0.0460    -0.2470 C.ar  1 <1>  -0.1500 
  5 C       -2.7580    -2.8220     0.0160 C.ar  1 <1>  -0.1440 
  6 C       -3.6030    -0.6670    -0.6890 C.ar  1 <1>  -0.1500 
  7 C       -3.7750    -2.0440    -0.5580 C.ar  1 <1>   0.1990 
  8 C       -2.9510    -4.3400     0.1430 C.3   1 <1>  -0.0160 
  9 N       -4.9510    -2.6430    -0.9980 N.am  1 <1>  -0.7570 
 10 C       -1.8420    -5.0960     0.8860 C.3   1 <1>  -0.2400 
 11 S       -6.5590    -2.0970    -0.7650 S.o2  1 <1>   1.3330 
 12 O       -7.3670    -3.2260    -1.1490 O.2   1 <1>  -0.6500 
 13 O       -6.7010    -0.8090    -1.3930 O.2   1 <1>  -0.6500 
 14 C       -6.6410    -1.9190     1.0040 C.3   1 <1>  -0.1350 
 15 H       -0.7850    -2.7350     0.9050 H     1 <1>   0.1500 
 16 H       -2.3150     1.0170    -0.3450 H     1 <1>   0.1500 
 17 H       -4.3700    -0.0710    -1.1510 H     1 <1>   0.1500 
 18 H       -3.0360    -4.7570    -0.8460 H     1 <1>   0.0800 
 19 H       -3.8770    -4.5280     0.6590 H     1 <1>   0.0800 
 20 H       -4.9490    -3.6420    -1.1730 H     1 <1>   0.4200 
 21 H       -0.9060    -5.0010     0.3650 H     1 <1>   0.0800 
 22 H       -2.0890    -6.1410     0.9440 H     1 <1>   0.0800 
 23 H       -1.7330    -4.7180     1.8870 H     1 <1>   0.0800 
 24 H       -6.4100    -2.8490     1.4830 H     1 <1>   0.0800 
 25 H       -7.6270    -1.6160     1.2960 H     1 <1>   0.0800 
 26 H       -5.9420    -1.1750     1.3340 H     1 <1>   0.0800 
@<TRIPOS>BOND
  1   1   2  1   
  2   2   3  ar  
  3   2   4  ar  
  4   3   5  ar  
  5   3  15  1   
  6   4   6  ar  
  7   4  16  1   
  8   5   7  ar  
  9   5   8  1   
 10   6   7  ar  
 11   6  17  1   
 12   7   9  1   
 13   8  10  1   
 14   8  18  1   
 15   8  19  1   
 16   9  11  am  
 17   9  20  1   
 18  10  21  1   
 19  10  22  1   
 20  10  23  1   
 21  11  12  2   
 22  11  13  2   
 23  11  14  1   
 24  14  24  1   
 25  14  25  1   
 26  14  26  1   
@<TRIPOS>SUBSTRUCTURE
  1 ****   7 GROUP 4 **** **** 0

# MOE 2024.06 (io_trps.svl 2023.06)
