@<TRIPOS>MOLECULE
NONAME
45 46 1 0 0 
SMALL
USER_CHARGES


@<TRIPOS>ATOM
  1 O        9.6350     0.7130     1.4450 O.3   1 <1>  -0.5600 
  2 C       10.1220     2.0280     1.4310 C.3   1 <1>   0.1200 
  3 C        9.3300     0.2040     0.1750 C.3   1 <1>   0.1200 
  4 C        9.1180     2.9840     0.7450 C.3   1 <1>   0.3430 
  5 C        8.2460     1.0650    -0.5140 C.3   1 <1>   0.3430 
  6 N        7.8650     2.2520     0.3380 N.4   1 <1>  -0.9590 
  7 C        6.8360     3.1580    -0.2440 C.3   1 <1>   0.3430 
  8 C        5.4580     2.4770    -0.2720 C.3   1 <1>  -0.1600 
  9 C        4.3670     3.4500    -0.7380 C.3   1 <1>   0.3430 
 10 N        3.0450     2.7720    -0.7230 N.4   1 <1>  -0.9060 
 11 C        1.9300     3.6480    -1.1290 C.3   1 <1>   0.4810 
 12 C        0.6860     2.8310    -0.9150 C.2   1 <1>  -0.2880 
 13 C       -0.2050     3.0340     0.0720 C.2   1 <1>  -0.1780 
 14 C       -1.4150     2.2870     0.3390 C.ar  1 <1>   0.0280 
 15 C       -2.0520     2.4150     1.5710 C.ar  1 <1>  -0.1500 
 16 C       -1.9880     1.4270    -0.5970 C.ar  1 <1>  -0.1500 
 17 C       -3.2050     1.7090     1.8640 C.ar  1 <1>  -0.1500 
 18 C       -3.1410     0.7180    -0.3100 C.ar  1 <1>  -0.1500 
 19 C       -3.7520     0.8570     0.9230 C.ar  1 <1>  -0.1500 
 20 H       10.2840     2.3270     2.4530 H     1 <1>   0.0800 
 21 H       11.0730     2.0410     0.9250 H     1 <1>   0.0800 
 22 H       10.2320     0.1770    -0.4130 H     1 <1>   0.0800 
 23 H        8.9820    -0.8070     0.3000 H     1 <1>   0.0800 
 24 H        9.5890     3.4240    -0.1180 H     1 <1>   0.0800 
 25 H        8.8790     3.7840     1.4280 H     1 <1>   0.0800 
 26 H        7.3830     0.4460    -0.6990 H     1 <1>   0.0800 
 27 H        8.6200     1.3970    -1.4690 H     1 <1>   0.0800 
 28 H        7.5350     1.8350     1.2250 H     1 <1>   0.4500 
 29 H        6.7740     4.0500     0.3600 H     1 <1>   0.0800 
 30 H        7.1310     3.4500    -1.2400 H     1 <1>   0.0800 
 31 H        5.4890     1.6380    -0.9450 H     1 <1>   0.0800 
 32 H        5.2210     2.1350     0.7200 H     1 <1>   0.0800 
 33 H        4.5860     3.7960    -1.7370 H     1 <1>   0.0800 
 34 H        4.3400     4.3070    -0.0820 H     1 <1>   0.0800 
 35 H        2.8030     2.4260     0.2160 H     1 <1>   0.4500 
 36 H        3.0280     1.9500    -1.3380 H     1 <1>   0.4500 
 37 H        1.8980     4.5300    -0.5070 H     1 <1>   0.0800 
 38 H        2.0170     3.9460    -2.1620 H     1 <1>   0.0800 
 39 H        0.5680     2.0470    -1.6440 H     1 <1>   0.1500 
 40 H       -0.0510     3.8330     0.7780 H     1 <1>   0.1500 
 41 H       -1.6450     3.0720     2.3190 H     1 <1>   0.1500 
 42 H       -1.5440     1.3070    -1.5660 H     1 <1>   0.1500 
 43 H       -3.6790     1.8220     2.8230 H     1 <1>   0.1500 
 44 H       -3.5680     0.0590    -1.0460 H     1 <1>   0.1500 
 45 H       -4.6490     0.3060     1.1480 H     1 <1>   0.1500 
@<TRIPOS>BOND
  1   1   2  1   
  2   1   3  1   
  3   2   4  1   
  4   2  20  1   
  5   2  21  1   
  6   3   5  1   
  7   3  22  1   
  8   3  23  1   
  9   4   6  1   
 10   4  24  1   
 11   4  25  1   
 12   5   6  1   
 13   5  26  1   
 14   5  27  1   
 15   6   7  1   
 16   6  28  1   
 17   7   8  1   
 18   7  29  1   
 19   7  30  1   
 20   8   9  1   
 21   8  31  1   
 22   8  32  1   
 23   9  10  1   
 24   9  33  1   
 25   9  34  1   
 26  10  11  1   
 27  10  35  1   
 28  10  36  1   
 29  11  12  1   
 30  11  37  1   
 31  11  38  1   
 32  12  13  2   
 33  12  39  1   
 34  13  14  1   
 35  13  40  1   
 36  14  15  ar  
 37  14  16  ar  
 38  15  17  ar  
 39  15  41  1   
 40  16  18  ar  
 41  16  42  1   
 42  17  19  ar  
 43  17  43  1   
 44  18  19  ar  
 45  18  44  1   
 46  19  45  1   
@<TRIPOS>SUBSTRUCTURE
  1 ****  10 GROUP 4 **** **** 0

# MOE 2024.06 (io_trps.svl 2023.06)
