@<TRIPOS>MOLECULE
NONAME
35 36 1 0 0 
SMALL
USER_CHARGES


@<TRIPOS>ATOM
  1 O       -0.2780    -0.0960    -0.1270 O.2   1 <1>  -0.5700 
  2 C       -0.7460    -1.2030    -0.2450 C.2   1 <1>   0.6300 
  3 N       -0.0710    -2.3010     0.1550 N.am  1 <1>  -0.7300 
  4 C       -2.1140    -1.3970    -0.8900 C.3   1 <1>  -0.1000 
  5 C        1.2590    -2.2950     0.7790 C.3   1 <1>   0.3200 
  6 C       -3.3800    -0.7590    -0.3650 C.3   1 <1>  -0.1900 
  7 C       -3.2130    -2.2470    -0.2830 C.3   1 <1>  -0.1900 
  8 C        1.8950    -3.6570     0.5780 C.2   1 <1>  -0.0400 
  9 C       -4.3460    -0.1340    -1.3850 C.3   1 <1>  -0.1450 
 10 C       -3.3170     0.1240     0.8940 C.3   1 <1>  -0.1450 
 11 C       -3.0460    -2.9230     1.0900 C.3   1 <1>  -0.1450 
 12 C       -3.9850    -3.1820    -1.2270 C.3   1 <1>  -0.1450 
 13 O        1.2910    -4.7260     1.0680 O.3   1 <1>  -0.2800 
 14 C        3.0370    -4.0090    -0.0530 C.2   1 <1>  -0.1500 
 15 C        2.0300    -5.7750     0.7640 C.2   1 <1>  -0.0100 
 16 C        3.1250    -5.4010     0.0700 C.2   1 <1>  -0.1500 
 17 H       -0.4960    -3.2240     0.0630 H     1 <1>   0.3700 
 18 H       -2.0040    -1.4190    -1.9580 H     1 <1>   0.1000 
 19 H        1.1580    -2.0930     1.8310 H     1 <1>   0.0800 
 20 H        1.8680    -1.5270     0.3340 H     1 <1>   0.0800 
 21 H       -4.3040    -0.6280    -2.3370 H     1 <1>   0.0800 
 22 H       -4.0920     0.8990    -1.5480 H     1 <1>   0.0800 
 23 H       -5.3540    -0.1850    -1.0140 H     1 <1>   0.0800 
 24 H       -3.0860     1.1380     0.6200 H     1 <1>   0.0800 
 25 H       -2.5590    -0.1970     1.5820 H     1 <1>   0.0800 
 26 H       -4.2660     0.1110     1.4000 H     1 <1>   0.0800 
 27 H       -2.4080    -2.3640     1.7490 H     1 <1>   0.0800 
 28 H       -2.6140    -3.9010     0.9750 H     1 <1>   0.0800 
 29 H       -4.0060    -3.0290     1.5620 H     1 <1>   0.0800 
 30 H       -4.0050    -2.8100    -2.2350 H     1 <1>   0.0800 
 31 H       -4.9980    -3.2940    -0.8840 H     1 <1>   0.0800 
 32 H       -3.5210    -4.1520    -1.2510 H     1 <1>   0.0800 
 33 H        3.7500    -3.3810    -0.5570 H     1 <1>   0.1500 
 34 H        1.7020    -6.7490     1.0810 H     1 <1>   0.1500 
 35 H        3.9180    -6.0150    -0.3210 H     1 <1>   0.1500 
@<TRIPOS>BOND
  1   1   2  2   
  2   2   3  am  
  3   2   4  1   
  4   3   5  1   
  5   3  17  1   
  6   4   6  1   
  7   4   7  1   
  8   4  18  1   
  9   5   8  1   
 10   5  19  1   
 11   5  20  1   
 12   6   7  1   
 13   6   9  1   
 14   6  10  1   
 15   7  11  1   
 16   7  12  1   
 17   8  13  1   
 18   8  14  2   
 19   9  21  1   
 20   9  22  1   
 21   9  23  1   
 22  10  24  1   
 23  10  25  1   
 24  10  26  1   
 25  11  27  1   
 26  11  28  1   
 27  11  29  1   
 28  12  30  1   
 29  12  31  1   
 30  12  32  1   
 31  13  15  1   
 32  14  16  1   
 33  14  33  1   
 34  15  16  2   
 35  15  34  1   
 36  16  35  1   
@<TRIPOS>SUBSTRUCTURE
  1 ****   3 GROUP 4 **** **** 0

# MOE 2024.06 (io_trps.svl 2023.06)
