@<TRIPOS>MOLECULE
NONAME
47 48 1 0 0 
SMALL
USER_CHARGES


@<TRIPOS>ATOM
  1 O       -0.3170    -0.9390     0.5770 O.3   1 <1>  -0.3630 
  2 C       -1.5810    -1.1920     0.1430 C.ar  1 <1>   0.0820 
  3 C        0.4210     0.1850     0.1500 C.3   1 <1>   0.0400 
  4 C       -2.1910    -2.3850     0.5360 C.ar  1 <1>  -0.1440 
  5 C       -2.2640    -0.3040    -0.6780 C.ar  1 <1>  -0.1500 
  6 C       -3.4770    -2.6920     0.0880 C.ar  1 <1>  -0.1430 
  7 C       -1.4210    -3.3470     1.4500 C.3   1 <1>  -0.0960 
  8 C       -3.5430    -0.5960    -1.1000 C.ar  1 <1>  -0.1500 
  9 C       -4.1600    -1.7770    -0.7160 C.ar  1 <1>  -0.1440 
 10 C       -4.1050    -4.0340     0.4770 C.3   1 <1>  -0.0970 
 11 C       -5.5830    -2.0040    -1.1900 C.3   1 <1>   0.4860 
 12 N       -6.4900    -1.8080    -0.0240 N.4   1 <1>  -0.9590 
 13 C       -7.8530    -2.3470    -0.3130 C.3   1 <1>   0.3430 
 14 C       -6.5020    -0.3750     0.4140 C.3   1 <1>   0.2630 
 15 C       -8.7040    -2.4700     0.9520 C.3   1 <1>  -0.0170 
 16 C      -10.0170    -3.1310     0.5840 C.ar  1 <1>  -0.1430 
 17 C      -10.1510    -4.5100     0.6560 C.ar  1 <1>  -0.1500 
 18 C      -11.0920    -2.3640     0.1590 C.ar  1 <1>  -0.1500 
 19 C      -11.3440    -5.1150     0.3010 C.ar  1 <1>  -0.1500 
 20 C      -12.2850    -2.9700    -0.1950 C.ar  1 <1>  -0.1500 
 21 C      -12.4110    -4.3450    -0.1260 C.ar  1 <1>  -0.1500 
 22 H        1.3970     0.1320     0.5990 H     1 <1>   0.0800 
 23 H       -0.0810     1.0780     0.4750 H     1 <1>   0.0800 
 24 H        0.5110     0.1580    -0.9210 H     1 <1>   0.0800 
 25 H       -1.8160     0.6180    -0.9960 H     1 <1>   0.1500 
 26 H       -0.6660    -2.8370     2.0200 H     1 <1>   0.0800 
 27 H       -0.9380    -4.1010     0.8550 H     1 <1>   0.0800 
 28 H       -2.0720    -3.8200     2.1600 H     1 <1>   0.0800 
 29 H       -4.0470     0.1130    -1.7340 H     1 <1>   0.1500 
 30 H       -3.3830    -4.8230     0.3590 H     1 <1>   0.0800 
 31 H       -4.9450    -4.3020    -0.1320 H     1 <1>   0.0800 
 32 H       -4.4150    -4.0110     1.5070 H     1 <1>   0.0800 
 33 H       -5.6750    -3.0040    -1.5780 H     1 <1>   0.0800 
 34 H       -5.8290    -1.3110    -1.9780 H     1 <1>   0.0800 
 35 H       -6.0560    -2.3560     0.7330 H     1 <1>   0.4500 
 36 H       -7.7670    -3.3280    -0.7530 H     1 <1>   0.0800 
 37 H       -8.3610    -1.7130    -1.0220 H     1 <1>   0.0800 
 38 H       -6.9080     0.2530    -0.3620 H     1 <1>   0.0800 
 39 H       -5.4990    -0.0440     0.6350 H     1 <1>   0.0800 
 40 H       -7.0980    -0.2560     1.3040 H     1 <1>   0.0800 
 41 H       -8.9050    -1.5020     1.3750 H     1 <1>   0.0800 
 42 H       -8.1970    -3.0690     1.6880 H     1 <1>   0.0800 
 43 H       -9.3360    -5.1290     0.9900 H     1 <1>   0.1500 
 44 H      -11.0190    -1.2920     0.1030 H     1 <1>   0.1500 
 45 H      -11.4460    -6.1850     0.3590 H     1 <1>   0.1500 
 46 H      -13.1180    -2.3720    -0.5230 H     1 <1>   0.1500 
 47 H      -13.3390    -4.8160    -0.4010 H     1 <1>   0.1500 
@<TRIPOS>BOND
  1   1   2  1   
  2   1   3  1   
  3   2   4  ar  
  4   2   5  ar  
  5   3  22  1   
  6   3  23  1   
  7   3  24  1   
  8   4   6  ar  
  9   4   7  1   
 10   5   8  ar  
 11   5  25  1   
 12   6   9  ar  
 13   6  10  1   
 14   7  26  1   
 15   7  27  1   
 16   7  28  1   
 17   8   9  ar  
 18   8  29  1   
 19   9  11  1   
 20  10  30  1   
 21  10  31  1   
 22  10  32  1   
 23  11  12  1   
 24  11  33  1   
 25  11  34  1   
 26  12  13  1   
 27  12  14  1   
 28  12  35  1   
 29  13  15  1   
 30  13  36  1   
 31  13  37  1   
 32  14  38  1   
 33  14  39  1   
 34  14  40  1   
 35  15  16  1   
 36  15  41  1   
 37  15  42  1   
 38  16  17  ar  
 39  16  18  ar  
 40  17  19  ar  
 41  17  43  1   
 42  18  20  ar  
 43  18  44  1   
 44  19  21  ar  
 45  19  45  1   
 46  20  21  ar  
 47  20  46  1   
 48  21  47  1   
@<TRIPOS>SUBSTRUCTURE
  1 ****  12 GROUP 4 **** **** 0

# MOE 2024.06 (io_trps.svl 2023.06)
