@<TRIPOS>MOLECULE
NONAME
33 34 1 0 0 
SMALL
USER_CHARGES


@<TRIPOS>ATOM
  1 O       -0.1580     0.2870    -0.6000 O.2   1 <1>  -0.5700 
  2 C       -1.0750     1.0940    -0.5410 C.2   1 <1>   0.6160 
  3 N       -2.3550     0.7350    -0.8170 N.am  1 <1>  -0.5470 
  4 C       -1.0300     2.4820    -0.2030 C.2   1 <1>  -0.0140 
  5 C       -3.1740     1.8370    -0.6790 C.ar  1 <1>   0.1170 
  6 C       -2.3930     2.9240    -0.3040 C.ar  1 <1>   0.0280 
  7 C        0.0590     3.2330     0.1390 C.2   1 <1>  -0.0500 
  8 C       -4.5430     1.9550    -0.8570 C.ar  1 <1>  -0.1500 
  9 C       -2.9990     4.1600    -0.1020 C.ar  1 <1>  -0.1500 
 10 N        1.3310     2.7420     0.2130 N.pl3 1 <1>  -0.8690 
 11 C       -5.1370     3.1880    -0.6550 C.ar  1 <1>  -0.1500 
 12 C       -4.3670     4.2850    -0.2790 C.ar  1 <1>  -0.1500 
 13 C        2.6020     3.4140     0.5810 C.3   1 <1>   0.3690 
 14 C        3.3470     3.8340    -0.7090 C.3   1 <1>   0.1200 
 15 C        2.3160     4.6260     1.4740 C.3   1 <1>  -0.2400 
 16 C        3.4200     2.3900     1.3620 C.3   1 <1>  -0.2400 
 17 O        2.4720     4.4750    -1.5760 O.3   1 <1>  -0.6800 
 18 H       -2.6090    -0.2150    -1.0830 H     1 <1>   0.3700 
 19 H       -0.0820     4.2770     0.3670 H     1 <1>   0.1500 
 20 H       -5.1260     1.1000    -1.1480 H     1 <1>   0.1500 
 21 H       -2.4060     5.0080     0.1880 H     1 <1>   0.1500 
 22 H        1.4600     1.7370     0.0050 H     1 <1>   0.4000 
 23 H       -6.1990     3.3040    -0.7880 H     1 <1>   0.1500 
 24 H       -4.8420     5.2390    -0.1250 H     1 <1>   0.1500 
 25 H        3.7260     2.9650    -1.2150 H     1 <1>   0.0800 
 26 H        4.1640     4.4990    -0.4940 H     1 <1>   0.0800 
 27 H        3.2390     5.0470     1.8290 H     1 <1>   0.0800 
 28 H        1.7250     4.3350     2.3220 H     1 <1>   0.0800 
 29 H        1.8000     5.3900     0.9220 H     1 <1>   0.0800 
 30 H        4.3610     2.8150     1.6610 H     1 <1>   0.0800 
 31 H        3.6160     1.5230     0.7570 H     1 <1>   0.0800 
 32 H        2.8870     2.0860     2.2460 H     1 <1>   0.0800 
 33 H        1.6060     4.0150    -1.4730 H     1 <1>   0.4000 
@<TRIPOS>BOND
  1   1   2  2   
  2   2   3  am  
  3   2   4  1   
  4   3   5  1   
  5   3  18  1   
  6   4   6  1   
  7   4   7  2   
  8   5   6  ar  
  9   5   8  ar  
 10   6   9  ar  
 11   7  10  1   
 12   7  19  1   
 13   8  11  ar  
 14   8  20  1   
 15   9  12  ar  
 16   9  21  1   
 17  10  13  1   
 18  10  22  1   
 19  11  12  ar  
 20  11  23  1   
 21  12  24  1   
 22  13  14  1   
 23  13  15  1   
 24  13  16  1   
 25  14  17  1   
 26  14  25  1   
 27  14  26  1   
 28  15  27  1   
 29  15  28  1   
 30  15  29  1   
 31  16  30  1   
 32  16  31  1   
 33  16  32  1   
 34  17  33  1   
@<TRIPOS>SUBSTRUCTURE
  1 ****   4 GROUP 4 **** **** 0

# MOE 2024.06 (io_trps.svl 2023.06)
