@<TRIPOS>MOLECULE
NONAME
29 30 1 0 0 
SMALL
USER_CHARGES


@<TRIPOS>ATOM
  1 S       -0.0280    -0.3020    -0.4080 S.3   1 <1>  -0.4600 
  2 C        1.5370     0.5390    -0.7620 C.3   1 <1>   0.0700 
  3 C        0.4460    -2.0490    -0.4230 C.3   1 <1>   0.0700 
  4 C        2.6030     0.0450     0.2250 C.3   1 <1>   0.3430 
  5 C        1.6350    -2.2510     0.5280 C.3   1 <1>   0.3430 
  6 N        2.8400    -1.4420     0.1300 N.4   1 <1>  -0.9590 
  7 C        4.0280    -1.8470     0.9340 C.3   1 <1>   0.4860 
  8 C        5.2710    -1.2060     0.3390 C.ar  1 <1>  -0.1440 
  9 C        5.7850    -1.6690    -0.8690 C.ar  1 <1>  -0.1500 
 10 C        5.9020    -0.1550     1.0020 C.ar  1 <1>  -0.1500 
 11 C        6.9100    -1.0630    -1.3980 C.ar  1 <1>   0.1900 
 12 C        7.0330     0.4480     0.4660 C.ar  1 <1>  -0.1500 
 13 F        7.3770    -1.4990    -2.5380 F     1 <1>  -0.1900 
 14 C        7.5280    -0.0140    -0.7380 C.ar  1 <1>   0.1900 
 15 F        8.5890     0.5570    -1.2460 F     1 <1>  -0.1900 
 16 H        1.3590     1.5940    -0.6470 H     1 <1>   0.0800 
 17 H        1.8040     0.3290    -1.7830 H     1 <1>   0.0800 
 18 H        0.6870    -2.3200    -1.4350 H     1 <1>   0.0800 
 19 H       -0.4130    -2.6090    -0.0950 H     1 <1>   0.0800 
 20 H        2.2920     0.3010     1.2250 H     1 <1>   0.0800 
 21 H        3.5200     0.5730     0.0190 H     1 <1>   0.0800 
 22 H        1.8880    -3.2990     0.5340 H     1 <1>   0.0800 
 23 H        1.3270    -1.9790     1.5250 H     1 <1>   0.0800 
 24 H        3.0630    -1.6500    -0.8510 H     1 <1>   0.4500 
 25 H        4.1420    -2.9190     0.9140 H     1 <1>   0.0800 
 26 H        3.9080    -1.5380     1.9600 H     1 <1>   0.0800 
 27 H        5.3420    -2.4880    -1.4080 H     1 <1>   0.1500 
 28 H        5.5280     0.2080     1.9460 H     1 <1>   0.1500 
 29 H        7.5290     1.2600     0.9710 H     1 <1>   0.1500 
@<TRIPOS>BOND
  1   1   2  1   
  2   1   3  1   
  3   2   4  1   
  4   2  16  1   
  5   2  17  1   
  6   3   5  1   
  7   3  18  1   
  8   3  19  1   
  9   4   6  1   
 10   4  20  1   
 11   4  21  1   
 12   5   6  1   
 13   5  22  1   
 14   5  23  1   
 15   6   7  1   
 16   6  24  1   
 17   7   8  1   
 18   7  25  1   
 19   7  26  1   
 20   8   9  ar  
 21   8  10  ar  
 22   9  11  ar  
 23   9  27  1   
 24  10  12  ar  
 25  10  28  1   
 26  11  13  1   
 27  11  14  ar  
 28  12  14  ar  
 29  12  29  1   
 30  14  15  1   
@<TRIPOS>SUBSTRUCTURE
  1 ****   8 GROUP 4 **** **** 0

# MOE 2024.06 (io_trps.svl 2023.06)
