@<TRIPOS>MOLECULE
NONAME
46 47 1 0 0 
SMALL
USER_CHARGES


@<TRIPOS>ATOM
  1 S       -0.1450     0.0920    -1.5000 S.o2  1 <1>   1.4470 
  2 O        1.1720    -0.2890    -1.9640 O.2   1 <1>  -0.6500 
  3 O       -1.2380    -0.0970    -2.4360 O.2   1 <1>  -0.6500 
  4 N       -0.4970    -0.8490    -0.1230 N.am  1 <1>  -0.8490 
  5 C       -0.2160     1.8320    -0.9870 C.ar  1 <1>  -0.0090 
  6 C       -1.2000    -2.0990    -0.4640 C.3   1 <1>   0.2760 
  7 C        0.6550    -0.9610     0.8540 C.3   1 <1>   0.0900 
  8 C        0.9350     2.5400    -0.6760 C.ar  1 <1>  -0.1500 
  9 C       -1.4310     2.4990    -0.8790 C.ar  1 <1>  -0.1500 
 10 C       -2.7020    -1.8680    -0.2350 C.3   1 <1>  -0.1600 
 11 C       -0.7520    -3.3560     0.3110 C.3   1 <1>  -0.1600 
 12 C        1.3200     0.3060     1.4210 C.2   1 <1>   0.9060 
 13 C        0.8940     3.8470    -0.2110 C.ar  1 <1>   0.0820 
 14 C       -1.4940     3.8180    -0.4630 C.ar  1 <1>  -0.1500 
 15 C       -3.5370    -3.0930    -0.6380 C.3   1 <1>  -0.1600 
 16 C       -1.5650    -4.5900    -0.1110 C.3   1 <1>  -0.1600 
 17 O        0.6840     1.0500     2.1770 O.co2 1 <1>  -0.9000 
 18 O        2.5030     0.5380     1.1420 O.co2 1 <1>  -0.9000 
 19 O        2.0520     4.4550     0.1590 O.3   1 <1>  -0.3630 
 20 C       -0.3420     4.5010    -0.1140 C.ar  1 <1>   0.0820 
 21 C       -3.0660    -4.3550     0.0960 C.3   1 <1>  -0.1600 
 22 C        2.9050     3.7120     1.0120 C.3   1 <1>   0.0400 
 23 O       -0.5120     5.7770     0.3240 O.3   1 <1>  -0.3630 
 24 C        0.1910     6.1950     1.4730 C.3   1 <1>   0.0400 
 25 H       -1.0440    -2.3190    -1.5080 H     1 <1>   0.0800 
 26 H        1.4400    -1.5350     0.3990 H     1 <1>   0.0800 
 27 H        0.3200    -1.4840     1.7270 H     1 <1>   0.0800 
 28 H        1.8820     2.0400    -0.7790 H     1 <1>   0.1500 
 29 H       -2.3390     1.9730    -1.1190 H     1 <1>   0.1500 
 30 H       -3.0310    -1.0210    -0.8090 H     1 <1>   0.0800 
 31 H       -2.8650    -1.6490     0.8060 H     1 <1>   0.0800 
 32 H       -0.8970    -3.2080     1.3660 H     1 <1>   0.0800 
 33 H        0.2870    -3.5510     0.1170 H     1 <1>   0.0800 
 34 H       -2.4400     4.3190    -0.3900 H     1 <1>   0.1500 
 35 H       -3.4500    -3.2440    -1.7010 H     1 <1>   0.0800 
 36 H       -4.5740    -2.9110    -0.4150 H     1 <1>   0.0800 
 37 H       -1.2510    -5.4430     0.4650 H     1 <1>   0.0800 
 38 H       -1.3750    -4.8050    -1.1500 H     1 <1>   0.0800 
 39 H       -3.6190    -5.2080    -0.2600 H     1 <1>   0.0800 
 40 H       -3.2670    -4.2480     1.1480 H     1 <1>   0.0800 
 41 H        3.5920     4.3880     1.4830 H     1 <1>   0.0800 
 42 H        3.4450     2.9840     0.4330 H     1 <1>   0.0800 
 43 H        2.3100     3.2090     1.7590 H     1 <1>   0.0800 
 44 H       -0.3460     7.0130     1.9170 H     1 <1>   0.0800 
 45 H        1.1730     6.5190     1.1800 H     1 <1>   0.0800 
 46 H        0.2550     5.3730     2.1650 H     1 <1>   0.0800 
@<TRIPOS>BOND
  1   1   2  2   
  2   1   3  2   
  3   1   4  am  
  4   1   5  1   
  5   4   6  1   
  6   4   7  1   
  7   5   8  ar  
  8   5   9  ar  
  9   6  10  1   
 10   6  11  1   
 11   6  25  1   
 12   7  12  1   
 13   7  26  1   
 14   7  27  1   
 15   8  13  ar  
 16   8  28  1   
 17   9  14  ar  
 18   9  29  1   
 19  10  15  1   
 20  10  30  1   
 21  10  31  1   
 22  11  16  1   
 23  11  32  1   
 24  11  33  1   
 25  12  17  ar  
 26  12  18  ar  
 27  13  19  1   
 28  13  20  ar  
 29  14  20  ar  
 30  14  34  1   
 31  15  21  1   
 32  15  35  1   
 33  15  36  1   
 34  16  21  1   
 35  16  37  1   
 36  16  38  1   
 37  19  22  1   
 38  20  23  1   
 39  21  39  1   
 40  21  40  1   
 41  22  41  1   
 42  22  42  1   
 43  22  43  1   
 44  23  24  1   
 45  24  44  1   
 46  24  45  1   
 47  24  46  1   
@<TRIPOS>SUBSTRUCTURE
  1 ****   5 GROUP 4 **** **** 0

# MOE 2024.06 (io_trps.svl 2023.06)
