@<TRIPOS>MOLECULE
NONAME
49 51 1 0 0 
SMALL
USER_CHARGES


@<TRIPOS>ATOM
  1 O       -0.0750    -0.1220     0.5350 O.2   1 <1>  -0.5700 
  2 C       -0.6560    -1.1660     0.3190 C.2   1 <1>   0.5440 
  3 N        0.0350    -2.2520    -0.1700 N.am  1 <1>  -0.5470 
  4 C       -2.0870    -1.2730     0.5380 C.ar  1 <1>   0.0860 
  5 C        1.4070    -2.4440    -0.3870 C.ar  1 <1>   0.1170 
  6 C       -2.9260    -0.1780     0.3310 C.ar  1 <1>  -0.1500 
  7 C       -2.6830    -2.4640     0.9560 C.ar  1 <1>  -0.1500 
  8 C        2.3860    -1.7640     0.3300 C.ar  1 <1>  -0.1500 
  9 C        1.8160    -3.3590    -1.3490 C.ar  1 <1>  -0.1500 
 10 C       -4.2930    -0.2700     0.5150 C.ar  1 <1>  -0.1500 
 11 C       -4.0510    -2.5610     1.1400 C.ar  1 <1>  -0.1500 
 12 C        3.7290    -1.9840     0.0880 C.ar  1 <1>  -0.1500 
 13 C        3.1590    -3.5880    -1.5930 C.ar  1 <1>  -0.1500 
 14 C       -4.8670    -1.4640     0.9190 C.ar  1 <1>  -0.1430 
 15 C        4.1270    -2.9020    -0.8730 C.ar  1 <1>  -0.1430 
 16 C       -6.3700    -1.5680     1.1190 C.3   1 <1>  -0.0170 
 17 C        5.6000    -3.1540    -1.1290 C.3   1 <1>   0.4860 
 18 C       -7.0550    -2.0070    -0.1770 C.3   1 <1>  -0.2400 
 19 N        6.1730    -3.8720     0.0390 N.4   1 <1>  -0.9590 
 20 C        7.6620    -4.0450    -0.0280 C.3   1 <1>   0.3430 
 21 C        5.4900    -5.1760     0.3430 C.3   1 <1>   0.3430 
 22 C        8.1930    -4.8740     1.1650 C.3   1 <1>   0.1200 
 23 C        6.0890    -5.8390     1.6060 C.3   1 <1>   0.1200 
 24 O        7.1800    -5.1090     2.1040 O.3   1 <1>  -0.5600 
 25 H       -0.5660    -2.9930    -0.5260 H     1 <1>   0.3700 
 26 H       -2.4920     0.7570     0.0210 H     1 <1>   0.1500 
 27 H       -2.0730    -3.3280     1.1510 H     1 <1>   0.1500 
 28 H        2.0960    -1.0530     1.0830 H     1 <1>   0.1500 
 29 H        1.0750    -3.8920    -1.9190 H     1 <1>   0.1500 
 30 H       -4.9110     0.5940     0.3420 H     1 <1>   0.1500 
 31 H       -4.4820    -3.4940     1.4590 H     1 <1>   0.1500 
 32 H        4.4500    -1.4230     0.6590 H     1 <1>   0.1500 
 33 H        3.4340    -4.2990    -2.3540 H     1 <1>   0.1500 
 34 H       -6.7620    -0.6140     1.4290 H     1 <1>   0.0800 
 35 H       -6.5850    -2.2770     1.8990 H     1 <1>   0.0800 
 36 H        6.1020    -2.2100    -1.2680 H     1 <1>   0.0800 
 37 H        5.7210    -3.7410    -2.0250 H     1 <1>   0.0800 
 38 H       -6.8610    -1.2940    -0.9590 H     1 <1>   0.0800 
 39 H       -8.1170    -2.0780    -0.0290 H     1 <1>   0.0800 
 40 H       -6.6830    -2.9680    -0.4870 H     1 <1>   0.0800 
 41 H        5.9960    -3.2990     0.8770 H     1 <1>   0.4500 
 42 H        8.1420    -3.0800    -0.0220 H     1 <1>   0.0800 
 43 H        7.9390    -4.5400    -0.9440 H     1 <1>   0.0800 
 44 H        5.5950    -5.8500    -0.4900 H     1 <1>   0.0800 
 45 H        4.4350    -5.0160     0.5000 H     1 <1>   0.0800 
 46 H        8.9880    -4.3450     1.6620 H     1 <1>   0.0800 
 47 H        8.5790    -5.8220     0.8310 H     1 <1>   0.0800 
 48 H        6.4140    -6.8430     1.3920 H     1 <1>   0.0800 
 49 H        5.3470    -5.8870     2.3840 H     1 <1>   0.0800 
@<TRIPOS>BOND
  1   1   2  2   
  2   2   3  am  
  3   2   4  1   
  4   3   5  1   
  5   3  25  1   
  6   4   6  ar  
  7   4   7  ar  
  8   5   8  ar  
  9   5   9  ar  
 10   6  10  ar  
 11   6  26  1   
 12   7  11  ar  
 13   7  27  1   
 14   8  12  ar  
 15   8  28  1   
 16   9  13  ar  
 17   9  29  1   
 18  10  14  ar  
 19  10  30  1   
 20  11  14  ar  
 21  11  31  1   
 22  12  15  ar  
 23  12  32  1   
 24  13  15  ar  
 25  13  33  1   
 26  14  16  1   
 27  15  17  1   
 28  16  18  1   
 29  16  34  1   
 30  16  35  1   
 31  17  19  1   
 32  17  36  1   
 33  17  37  1   
 34  18  38  1   
 35  18  39  1   
 36  18  40  1   
 37  19  20  1   
 38  19  21  1   
 39  19  41  1   
 40  20  22  1   
 41  20  42  1   
 42  20  43  1   
 43  21  23  1   
 44  21  44  1   
 45  21  45  1   
 46  22  24  1   
 47  22  46  1   
 48  22  47  1   
 49  23  24  1   
 50  23  48  1   
 51  23  49  1   
@<TRIPOS>SUBSTRUCTURE
  1 ****   5 GROUP 4 **** **** 0

# MOE 2024.06 (io_trps.svl 2023.06)
