@<TRIPOS>MOLECULE
NONAME
54 56 1 0 0 
SMALL
USER_CHARGES


@<TRIPOS>ATOM
  1 O        2.4810     0.5500     0.5340 O.2   1 <1>  -0.5700 
  2 C        2.4870     1.7320     0.8180 C.2   1 <1>   0.7800 
  3 O        1.6390     2.1930     1.7390 O.3   1 <1>  -0.4300 
  4 N        3.3320     2.6300     0.2220 N.am  1 <1>  -0.6600 
  5 C        0.7420     1.3270     2.3940 C.3   1 <1>   0.1200 
  6 C        4.2830     2.2170    -0.8540 C.3   1 <1>   0.1400 
  7 C        3.3260     4.0950     0.5200 C.3   1 <1>   0.1400 
  8 C       -0.0820     2.1540     3.3760 C.3   1 <1>  -0.2400 
  9 C        4.0550     3.0460    -2.1260 C.3   1 <1>   0.1400 
 10 C        3.1210     4.9180    -0.7640 C.3   1 <1>   0.1400 
 11 N        4.1050     4.5080    -1.8140 N.am  1 <1>  -0.6600 
 12 C        5.2020     5.2760    -2.1380 C.2   1 <1>   0.5440 
 13 O        6.2200     4.7090    -2.5010 O.2   1 <1>  -0.5700 
 14 C        5.1930     6.7160    -1.9920 C.ar  1 <1>   0.0860 
 15 C        6.1620     7.3560    -1.2040 C.ar  1 <1>   0.1170 
 16 C        4.2110     7.4940    -2.6070 C.ar  1 <1>  -0.1500 
 17 N        7.1650     6.5850    -0.6090 N.am  1 <1>  -0.5470 
 18 C        6.1090     8.7370    -1.0410 C.ar  1 <1>  -0.1500 
 19 C        4.1730     8.8650    -2.4410 C.ar  1 <1>  -0.1500 
 20 C        7.7080     6.6230     0.6520 C.2   1 <1>   0.5440 
 21 C        5.1240     9.4880    -1.6510 C.ar  1 <1>  -0.1500 
 22 O        7.5580     7.6100     1.3450 O.2   1 <1>  -0.5700 
 23 C        8.4350     5.4660     1.1440 C.ar  1 <1>   0.0860 
 24 C        8.1570     4.1740     0.6870 C.ar  1 <1>  -0.1500 
 25 C        9.4360     5.6020     2.1050 C.ar  1 <1>  -0.1500 
 26 C        8.8500     3.0700     1.1540 C.ar  1 <1>  -0.1440 
 27 C       10.1330     4.5060     2.5800 C.ar  1 <1>  -0.1500 
 28 C        9.8410     3.2410     2.1050 C.ar  1 <1>  -0.1500 
 29 C        8.5170     1.6840     0.6320 C.3   1 <1>  -0.0970 
 30 H        1.3120     0.5700     2.9070 H     1 <1>   0.0800 
 31 H        0.1110     0.8640     1.6530 H     1 <1>   0.0800 
 32 H        4.1650     1.1730    -1.0860 H     1 <1>   0.0800 
 33 H        5.2920     2.3670    -0.5100 H     1 <1>   0.0800 
 34 H        4.2690     4.3640     0.9650 H     1 <1>   0.0800 
 35 H        2.5510     4.3410     1.2230 H     1 <1>   0.0800 
 36 H        0.5630     2.6170     4.1020 H     1 <1>   0.0800 
 37 H       -0.7760     1.5160     3.8930 H     1 <1>   0.0800 
 38 H       -0.6370     2.9100     2.8500 H     1 <1>   0.0800 
 39 H        3.0910     2.8040    -2.5390 H     1 <1>   0.0800 
 40 H        4.7980     2.7900    -2.8610 H     1 <1>   0.0800 
 41 H        3.2200     5.9620    -0.5280 H     1 <1>   0.0800 
 42 H        2.1230     4.7560    -1.1330 H     1 <1>   0.0800 
 43 H        3.4720     7.0100    -3.2220 H     1 <1>   0.1500 
 44 H        7.3790     5.7320    -1.1400 H     1 <1>   0.3700 
 45 H        6.8510     9.2250    -0.4330 H     1 <1>   0.1500 
 46 H        3.4080     9.4520    -2.9220 H     1 <1>   0.1500 
 47 H        5.0990    10.5550    -1.5150 H     1 <1>   0.1500 
 48 H        7.3810     4.0230    -0.0420 H     1 <1>   0.1500 
 49 H        9.6660     6.5840     2.4830 H     1 <1>   0.1500 
 50 H       10.9030     4.6370     3.3210 H     1 <1>   0.1500 
 51 H       10.3860     2.3920     2.4800 H     1 <1>   0.1500 
 52 H        8.1720     1.7360    -0.3850 H     1 <1>   0.0800 
 53 H        7.7470     1.2410     1.2390 H     1 <1>   0.0800 
 54 H        9.3870     1.0520     0.6610 H     1 <1>   0.0800 
@<TRIPOS>BOND
  1   1   2  2   
  2   2   3  1   
  3   2   4  am  
  4   3   5  1   
  5   4   6  1   
  6   4   7  1   
  7   5   8  1   
  8   5  30  1   
  9   5  31  1   
 10   6   9  1   
 11   6  32  1   
 12   6  33  1   
 13   7  10  1   
 14   7  34  1   
 15   7  35  1   
 16   8  36  1   
 17   8  37  1   
 18   8  38  1   
 19   9  11  1   
 20   9  39  1   
 21   9  40  1   
 22  10  11  1   
 23  10  41  1   
 24  10  42  1   
 25  11  12  am  
 26  12  13  2   
 27  12  14  1   
 28  14  15  ar  
 29  14  16  ar  
 30  15  17  1   
 31  15  18  ar  
 32  16  19  ar  
 33  16  43  1   
 34  17  20  am  
 35  17  44  1   
 36  18  21  ar  
 37  18  45  1   
 38  19  21  ar  
 39  19  46  1   
 40  20  22  2   
 41  20  23  1   
 42  21  47  1   
 43  23  24  ar  
 44  23  25  ar  
 45  24  26  ar  
 46  24  48  1   
 47  25  27  ar  
 48  25  49  1   
 49  26  28  ar  
 50  26  29  1   
 51  27  28  ar  
 52  27  50  1   
 53  28  51  1   
 54  29  52  1   
 55  29  53  1   
 56  29  54  1   
@<TRIPOS>SUBSTRUCTURE
  1 ****  12 GROUP 4 **** **** 0

# MOE 2024.06 (io_trps.svl 2023.06)
