@<TRIPOS>MOLECULE
NONAME
57 59 1 0 0 
SMALL
USER_CHARGES


@<TRIPOS>ATOM
  1 O       -0.9040    -1.3610     2.7480 O.2   1 <1>  -0.5700 
  2 C       -1.4380    -2.1750     2.0330 C.2   1 <1>   0.6900 
  3 N       -0.8530    -2.5560     0.8750 N.am  1 <1>  -0.5390 
  4 N       -2.6100    -2.7360     2.3670 N.am  1 <1>  -0.7300 
  5 C       -1.3440    -3.5200     0.0150 C.2   1 <1>  -0.0290 
  6 C       -3.3720    -3.6330     1.4760 C.3   1 <1>   0.5020 
  7 C       -2.5600    -4.0900     0.2540 C.2   1 <1>  -0.1240 
  8 C       -0.4010    -3.8370    -1.1540 C.3   1 <1>   0.2480 
  9 C       -4.6450    -2.8990     1.0660 C.ar  1 <1>  -0.1430 
 10 C       -3.2210    -5.0960    -0.5240 C.2   1 <1>   0.7060 
 11 N        1.0160    -3.8860    -0.7100 N.3   1 <1>  -0.8100 
 12 C       -4.5840    -1.7550     0.2810 C.ar  1 <1>  -0.1500 
 13 C       -5.8880    -3.3680     1.4710 C.ar  1 <1>  -0.1500 
 14 O       -2.8570    -5.4340    -1.6330 O.2   1 <1>  -0.5700 
 15 O       -4.2830    -5.7160     0.0020 O.3   1 <1>  -0.4300 
 16 C        1.2560    -5.0270     0.2110 C.3   1 <1>   0.1100 
 17 C        1.9300    -3.9680    -1.8740 C.3   1 <1>   0.1100 
 18 C       -5.7360    -1.0890    -0.1010 C.ar  1 <1>   0.0830 
 19 C       -7.0450    -2.7080     1.0960 C.ar  1 <1>  -0.1500 
 20 C       -5.0250    -6.6680    -0.7280 C.3   1 <1>   0.1200 
 21 C        2.7310    -5.1160     0.6760 C.3   1 <1>   0.3430 
 22 C        3.4200    -4.0830    -1.4580 C.3   1 <1>   0.3430 
 23 O       -5.5740     0.0160    -0.8710 O.3   1 <1>  -0.3630 
 24 C       -6.9740    -1.5710     0.3120 C.ar  1 <1>  -0.1500 
 25 C       -6.2040    -7.1070     0.1340 C.3   1 <1>  -0.2400 
 26 N        3.5760    -4.0540     0.0340 N.4   1 <1>  -0.9590 
 27 C       -6.6790     0.7780    -1.3020 C.3   1 <1>   0.0400 
 28 C        4.9980    -4.0780     0.4840 C.3   1 <1>   0.2630 
 29 H        0.0550    -2.1310     0.6880 H     1 <1>   0.3700 
 30 H       -3.1410    -2.2750     3.1040 H     1 <1>   0.3700 
 31 H       -3.6340    -4.5000     2.0570 H     1 <1>   0.0800 
 32 H       -0.5150    -3.0560    -1.8870 H     1 <1>   0.0800 
 33 H       -0.6480    -4.7680    -1.6290 H     1 <1>   0.0800 
 34 H       -3.6350    -1.3650    -0.0430 H     1 <1>   0.1500 
 35 H       -5.9640    -4.2540     2.0790 H     1 <1>   0.1500 
 36 H        0.9850    -5.9510    -0.2730 H     1 <1>   0.0800 
 37 H        0.6320    -4.9290     1.0830 H     1 <1>   0.0800 
 38 H        1.8090    -3.0890    -2.4840 H     1 <1>   0.0800 
 39 H        1.6720    -4.8190    -2.4840 H     1 <1>   0.0800 
 40 H       -8.0030    -3.0810     1.4150 H     1 <1>   0.1500 
 41 H       -4.3810    -7.5000    -0.9600 H     1 <1>   0.0800 
 42 H       -5.3670    -6.2090    -1.6410 H     1 <1>   0.0800 
 43 H        3.1180    -6.0920     0.4340 H     1 <1>   0.0800 
 44 H        2.7630    -5.0090     1.7480 H     1 <1>   0.0800 
 45 H        3.9680    -3.2680    -1.9010 H     1 <1>   0.0800 
 46 H        3.8250    -5.0010    -1.8520 H     1 <1>   0.0800 
 47 H       -7.8860    -1.0780     0.0340 H     1 <1>   0.1500 
 48 H       -5.8520    -7.5490     1.0490 H     1 <1>   0.0800 
 49 H       -6.7870    -7.8380    -0.3970 H     1 <1>   0.0800 
 50 H       -6.8340    -6.2640     0.3560 H     1 <1>   0.0800 
 51 H        3.1200    -3.1700     0.3180 H     1 <1>   0.4500 
 52 H       -6.3090     1.6010    -1.8870 H     1 <1>   0.0800 
 53 H       -7.2050     1.1500    -0.4400 H     1 <1>   0.0800 
 54 H       -7.3170     0.1580    -1.9060 H     1 <1>   0.0800 
 55 H        5.4690    -5.0010     0.1880 H     1 <1>   0.0800 
 56 H        5.0520    -3.9910     1.5570 H     1 <1>   0.0800 
 57 H        5.5410    -3.2560     0.0460 H     1 <1>   0.0800 
@<TRIPOS>BOND
  1   1   2  2   
  2   2   3  am  
  3   2   4  am  
  4   3   5  1   
  5   3  29  1   
  6   4   6  1   
  7   4  30  1   
  8   5   7  2   
  9   5   8  1   
 10   6   7  1   
 11   6   9  1   
 12   6  31  1   
 13   7  10  1   
 14   8  11  1   
 15   8  32  1   
 16   8  33  1   
 17   9  12  ar  
 18   9  13  ar  
 19  10  14  2   
 20  10  15  1   
 21  11  16  1   
 22  11  17  1   
 23  12  18  ar  
 24  12  34  1   
 25  13  19  ar  
 26  13  35  1   
 27  15  20  1   
 28  16  21  1   
 29  16  36  1   
 30  16  37  1   
 31  17  22  1   
 32  17  38  1   
 33  17  39  1   
 34  18  23  1   
 35  18  24  ar  
 36  19  24  ar  
 37  19  40  1   
 38  20  25  1   
 39  20  41  1   
 40  20  42  1   
 41  21  26  1   
 42  21  43  1   
 43  21  44  1   
 44  22  26  1   
 45  22  45  1   
 46  22  46  1   
 47  23  27  1   
 48  24  47  1   
 49  25  48  1   
 50  25  49  1   
 51  25  50  1   
 52  26  28  1   
 53  26  51  1   
 54  27  52  1   
 55  27  53  1   
 56  27  54  1   
 57  28  55  1   
 58  28  56  1   
 59  28  57  1   
@<TRIPOS>SUBSTRUCTURE
  1 ****   7 GROUP 4 **** **** 0

# MOE 2024.06 (io_trps.svl 2023.06)
