@<TRIPOS>MOLECULE
NONAME
60 62 1 0 0 
SMALL
USER_CHARGES


@<TRIPOS>ATOM
  1 O       -5.0810    -7.8580    -0.5610 O.3   1 <1>  -0.3630 
  2 C       -6.3170    -7.4210    -0.2180 C.ar  1 <1>   0.0830 
  3 C       -4.1580    -6.9690    -1.1800 C.3   1 <1>   0.1200 
  4 C       -6.8040    -7.7700     1.0310 C.ar  1 <1>  -0.1500 
  5 C       -7.1010    -6.6510    -1.0670 C.ar  1 <1>  -0.1500 
  6 C       -3.1340    -6.4480    -0.1570 C.3   1 <1>   0.2000 
  7 C       -8.0470    -7.3230     1.4440 C.ar  1 <1>  -0.1500 
  8 C       -8.3440    -6.2070    -0.6500 C.ar  1 <1>  -0.1500 
  9 O       -2.4660    -7.5360     0.3780 O.3   1 <1>  -0.6800 
 10 C       -3.7700    -5.6620     1.0030 C.3   1 <1>   0.1100 
 11 C       -8.8280    -6.5330     0.6090 C.ar  1 <1>  -0.1430 
 12 N       -4.6480    -4.5680     0.5250 N.3   1 <1>  -0.8100 
 13 C      -10.2100    -6.0450     1.0390 C.3   1 <1>   0.0630 
 14 C       -5.7540    -4.3100     1.4740 C.3   1 <1>   0.1100 
 15 C       -3.9160    -3.3160     0.2240 C.3   1 <1>   0.1100 
 16 C      -10.1110    -5.0930     2.2350 C.3   1 <1>  -0.2400 
 17 C      -11.1320    -7.2260     1.3610 C.3   1 <1>  -0.2400 
 18 C       -6.8030    -3.3460     0.8770 C.3   1 <1>   0.3430 
 19 C       -4.8700    -2.1410    -0.1170 C.3   1 <1>   0.3430 
 20 N       -6.2730    -2.6250    -0.3330 N.4   1 <1>  -0.9590 
 21 C       -7.1990    -1.5940    -0.8610 C.3   1 <1>   0.4860 
 22 C       -8.4840    -2.2650    -1.3040 C.ar  1 <1>  -0.1430 
 23 C       -8.5450    -2.9140    -2.5300 C.ar  1 <1>  -0.1500 
 24 C       -9.6110    -2.2300    -0.4940 C.ar  1 <1>  -0.1500 
 25 C       -9.7190    -3.5230    -2.9380 C.ar  1 <1>  -0.1500 
 26 C      -10.7820    -2.8420    -0.9030 C.ar  1 <1>  -0.1500 
 27 C      -10.8360    -3.4890    -2.1240 C.ar  1 <1>  -0.1500 
 28 H       -4.6770    -6.1440    -1.6280 H     1 <1>   0.0800 
 29 H       -3.6500    -7.5130    -1.9560 H     1 <1>   0.0800 
 30 H       -6.2070    -8.3900     1.6750 H     1 <1>   0.1500 
 31 H       -6.7600    -6.4120    -2.0560 H     1 <1>   0.1500 
 32 H       -2.4010    -5.8340    -0.6480 H     1 <1>   0.0800 
 33 H       -8.4080    -7.6040     2.4180 H     1 <1>   0.1500 
 34 H       -8.9440    -5.6180    -1.3200 H     1 <1>   0.1500 
 35 H       -3.1160    -8.2520     0.5390 H     1 <1>   0.4000 
 36 H       -2.9970    -5.2690     1.6420 H     1 <1>   0.0800 
 37 H       -4.3540    -6.3580     1.5800 H     1 <1>   0.0800 
 38 H      -10.6560    -5.5050     0.2220 H     1 <1>   0.0800 
 39 H       -5.3620    -3.8960     2.3880 H     1 <1>   0.0800 
 40 H       -6.2500    -5.2300     1.7260 H     1 <1>   0.0800 
 41 H       -3.2570    -3.4860    -0.6110 H     1 <1>   0.0800 
 42 H       -3.3040    -3.0340     1.0650 H     1 <1>   0.0800 
 43 H       -9.6900    -5.5950     3.0880 H     1 <1>   0.0800 
 44 H      -11.0890    -4.7320     2.5000 H     1 <1>   0.0800 
 45 H       -9.4940    -4.2510     1.9870 H     1 <1>   0.0800 
 46 H      -10.7740    -7.7750     2.2130 H     1 <1>   0.0800 
 47 H      -11.1770    -7.8940     0.5190 H     1 <1>   0.0800 
 48 H      -12.1260    -6.8760     1.5720 H     1 <1>   0.0800 
 49 H       -7.1070    -2.6420     1.6330 H     1 <1>   0.0800 
 50 H       -7.6710    -3.9210     0.5960 H     1 <1>   0.0800 
 51 H       -4.5060    -1.6400    -0.9990 H     1 <1>   0.0800 
 52 H       -4.8530    -1.4320     0.6940 H     1 <1>   0.0800 
 53 H       -6.1950    -3.3820    -1.0260 H     1 <1>   0.4500 
 54 H       -6.7540    -1.0950    -1.7050 H     1 <1>   0.0800 
 55 H       -7.4110    -0.8590    -0.1020 H     1 <1>   0.0800 
 56 H       -7.6900    -2.9490    -3.1830 H     1 <1>   0.1500 
 57 H       -9.5960    -1.7240     0.4560 H     1 <1>   0.1500 
 58 H       -9.7680    -4.0220    -3.8910 H     1 <1>   0.1500 
 59 H      -11.6570    -2.8130    -0.2750 H     1 <1>   0.1500 
 60 H      -11.7500    -3.9630    -2.4430 H     1 <1>   0.1500 
@<TRIPOS>BOND
  1   1   2  1   
  2   1   3  1   
  3   2   4  ar  
  4   2   5  ar  
  5   3   6  1   
  6   3  28  1   
  7   3  29  1   
  8   4   7  ar  
  9   4  30  1   
 10   5   8  ar  
 11   5  31  1   
 12   6   9  1   
 13   6  10  1   
 14   6  32  1   
 15   7  11  ar  
 16   7  33  1   
 17   8  11  ar  
 18   8  34  1   
 19   9  35  1   
 20  10  12  1   
 21  10  36  1   
 22  10  37  1   
 23  11  13  1   
 24  12  14  1   
 25  12  15  1   
 26  13  16  1   
 27  13  17  1   
 28  13  38  1   
 29  14  18  1   
 30  14  39  1   
 31  14  40  1   
 32  15  19  1   
 33  15  41  1   
 34  15  42  1   
 35  16  43  1   
 36  16  44  1   
 37  16  45  1   
 38  17  46  1   
 39  17  47  1   
 40  17  48  1   
 41  18  20  1   
 42  18  49  1   
 43  18  50  1   
 44  19  20  1   
 45  19  51  1   
 46  19  52  1   
 47  20  21  1   
 48  20  53  1   
 49  21  22  1   
 50  21  54  1   
 51  21  55  1   
 52  22  23  ar  
 53  22  24  ar  
 54  23  25  ar  
 55  23  56  1   
 56  24  26  ar  
 57  24  57  1   
 58  25  27  ar  
 59  25  58  1   
 60  26  27  ar  
 61  26  59  1   
 62  27  60  1   
@<TRIPOS>SUBSTRUCTURE
  1 ****   8 GROUP 4 **** **** 0

# MOE 2024.06 (io_trps.svl 2023.06)
