@<TRIPOS>MOLECULE
NONAME
43 45 1 0 0 
SMALL
USER_CHARGES


@<TRIPOS>ATOM
  1 N       -0.1750     0.4430     0.1330 N.pl3 1 <1>  -0.8410 
  2 C       -1.2040     1.1750     0.4050 C.cat 1 <1>   1.2010 
  3 C        1.0800     0.8900    -0.3840 C.3   1 <1>   0.6600 
  4 N       -1.1450     2.4620     0.2030 N.pl3 1 <1>  -0.9140 
  5 N       -2.3020     0.6490     0.8810 N.pl3 1 <1>  -0.8240 
  6 N        0.9720     2.3120    -0.5430 N.pl3 1 <1>  -0.8410 
  7 C        1.3340     0.2250    -1.7410 C.3   1 <1>  -0.1510 
  8 C        2.1910     0.5530     0.6170 C.3   1 <1>  -0.1510 
  9 C       -0.0690     3.0220    -0.2640 C.cat 1 <1>   1.2010 
 10 C       -2.5420    -0.7040     1.1390 C.ar  1 <1>   0.3190 
 11 C        1.5610    -1.2960    -1.6240 C.3   1 <1>  -0.1510 
 12 C        2.4260    -0.9640     0.7530 C.3   1 <1>  -0.1510 
 13 N       -0.0650     4.2980    -0.4410 N.pl3 1 <1>  -0.9640 
 14 C       -2.7630    -1.5920     0.0950 C.ar  1 <1>  -0.1410 
 15 C       -2.5370    -1.1740     2.4440 C.ar  1 <1>  -0.1410 
 16 C        2.6750    -1.6160    -0.6150 C.3   1 <1>  -0.1510 
 17 C       -2.9600    -2.9400     0.3450 C.ar  1 <1>  -0.1340 
 18 C       -2.7340    -2.5180     2.7000 C.ar  1 <1>  -0.1410 
 19 C       -2.9420    -3.3980     1.6520 C.ar  1 <1>  -0.1410 
 20 C       -3.2090    -3.9220    -0.7890 C.3   1 <1>  -0.0870 
 21 H       -0.2220    -0.5580     0.3060 H     1 <1>   0.4570 
 22 H       -1.9450     3.0370     0.4000 H     1 <1>   0.4570 
 23 H       -3.0810     1.2580     1.1200 H     1 <1>   0.4570 
 24 H        1.8120     2.7510    -0.9080 H     1 <1>   0.4570 
 25 H        2.2190     0.6530    -2.1790 H     1 <1>   0.0900 
 26 H        0.5140     0.4150    -2.4120 H     1 <1>   0.0900 
 27 H        1.9640     0.9700     1.5830 H     1 <1>   0.0900 
 28 H        3.1110     0.9960     0.2780 H     1 <1>   0.0900 
 29 H        1.8360    -1.6920    -2.5880 H     1 <1>   0.0900 
 30 H        0.6530    -1.7920    -1.3270 H     1 <1>   0.0900 
 31 H        1.5840    -1.4360     1.2300 H     1 <1>   0.0900 
 32 H        3.2830    -1.1380     1.3860 H     1 <1>   0.0900 
 33 H        0.7410     4.8080    -0.8030 H     1 <1>   0.4570 
 34 H       -0.8530     4.9110    -0.2390 H     1 <1>   0.4570 
 35 H       -2.7930    -1.2310    -0.9170 H     1 <1>   0.1590 
 36 H       -2.3790    -0.4980     3.2660 H     1 <1>   0.1590 
 37 H        3.6180    -1.2710    -1.0070 H     1 <1>   0.0900 
 38 H        2.7570    -2.6850    -0.4960 H     1 <1>   0.0900 
 39 H       -2.7310    -2.8860     3.7140 H     1 <1>   0.1590 
 40 H       -3.0980    -4.4450     1.8620 H     1 <1>   0.1590 
 41 H       -3.0220    -3.4710    -1.7470 H     1 <1>   0.0900 
 42 H       -4.2310    -4.2570    -0.7640 H     1 <1>   0.0900 
 43 H       -2.5670    -4.7800    -0.6870 H     1 <1>   0.0900 
@<TRIPOS>BOND
  1   1   2  ar  
  2   1   3  1   
  3   1  21  1   
  4   2   4  ar  
  5   2   5  ar  
  6   3   6  1   
  7   3   7  1   
  8   3   8  1   
  9   4   9  ar  
 10   4  22  1   
 11   5  10  1   
 12   5  23  1   
 13   6   9  ar  
 14   6  24  1   
 15   7  11  1   
 16   7  25  1   
 17   7  26  1   
 18   8  12  1   
 19   8  27  1   
 20   8  28  1   
 21   9  13  ar  
 22  10  14  ar  
 23  10  15  ar  
 24  11  16  1   
 25  11  29  1   
 26  11  30  1   
 27  12  16  1   
 28  12  31  1   
 29  12  32  1   
 30  13  33  1   
 31  13  34  1   
 32  14  17  ar  
 33  14  35  1   
 34  15  18  ar  
 35  15  36  1   
 36  16  37  1   
 37  16  38  1   
 38  17  19  ar  
 39  17  20  1   
 40  18  19  ar  
 41  18  39  1   
 42  19  40  1   
 43  20  41  1   
 44  20  42  1   
 45  20  43  1   
@<TRIPOS>SUBSTRUCTURE
  1 ****   1 GROUP 4 **** **** 0

# MOE 2024.06 (io_trps.svl 2023.06)
