@<TRIPOS>MOLECULE
NONAME
46 48 1 0 0 
SMALL
USER_CHARGES


@<TRIPOS>ATOM
  1 O       -0.4360     1.4660    -1.8000 O.2   1 <1>  -0.5700 
  2 C       -0.3460     1.8880    -0.6700 C.2   1 <1>   0.5690 
  3 N        0.8020     1.7310     0.0690 N.am  1 <1>  -0.5470 
  4 C       -1.5480     2.6510    -0.0430 C.3   1 <1>   0.2050 
  5 C        2.0280     1.1140    -0.2260 C.ar  1 <1>   0.1170 
  6 C       -2.4130     1.6450     0.7570 C.ar  1 <1>  -0.1440 
  7 C       -1.0830     3.7810     0.9140 C.3   1 <1>  -0.1600 
  8 C       -2.3510     3.3740    -1.1570 C.3   1 <1>  -0.1600 
  9 C        3.1890     1.5430     0.4220 C.ar  1 <1>  -0.1430 
 10 C        2.1210     0.0640    -1.1340 C.ar  1 <1>  -0.1500 
 11 C       -3.7280     1.3360     0.4130 C.ar  1 <1>  -0.1500 
 12 C       -1.8720     1.0020     1.8680 C.ar  1 <1>  -0.1500 
 13 C       -0.3240     4.8850     0.1640 C.3   1 <1>   0.1200 
 14 C       -1.5250     4.4840    -1.8150 C.3   1 <1>   0.1200 
 15 C        4.4000     0.9260     0.1500 C.ar  1 <1>  -0.1500 
 16 C        3.1600     2.6880     1.4280 C.3   1 <1>  -0.0970 
 17 C        3.3330    -0.5440    -1.4000 C.ar  1 <1>  -0.1500 
 18 C       -4.4710     0.4350     1.1560 C.ar  1 <1>  -0.1500 
 19 C       -2.6120     0.1000     2.6120 C.ar  1 <1>  -0.1500 
 20 O       -1.1430     5.3980    -0.8350 O.3   1 <1>  -0.5600 
 21 C        4.4820    -0.1150    -0.7600 C.ar  1 <1>  -0.1430 
 22 C       -3.9160    -0.1840     2.2580 C.ar  1 <1>  -0.1500 
 23 C        5.8160    -0.7800    -1.0470 C.3   1 <1>  -0.0970 
 24 H        0.7880     2.1740     0.9820 H     1 <1>   0.3700 
 25 H       -0.4650     3.4050     1.7060 H     1 <1>   0.0800 
 26 H       -1.9450     4.2250     1.3800 H     1 <1>   0.0800 
 27 H       -3.2360     3.8250    -0.7450 H     1 <1>   0.0800 
 28 H       -2.6580     2.6740    -1.9140 H     1 <1>   0.0800 
 29 H        1.2400    -0.2890    -1.6370 H     1 <1>   0.1500 
 30 H       -4.2090     1.7790    -0.4380 H     1 <1>   0.1500 
 31 H       -0.8600     1.1860     2.1760 H     1 <1>   0.1500 
 32 H        0.5820     4.5200    -0.2900 H     1 <1>   0.0800 
 33 H       -0.0800     5.6940     0.8300 H     1 <1>   0.0800 
 34 H       -2.1170     5.0130    -2.5420 H     1 <1>   0.0800 
 35 H       -0.6430     4.0990    -2.2990 H     1 <1>   0.0800 
 36 H        5.2950     1.2540     0.6480 H     1 <1>   0.1500 
 37 H        2.7440     3.5690     0.9720 H     1 <1>   0.0800 
 38 H        4.1520     2.9250     1.7680 H     1 <1>   0.0800 
 39 H        2.5690     2.4140     2.2840 H     1 <1>   0.0800 
 40 H        3.3740    -1.3530    -2.1080 H     1 <1>   0.1500 
 41 H       -5.4850     0.2130     0.8720 H     1 <1>   0.1500 
 42 H       -2.1710    -0.3840     3.4660 H     1 <1>   0.1500 
 43 H       -4.4940    -0.8860     2.8340 H     1 <1>   0.1500 
 44 H        6.6140    -0.0630    -0.9840 H     1 <1>   0.0800 
 45 H        5.8200    -1.2060    -2.0350 H     1 <1>   0.0800 
 46 H        5.9930    -1.5630    -0.3310 H     1 <1>   0.0800 
@<TRIPOS>BOND
  1   1   2  2   
  2   2   3  am  
  3   2   4  1   
  4   3   5  1   
  5   3  24  1   
  6   4   6  1   
  7   4   7  1   
  8   4   8  1   
  9   5   9  ar  
 10   5  10  ar  
 11   6  11  ar  
 12   6  12  ar  
 13   7  13  1   
 14   7  25  1   
 15   7  26  1   
 16   8  14  1   
 17   8  27  1   
 18   8  28  1   
 19   9  15  ar  
 20   9  16  1   
 21  10  17  ar  
 22  10  29  1   
 23  11  18  ar  
 24  11  30  1   
 25  12  19  ar  
 26  12  31  1   
 27  13  20  1   
 28  13  32  1   
 29  13  33  1   
 30  14  20  1   
 31  14  34  1   
 32  14  35  1   
 33  15  21  ar  
 34  15  36  1   
 35  16  37  1   
 36  16  38  1   
 37  16  39  1   
 38  17  21  ar  
 39  17  40  1   
 40  18  22  ar  
 41  18  41  1   
 42  19  22  ar  
 43  19  42  1   
 44  21  23  1   
 45  22  43  1   
 46  23  44  1   
 47  23  45  1   
 48  23  46  1   
@<TRIPOS>SUBSTRUCTURE
  1 ****   3 GROUP 4 **** **** 0

# MOE 2024.06 (io_trps.svl 2023.06)
