@<TRIPOS>MOLECULE
NONAME
39 40 1 0 0 
SMALL
USER_CHARGES


@<TRIPOS>ATOM
  1 BR      -0.2950    -0.8140     1.0890 Br    1 <1>  -0.1110 
  2 C        1.5220    -1.2360     0.6140 C.ar  1 <1>   0.1110 
  3 C        2.2690    -2.0200     1.4720 C.ar  1 <1>  -0.1500 
  4 C        2.0300    -0.7460    -0.5720 C.ar  1 <1>  -0.1500 
  5 C        3.5780    -2.3270     1.1340 C.ar  1 <1>  -0.1440 
  6 C        3.3380    -1.0520    -0.9090 C.ar  1 <1>  -0.1500 
  7 C        4.1170    -1.8380    -0.0570 C.ar  1 <1>   0.0830 
  8 C        4.4060    -3.2010     2.0670 C.3   1 <1>  -0.0960 
  9 O        5.4090    -2.1600    -0.3330 O.3   1 <1>  -0.3630 
 10 C        6.0310    -1.7680    -1.5490 C.3   1 <1>   0.1810 
 11 C        7.4830    -2.2400    -1.6130 C.2   1 <1>   0.5690 
 12 O        7.8420    -2.7650    -2.6390 O.2   1 <1>  -0.5700 
 13 N        8.3730    -2.0600    -0.5730 N.am  1 <1>  -0.6600 
 14 C        9.7120    -2.7320    -0.5990 C.3   1 <1>   0.1400 
 15 C        8.0800    -1.2880     0.6760 C.3   1 <1>   0.1400 
 16 C       10.8390    -1.7510    -0.2320 C.3   1 <1>   0.3430 
 17 C        9.2460    -0.3480     1.0490 C.3   1 <1>   0.3430 
 18 N       10.5750    -1.0570     1.0780 N.4   1 <1>  -0.9590 
 19 C       11.6830    -0.1140     1.4190 C.3   1 <1>   0.2630 
 20 H        1.8250    -2.3800     2.3820 H     1 <1>   0.1500 
 21 H        1.4140    -0.1430    -1.2140 H     1 <1>   0.1500 
 22 H        3.7200    -0.6680    -1.8350 H     1 <1>   0.1500 
 23 H        3.8160    -3.5500     2.8950 H     1 <1>   0.0800 
 24 H        5.2390    -2.6410     2.4490 H     1 <1>   0.0800 
 25 H        4.7770    -4.0560     1.5300 H     1 <1>   0.0800 
 26 H        6.0000    -0.6980    -1.6220 H     1 <1>   0.0800 
 27 H        5.4790    -2.2060    -2.3610 H     1 <1>   0.0800 
 28 H        9.9160    -3.1370    -1.5760 H     1 <1>   0.0800 
 29 H        9.7070    -3.5550     0.0930 H     1 <1>   0.0800 
 30 H        7.8940    -1.9780     1.4810 H     1 <1>   0.0800 
 31 H        7.1950    -0.6890     0.5520 H     1 <1>   0.0800 
 32 H       10.9240    -1.0210    -1.0210 H     1 <1>   0.0800 
 33 H       11.7710    -2.2910    -0.1820 H     1 <1>   0.0800 
 34 H        9.0450     0.0930     2.0120 H     1 <1>   0.0800 
 35 H        9.2820     0.4490     0.3250 H     1 <1>   0.0800 
 36 H       10.5230    -1.7850     1.8060 H     1 <1>   0.4500 
 37 H       11.7620     0.6580     0.6700 H     1 <1>   0.0800 
 38 H       12.6220    -0.6410     1.4690 H     1 <1>   0.0800 
 39 H       11.5010     0.3510     2.3740 H     1 <1>   0.0800 
@<TRIPOS>BOND
  1   1   2  1   
  2   2   3  ar  
  3   2   4  ar  
  4   3   5  ar  
  5   3  20  1   
  6   4   6  ar  
  7   4  21  1   
  8   5   7  ar  
  9   5   8  1   
 10   6   7  ar  
 11   6  22  1   
 12   7   9  1   
 13   8  23  1   
 14   8  24  1   
 15   8  25  1   
 16   9  10  1   
 17  10  11  1   
 18  10  26  1   
 19  10  27  1   
 20  11  12  2   
 21  11  13  am  
 22  13  14  1   
 23  13  15  1   
 24  14  16  1   
 25  14  28  1   
 26  14  29  1   
 27  15  17  1   
 28  15  30  1   
 29  15  31  1   
 30  16  18  1   
 31  16  32  1   
 32  16  33  1   
 33  17  18  1   
 34  17  34  1   
 35  17  35  1   
 36  18  19  1   
 37  18  36  1   
 38  19  37  1   
 39  19  38  1   
 40  19  39  1   
@<TRIPOS>SUBSTRUCTURE
  1 ****   9 GROUP 4 **** **** 0

# MOE 2024.06 (io_trps.svl 2023.06)
