@<TRIPOS>MOLECULE
NONAME
53 56 1 0 0 
SMALL
USER_CHARGES


@<TRIPOS>ATOM
  1 S       -7.5370     1.0320     0.1590 S.3   1 <1>  -0.0800 
  2 C       -6.4820     1.2980     1.5110 C.2   1 <1>   0.4420 
  3 C       -8.7490     1.9320     1.0150 C.2   1 <1>   0.1980 
  4 N       -7.0420     1.9800     2.4360 N.2   1 <1>  -0.3380 
  5 N       -5.1880     0.8200     1.5610 N.am  1 <1>  -0.4940 
  6 N       -8.3280     2.3360     2.1490 N.2   1 <1>  -0.3380 
  7 C      -10.1200     2.1340     0.3570 C.3   1 <1>   0.1800 
  8 C       -4.4610     0.0880     0.6600 C.2   1 <1>   0.5690 
  9 C      -11.0500     2.9580     1.2820 C.3   1 <1>  -0.1600 
 10 C       -9.9760     2.8960    -0.9830 C.3   1 <1>  -0.1600 
 11 C      -10.8010     0.7710     0.0830 C.3   1 <1>  -0.1600 
 12 O       -4.8940    -0.2830    -0.4030 O.2   1 <1>  -0.5700 
 13 C       -3.0050    -0.2950     0.9870 C.3   1 <1>   0.4040 
 14 C      -12.4310     3.1700     0.6340 C.3   1 <1>  -0.0800 
 15 C      -11.3520     3.1030    -1.6450 C.3   1 <1>  -0.0800 
 16 C      -12.1800     0.9700    -0.5750 C.3   1 <1>  -0.0800 
 17 N       -2.2130    -0.7470    -0.2260 N.4   1 <1>  -0.9590 
 18 C      -12.2520     3.9190    -0.6990 C.3   1 <1>  -0.1600 
 19 C      -13.0750     1.7980     0.3650 C.3   1 <1>  -0.1600 
 20 C      -12.0010     1.7300    -1.9030 C.3   1 <1>  -0.1600 
 21 C       -1.0010    -1.5390     0.1170 C.3   1 <1>   0.3430 
 22 C       -1.9170     0.3990    -1.1290 C.3   1 <1>   0.3430 
 23 C       -1.4130    -2.9110     0.6380 C.3   1 <1>  -0.2400 
 24 C       -1.6370    -0.1170    -2.5350 C.3   1 <1>  -0.2400 
 25 H       -4.7510     1.0780     2.4450 H     1 <1>   0.3700 
 26 H      -10.6010     3.9140     1.4880 H     1 <1>   0.0800 
 27 H      -11.1690     2.4490     2.2230 H     1 <1>   0.0800 
 28 H       -9.3440     2.3450    -1.6560 H     1 <1>   0.0800 
 29 H       -9.5120     3.8500    -0.8060 H     1 <1>   0.0800 
 30 H      -10.1870     0.1740    -0.5670 H     1 <1>   0.0800 
 31 H      -10.9150     0.2330     1.0070 H     1 <1>   0.0800 
 32 H       -3.0410    -1.0930     1.7080 H     1 <1>   0.0800 
 33 H       -2.5130     0.5460     1.4460 H     1 <1>   0.0800 
 34 H      -13.0590     3.7440     1.2940 H     1 <1>   0.0800 
 35 H      -11.2330     3.6300    -2.5760 H     1 <1>   0.0800 
 36 H      -12.6360     0.0130    -0.7620 H     1 <1>   0.0800 
 37 H       -2.8640    -1.3500    -0.7600 H     1 <1>   0.4500 
 38 H      -11.8130     4.8850    -0.5180 H     1 <1>   0.0800 
 39 H      -13.2130     4.0790    -1.1570 H     1 <1>   0.0800 
 40 H      -14.0450     1.9330    -0.0810 H     1 <1>   0.0800 
 41 H      -13.2150     1.2710     1.2940 H     1 <1>   0.0800 
 42 H      -11.3850     1.1550    -2.5730 H     1 <1>   0.0800 
 43 H      -12.9580     1.8640    -2.3760 H     1 <1>   0.0800 
 44 H       -0.4080    -1.0210     0.8540 H     1 <1>   0.0800 
 45 H       -0.3940    -1.6780    -0.7630 H     1 <1>   0.0800 
 46 H       -1.0730     0.9620    -0.7610 H     1 <1>   0.0800 
 47 H       -2.7710     1.0570    -1.1750 H     1 <1>   0.0800 
 48 H       -1.9310    -2.8440     1.5780 H     1 <1>   0.0800 
 49 H       -0.5300    -3.5040     0.7970 H     1 <1>   0.0800 
 50 H       -2.0280    -3.4240    -0.0810 H     1 <1>   0.0800 
 51 H       -0.7460    -0.7160    -2.5710 H     1 <1>   0.0800 
 52 H       -1.4930     0.7210    -3.1940 H     1 <1>   0.0800 
 53 H       -2.4730    -0.6850    -2.9040 H     1 <1>   0.0800 
@<TRIPOS>BOND
  1   1   2  1   
  2   1   3  1   
  3   2   4  2   
  4   2   5  1   
  5   3   6  2   
  6   3   7  1   
  7   4   6  1   
  8   5   8  am  
  9   5  25  1   
 10   7   9  1   
 11   7  10  1   
 12   7  11  1   
 13   8  12  2   
 14   8  13  1   
 15   9  14  1   
 16   9  26  1   
 17   9  27  1   
 18  10  15  1   
 19  10  28  1   
 20  10  29  1   
 21  11  16  1   
 22  11  30  1   
 23  11  31  1   
 24  13  17  1   
 25  13  32  1   
 26  13  33  1   
 27  14  18  1   
 28  14  19  1   
 29  14  34  1   
 30  15  18  1   
 31  15  20  1   
 32  15  35  1   
 33  16  19  1   
 34  16  20  1   
 35  16  36  1   
 36  17  21  1   
 37  17  22  1   
 38  17  37  1   
 39  18  38  1   
 40  18  39  1   
 41  19  40  1   
 42  19  41  1   
 43  20  42  1   
 44  20  43  1   
 45  21  23  1   
 46  21  44  1   
 47  21  45  1   
 48  22  24  1   
 49  22  46  1   
 50  22  47  1   
 51  23  48  1   
 52  23  49  1   
 53  23  50  1   
 54  24  51  1   
 55  24  52  1   
 56  24  53  1   
@<TRIPOS>SUBSTRUCTURE
  1 ****   1 GROUP 4 **** **** 0

# MOE 2024.06 (io_trps.svl 2023.06)
