@<TRIPOS>MOLECULE
NONAME
43 43 1 0 0 
SMALL
USER_CHARGES


@<TRIPOS>ATOM
  1 S        3.6190    -1.3450     1.9120 S.o2  1 <1>   1.5880 
  2 O        5.0740    -1.6000     1.7550 O.co2 1 <1>  -0.8170 
  3 O        3.1480    -0.0220     1.4650 O.co2 1 <1>  -0.8170 
  4 O        2.9700    -1.9030     3.1090 O.co2 1 <1>  -0.8170 
  5 N        2.9410    -2.3170     0.7210 N.am  1 <1>  -0.9140 
  6 C        3.1910    -1.9330    -0.6710 C.3   1 <1>   0.1960 
  7 C        4.5590    -2.4450    -1.1600 C.3   1 <1>   0.2000 
  8 O        5.5640    -1.5960    -0.7090 O.3   1 <1>  -0.6800 
  9 C        4.6640    -2.6100    -2.6870 C.3   1 <1>   0.1200 
 10 O        5.8810    -3.2230    -3.0430 O.3   1 <1>  -0.5600 
 11 C        6.9620    -2.3560    -3.2620 C.3   1 <1>   0.1200 
 12 C        8.2100    -2.8330    -2.4940 C.3   1 <1>   0.3430 
 13 N        7.9300    -3.0600    -1.0440 N.4   1 <1>  -0.9590 
 14 C        9.0000    -2.5530    -0.1480 C.3   1 <1>   0.3430 
 15 C        7.5300    -4.4640    -0.7580 C.3   1 <1>   0.3430 
 16 C        8.5530    -2.6600     1.3100 C.3   1 <1>  -0.1600 
 17 C        7.0880    -4.6000     0.7010 C.3   1 <1>  -0.1600 
 18 C        8.1560    -4.0950     1.6800 C.3   1 <1>  -0.0800 
 19 C        7.6250    -4.1450     3.1170 C.3   1 <1>  -0.2400 
 20 H        1.9640    -2.1430     0.9340 H     1 <1>   0.4200 
 21 H        3.1140    -0.8660    -0.8070 H     1 <1>   0.0800 
 22 H        2.4270    -2.3950    -1.2700 H     1 <1>   0.0800 
 23 H        4.7140    -3.4120    -0.7160 H     1 <1>   0.0800 
 24 H        5.4220    -1.4890     0.2930 H     1 <1>   0.4000 
 25 H        4.5580    -1.6650    -3.1930 H     1 <1>   0.0800 
 26 H        3.8770    -3.2620    -3.0220 H     1 <1>   0.0800 
 27 H        6.7090    -1.3560    -2.9510 H     1 <1>   0.0800 
 28 H        7.1610    -2.3410    -4.3190 H     1 <1>   0.0800 
 29 H        8.9720    -2.0790    -2.5990 H     1 <1>   0.0800 
 30 H        8.5800    -3.7390    -2.9430 H     1 <1>   0.0800 
 31 H        7.0770    -2.4940    -0.8330 H     1 <1>   0.4500 
 32 H        9.2100    -1.5210    -0.3770 H     1 <1>   0.0800 
 33 H        9.8980    -3.1300    -0.2920 H     1 <1>   0.0800 
 34 H        8.3610    -5.1230    -0.9450 H     1 <1>   0.0800 
 35 H        6.7150    -4.7480    -1.4050 H     1 <1>   0.0800 
 36 H        7.7210    -1.9950     1.4710 H     1 <1>   0.0800 
 37 H        9.3540    -2.3310     1.9470 H     1 <1>   0.0800 
 38 H        6.8700    -5.6330     0.9060 H     1 <1>   0.0800 
 39 H        6.1770    -4.0470     0.8510 H     1 <1>   0.0800 
 40 H        9.0240    -4.7300     1.6120 H     1 <1>   0.0800 
 41 H        6.7530    -3.5180     3.2190 H     1 <1>   0.0800 
 42 H        8.3730    -3.8010     3.8090 H     1 <1>   0.0800 
 43 H        7.3510    -5.1500     3.3840 H     1 <1>   0.0800 
@<TRIPOS>BOND
  1   1   2  ar  
  2   1   3  ar  
  3   1   4  ar  
  4   1   5  am  
  5   5   6  1   
  6   5  20  1   
  7   6   7  1   
  8   6  21  1   
  9   6  22  1   
 10   7   8  1   
 11   7   9  1   
 12   7  23  1   
 13   8  24  1   
 14   9  10  1   
 15   9  25  1   
 16   9  26  1   
 17  10  11  1   
 18  11  12  1   
 19  11  27  1   
 20  11  28  1   
 21  12  13  1   
 22  12  29  1   
 23  12  30  1   
 24  13  14  1   
 25  13  15  1   
 26  13  31  1   
 27  14  16  1   
 28  14  32  1   
 29  14  33  1   
 30  15  17  1   
 31  15  34  1   
 32  15  35  1   
 33  16  18  1   
 34  16  36  1   
 35  16  37  1   
 36  17  18  1   
 37  17  38  1   
 38  17  39  1   
 39  18  19  1   
 40  18  40  1   
 41  19  41  1   
 42  19  42  1   
 43  19  43  1   
@<TRIPOS>SUBSTRUCTURE
  1 ****   8 GROUP 4 **** **** 0

# MOE 2024.06 (io_trps.svl 2023.06)
