@<TRIPOS>MOLECULE
NONAME
28 28 1 0 0 
SMALL
USER_CHARGES


@<TRIPOS>ATOM
  1 CL      -0.0390    -0.1160    -0.2920 Cl    1 <1>  -0.1770 
  2 C       -1.5200     0.7880    -0.0580 C.ar  1 <1>   0.1770 
  3 C       -2.7630     0.1680    -0.1360 C.ar  1 <1>  -0.1440 
  4 C       -1.3910     2.1390     0.2010 C.ar  1 <1>  -0.1500 
  5 C       -3.9100     0.9500     0.0370 C.ar  1 <1>   0.1170 
  6 C       -2.8770    -1.3340    -0.4050 C.3   1 <1>  -0.0970 
  7 C       -2.5260     2.9060     0.3800 C.ar  1 <1>  -0.1500 
  8 N       -5.1820     0.3630    -0.0800 N.am  1 <1>  -0.5470 
  9 C       -3.7700     2.3120     0.2950 C.ar  1 <1>  -0.1500 
 10 C       -6.3780     0.6910     0.5000 C.2   1 <1>   0.5690 
 11 O       -6.5080     1.5980     1.2860 O.2   1 <1>  -0.5700 
 12 C       -7.5980    -0.1620     0.1360 C.3   1 <1>  -0.0190 
 13 C       -8.7760     0.7010    -0.3480 C.3   1 <1>  -0.2400 
 14 C       -8.0400    -1.0360     1.3210 C.3   1 <1>  -0.2400 
 15 H       -0.4130     2.5820     0.2590 H     1 <1>   0.1500 
 16 H       -1.9660    -1.8530    -0.1730 H     1 <1>   0.0800 
 17 H       -3.1080    -1.5040    -1.4410 H     1 <1>   0.0800 
 18 H       -3.6470    -1.7710     0.2050 H     1 <1>   0.0800 
 19 H       -2.4430     3.9600     0.5840 H     1 <1>   0.1500 
 20 H       -5.1990    -0.4780    -0.6500 H     1 <1>   0.3700 
 21 H       -4.6450     2.9220     0.4270 H     1 <1>   0.1500 
 22 H       -7.3250    -0.8160    -0.6720 H     1 <1>   0.0800 
 23 H       -9.1030     1.3610     0.4370 H     1 <1>   0.0800 
 24 H       -9.6030     0.0810    -0.6450 H     1 <1>   0.0800 
 25 H       -8.4750     1.3000    -1.1890 H     1 <1>   0.0800 
 26 H       -8.3350    -0.4140     2.1500 H     1 <1>   0.0800 
 27 H       -7.2290    -1.6650     1.6430 H     1 <1>   0.0800 
 28 H       -8.8710    -1.6590     1.0440 H     1 <1>   0.0800 
@<TRIPOS>BOND
  1   1   2  1   
  2   2   3  ar  
  3   2   4  ar  
  4   3   5  ar  
  5   3   6  1   
  6   4   7  ar  
  7   4  15  1   
  8   5   8  1   
  9   5   9  ar  
 10   6  16  1   
 11   6  17  1   
 12   6  18  1   
 13   7   9  ar  
 14   7  19  1   
 15   8  10  am  
 16   8  20  1   
 17   9  21  1   
 18  10  11  2   
 19  10  12  1   
 20  12  13  1   
 21  12  14  1   
 22  12  22  1   
 23  13  23  1   
 24  13  24  1   
 25  13  25  1   
 26  14  26  1   
 27  14  27  1   
 28  14  28  1   
@<TRIPOS>SUBSTRUCTURE
  1 ****   5 GROUP 4 **** **** 0

# MOE 2024.06 (io_trps.svl 2023.06)
