@<TRIPOS>MOLECULE
NONAME
45 46 1 0 0 
SMALL
USER_CHARGES


@<TRIPOS>ATOM
  1 O        1.9560    -5.6490    -0.3980 O.2   1 <1>  -0.5700 
  2 C        1.9330    -4.4540    -0.1900 C.2   1 <1>   0.6340 
  3 O        0.7350    -3.8650    -0.0720 O.3   1 <1>  -0.4300 
  4 C        3.1260    -3.6380    -0.0620 C.ar  1 <1>   0.0860 
  5 C       -0.4520    -4.6200    -0.1970 C.3   1 <1>   0.1200 
  6 C        4.3950    -4.2070    -0.1790 C.ar  1 <1>  -0.1500 
  7 C        3.0630    -2.2630     0.1790 C.ar  1 <1>  -0.1500 
  8 C       -1.6500    -3.6890     0.0160 C.3   1 <1>   0.3430 
  9 C        5.5550    -3.4510    -0.0610 C.ar  1 <1>   0.0830 
 10 C        4.2060    -1.4950     0.3000 C.ar  1 <1>  -0.1500 
 11 N       -2.9640    -4.3870    -0.1770 N.4   1 <1>  -0.9590 
 12 O        6.8000    -3.9970    -0.1730 O.3   1 <1>  -0.3630 
 13 C        5.4630    -2.0780     0.1810 C.ar  1 <1>   0.0830 
 14 C       -4.0760    -3.3910    -0.2110 C.3   1 <1>   0.3430 
 15 C       -3.2110    -5.4380     0.8590 C.3   1 <1>   0.3430 
 16 C        6.9950    -5.3720    -0.4180 C.3   1 <1>   0.0400 
 17 O        6.6130    -1.3630     0.2920 O.3   1 <1>  -0.3620 
 18 C       -5.3900    -4.0950    -0.5580 C.3   1 <1>  -0.1600 
 19 C       -4.5060    -6.1860     0.5360 C.3   1 <1>  -0.1600 
 20 C        6.6230     0.0250     0.5360 C.3   1 <1>   0.0400 
 21 C       -5.7010    -5.2320     0.4230 C.3   1 <1>  -0.1600 
 22 H       -0.4250    -5.3980     0.5460 H     1 <1>   0.0800 
 23 H       -0.4680    -5.0490    -1.1840 H     1 <1>   0.0800 
 24 H        4.4510    -5.2630    -0.3650 H     1 <1>   0.1500 
 25 H        2.1070    -1.7820     0.2760 H     1 <1>   0.1500 
 26 H       -1.5730    -2.8780    -0.6910 H     1 <1>   0.0800 
 27 H       -1.6020    -3.2770     1.0110 H     1 <1>   0.0800 
 28 H        4.1000    -0.4430     0.4860 H     1 <1>   0.1500 
 29 H       -2.9600    -4.8560    -1.0930 H     1 <1>   0.4500 
 30 H       -3.8730    -2.6320    -0.9500 H     1 <1>   0.0800 
 31 H       -4.1690    -2.9130     0.7510 H     1 <1>   0.0800 
 32 H       -3.2930    -4.9810     1.8320 H     1 <1>   0.0800 
 33 H       -2.3940    -6.1420     0.8820 H     1 <1>   0.0800 
 34 H        8.0540    -5.5540    -0.4630 H     1 <1>   0.0800 
 35 H        6.5410    -5.6290    -1.3580 H     1 <1>   0.0800 
 36 H        6.5630    -5.9370     0.3900 H     1 <1>   0.0800 
 37 H       -5.3360    -4.4800    -1.5620 H     1 <1>   0.0800 
 38 H       -6.1910    -3.3770    -0.5340 H     1 <1>   0.0800 
 39 H       -4.6990    -6.9060     1.3140 H     1 <1>   0.0800 
 40 H       -4.3840    -6.7340    -0.3820 H     1 <1>   0.0800 
 41 H        7.6480     0.3470     0.5790 H     1 <1>   0.0800 
 42 H        6.1400     0.2180     1.4770 H     1 <1>   0.0800 
 43 H        6.1180     0.5250    -0.2710 H     1 <1>   0.0800 
 44 H       -6.5720    -5.7740     0.0920 H     1 <1>   0.0800 
 45 H       -5.9240    -4.8180     1.3930 H     1 <1>   0.0800 
@<TRIPOS>BOND
  1   1   2  2   
  2   2   3  1   
  3   2   4  1   
  4   3   5  1   
  5   4   6  ar  
  6   4   7  ar  
  7   5   8  1   
  8   5  22  1   
  9   5  23  1   
 10   6   9  ar  
 11   6  24  1   
 12   7  10  ar  
 13   7  25  1   
 14   8  11  1   
 15   8  26  1   
 16   8  27  1   
 17   9  12  1   
 18   9  13  ar  
 19  10  13  ar  
 20  10  28  1   
 21  11  14  1   
 22  11  15  1   
 23  11  29  1   
 24  12  16  1   
 25  13  17  1   
 26  14  18  1   
 27  14  30  1   
 28  14  31  1   
 29  15  19  1   
 30  15  32  1   
 31  15  33  1   
 32  16  34  1   
 33  16  35  1   
 34  16  36  1   
 35  17  20  1   
 36  18  21  1   
 37  18  37  1   
 38  18  38  1   
 39  19  21  1   
 40  19  39  1   
 41  19  40  1   
 42  20  41  1   
 43  20  42  1   
 44  20  43  1   
 45  21  44  1   
 46  21  45  1   
@<TRIPOS>SUBSTRUCTURE
  1 ****   3 GROUP 4 **** **** 0

# MOE 2024.06 (io_trps.svl 2023.06)
