@<TRIPOS>MOLECULE
NONAME
37 39 1 0 0 
SMALL
USER_CHARGES


@<TRIPOS>ATOM
  1 S       -0.6370    -0.0530    -1.2630 S.3   1 <1>  -0.3710 
  2 C       -2.0450     0.5060    -0.3380 C.2   1 <1>   0.7710 
  3 C        0.8160     0.4060    -0.2200 C.3   1 <1>   0.0700 
  4 O       -1.8610     1.0260     0.7380 O.2   1 <1>  -0.5700 
  5 N       -3.2320     0.2880    -0.9440 N.am  1 <1>  -0.7300 
  6 C        1.1720     1.8630    -0.5130 C.3   1 <1>  -0.2400 
  7 C       -4.5760     0.6290    -0.4610 C.3   1 <1>   0.3000 
  8 C       -4.8800    -0.0980     0.8630 C.3   1 <1>  -0.1600 
  9 C       -5.5890     0.1710    -1.5260 C.3   1 <1>  -0.1600 
 10 C       -4.7140     2.1510    -0.2630 C.3   1 <1>  -0.1600 
 11 C       -6.3100     0.2370     1.3310 C.3   1 <1>  -0.0800 
 12 C       -7.0250     0.5020    -1.0760 C.3   1 <1>  -0.0800 
 13 C       -6.1430     2.4940     0.2010 C.3   1 <1>  -0.0800 
 14 C       -7.3150    -0.2170     0.2560 C.3   1 <1>  -0.1600 
 15 C       -6.4320     1.7620     1.5260 C.3   1 <1>  -0.1600 
 16 C       -7.1490     2.0240    -0.8660 C.3   1 <1>  -0.1600 
 17 H        1.6200    -0.2560    -0.4900 H     1 <1>   0.0800 
 18 H        0.5460     0.2560     0.8110 H     1 <1>   0.0800 
 19 H       -3.2050    -0.1630    -1.8550 H     1 <1>   0.3700 
 20 H        1.3960     1.9880    -1.5570 H     1 <1>   0.0800 
 21 H        2.0310     2.1520     0.0640 H     1 <1>   0.0800 
 22 H        0.3500     2.5040    -0.2490 H     1 <1>   0.0800 
 23 H       -4.1830     0.2110     1.6210 H     1 <1>   0.0800 
 24 H       -4.7820    -1.1600     0.7290 H     1 <1>   0.0800 
 25 H       -5.5030    -0.8900    -1.6800 H     1 <1>   0.0800 
 26 H       -5.3880     0.6670    -2.4590 H     1 <1>   0.0800 
 27 H       -4.4990     2.6610    -1.1850 H     1 <1>   0.0800 
 28 H       -4.0140     2.4910     0.4800 H     1 <1>   0.0800 
 29 H       -6.5160    -0.2660     2.2600 H     1 <1>   0.0800 
 30 H       -7.7280     0.1790    -1.8250 H     1 <1>   0.0800 
 31 H       -6.2330     3.5570     0.3450 H     1 <1>   0.0800 
 32 H       -8.3170     0.0050     0.5790 H     1 <1>   0.0800 
 33 H       -7.2450    -1.2820     0.1190 H     1 <1>   0.0800 
 34 H       -7.4230     2.0060     1.8680 H     1 <1>   0.0800 
 35 H       -5.7380     2.0880     2.2810 H     1 <1>   0.0800 
 36 H       -8.1500     2.2680    -0.5550 H     1 <1>   0.0800 
 37 H       -6.9630     2.5370    -1.7940 H     1 <1>   0.0800 
@<TRIPOS>BOND
  1   1   2  1   
  2   1   3  1   
  3   2   4  2   
  4   2   5  am  
  5   3   6  1   
  6   3  17  1   
  7   3  18  1   
  8   5   7  1   
  9   5  19  1   
 10   6  20  1   
 11   6  21  1   
 12   6  22  1   
 13   7   8  1   
 14   7   9  1   
 15   7  10  1   
 16   8  11  1   
 17   8  23  1   
 18   8  24  1   
 19   9  12  1   
 20   9  25  1   
 21   9  26  1   
 22  10  13  1   
 23  10  27  1   
 24  10  28  1   
 25  11  14  1   
 26  11  15  1   
 27  11  29  1   
 28  12  14  1   
 29  12  16  1   
 30  12  30  1   
 31  13  15  1   
 32  13  16  1   
 33  13  31  1   
 34  14  32  1   
 35  14  33  1   
 36  15  34  1   
 37  15  35  1   
 38  16  36  1   
 39  16  37  1   
@<TRIPOS>SUBSTRUCTURE
  1 ****   7 GROUP 4 **** **** 0

# MOE 2024.06 (io_trps.svl 2023.06)
