@<TRIPOS>MOLECULE
NONAME
48 49 1 0 0 
SMALL
USER_CHARGES


@<TRIPOS>ATOM
  1 O        0.0720    -1.6210    -1.3700 O.2   1 <1>  -0.5700 
  2 C        0.7190    -1.5980    -0.3390 C.2   1 <1>   0.6340 
  3 O        0.0890    -1.8360     0.8170 O.3   1 <1>  -0.4300 
  4 C        2.1370    -1.3220    -0.2850 C.ar  1 <1>   0.0860 
  5 C       -1.2900    -2.1450     0.8640 C.3   1 <1>   0.0400 
  6 C        3.0090    -1.7030    -1.3210 C.ar  1 <1>   0.1170 
  7 C        2.6810    -0.6650     0.8230 C.ar  1 <1>  -0.1500 
  8 N        2.5320    -2.3760    -2.4530 N.am  1 <1>  -0.5470 
  9 C        4.3640    -1.3980    -1.2250 C.ar  1 <1>  -0.1500 
 10 C        4.0290    -0.3820     0.9110 C.ar  1 <1>  -0.1500 
 11 C        2.9610    -3.5070    -3.0860 C.2   1 <1>   0.5690 
 12 C        4.8750    -0.7480    -0.1200 C.ar  1 <1>  -0.1500 
 13 O        2.4070    -3.8590    -4.0970 O.2   1 <1>  -0.5700 
 14 C        4.1080    -4.3680    -2.5600 C.3   1 <1>   0.1810 
 15 O        4.0000    -4.5730    -1.1600 O.3   1 <1>  -0.3630 
 16 C        4.5420    -5.6630    -0.5610 C.ar  1 <1>   0.0830 
 17 C        3.9890    -6.1170     0.6390 C.ar  1 <1>  -0.1430 
 18 C        5.6320    -6.3240    -1.1220 C.ar  1 <1>  -0.1500 
 19 C        4.5410    -7.2430     1.2350 C.ar  1 <1>  -0.1500 
 20 C        2.8090    -5.4380     1.3490 C.3   1 <1>   0.0630 
 21 C        6.1710    -7.4440    -0.5140 C.ar  1 <1>  -0.1430 
 22 C        5.6160    -7.9020     0.6670 C.ar  1 <1>  -0.1500 
 23 C        1.5490    -5.3460     0.4770 C.3   1 <1>  -0.2400 
 24 C        3.2130    -4.0650     1.8940 C.3   1 <1>  -0.2400 
 25 C        7.3550    -8.1680    -1.1300 C.3   1 <1>  -0.0970 
 26 H       -1.5710    -2.3000     1.8900 H     1 <1>   0.0800 
 27 H       -1.4640    -3.0410     0.2920 H     1 <1>   0.0800 
 28 H       -1.8460    -1.3240     0.4460 H     1 <1>   0.0800 
 29 H        2.0330    -0.3730     1.6320 H     1 <1>   0.1500 
 30 H        1.5880    -2.1030    -2.7540 H     1 <1>   0.3700 
 31 H        5.0270    -1.6680    -2.0250 H     1 <1>   0.1500 
 32 H        4.4250     0.1230     1.7760 H     1 <1>   0.1500 
 33 H        5.9270    -0.5260    -0.0590 H     1 <1>   0.1500 
 34 H        5.0520    -3.9010    -2.7640 H     1 <1>   0.0800 
 35 H        4.0630    -5.3250    -3.0460 H     1 <1>   0.0800 
 36 H        6.0760    -5.9710    -2.0320 H     1 <1>   0.1500 
 37 H        4.1370    -7.6200     2.1580 H     1 <1>   0.1500 
 38 H        2.5400    -6.0410     2.1990 H     1 <1>   0.0800 
 39 H        6.0200    -8.7730     1.1510 H     1 <1>   0.1500 
 40 H        1.6740    -4.6420    -0.3230 H     1 <1>   0.0800 
 41 H        0.7120    -5.0280     1.0720 H     1 <1>   0.0800 
 42 H        1.3250    -6.3090     0.0550 H     1 <1>   0.0800 
 43 H        3.5280    -3.4210     1.0960 H     1 <1>   0.0800 
 44 H        4.0320    -4.1730     2.5810 H     1 <1>   0.0800 
 45 H        2.3880    -3.6050     2.4070 H     1 <1>   0.0800 
 46 H        7.9100    -7.5100    -1.7730 H     1 <1>   0.0800 
 47 H        7.0080    -9.0070    -1.7050 H     1 <1>   0.0800 
 48 H        8.0150    -8.5240    -0.3590 H     1 <1>   0.0800 
@<TRIPOS>BOND
  1   1   2  2   
  2   2   3  1   
  3   2   4  1   
  4   3   5  1   
  5   4   6  ar  
  6   4   7  ar  
  7   5  26  1   
  8   5  27  1   
  9   5  28  1   
 10   6   8  1   
 11   6   9  ar  
 12   7  10  ar  
 13   7  29  1   
 14   8  11  am  
 15   8  30  1   
 16   9  12  ar  
 17   9  31  1   
 18  10  12  ar  
 19  10  32  1   
 20  11  13  2   
 21  11  14  1   
 22  12  33  1   
 23  14  15  1   
 24  14  34  1   
 25  14  35  1   
 26  15  16  1   
 27  16  17  ar  
 28  16  18  ar  
 29  17  19  ar  
 30  17  20  1   
 31  18  21  ar  
 32  18  36  1   
 33  19  22  ar  
 34  19  37  1   
 35  20  23  1   
 36  20  24  1   
 37  20  38  1   
 38  21  22  ar  
 39  21  25  1   
 40  22  39  1   
 41  23  40  1   
 42  23  41  1   
 43  23  42  1   
 44  24  43  1   
 45  24  44  1   
 46  24  45  1   
 47  25  46  1   
 48  25  47  1   
 49  25  48  1   
@<TRIPOS>SUBSTRUCTURE
  1 ****  15 GROUP 4 **** **** 0

# MOE 2024.06 (io_trps.svl 2023.06)
