@<TRIPOS>MOLECULE
NONAME
48 50 1 0 0 
SMALL
USER_CHARGES


@<TRIPOS>ATOM
  1 O        1.1210    -2.5100    -0.4700 O.2   1 <1>  -0.5700 
  2 C        0.1870    -2.0400     0.1580 C.2   1 <1>   0.5440 
  3 N        0.4450    -0.9930     0.9990 N.am  1 <1>  -0.7300 
  4 C       -1.1570    -2.5790     0.0410 C.ar  1 <1>   0.0860 
  5 C        1.7960    -0.4180     1.2610 C.3   1 <1>   0.1400 
  6 C       -1.3900    -3.9570    -0.1270 C.ar  1 <1>   0.1170 
  7 C       -2.2620    -1.7250     0.1070 C.ar  1 <1>  -0.1500 
  8 C        2.3530     0.3360     0.0440 C.3   1 <1>   0.2000 
  9 N       -0.2980    -4.8300    -0.2310 N.am  1 <1>  -0.5470 
 10 C       -2.7000    -4.4230    -0.2070 C.ar  1 <1>  -0.1500 
 11 C       -3.5540    -2.2040     0.0280 C.ar  1 <1>  -0.1500 
 12 O        3.5170     0.9980     0.4110 O.3   1 <1>  -0.5600 
 13 C        1.4560     1.4430    -0.4960 C.3   1 <1>  -0.1600 
 14 C       -0.1110    -6.1610     0.0590 C.2   1 <1>   0.5440 
 15 C       -3.7740    -3.5600    -0.1270 C.ar  1 <1>  -0.1500 
 16 C        3.7920     2.0130    -0.5000 C.3   1 <1>   0.1200 
 17 C        2.4480     2.4270    -1.0960 C.3   1 <1>  -0.1600 
 18 O       -1.0480    -6.8330     0.4430 O.2   1 <1>  -0.5700 
 19 C        1.2100    -6.7470    -0.0900 C.ar  1 <1>   0.0860 
 20 C        1.3680    -8.1280    -0.2260 C.ar  1 <1>  -0.1500 
 21 C        2.3770    -5.9730    -0.1050 C.ar  1 <1>  -0.1500 
 22 C        2.6140    -8.7060    -0.3790 C.ar  1 <1>  -0.1500 
 23 C        3.6270    -6.5440    -0.2600 C.ar  1 <1>  -0.1500 
 24 C        3.7550    -7.9220    -0.4010 C.ar  1 <1>   0.0830 
 25 O        4.9370    -8.5570    -0.5580 O.3   1 <1>  -0.3630 
 26 C        6.1590    -7.8550    -0.5940 C.3   1 <1>   0.0400 
 27 H       -0.2960    -0.6660     1.6210 H     1 <1>   0.3700 
 28 H        2.4740    -1.2150     1.5140 H     1 <1>   0.0800 
 29 H        1.7330     0.2580     2.0950 H     1 <1>   0.0800 
 30 H       -2.1080    -0.6660     0.2150 H     1 <1>   0.1500 
 31 H        2.6100    -0.3580    -0.7390 H     1 <1>   0.0800 
 32 H        0.5620    -4.3350    -0.5000 H     1 <1>   0.3700 
 33 H       -2.8860    -5.4730    -0.3390 H     1 <1>   0.1500 
 34 H       -4.3910    -1.5280     0.0840 H     1 <1>   0.1500 
 35 H        0.9190     1.9050     0.3140 H     1 <1>   0.0800 
 36 H        0.7560     1.0640    -1.2190 H     1 <1>   0.0800 
 37 H       -4.7790    -3.9430    -0.1880 H     1 <1>   0.1500 
 38 H        4.4490     1.6160    -1.2560 H     1 <1>   0.0800 
 39 H        4.2740     2.8210     0.0220 H     1 <1>   0.0800 
 40 H        2.2050     3.4420    -0.8350 H     1 <1>   0.0800 
 41 H        2.4840     2.3390    -2.1670 H     1 <1>   0.0800 
 42 H        0.4930    -8.7560    -0.2100 H     1 <1>   0.1500 
 43 H        2.3200    -4.9050     0.0110 H     1 <1>   0.1500 
 44 H        2.7120    -9.7720    -0.4840 H     1 <1>   0.1500 
 45 H        4.4890    -5.9030    -0.2670 H     1 <1>   0.1500 
 46 H        6.9510    -8.5690    -0.7280 H     1 <1>   0.0800 
 47 H        6.2900    -7.3340     0.3380 H     1 <1>   0.0800 
 48 H        6.1420    -7.1680    -1.4220 H     1 <1>   0.0800 
@<TRIPOS>BOND
  1   1   2  2   
  2   2   3  am  
  3   2   4  1   
  4   3   5  1   
  5   3  27  1   
  6   4   6  ar  
  7   4   7  ar  
  8   5   8  1   
  9   5  28  1   
 10   5  29  1   
 11   6   9  1   
 12   6  10  ar  
 13   7  11  ar  
 14   7  30  1   
 15   8  12  1   
 16   8  13  1   
 17   8  31  1   
 18   9  14  am  
 19   9  32  1   
 20  10  15  ar  
 21  10  33  1   
 22  11  15  ar  
 23  11  34  1   
 24  12  16  1   
 25  13  17  1   
 26  13  35  1   
 27  13  36  1   
 28  14  18  2   
 29  14  19  1   
 30  15  37  1   
 31  16  17  1   
 32  16  38  1   
 33  16  39  1   
 34  17  40  1   
 35  17  41  1   
 36  19  20  ar  
 37  19  21  ar  
 38  20  22  ar  
 39  20  42  1   
 40  21  23  ar  
 41  21  43  1   
 42  22  24  ar  
 43  22  44  1   
 44  23  24  ar  
 45  23  45  1   
 46  24  25  1   
 47  25  26  1   
 48  26  46  1   
 49  26  47  1   
 50  26  48  1   
@<TRIPOS>SUBSTRUCTURE
  1 ****   1 GROUP 4 **** **** 0

# MOE 2024.06 (io_trps.svl 2023.06)
