@<TRIPOS>MOLECULE
NONAME
51 54 1 0 0 
SMALL
USER_CHARGES


@<TRIPOS>ATOM
  1 N        0.2230     0.1010    -0.2570 N.3   1 <1>  -0.8100 
  2 C        0.0390     0.3350     1.2010 C.3   1 <1>   0.1100 
  3 C        1.6270    -0.2640    -0.5540 C.3   1 <1>   0.1100 
  4 C       -0.7310    -0.8960    -0.7840 C.3   1 <1>   0.2540 
  5 C        1.0670     1.3420     1.7720 C.3   1 <1>   0.3430 
  6 C        2.6200     0.8230    -0.0680 C.3   1 <1>   0.3430 
  7 C       -2.1620    -0.4290    -0.5620 C.ar  1 <1>  -0.1440 
  8 N        1.9070     1.9170     0.6740 N.4   1 <1>  -0.9590 
  9 C       -3.0170    -1.1400     0.2660 C.ar  1 <1>  -0.1500 
 10 C       -2.6240     0.7200    -1.1830 C.ar  1 <1>  -0.1500 
 11 C        2.7600     3.0530     1.1140 C.3   1 <1>   0.3430 
 12 C       -4.3140    -0.7020     0.4740 C.ar  1 <1>  -0.1500 
 13 C       -3.9200     1.1580    -0.9760 C.ar  1 <1>  -0.1500 
 14 C        3.2660     3.8640    -0.0930 C.3   1 <1>  -0.0800 
 15 C       -4.7710     0.4500    -0.1430 C.ar  1 <1>  -0.1430 
 16 C        4.0600     5.2220     0.4180 C.3   1 <1>   0.0580 
 17 C        2.0200     4.3990    -1.1380 C.3   1 <1>  -0.1600 
 18 C       -6.1940     0.9260     0.0860 C.3   1 <1>  -0.0970 
 19 C        3.9570     6.8300     0.3250 C.2   1 <1>  -0.2880 
 20 C        3.0910     5.5070    -0.4520 C.3   1 <1>  -0.1600 
 21 C        2.1460     6.0450    -1.2210 C.3   1 <1>   0.0580 
 22 C        2.9550     7.2610    -0.5330 C.2   1 <1>  -0.2880 
 23 H        0.1160    -0.5950     1.7380 H     1 <1>   0.0800 
 24 H       -0.9480     0.7270     1.3800 H     1 <1>   0.0800 
 25 H        1.7480    -0.3940    -1.6160 H     1 <1>   0.0800 
 26 H        1.8690    -1.2020    -0.0820 H     1 <1>   0.0800 
 27 H       -0.5740    -1.8480    -0.3070 H     1 <1>   0.0800 
 28 H       -0.5740    -1.0210    -1.8420 H     1 <1>   0.0800 
 29 H        1.6920     0.8430     2.4930 H     1 <1>   0.0800 
 30 H        0.5350     2.1270     2.2830 H     1 <1>   0.0800 
 31 H        3.1260     1.2330    -0.9260 H     1 <1>   0.0800 
 32 H        3.3640     0.3680     0.5650 H     1 <1>   0.0800 
 33 H        1.2050     2.2520    -0.0060 H     1 <1>   0.4500 
 34 H       -2.6840    -2.0390     0.7540 H     1 <1>   0.1500 
 35 H       -1.9710     1.2790    -1.8310 H     1 <1>   0.1500 
 36 H        3.5960     2.6900     1.6890 H     1 <1>   0.0800 
 37 H        2.1810     3.7090     1.7430 H     1 <1>   0.0800 
 38 H       -4.9680    -1.2630     1.1180 H     1 <1>   0.1500 
 39 H       -4.2650     2.0510    -1.4680 H     1 <1>   0.1500 
 40 H        3.9610     3.2440    -0.6430 H     1 <1>   0.0800 
 41 H        5.0720     5.0460     0.0770 H     1 <1>   0.0800 
 42 H        1.0410     4.1350    -0.7670 H     1 <1>   0.0800 
 43 H        2.1250     3.9570    -2.1190 H     1 <1>   0.0800 
 44 H       -6.8590     0.4220    -0.5920 H     1 <1>   0.0800 
 45 H       -6.2700     1.9860    -0.0770 H     1 <1>   0.0800 
 46 H       -6.5010     0.7150     1.0950 H     1 <1>   0.0800 
 47 H        4.6420     7.4270     0.9060 H     1 <1>   0.1500 
 48 H        3.8470     5.4990    -1.3440 H     1 <1>   0.0800 
 49 H        2.3250     5.6050     0.4910 H     1 <1>   0.0800 
 50 H        2.3230     6.2180    -2.2740 H     1 <1>   0.0800 
 51 H        2.6710     8.2710    -0.7800 H     1 <1>   0.1500 
@<TRIPOS>BOND
  1   1   2  1   
  2   1   3  1   
  3   1   4  1   
  4   2   5  1   
  5   2  23  1   
  6   2  24  1   
  7   3   6  1   
  8   3  25  1   
  9   3  26  1   
 10   4   7  1   
 11   4  27  1   
 12   4  28  1   
 13   5   8  1   
 14   5  29  1   
 15   5  30  1   
 16   6   8  1   
 17   6  31  1   
 18   6  32  1   
 19   7   9  ar  
 20   7  10  ar  
 21   8  11  1   
 22   8  33  1   
 23   9  12  ar  
 24   9  34  1   
 25  10  13  ar  
 26  10  35  1   
 27  11  14  1   
 28  11  36  1   
 29  11  37  1   
 30  12  15  ar  
 31  12  38  1   
 32  13  15  ar  
 33  13  39  1   
 34  14  16  1   
 35  14  17  1   
 36  14  40  1   
 37  15  18  1   
 38  16  19  1   
 39  16  20  1   
 40  16  41  1   
 41  17  21  1   
 42  17  42  1   
 43  17  43  1   
 44  18  44  1   
 45  18  45  1   
 46  18  46  1   
 47  19  22  2   
 48  19  47  1   
 49  20  21  1   
 50  20  48  1   
 51  20  49  1   
 52  21  22  1   
 53  21  50  1   
 54  22  51  1   
@<TRIPOS>SUBSTRUCTURE
  1 ****   8 GROUP 4 **** **** 0

# MOE 2024.06 (io_trps.svl 2023.06)
