@<TRIPOS>MOLECULE
NONAME
39 40 1 0 0 
SMALL
USER_CHARGES


@<TRIPOS>ATOM
  1 S        0.1830     1.6750     1.2690 S.3   1 <1>  -0.0800 
  2 C        1.2900     1.2360     0.0090 C.2   1 <1>   0.4420 
  3 C       -1.1050     1.3220     0.1680 C.2   1 <1>   0.1980 
  4 N        0.6820     0.8860    -1.0660 N.2   1 <1>  -0.3380 
  5 N        2.6300     1.3300     0.3130 N.am  1 <1>  -0.4940 
  6 N       -0.6820     0.9370    -0.9670 N.2   1 <1>  -0.3380 
  7 C       -2.5260     1.5080     0.6740 C.3   1 <1>   0.0200 
  8 C        3.7140     0.9410    -0.4160 C.2   1 <1>   0.6900 
  9 C       -3.5860     1.1670    -0.3860 C.3   1 <1>  -0.1600 
 10 O        3.5940     0.2520    -1.4050 O.2   1 <1>  -0.5700 
 11 N        4.9380     1.3500     0.0330 N.am  1 <1>  -0.5470 
 12 C       -5.0090     1.3640     0.1520 C.3   1 <1>  -0.1600 
 13 C        6.2540     1.0610    -0.3720 C.ar  1 <1>   0.1170 
 14 C       -6.0510     1.0210    -0.9160 C.3   1 <1>  -0.2400 
 15 C        7.2830     1.8710     0.1230 C.ar  1 <1>   0.0820 
 16 C        6.5800     0.0100    -1.2230 C.ar  1 <1>  -0.1500 
 17 O        6.9250     2.8880     0.9670 O.3   1 <1>  -0.3630 
 18 C        8.6030     1.6250    -0.2440 C.ar  1 <1>  -0.1500 
 19 C        7.8940    -0.2300    -1.5840 C.ar  1 <1>  -0.1500 
 20 C        7.8850     3.7960     1.4620 C.3   1 <1>   0.0400 
 21 C        8.9050     0.5770    -1.0960 C.ar  1 <1>  -0.1500 
 22 H        2.8400     1.6900     1.2340 H     1 <1>   0.3700 
 23 H       -2.6470     2.5310     0.9840 H     1 <1>   0.0800 
 24 H       -2.6670     0.8780     1.5340 H     1 <1>   0.0800 
 25 H       -3.4560     0.1440    -0.6970 H     1 <1>   0.0800 
 26 H       -3.4360     1.7950    -1.2480 H     1 <1>   0.0800 
 27 H        4.9300     2.1190     0.6990 H     1 <1>   0.3700 
 28 H       -5.1440     2.3880     0.4590 H     1 <1>   0.0800 
 29 H       -5.1640     0.7330     1.0110 H     1 <1>   0.0800 
 30 H       -5.9290     1.6540    -1.7770 H     1 <1>   0.0800 
 31 H       -7.0420     1.1640    -0.5240 H     1 <1>   0.0800 
 32 H       -5.9490    -0.0050    -1.2240 H     1 <1>   0.0800 
 33 H        5.8110    -0.6330    -1.6100 H     1 <1>   0.1500 
 34 H        9.4110     2.2300     0.1190 H     1 <1>   0.1500 
 35 H        8.1250    -1.0460    -2.2460 H     1 <1>   0.1500 
 36 H        7.3780     4.5190     2.0760 H     1 <1>   0.0800 
 37 H        8.3590     4.2910     0.6330 H     1 <1>   0.0800 
 38 H        8.6050     3.2570     2.0530 H     1 <1>   0.0800 
 39 H        9.9260     0.3880    -1.3800 H     1 <1>   0.1500 
@<TRIPOS>BOND
  1   1   2  1   
  2   1   3  1   
  3   2   4  2   
  4   2   5  1   
  5   3   6  2   
  6   3   7  1   
  7   4   6  1   
  8   5   8  am  
  9   5  22  1   
 10   7   9  1   
 11   7  23  1   
 12   7  24  1   
 13   8  10  2   
 14   8  11  am  
 15   9  12  1   
 16   9  25  1   
 17   9  26  1   
 18  11  13  1   
 19  11  27  1   
 20  12  14  1   
 21  12  28  1   
 22  12  29  1   
 23  13  15  ar  
 24  13  16  ar  
 25  14  30  1   
 26  14  31  1   
 27  14  32  1   
 28  15  17  1   
 29  15  18  ar  
 30  16  19  ar  
 31  16  33  1   
 32  17  20  1   
 33  18  21  ar  
 34  18  34  1   
 35  19  21  ar  
 36  19  35  1   
 37  20  36  1   
 38  20  37  1   
 39  20  38  1   
 40  21  39  1   
@<TRIPOS>SUBSTRUCTURE
  1 ****   5 GROUP 4 **** **** 0

# MOE 2024.06 (io_trps.svl 2023.06)
