@<TRIPOS>MOLECULE
NONAME
48 50 1 0 0 
SMALL
USER_CHARGES


@<TRIPOS>ATOM
  1 O       -5.4650     6.2990     0.5440 O.3   1 <1>  -0.3690 
  2 C       -5.2730     7.6240     0.3280 C.ar  1 <1>   0.0740 
  3 C       -5.6600     5.4030    -0.5300 C.3   1 <1>   0.1120 
  4 C       -5.1560     8.4300     1.4500 C.ar  1 <1>  -0.1580 
  5 C       -5.1920     8.1990    -0.9390 C.ar  1 <1>  -0.1580 
  6 C       -5.8710     3.9940     0.0390 C.3   1 <1>   0.1930 
  7 C       -4.9590     9.7930     1.3180 C.ar  1 <1>  -0.1580 
  8 C       -4.9950     9.5630    -1.0680 C.ar  1 <1>  -0.1580 
  9 O       -4.8490     3.7420     0.9540 O.3   1 <1>  -0.6840 
 10 C       -5.8860     2.9190    -1.0690 C.3   1 <1>   0.3480 
 11 C       -4.8790    10.3600     0.0580 C.ar  1 <1>  -0.1580 
 12 N       -6.2980     1.5640    -0.5890 N.pl3 1 <1>  -0.7670 
 13 C       -5.6010     0.7150     0.1680 C.cat 1 <1>   1.0690 
 14 C       -7.4300     0.8830    -1.0250 C.ar  1 <1>   0.3030 
 15 N       -4.4740     1.0130     0.7620 N.pl3 1 <1>  -0.8390 
 16 N       -6.1940    -0.4730     0.2440 N.pl3 1 <1>  -0.7670 
 17 C       -7.3590    -0.3990    -0.5070 C.ar  1 <1>   0.3030 
 18 C       -8.5050     1.2630    -1.8230 C.ar  1 <1>  -0.1170 
 19 C       -5.7570    -1.6750     0.9830 C.3   1 <1>   0.3480 
 20 C       -8.3520    -1.3340    -0.7790 C.ar  1 <1>  -0.1170 
 21 C       -9.4940     0.3360    -2.0930 C.ar  1 <1>  -0.1580 
 22 C       -4.9290    -2.5670     0.0560 C.3   1 <1>  -0.1670 
 23 C       -9.4170    -0.9570    -1.5740 C.ar  1 <1>  -0.1580 
 24 C       -4.4270    -3.8220     0.7810 C.3   1 <1>  -0.2470 
 25 H       -4.7870     5.4340    -1.1590 H     1 <1>   0.0720 
 26 H       -6.5240     5.7230    -1.0860 H     1 <1>   0.0720 
 27 H       -5.2190     7.9870     2.4270 H     1 <1>   0.1420 
 28 H       -5.2760     7.6110    -1.8320 H     1 <1>   0.1420 
 29 H       -6.8070     3.9750     0.5700 H     1 <1>   0.0720 
 30 H       -4.8690    10.4120     2.1930 H     1 <1>   0.1420 
 31 H       -4.9320    10.0080    -2.0460 H     1 <1>   0.1420 
 32 H       -4.7150     4.5720     1.4730 H     1 <1>   0.3940 
 33 H       -4.9090     2.8580    -1.5170 H     1 <1>   0.0720 
 34 H       -6.5670     3.2350    -1.8400 H     1 <1>   0.0720 
 35 H       -4.7260    11.4200    -0.0460 H     1 <1>   0.1420 
 36 H       -3.9450     0.3660     1.3350 H     1 <1>   0.4450 
 37 H       -4.2240     2.0070     0.8520 H     1 <1>   0.4450 
 38 H       -8.5710     2.2570    -2.2240 H     1 <1>   0.1420 
 39 H       -6.6180    -2.2140     1.3410 H     1 <1>   0.0720 
 40 H       -5.1700    -1.3890     1.8390 H     1 <1>   0.0720 
 41 H       -8.2910    -2.3290    -0.3800 H     1 <1>   0.1420 
 42 H      -10.3360     0.6060    -2.7090 H     1 <1>   0.1420 
 43 H       -4.0810    -2.0190    -0.3150 H     1 <1>   0.0720 
 44 H       -5.5320    -2.8700    -0.7830 H     1 <1>   0.0720 
 45 H      -10.2010    -1.6630    -1.8000 H     1 <1>   0.1420 
 46 H       -3.7980    -3.5580     1.6140 H     1 <1>   0.0720 
 47 H       -3.8520    -4.4300     0.1040 H     1 <1>   0.0720 
 48 H       -5.2530    -4.4100     1.1420 H     1 <1>   0.0720 
@<TRIPOS>BOND
  1   1   2  1   
  2   1   3  1   
  3   2   4  ar  
  4   2   5  ar  
  5   3   6  1   
  6   3  25  1   
  7   3  26  1   
  8   4   7  ar  
  9   4  27  1   
 10   5   8  ar  
 11   5  28  1   
 12   6   9  1   
 13   6  10  1   
 14   6  29  1   
 15   7  11  ar  
 16   7  30  1   
 17   8  11  ar  
 18   8  31  1   
 19   9  32  1   
 20  10  12  1   
 21  10  33  1   
 22  10  34  1   
 23  11  35  1   
 24  12  13  ar  
 25  12  14  1   
 26  13  15  ar  
 27  13  16  ar  
 28  14  17  ar  
 29  14  18  ar  
 30  15  36  1   
 31  15  37  1   
 32  16  17  1   
 33  16  19  1   
 34  17  20  ar  
 35  18  21  ar  
 36  18  38  1   
 37  19  22  1   
 38  19  39  1   
 39  19  40  1   
 40  20  23  ar  
 41  20  41  1   
 42  21  23  ar  
 43  21  42  1   
 44  22  24  1   
 45  22  43  1   
 46  22  44  1   
 47  23  45  1   
 48  24  46  1   
 49  24  47  1   
 50  24  48  1   
@<TRIPOS>SUBSTRUCTURE
  1 ****  10 GROUP 4 **** **** 0

# MOE 2024.06 (io_trps.svl 2023.06)
