@<TRIPOS>MOLECULE
NONAME
36 38 1 0 0 
SMALL
USER_CHARGES


@<TRIPOS>ATOM
  1 O        0.1150     0.5090    -0.0310 O.2   1 <1>  -0.5700 
  2 C        0.0100     1.7150     0.0810 C.2   1 <1>   0.5440 
  3 N        1.1470     2.4720     0.1170 N.am  1 <1>  -0.7300 
  4 C       -1.2970     2.3450     0.1590 C.ar  1 <1>   0.0860 
  5 C        2.5280     1.9540     0.0600 C.3   1 <1>   0.2200 
  6 C       -2.4100     1.7630    -0.4470 C.ar  1 <1>  -0.1500 
  7 C       -1.4990     3.5510     0.8350 C.ar  1 <1>  -0.1500 
  8 C        3.3680     2.5770     1.1910 C.3   1 <1>  -0.0800 
  9 C        3.2330     2.4670    -1.2070 C.3   1 <1>  -0.1600 
 10 C       -3.6580     2.3560    -0.3940 C.ar  1 <1>  -0.1500 
 11 C       -2.7450     4.1490     0.8900 C.ar  1 <1>  -0.1500 
 12 C        3.7850     3.9130     0.5910 C.3   1 <1>  -0.1600 
 13 C        4.7170     1.8390     1.2390 C.3   1 <1>  -0.1600 
 14 C        4.4050     3.2990    -0.6530 C.3   1 <1>  -0.0800 
 15 C       -3.8340     3.5550     0.2740 C.ar  1 <1>  -0.1430 
 16 C        5.4290     2.3330    -0.0340 C.3   1 <1>  -0.1600 
 17 C       -5.2030     4.2100     0.3310 C.3   1 <1>  -0.0970 
 18 H        1.0730     3.4870     0.1030 H     1 <1>   0.3700 
 19 H        2.5340     0.8770     0.1130 H     1 <1>   0.0800 
 20 H       -2.2870     0.8280    -0.9660 H     1 <1>   0.1500 
 21 H       -0.6730     4.0250     1.3330 H     1 <1>   0.1500 
 22 H        2.8640     2.6160     2.1400 H     1 <1>   0.0800 
 23 H        2.5780     3.0830    -1.7980 H     1 <1>   0.0800 
 24 H        3.5840     1.6490    -1.8110 H     1 <1>   0.0800 
 25 H       -4.4930     1.8790    -0.8770 H     1 <1>   0.1500 
 26 H       -2.8660     5.0800     1.4160 H     1 <1>   0.1500 
 27 H        4.5040     4.4370     1.1990 H     1 <1>   0.0800 
 28 H        2.9530     4.5580     0.3670 H     1 <1>   0.0800 
 29 H        4.5900     0.7690     1.2420 H     1 <1>   0.0800 
 30 H        5.2730     2.1310     2.1140 H     1 <1>   0.0800 
 31 H        4.8250     3.9970    -1.3570 H     1 <1>   0.0800 
 32 H        5.6750     1.5240    -0.7000 H     1 <1>   0.0800 
 33 H        6.3300     2.8620     0.2260 H     1 <1>   0.0800 
 34 H       -5.9760     3.4630     0.3170 H     1 <1>   0.0800 
 35 H       -5.3310     4.8590    -0.5160 H     1 <1>   0.0800 
 36 H       -5.3070     4.7880     1.2310 H     1 <1>   0.0800 
@<TRIPOS>BOND
  1   1   2  2   
  2   2   3  am  
  3   2   4  1   
  4   3   5  1   
  5   3  18  1   
  6   4   6  ar  
  7   4   7  ar  
  8   5   8  1   
  9   5   9  1   
 10   5  19  1   
 11   6  10  ar  
 12   6  20  1   
 13   7  11  ar  
 14   7  21  1   
 15   8  12  1   
 16   8  13  1   
 17   8  22  1   
 18   9  14  1   
 19   9  23  1   
 20   9  24  1   
 21  10  15  ar  
 22  10  25  1   
 23  11  15  ar  
 24  11  26  1   
 25  12  14  1   
 26  12  27  1   
 27  12  28  1   
 28  13  16  1   
 29  13  29  1   
 30  13  30  1   
 31  14  16  1   
 32  14  31  1   
 33  15  17  1   
 34  16  32  1   
 35  16  33  1   
 36  17  34  1   
 37  17  35  1   
 38  17  36  1   
@<TRIPOS>SUBSTRUCTURE
  1 ****   3 GROUP 4 **** **** 0

# MOE 2024.06 (io_trps.svl 2023.06)
