@<TRIPOS>MOLECULE
NONAME
43 45 1 0 0 
SMALL
USER_CHARGES


@<TRIPOS>ATOM
  1 O        0.7290     0.1550    -0.2410 O.3   1 <1>  -0.3620 
  2 C        1.5790    -0.6430     0.4690 C.ar  1 <1>   0.0830 
  3 C       -0.3890    -0.3810    -0.9140 C.3   1 <1>   0.0400 
  4 C        2.6590    -0.0220     1.1020 C.ar  1 <1>   0.1000 
  5 C        1.4130    -2.0200     0.5820 C.ar  1 <1>  -0.1500 
  6 N        2.8420     1.3680     0.9690 N.pl3 1 <1>  -0.5500 
  7 C        3.5320    -0.7870     1.8660 C.ar  1 <1>  -0.1500 
  8 C        2.3040    -2.7720     1.3290 C.ar  1 <1>  -0.1500 
  9 C        3.9280     2.0730     0.6500 C.2   1 <1>   0.5500 
 10 C        3.3600    -2.1550     1.9750 C.ar  1 <1>  -0.1500 
 11 N        5.0380     1.4230     0.3450 N.pl3 1 <1>  -0.8190 
 12 N        3.8460     3.3690     0.6230 N.2   1 <1>  -0.6510 
 13 C        6.2700     2.0110    -0.0670 C.3   1 <1>   0.8590 
 14 C        4.9320     4.0020     0.2910 C.cat 1 <1>   0.9100 
 15 N        6.0780     3.4330    -0.0330 N.pl3 1 <1>  -0.7940 
 16 C        7.3760     1.6070     0.9140 C.3   1 <1>  -0.1600 
 17 C        6.5950     1.5600    -1.4950 C.3   1 <1>  -0.1600 
 18 N        4.8580     5.3100     0.2800 N.pl3 1 <1>  -0.7540 
 19 C        7.7180     0.1060     0.8400 C.3   1 <1>  -0.1600 
 20 C        6.9330     0.0590    -1.5820 C.3   1 <1>  -0.1600 
 21 C        8.0510    -0.3170    -0.5980 C.3   1 <1>  -0.1600 
 22 H       -0.9080     0.4270    -1.3980 H     1 <1>   0.0800 
 23 H       -1.0370    -0.8520    -0.1950 H     1 <1>   0.0800 
 24 H       -0.0500    -1.0880    -1.6500 H     1 <1>   0.0800 
 25 H        0.5990    -2.5270     0.1000 H     1 <1>   0.1500 
 26 H        1.9660     1.8890     0.9150 H     1 <1>   0.4000 
 27 H        4.3400    -0.3110     2.3900 H     1 <1>   0.1500 
 28 H        2.1700    -3.8370     1.4130 H     1 <1>   0.1500 
 29 H        4.0430    -2.7410     2.5670 H     1 <1>   0.1500 
 30 H        5.0190     0.4040     0.3230 H     1 <1>   0.4000 
 31 H        6.8960     3.9670    -0.2880 H     1 <1>   0.4500 
 32 H        7.0790     1.8600     1.9170 H     1 <1>   0.0800 
 33 H        8.2670     2.1620     0.6810 H     1 <1>   0.0800 
 34 H        7.4460     2.1130    -1.8500 H     1 <1>   0.0800 
 35 H        5.7630     1.7780    -2.1410 H     1 <1>   0.0800 
 36 H        5.6040     5.9550     0.0460 H     1 <1>   0.4500 
 37 H        3.9630     5.7270     0.5340 H     1 <1>   0.4500 
 38 H        6.8890    -0.4790     1.2020 H     1 <1>   0.0800 
 39 H        8.5610    -0.1040     1.4780 H     1 <1>   0.0800 
 40 H        7.2440    -0.1830    -2.5850 H     1 <1>   0.0800 
 41 H        6.0560    -0.5290    -1.3700 H     1 <1>   0.0800 
 42 H        8.2110    -1.3820    -0.6290 H     1 <1>   0.0800 
 43 H        8.9700     0.1530    -0.9050 H     1 <1>   0.0800 
@<TRIPOS>BOND
  1   1   2  1   
  2   1   3  1   
  3   2   4  ar  
  4   2   5  ar  
  5   3  22  1   
  6   3  23  1   
  7   3  24  1   
  8   4   6  1   
  9   4   7  ar  
 10   5   8  ar  
 11   5  25  1   
 12   6   9  1   
 13   6  26  1   
 14   7  10  ar  
 15   7  27  1   
 16   8  10  ar  
 17   8  28  1   
 18   9  11  1   
 19   9  12  2   
 20  10  29  1   
 21  11  13  1   
 22  11  30  1   
 23  12  14  1   
 24  13  15  1   
 25  13  16  1   
 26  13  17  1   
 27  14  15  ar  
 28  14  18  ar  
 29  15  31  1   
 30  16  19  1   
 31  16  32  1   
 32  16  33  1   
 33  17  20  1   
 34  17  34  1   
 35  17  35  1   
 36  18  36  1   
 37  18  37  1   
 38  19  21  1   
 39  19  38  1   
 40  19  39  1   
 41  20  21  1   
 42  20  40  1   
 43  20  41  1   
 44  21  42  1   
 45  21  43  1   
@<TRIPOS>SUBSTRUCTURE
  1 ****  11 GROUP 4 **** **** 0

# MOE 2024.06 (io_trps.svl 2023.06)
