@<TRIPOS>MOLECULE
NONAME
52 53 1 0 0 
SMALL
USER_CHARGES


@<TRIPOS>ATOM
  1 O       -3.7810     5.0830     2.1100 O.3   1 <1>  -0.3630 
  2 C       -3.2610     5.2840     0.8650 C.ar  1 <1>   0.0830 
  3 C       -5.0650     5.5260     2.4900 C.3   1 <1>   0.0400 
  4 C       -3.7260     6.1830    -0.1110 C.ar  1 <1>   0.0830 
  5 C       -2.1580     4.4940     0.5890 C.ar  1 <1>  -0.1500 
  6 O       -4.7970     6.9890     0.1480 O.3   1 <1>  -0.3630 
  7 C       -3.0640     6.2410    -1.3350 C.ar  1 <1>  -0.1500 
  8 C       -1.4980     4.5590    -0.6270 C.ar  1 <1>  -0.1430 
  9 C       -5.3430     7.8680    -0.8120 C.3   1 <1>   0.0400 
 10 C       -1.9640     5.4420    -1.5910 C.ar  1 <1>  -0.1500 
 11 C       -0.2810     3.6780    -0.8400 C.3   1 <1>   0.5660 
 12 N        0.8710     4.5850    -0.8920 N.4   1 <1>  -0.9060 
 13 C       -0.3730     2.8360    -2.1220 C.3   1 <1>  -0.1600 
 14 C        2.0500     4.0870    -0.1380 C.3   1 <1>   0.3430 
 15 C        0.8260     1.9010    -2.3610 C.3   1 <1>  -0.2400 
 16 C        3.2100     5.0750    -0.2420 C.3   1 <1>  -0.0220 
 17 C        4.4590     4.5880     0.4840 C.2   1 <1>  -0.2760 
 18 C        4.5840     3.4170     1.1240 C.2   1 <1>  -0.2880 
 19 C        5.6020     5.6010     0.4170 C.3   1 <1>  -0.0220 
 20 C        5.8380     2.9730     1.8640 C.3   1 <1>  -0.0220 
 21 C        6.9480     4.9860     0.8250 C.3   1 <1>  -0.1600 
 22 C        6.8050     4.1410     2.0940 C.3   1 <1>  -0.1600 
 23 H       -5.3050     5.0840     3.4400 H     1 <1>   0.0800 
 24 H       -5.7780     5.2130     1.7480 H     1 <1>   0.0800 
 25 H       -5.0510     6.5970     2.5820 H     1 <1>   0.0800 
 26 H       -1.8310     3.8190     1.3620 H     1 <1>   0.1500 
 27 H       -3.3900     6.9100    -2.1100 H     1 <1>   0.1500 
 28 H       -6.1890     8.3610    -0.3680 H     1 <1>   0.0800 
 29 H       -5.6620     7.2990    -1.6670 H     1 <1>   0.0800 
 30 H       -4.6000     8.5960    -1.0840 H     1 <1>   0.0800 
 31 H       -1.4890     5.5260    -2.5540 H     1 <1>   0.1500 
 32 H       -0.1860     3.0180     0.0080 H     1 <1>   0.0800 
 33 H        0.5450     5.4740    -0.4910 H     1 <1>   0.4500 
 34 H        1.1030     4.7540    -1.8740 H     1 <1>   0.4500 
 35 H       -0.5050     3.4690    -2.9810 H     1 <1>   0.0800 
 36 H       -1.2590     2.2280    -2.0460 H     1 <1>   0.0800 
 37 H        2.3670     3.1360    -0.5320 H     1 <1>   0.0800 
 38 H        1.7960     3.9540     0.9020 H     1 <1>   0.0800 
 39 H        1.7260     2.4540    -2.5650 H     1 <1>   0.0800 
 40 H        0.6280     1.2740    -3.2140 H     1 <1>   0.0800 
 41 H        0.9880     1.2590    -1.5120 H     1 <1>   0.0800 
 42 H        2.9140     6.0170     0.1870 H     1 <1>   0.0800 
 43 H        3.4580     5.2270    -1.2780 H     1 <1>   0.0800 
 44 H        3.8210     2.6620     1.1860 H     1 <1>   0.1500 
 45 H        5.3770     6.4250     1.0720 H     1 <1>   0.0800 
 46 H        5.7010     5.9890    -0.5820 H     1 <1>   0.0800 
 47 H        6.3280     2.2060     1.2890 H     1 <1>   0.0800 
 48 H        5.5690     2.5520     2.8170 H     1 <1>   0.0800 
 49 H        7.6690     5.7700     0.9850 H     1 <1>   0.0800 
 50 H        7.3100     4.3620     0.0260 H     1 <1>   0.0800 
 51 H        7.7650     3.7600     2.3950 H     1 <1>   0.0800 
 52 H        6.4290     4.7610     2.8900 H     1 <1>   0.0800 
@<TRIPOS>BOND
  1   1   2  1   
  2   1   3  1   
  3   2   4  ar  
  4   2   5  ar  
  5   3  23  1   
  6   3  24  1   
  7   3  25  1   
  8   4   6  1   
  9   4   7  ar  
 10   5   8  ar  
 11   5  26  1   
 12   6   9  1   
 13   7  10  ar  
 14   7  27  1   
 15   8  10  ar  
 16   8  11  1   
 17   9  28  1   
 18   9  29  1   
 19   9  30  1   
 20  10  31  1   
 21  11  12  1   
 22  11  13  1   
 23  11  32  1   
 24  12  14  1   
 25  12  33  1   
 26  12  34  1   
 27  13  15  1   
 28  13  35  1   
 29  13  36  1   
 30  14  16  1   
 31  14  37  1   
 32  14  38  1   
 33  15  39  1   
 34  15  40  1   
 35  15  41  1   
 36  16  17  1   
 37  16  42  1   
 38  16  43  1   
 39  17  18  2   
 40  17  19  1   
 41  18  20  1   
 42  18  44  1   
 43  19  21  1   
 44  19  45  1   
 45  19  46  1   
 46  20  22  1   
 47  20  47  1   
 48  20  48  1   
 49  21  22  1   
 50  21  49  1   
 51  21  50  1   
 52  22  51  1   
 53  22  52  1   
@<TRIPOS>SUBSTRUCTURE
  1 ****  12 GROUP 4 **** **** 0

# MOE 2024.06 (io_trps.svl 2023.06)
