@<TRIPOS>MOLECULE
NONAME
47 48 1 0 0 
SMALL
USER_CHARGES


@<TRIPOS>ATOM
  1 S        0.2850    -1.9150    -0.2910 S.3   1 <1>  -0.2860 
  2 C       -1.3850    -1.2880    -0.0860 C.2   1 <1>   0.2420 
  3 C        1.2450    -0.9220     0.9560 C.3   1 <1>   0.1310 
  4 N       -1.6900    -0.3360     0.7200 N.2   1 <1>  -0.3380 
  5 N       -2.4250    -1.7680    -0.7660 N.pl3 1 <1>   0.0480 
  6 C        2.7350    -1.1950     0.8490 C.2   1 <1>   0.5690 
  7 N       -3.0060    -0.1560     0.5800 N.2   1 <1>  -0.3380 
  8 C       -3.4270    -1.0060    -0.3010 C.2   1 <1>   0.0060 
  9 C       -2.4360    -2.8520    -1.7690 C.3   1 <1>   0.0160 
 10 O        3.4150    -1.0580     1.8360 O.2   1 <1>  -0.5700 
 11 N        3.2480    -1.5730    -0.3590 N.am  1 <1>  -0.5470 
 12 C       -4.8730    -1.1460    -0.7690 C.3   1 <1>   0.0200 
 13 C        4.5820    -1.8400    -0.6940 C.ar  1 <1>   0.1170 
 14 C       -5.8080    -0.0850    -0.1760 C.3   1 <1>  -0.2400 
 15 C        5.3390    -0.8750    -1.3670 C.ar  1 <1>  -0.1430 
 16 C        5.1580    -3.0780    -0.3890 C.ar  1 <1>  -0.1430 
 17 C        6.6460    -1.1560    -1.7270 C.ar  1 <1>  -0.1500 
 18 C        4.7780     0.5010    -1.7170 C.3   1 <1>  -0.0170 
 19 C        6.4660    -3.3370    -0.7630 C.ar  1 <1>  -0.1500 
 20 C        4.3920    -4.1720     0.3510 C.3   1 <1>  -0.0170 
 21 C        7.2100    -2.3820    -1.4300 C.ar  1 <1>  -0.1500 
 22 C        5.0050     1.4840    -0.5650 C.3   1 <1>  -0.2400 
 23 C        3.5140    -4.9770    -0.6110 C.3   1 <1>  -0.2400 
 24 H        0.8800    -1.1940     1.9290 H     1 <1>   0.0800 
 25 H        1.0410     0.1160     0.7690 H     1 <1>   0.0800 
 26 H       -2.1020    -2.4640    -2.7140 H     1 <1>   0.0800 
 27 H       -3.4300    -3.2470    -1.8730 H     1 <1>   0.0800 
 28 H       -1.7770    -3.6400    -1.4530 H     1 <1>   0.0800 
 29 H        2.5720    -1.7010    -1.1110 H     1 <1>   0.3700 
 30 H       -5.2340    -2.1200    -0.4910 H     1 <1>   0.0800 
 31 H       -4.9010    -1.0690    -1.8410 H     1 <1>   0.0800 
 32 H       -5.8190    -0.1580     0.8970 H     1 <1>   0.0800 
 33 H       -6.8090    -0.2230    -0.5420 H     1 <1>   0.0800 
 34 H       -5.4710     0.9000    -0.4490 H     1 <1>   0.0800 
 35 H        7.2380    -0.4180    -2.2400 H     1 <1>   0.1500 
 36 H        3.7280     0.4380    -1.9390 H     1 <1>   0.0800 
 37 H        5.2650     0.8750    -2.6000 H     1 <1>   0.0800 
 38 H        6.9170    -4.2870    -0.5360 H     1 <1>   0.1500 
 39 H        3.7870    -3.7420     1.1300 H     1 <1>   0.0800 
 40 H        5.0870    -4.8360     0.8330 H     1 <1>   0.0800 
 41 H        8.2260    -2.5920    -1.7140 H     1 <1>   0.1500 
 42 H        4.5240     1.1270     0.3290 H     1 <1>   0.0800 
 43 H        4.6050     2.4500    -0.8130 H     1 <1>   0.0800 
 44 H        6.0580     1.5830    -0.3660 H     1 <1>   0.0800 
 45 H        2.7860    -4.3380    -1.0750 H     1 <1>   0.0800 
 46 H        3.0010    -5.7560    -0.0770 H     1 <1>   0.0800 
 47 H        4.1220    -5.4230    -1.3780 H     1 <1>   0.0800 
@<TRIPOS>BOND
  1   1   2  1   
  2   1   3  1   
  3   2   4  2   
  4   2   5  1   
  5   3   6  1   
  6   3  24  1   
  7   3  25  1   
  8   4   7  1   
  9   5   8  1   
 10   5   9  1   
 11   6  10  2   
 12   6  11  am  
 13   7   8  2   
 14   8  12  1   
 15   9  26  1   
 16   9  27  1   
 17   9  28  1   
 18  11  13  1   
 19  11  29  1   
 20  12  14  1   
 21  12  30  1   
 22  12  31  1   
 23  13  15  ar  
 24  13  16  ar  
 25  14  32  1   
 26  14  33  1   
 27  14  34  1   
 28  15  17  ar  
 29  15  18  1   
 30  16  19  ar  
 31  16  20  1   
 32  17  21  ar  
 33  17  35  1   
 34  18  22  1   
 35  18  36  1   
 36  18  37  1   
 37  19  21  ar  
 38  19  38  1   
 39  20  23  1   
 40  20  39  1   
 41  20  40  1   
 42  21  41  1   
 43  22  42  1   
 44  22  43  1   
 45  22  44  1   
 46  23  45  1   
 47  23  46  1   
 48  23  47  1   
@<TRIPOS>SUBSTRUCTURE
  1 ****   1 GROUP 4 **** **** 0

# MOE 2024.06 (io_trps.svl 2023.06)
