@<TRIPOS>MOLECULE
NONAME
35 36 1 0 0 
SMALL
USER_CHARGES


@<TRIPOS>ATOM
  1 S        0.1690     0.2040     0.5720 S.o2  1 <1>   1.4470 
  2 O        0.0520    -0.1460     1.9700 O.2   1 <1>  -0.6500 
  3 O        0.6290    -0.8120    -0.3490 O.2   1 <1>  -0.6500 
  4 N       -1.3780     0.6560     0.0410 N.am  1 <1>  -0.8490 
  5 C        1.1770     1.6850     0.3050 C.ar  1 <1>  -0.0090 
  6 C       -2.1920    -0.5290    -0.2860 C.3   1 <1>   0.1960 
  7 C       -2.1020     1.4880     1.0240 C.3   1 <1>   0.1960 
  8 C        1.2920     2.6910     1.2570 C.ar  1 <1>   0.1900 
  9 C        1.8590     1.8760    -0.8940 C.ar  1 <1>  -0.1500 
 10 C       -3.5990    -0.1410    -0.7800 C.3   1 <1>   0.1960 
 11 C       -3.5140     1.8680     0.5360 C.3   1 <1>   0.1960 
 12 F        0.6590     2.5830     2.3930 F     1 <1>  -0.1900 
 13 C        2.0480     3.8390     1.0720 C.ar  1 <1>  -0.1500 
 14 C        2.6140     3.0200    -1.0830 C.ar  1 <1>   0.1900 
 15 N       -4.3210     0.6790     0.2110 N.am  1 <1>  -0.8490 
 16 C        2.7250     4.0090    -0.1230 C.ar  1 <1>  -0.1500 
 17 F        3.2460     3.1740    -2.2150 F     1 <1>  -0.1900 
 18 S       -5.8810     1.1000    -0.2940 S.o2  1 <1>   1.3330 
 19 O       -5.8730     1.1800    -1.7360 O.2   1 <1>  -0.6500 
 20 O       -6.3130     2.2310     0.4930 O.2   1 <1>  -0.6500 
 21 C       -6.8420    -0.3110     0.2070 C.3   1 <1>  -0.1350 
 22 H       -2.2830    -1.1630     0.5810 H     1 <1>   0.0800 
 23 H       -1.7080    -1.0960    -1.0630 H     1 <1>   0.0800 
 24 H       -1.5540     2.3950     1.2040 H     1 <1>   0.0800 
 25 H       -2.1940     0.9630     1.9610 H     1 <1>   0.0800 
 26 H        1.8070     1.1390    -1.6770 H     1 <1>   0.1500 
 27 H       -4.1570    -1.0390    -0.9820 H     1 <1>   0.0800 
 28 H       -3.4980     0.4010    -1.7070 H     1 <1>   0.0800 
 29 H       -3.4330     2.5040    -0.3300 H     1 <1>   0.0800 
 30 H       -3.9990     2.4300     1.3160 H     1 <1>   0.0800 
 31 H        2.1020     4.5810     1.8500 H     1 <1>   0.1500 
 32 H        3.3240     4.8830    -0.3110 H     1 <1>   0.1500 
 33 H       -6.4980    -1.1940    -0.2920 H     1 <1>   0.0800 
 34 H       -7.8740    -0.1550    -0.0400 H     1 <1>   0.0800 
 35 H       -6.7590    -0.4530     1.2660 H     1 <1>   0.0800 
@<TRIPOS>BOND
  1   1   2  2   
  2   1   3  2   
  3   1   4  am  
  4   1   5  1   
  5   4   6  1   
  6   4   7  1   
  7   5   8  ar  
  8   5   9  ar  
  9   6  10  1   
 10   6  22  1   
 11   6  23  1   
 12   7  11  1   
 13   7  24  1   
 14   7  25  1   
 15   8  12  1   
 16   8  13  ar  
 17   9  14  ar  
 18   9  26  1   
 19  10  15  1   
 20  10  27  1   
 21  10  28  1   
 22  11  15  1   
 23  11  29  1   
 24  11  30  1   
 25  13  16  ar  
 26  13  31  1   
 27  14  16  ar  
 28  14  17  1   
 29  15  18  am  
 30  16  32  1   
 31  18  19  2   
 32  18  20  2   
 33  18  21  1   
 34  21  33  1   
 35  21  34  1   
 36  21  35  1   
@<TRIPOS>SUBSTRUCTURE
  1 ****   4 GROUP 4 **** **** 0

# MOE 2024.06 (io_trps.svl 2023.06)
