@<TRIPOS>MOLECULE
NONAME
37 38 1 0 0 
SMALL
USER_CHARGES


@<TRIPOS>ATOM
  1 O       -0.6210     0.4650     0.7690 O.2   1 <1>  -0.5770 
  2 C       -1.8090     0.3540     0.5800 C.2   1 <1>   0.6840 
  3 N       -2.6240     1.4450     0.3100 N.am  1 <1>  -0.4440 
  4 N       -2.3610    -0.8930     0.6320 N.am  1 <1>  -0.4970 
  5 C       -3.9740     1.2040     0.1030 C.2   1 <1>   0.4180 
  6 C       -2.0680     2.8280     0.2430 C.3   1 <1>   0.0490 
  7 C       -3.6870    -1.1470     0.4290 C.2   1 <1>   0.6970 
  8 N       -4.9460     2.1100    -0.1860 N.pl3 1 <1>  -0.7060 
  9 C       -4.5370    -0.0250     0.1560 C.2   1 <1>   0.2680 
 10 O       -4.0850    -2.2940     0.4800 O.2   1 <1>  -0.5770 
 11 C       -6.0980     1.4570    -0.3070 C.cat 1 <1>   1.0680 
 12 N       -5.9090     0.1530    -0.1010 N.pl3 1 <1>  -0.7690 
 13 N       -7.2580     2.0370    -0.5950 N.pl3 1 <1>  -0.7200 
 14 C       -6.8770    -0.9700    -0.1820 C.3   1 <1>   0.4850 
 15 C       -7.5750     3.4570    -0.8320 C.3   1 <1>   0.1570 
 16 C       -8.2230    -0.5090     0.3400 C.2   1 <1>  -0.2970 
 17 C       -8.4530     3.9470     0.3110 C.3   1 <1>  -0.2500 
 18 C       -9.3110    -0.2920    -0.4050 C.2   1 <1>  -0.2970 
 19 C      -10.6440     0.1780     0.1470 C.3   1 <1>  -0.1130 
 20 H       -1.7370    -1.6730     0.8280 H     1 <1>   0.3610 
 21 H       -2.5840     3.4640     0.9400 H     1 <1>   0.0690 
 22 H       -2.1810     3.2180    -0.7530 H     1 <1>   0.0690 
 23 H       -1.0200     2.8330     0.4930 H     1 <1>   0.0690 
 24 H       -4.8420     3.1140    -0.2880 H     1 <1>   0.4420 
 25 H       -8.0800     1.4200    -0.5480 H     1 <1>   0.4420 
 26 H       -6.9630    -1.2910    -1.2070 H     1 <1>   0.0690 
 27 H       -6.5390    -1.8060     0.4070 H     1 <1>   0.0690 
 28 H       -6.6780     4.0490    -0.8870 H     1 <1>   0.0690 
 29 H       -8.1040     3.5550    -1.7670 H     1 <1>   0.0690 
 30 H       -8.2140    -0.3680     1.4090 H     1 <1>   0.1400 
 31 H       -7.9380     3.8650     1.2520 H     1 <1>   0.0690 
 32 H       -9.3700     3.3850     0.3540 H     1 <1>   0.0690 
 33 H       -8.7040     4.9810     0.1550 H     1 <1>   0.0690 
 34 H       -9.3440    -0.4440    -1.4740 H     1 <1>   0.1400 
 35 H      -11.4040    -0.5550    -0.0600 H     1 <1>   0.0690 
 36 H      -10.9320     1.1070    -0.3120 H     1 <1>   0.0690 
 37 H      -10.5920     0.3210     1.2120 H     1 <1>   0.0690 
@<TRIPOS>BOND
  1   1   2  2   
  2   2   3  am  
  3   2   4  am  
  4   3   5  1   
  5   3   6  1   
  6   4   7  am  
  7   4  20  1   
  8   5   8  1   
  9   5   9  2   
 10   6  21  1   
 11   6  22  1   
 12   6  23  1   
 13   7   9  1   
 14   7  10  2   
 15   8  11  ar  
 16   8  24  1   
 17   9  12  1   
 18  11  12  ar  
 19  11  13  ar  
 20  12  14  1   
 21  13  15  1   
 22  13  25  1   
 23  14  16  1   
 24  14  26  1   
 25  14  27  1   
 26  15  17  1   
 27  15  28  1   
 28  15  29  1   
 29  16  18  2   
 30  16  30  1   
 31  17  31  1   
 32  17  32  1   
 33  17  33  1   
 34  18  19  1   
 35  18  34  1   
 36  19  35  1   
 37  19  36  1   
 38  19  37  1   
@<TRIPOS>SUBSTRUCTURE
  1 ****  12 GROUP 4 **** **** 0

# MOE 2024.06 (io_trps.svl 2023.06)
