@<TRIPOS>MOLECULE
NONAME
42 43 1 0 0 
SMALL
USER_CHARGES


@<TRIPOS>ATOM
  1 O        0.4170    -0.3700    -0.6710 O.2   1 <1>  -0.5700 
  2 C        0.4200    -1.5680    -0.8230 C.2   1 <1>   0.5690 
  3 N        1.3960    -2.1890    -1.5300 N.am  1 <1>  -0.7300 
  4 C       -0.6840    -2.4200    -0.1970 C.3   1 <1>  -0.0190 
  5 C        2.5750    -1.5110    -2.1530 C.3   1 <1>   0.2010 
  6 C       -2.0830    -1.9550    -0.6450 C.3   1 <1>  -0.1600 
  7 C       -0.5790    -2.4200     1.3410 C.3   1 <1>  -0.1600 
  8 C        3.9010    -2.1260    -1.6930 C.2   1 <1>   0.5690 
  9 C       -3.1920    -2.8030    -0.0040 C.3   1 <1>  -0.1600 
 10 C       -1.6880    -3.2660     1.9830 C.3   1 <1>  -0.1600 
 11 O        4.1550    -3.2570    -2.0290 O.2   1 <1>  -0.5700 
 12 N        4.8040    -1.4410    -0.9370 N.am  1 <1>  -0.5470 
 13 C       -3.0760    -2.7980     1.5260 C.3   1 <1>  -0.1600 
 14 C        4.7540    -0.1600    -0.3790 C.ar  1 <1>   0.1170 
 15 C        5.8440     0.6890    -0.5190 C.ar  1 <1>  -0.1500 
 16 C        3.6480     0.2880     0.3320 C.ar  1 <1>  -0.1500 
 17 C        5.8230     1.9610     0.0240 C.ar  1 <1>  -0.1500 
 18 C        3.6230     1.5610     0.8710 C.ar  1 <1>  -0.1500 
 19 C        4.7100     2.4070     0.7180 C.ar  1 <1>  -0.1440 
 20 C        4.6800     3.8040     1.3120 C.3   1 <1>  -0.0970 
 21 H        1.4150    -3.2090    -1.5970 H     1 <1>   0.3700 
 22 H       -0.5530    -3.4320    -0.5350 H     1 <1>   0.0800 
 23 H        2.5560    -0.4580    -1.9400 H     1 <1>   0.0800 
 24 H        2.5090    -1.6250    -3.2190 H     1 <1>   0.0800 
 25 H       -2.1570    -2.0160    -1.7170 H     1 <1>   0.0800 
 26 H       -2.2200    -0.9240    -0.3650 H     1 <1>   0.0800 
 27 H       -0.6540    -1.4070     1.6990 H     1 <1>   0.0800 
 28 H        0.3820    -2.8020     1.6370 H     1 <1>   0.0800 
 29 H       -3.1230    -3.8150    -0.3640 H     1 <1>   0.0800 
 30 H       -4.1530    -2.4150    -0.2930 H     1 <1>   0.0800 
 31 H       -1.6200    -3.1950     3.0540 H     1 <1>   0.0800 
 32 H       -1.5530    -4.2990     1.7120 H     1 <1>   0.0800 
 33 H        5.6670    -1.9630    -0.7880 H     1 <1>   0.3700 
 34 H       -3.8310    -3.4400     1.9470 H     1 <1>   0.0800 
 35 H       -3.2520    -1.8000     1.8920 H     1 <1>   0.0800 
 36 H        6.7110     0.3560    -1.0590 H     1 <1>   0.1500 
 37 H        2.7990    -0.3560     0.4720 H     1 <1>   0.1500 
 38 H        6.6760     2.6050    -0.0970 H     1 <1>   0.1500 
 39 H        2.7510     1.8890     1.4100 H     1 <1>   0.1500 
 40 H        5.0330     3.7750     2.3270 H     1 <1>   0.0800 
 41 H        3.6780     4.1930     1.3030 H     1 <1>   0.0800 
 42 H        5.3060     4.4680     0.7440 H     1 <1>   0.0800 
@<TRIPOS>BOND
  1   1   2  2   
  2   2   3  am  
  3   2   4  1   
  4   3   5  1   
  5   3  21  1   
  6   4   6  1   
  7   4   7  1   
  8   4  22  1   
  9   5   8  1   
 10   5  23  1   
 11   5  24  1   
 12   6   9  1   
 13   6  25  1   
 14   6  26  1   
 15   7  10  1   
 16   7  27  1   
 17   7  28  1   
 18   8  11  2   
 19   8  12  am  
 20   9  13  1   
 21   9  29  1   
 22   9  30  1   
 23  10  13  1   
 24  10  31  1   
 25  10  32  1   
 26  12  14  1   
 27  12  33  1   
 28  13  34  1   
 29  13  35  1   
 30  14  15  ar  
 31  14  16  ar  
 32  15  17  ar  
 33  15  36  1   
 34  16  18  ar  
 35  16  37  1   
 36  17  19  ar  
 37  17  38  1   
 38  18  19  ar  
 39  18  39  1   
 40  19  20  1   
 41  20  40  1   
 42  20  41  1   
 43  20  42  1   
@<TRIPOS>SUBSTRUCTURE
  1 ****   1 GROUP 4 **** **** 0

# MOE 2024.06 (io_trps.svl 2023.06)
