@<TRIPOS>MOLECULE
NONAME
41 41 1 0 0 
SMALL
USER_CHARGES


@<TRIPOS>ATOM
  1 O        0.0200    -0.1740    -0.6520 O.2   1 <1>  -0.5700 
  2 C       -0.0120    -1.3800    -0.5030 C.2   1 <1>   0.5440 
  3 N        1.1580    -2.0680    -0.3240 N.am  1 <1>  -0.7300 
  4 C       -1.2790    -2.0880    -0.4970 C.ar  1 <1>   0.0860 
  5 C        2.5510    -1.5790    -0.2350 C.3   1 <1>   0.3000 
  6 C       -2.4410    -1.4780    -0.0330 C.ar  1 <1>  -0.1500 
  7 C       -1.3960    -3.4020    -0.9500 C.ar  1 <1>  -0.1500 
  8 C        2.9930    -0.8180    -1.5150 C.3   1 <1>   0.1200 
  9 C        3.4140    -2.8340    -0.0920 C.3   1 <1>  -0.2400 
 10 C        2.7000    -0.7350     1.0370 C.3   1 <1>  -0.2400 
 11 C       -3.6500    -2.1480    -0.0060 C.ar  1 <1>  -0.1500 
 12 C       -2.6040    -4.0740    -0.9230 C.ar  1 <1>  -0.1500 
 13 O        2.3930     0.4270    -1.6340 O.3   1 <1>  -0.6800 
 14 C       -3.7590    -3.4620    -0.4470 C.ar  1 <1>  -0.1430 
 15 C       -5.1310    -4.1690    -0.3960 C.3   1 <1>   0.1430 
 16 C       -5.6340    -4.2120     1.0550 C.3   1 <1>  -0.2400 
 17 C       -6.1380    -3.3980    -1.2630 C.3   1 <1>  -0.2400 
 18 C       -5.0860    -5.6170    -0.9130 C.3   1 <1>  -0.2400 
 19 H        1.0730    -3.0490    -0.0640 H     1 <1>   0.3700 
 20 H       -2.3890    -0.4600     0.3130 H     1 <1>   0.1500 
 21 H       -0.5300    -3.9070    -1.3390 H     1 <1>   0.1500 
 22 H        2.7440    -1.3920    -2.3900 H     1 <1>   0.0800 
 23 H        4.0560    -0.6520    -1.5030 H     1 <1>   0.0800 
 24 H        3.1370    -3.3920     0.7840 H     1 <1>   0.0800 
 25 H        4.4500    -2.5600     0.0030 H     1 <1>   0.0800 
 26 H        3.3140    -3.4620    -0.9600 H     1 <1>   0.0800 
 27 H        2.4240    -1.3030     1.9060 H     1 <1>   0.0800 
 28 H        2.0800     0.1420     0.9860 H     1 <1>   0.0800 
 29 H        3.7190    -0.4110     1.1460 H     1 <1>   0.0800 
 30 H       -4.5130    -1.6260     0.3660 H     1 <1>   0.1500 
 31 H       -2.6180    -5.0850    -1.2870 H     1 <1>   0.1500 
 32 H        1.4460     0.3480    -1.3300 H     1 <1>   0.4000 
 33 H       -5.7780    -3.2220     1.4460 H     1 <1>   0.0800 
 34 H       -4.9180    -4.7190     1.6770 H     1 <1>   0.0800 
 35 H       -6.5720    -4.7330     1.1170 H     1 <1>   0.0800 
 36 H       -5.7790    -3.3330    -2.2740 H     1 <1>   0.0800 
 37 H       -6.2850    -2.4010    -0.8930 H     1 <1>   0.0800 
 38 H       -7.0920    -3.8950    -1.2700 H     1 <1>   0.0800 
 39 H       -4.4110    -6.2090    -0.3220 H     1 <1>   0.0800 
 40 H       -4.7700    -5.6420    -1.9410 H     1 <1>   0.0800 
 41 H       -6.0600    -6.0690    -0.8560 H     1 <1>   0.0800 
@<TRIPOS>BOND
  1   1   2  2   
  2   2   3  am  
  3   2   4  1   
  4   3   5  1   
  5   3  19  1   
  6   4   6  ar  
  7   4   7  ar  
  8   5   8  1   
  9   5   9  1   
 10   5  10  1   
 11   6  11  ar  
 12   6  20  1   
 13   7  12  ar  
 14   7  21  1   
 15   8  13  1   
 16   8  22  1   
 17   8  23  1   
 18   9  24  1   
 19   9  25  1   
 20   9  26  1   
 21  10  27  1   
 22  10  28  1   
 23  10  29  1   
 24  11  14  ar  
 25  11  30  1   
 26  12  14  ar  
 27  12  31  1   
 28  13  32  1   
 29  14  15  1   
 30  15  16  1   
 31  15  17  1   
 32  15  18  1   
 33  16  33  1   
 34  16  34  1   
 35  16  35  1   
 36  17  36  1   
 37  17  37  1   
 38  17  38  1   
 39  18  39  1   
 40  18  40  1   
 41  18  41  1   
@<TRIPOS>SUBSTRUCTURE
  1 ****   4 GROUP 4 **** **** 0

# MOE 2024.06 (io_trps.svl 2023.06)
