@<TRIPOS>MOLECULE
NONAME
58 61 1 0 0 
SMALL
USER_CHARGES


@<TRIPOS>ATOM
  1 O       -3.7360    -1.4940    -0.6250 O.2   1 <1>  -0.5700 
  2 C       -3.1320    -0.8790     0.2230 C.2   1 <1>   0.5690 
  3 N       -2.5720    -1.5310     1.2850 N.am  1 <1>  -0.7300 
  4 C       -2.9650     0.6480     0.0710 C.3   1 <1>   0.0610 
  5 C       -2.7330    -2.9530     1.7440 C.3   1 <1>   0.1400 
  6 C       -2.1870     1.2910     1.2520 C.3   1 <1>  -0.1600 
  7 C       -4.3570     1.3220    -0.0090 C.3   1 <1>  -0.1600 
  8 C       -2.1950     0.9590    -1.2360 C.3   1 <1>  -0.1600 
  9 C       -3.0760    -4.0050     0.6590 C.3   1 <1>   0.3430 
 10 C       -2.0390     2.8140     1.0640 C.3   1 <1>   0.0000 
 11 C       -4.2330     2.8450    -0.2110 C.3   1 <1>   0.0000 
 12 C       -2.0530     2.4780    -1.4410 C.3   1 <1>  -0.0800 
 13 N       -2.3130    -3.8190    -0.6120 N.4   1 <1>  -0.9590 
 14 C       -3.4440     3.4420     0.9720 C.3   1 <1>  -0.1600 
 15 C       -1.2850     3.0820    -0.2530 C.3   1 <1>  -0.1600 
 16 C       -1.2680     3.4190     2.2440 C.3   1 <1>  -0.2400 
 17 C       -3.4530     3.1110    -1.5140 C.3   1 <1>  -0.1600 
 18 C       -5.6260     3.4810    -0.2900 C.3   1 <1>  -0.2400 
 19 C       -2.8100    -4.7070    -1.6950 C.3   1 <1>   0.3430 
 20 C       -0.8330    -3.8470    -0.4620 C.3   1 <1>   0.3430 
 21 C       -2.1870    -4.2830    -3.0260 C.3   1 <1>  -0.1600 
 22 C       -0.1810    -3.4090    -1.7750 C.3   1 <1>  -0.1600 
 23 C       -0.6540    -4.2630    -2.9590 C.3   1 <1>  -0.1600 
 24 H       -2.1200    -0.9260     1.9790 H     1 <1>   0.3700 
 25 H       -3.5030    -2.9830     2.4960 H     1 <1>   0.0800 
 26 H       -1.8190    -3.2560     2.2250 H     1 <1>   0.0800 
 27 H       -1.2070     0.8540     1.3240 H     1 <1>   0.0800 
 28 H       -2.7090     1.1040     2.1750 H     1 <1>   0.0800 
 29 H       -4.9070     1.1190     0.8940 H     1 <1>   0.0800 
 30 H       -4.9140     0.8990    -0.8270 H     1 <1>   0.0800 
 31 H       -2.7200     0.5390    -2.0770 H     1 <1>   0.0800 
 32 H       -1.2190     0.5080    -1.2030 H     1 <1>   0.0800 
 33 H       -4.1290    -3.9190     0.4430 H     1 <1>   0.0800 
 34 H       -2.9040    -4.9930     1.0520 H     1 <1>   0.0800 
 35 H       -1.5190     2.6740    -2.3560 H     1 <1>   0.0800 
 36 H       -2.5780    -2.8530    -0.8990 H     1 <1>   0.4500 
 37 H       -3.9800     3.2710     1.8890 H     1 <1>   0.0800 
 38 H       -3.3540     4.5070     0.8430 H     1 <1>   0.0800 
 39 H       -0.2970     2.6560    -0.2080 H     1 <1>   0.0800 
 40 H       -1.1740     4.1420    -0.4020 H     1 <1>   0.0800 
 41 H       -1.7880     3.2400     3.1680 H     1 <1>   0.0800 
 42 H       -1.1630     4.4820     2.1160 H     1 <1>   0.0800 
 43 H       -0.2850     2.9890     2.3150 H     1 <1>   0.0800 
 44 H       -3.3590     4.1710    -1.6740 H     1 <1>   0.0800 
 45 H       -3.9900     2.7040    -2.3530 H     1 <1>   0.0800 
 46 H       -6.1760     3.3000     0.6160 H     1 <1>   0.0800 
 47 H       -6.1820     3.0700    -1.1140 H     1 <1>   0.0800 
 48 H       -5.5460     4.5440    -0.4320 H     1 <1>   0.0800 
 49 H       -3.8840    -4.6340    -1.7660 H     1 <1>   0.0800 
 50 H       -2.5480    -5.7300    -1.4800 H     1 <1>   0.0800 
 51 H       -0.5100    -4.8440    -0.2120 H     1 <1>   0.0800 
 52 H       -0.5270    -3.1770     0.3250 H     1 <1>   0.0800 
 53 H       -2.5550    -3.3070    -3.2910 H     1 <1>   0.0800 
 54 H       -2.5030    -4.9650    -3.7960 H     1 <1>   0.0800 
 55 H        0.8880    -3.4870    -1.6820 H     1 <1>   0.0800 
 56 H       -0.4140    -2.3740    -1.9560 H     1 <1>   0.0800 
 57 H       -0.2530    -3.8680    -3.8780 H     1 <1>   0.0800 
 58 H       -0.2850    -5.2700    -2.8470 H     1 <1>   0.0800 
@<TRIPOS>BOND
  1   1   2  2   
  2   2   3  am  
  3   2   4  1   
  4   3   5  1   
  5   3  24  1   
  6   4   6  1   
  7   4   7  1   
  8   4   8  1   
  9   5   9  1   
 10   5  25  1   
 11   5  26  1   
 12   6  10  1   
 13   6  27  1   
 14   6  28  1   
 15   7  11  1   
 16   7  29  1   
 17   7  30  1   
 18   8  12  1   
 19   8  31  1   
 20   8  32  1   
 21   9  13  1   
 22   9  33  1   
 23   9  34  1   
 24  10  14  1   
 25  10  15  1   
 26  10  16  1   
 27  11  14  1   
 28  11  17  1   
 29  11  18  1   
 30  12  15  1   
 31  12  17  1   
 32  12  35  1   
 33  13  19  1   
 34  13  20  1   
 35  13  36  1   
 36  14  37  1   
 37  14  38  1   
 38  15  39  1   
 39  15  40  1   
 40  16  41  1   
 41  16  42  1   
 42  16  43  1   
 43  17  44  1   
 44  17  45  1   
 45  18  46  1   
 46  18  47  1   
 47  18  48  1   
 48  19  21  1   
 49  19  49  1   
 50  19  50  1   
 51  20  22  1   
 52  20  51  1   
 53  20  52  1   
 54  21  23  1   
 55  21  53  1   
 56  21  54  1   
 57  22  23  1   
 58  22  55  1   
 59  22  56  1   
 60  23  57  1   
 61  23  58  1   
@<TRIPOS>SUBSTRUCTURE
  1 ****   2 GROUP 4 **** **** 0

# MOE 2024.06 (io_trps.svl 2023.06)
