@<TRIPOS>MOLECULE
NONAME
47 48 1 0 0 
SMALL
USER_CHARGES


@<TRIPOS>ATOM
  1 O        0.4960    -1.4080     0.3150 O.3   1 <1>  -0.3630 
  2 C       -0.8240    -1.4180    -0.0150 C.ar  1 <1>   0.0830 
  3 C        1.4550    -0.7750    -0.4960 C.3   1 <1>   0.1200 
  4 C       -1.7010    -2.0680     0.8480 C.ar  1 <1>  -0.1440 
  5 C       -1.3210    -0.8110    -1.1660 C.ar  1 <1>  -0.1500 
  6 C        2.8210    -0.9560     0.1680 C.3   1 <1>  -0.1600 
  7 C       -3.0540    -2.1040     0.5530 C.ar  1 <1>  -0.1500 
  8 C       -1.1850    -2.7400     2.1130 C.3   1 <1>  -0.0970 
  9 C       -2.6740    -0.8540    -1.4490 C.ar  1 <1>  -0.1500 
 10 C        3.9370    -0.2910    -0.6490 C.3   1 <1>  -0.1600 
 11 C       -3.5480    -1.4990    -0.5910 C.ar  1 <1>  -0.1430 
 12 C        5.3000    -0.4830     0.0300 C.3   1 <1>  -0.1600 
 13 C       -5.0330    -1.5490    -0.9010 C.3   1 <1>  -0.0970 
 14 C        6.4140     0.1790    -0.7840 C.3   1 <1>   0.3430 
 15 N        7.7370    -0.0870    -0.1580 N.4   1 <1>  -0.9590 
 16 C        7.9480     0.5980     1.1420 C.3   1 <1>   0.3430 
 17 C        8.8700     0.3290    -1.0200 C.3   1 <1>   0.3430 
 18 C        9.4590     0.6040     1.3290 C.3   1 <1>  -0.1600 
 19 C       10.0560     0.4140    -0.0690 C.3   1 <1>  -0.1600 
 20 H        1.1990     0.2680    -0.5700 H     1 <1>   0.0800 
 21 H        1.4350    -1.2380    -1.4670 H     1 <1>   0.0800 
 22 H       -0.6750    -0.3020    -1.8540 H     1 <1>   0.1500 
 23 H        3.0190    -2.0100     0.2630 H     1 <1>   0.0800 
 24 H        2.7840    -0.5220     1.1530 H     1 <1>   0.0800 
 25 H       -3.7330    -2.6070     1.2180 H     1 <1>   0.1500 
 26 H       -0.4700    -3.5000     1.8540 H     1 <1>   0.0800 
 27 H       -1.9860    -3.1960     2.6660 H     1 <1>   0.0800 
 28 H       -0.7040    -2.0120     2.7400 H     1 <1>   0.0800 
 29 H       -3.0440    -0.3830    -2.3430 H     1 <1>   0.1500 
 30 H        3.7230     0.7610    -0.7470 H     1 <1>   0.0800 
 31 H        3.9570    -0.7230    -1.6360 H     1 <1>   0.0800 
 32 H        5.4970    -1.5370     0.1190 H     1 <1>   0.0800 
 33 H        5.2570    -0.0520     1.0150 H     1 <1>   0.0800 
 34 H       -5.2640    -2.4580    -1.4250 H     1 <1>   0.0800 
 35 H       -5.3200    -0.7120    -1.5120 H     1 <1>   0.0800 
 36 H       -5.6060    -1.5160     0.0090 H     1 <1>   0.0800 
 37 H        6.2400     1.2410    -0.8460 H     1 <1>   0.0800 
 38 H        6.4010    -0.2240    -1.7840 H     1 <1>   0.0800 
 39 H        7.8330    -1.0980     0.0050 H     1 <1>   0.4500 
 40 H        7.4480     0.0880     1.9500 H     1 <1>   0.0800 
 41 H        7.5890     1.6130     1.0830 H     1 <1>   0.0800 
 42 H        8.6740     1.3050    -1.4360 H     1 <1>   0.0800 
 43 H        9.0470    -0.3740    -1.8190 H     1 <1>   0.0800 
 44 H        9.7510    -0.2050     1.9760 H     1 <1>   0.0800 
 45 H        9.7770     1.5300     1.7760 H     1 <1>   0.0800 
 46 H       10.7010     1.2300    -0.3440 H     1 <1>   0.0800 
 47 H       10.6240    -0.4990    -0.1130 H     1 <1>   0.0800 
@<TRIPOS>BOND
  1   1   2  1   
  2   1   3  1   
  3   2   4  ar  
  4   2   5  ar  
  5   3   6  1   
  6   3  20  1   
  7   3  21  1   
  8   4   7  ar  
  9   4   8  1   
 10   5   9  ar  
 11   5  22  1   
 12   6  10  1   
 13   6  23  1   
 14   6  24  1   
 15   7  11  ar  
 16   7  25  1   
 17   8  26  1   
 18   8  27  1   
 19   8  28  1   
 20   9  11  ar  
 21   9  29  1   
 22  10  12  1   
 23  10  30  1   
 24  10  31  1   
 25  11  13  1   
 26  12  14  1   
 27  12  32  1   
 28  12  33  1   
 29  13  34  1   
 30  13  35  1   
 31  13  36  1   
 32  14  15  1   
 33  14  37  1   
 34  14  38  1   
 35  15  16  1   
 36  15  17  1   
 37  15  39  1   
 38  16  18  1   
 39  16  40  1   
 40  16  41  1   
 41  17  19  1   
 42  17  42  1   
 43  17  43  1   
 44  18  19  1   
 45  18  44  1   
 46  18  45  1   
 47  19  46  1   
 48  19  47  1   
@<TRIPOS>SUBSTRUCTURE
  1 ****   6 GROUP 4 **** **** 0

# MOE 2024.06 (io_trps.svl 2023.06)
