@<TRIPOS>MOLECULE
NONAME
31 31 1 0 0 
SMALL
USER_CHARGES


@<TRIPOS>ATOM
  1 O        0.0220    -0.3320    -0.0010 O.3   1 <1>  -0.3630 
  2 C        1.2180    -0.9790     0.0460 C.ar  1 <1>   0.0820 
  3 C       -1.1920    -1.0480     0.0150 C.3   1 <1>   0.1200 
  4 C        2.3550    -0.1910     0.0560 C.ar  1 <1>  -0.1500 
  5 C        1.3600    -2.3610     0.0850 C.ar  1 <1>  -0.1500 
  6 C       -2.3410    -0.0400    -0.0310 C.3   1 <1>  -0.1600 
  7 C        3.6090    -0.7660     0.1020 C.ar  1 <1>  -0.1500 
  8 C        2.6190    -2.9300     0.1310 C.ar  1 <1>  -0.1500 
  9 C       -3.7020    -0.7470    -0.0170 C.3   1 <1>  -0.1600 
 10 C        3.8010    -2.1580     0.1410 C.ar  1 <1>   0.0860 
 11 C       -4.8480     0.2680    -0.0630 C.3   1 <1>  -0.2400 
 12 C        5.1020    -2.7720     0.1790 C.2   1 <1>   0.7600 
 13 N        6.3220    -2.4050     0.2910 N.2   1 <1>  -0.8000 
 14 N        5.2610    -4.1430     0.0720 N.4   1 <1>  -0.7460 
 15 O        6.4920    -1.2150     0.4230 O.3   1 <1>  -0.6500 
 16 H       -1.2190    -1.6920    -0.8470 H     1 <1>   0.0800 
 17 H       -1.2340    -1.6280     0.9200 H     1 <1>   0.0800 
 18 H        2.2510     0.8790     0.0280 H     1 <1>   0.1500 
 19 H        0.4980    -3.0020     0.0800 H     1 <1>   0.1500 
 20 H       -2.2670     0.6140     0.8210 H     1 <1>   0.0800 
 21 H       -2.2530     0.5500    -0.9270 H     1 <1>   0.0800 
 22 H        4.4680    -0.1160     0.1070 H     1 <1>   0.1500 
 23 H        2.6710    -4.0010     0.1640 H     1 <1>   0.1500 
 24 H       -3.7800    -1.4050    -0.8660 H     1 <1>   0.0800 
 25 H       -3.7940    -1.3410     0.8770 H     1 <1>   0.0800 
 26 H       -4.7910     0.8600    -0.9590 H     1 <1>   0.0800 
 27 H       -4.8050     0.9240     0.7890 H     1 <1>   0.0800 
 28 H       -5.7940    -0.2440    -0.0520 H     1 <1>   0.0800 
 29 H        4.9180    -4.5770     0.9150 H     1 <1>   0.4500 
 30 H        6.2880    -4.0910     0.1020 H     1 <1>   0.4500 
 31 H        4.9490    -4.4460    -0.8370 H     1 <1>   0.4500 
@<TRIPOS>BOND
  1   1   2  1   
  2   1   3  1   
  3   2   4  ar  
  4   2   5  ar  
  5   3   6  1   
  6   3  16  1   
  7   3  17  1   
  8   4   7  ar  
  9   4  18  1   
 10   5   8  ar  
 11   5  19  1   
 12   6   9  1   
 13   6  20  1   
 14   6  21  1   
 15   7  10  ar  
 16   7  22  1   
 17   8  10  ar  
 18   8  23  1   
 19   9  11  1   
 20   9  24  1   
 21   9  25  1   
 22  10  12  1   
 23  11  26  1   
 24  11  27  1   
 25  11  28  1   
 26  12  13  2   
 27  12  14  1   
 28  13  15  1   
 29  14  29  1   
 30  14  30  1   
 31  14  31  1   
@<TRIPOS>SUBSTRUCTURE
  1 ****   2 GROUP 4 **** **** 0

# MOE 2024.06 (io_trps.svl 2023.06)
