@<TRIPOS>MOLECULE
NONAME
42 43 1 0 0 
SMALL
USER_CHARGES


@<TRIPOS>ATOM
  1 O        0.1640    -1.3000    -2.0810 O.2   1 <1>  -0.5700 
  2 C        0.2250    -2.2310    -1.3110 C.2   1 <1>   0.4950 
  3 C        1.3990    -2.5570    -0.5570 C.2   1 <1>   0.0290 
  4 C       -1.0450    -3.0580    -1.2020 C.3   1 <1>  -0.0990 
  5 C        1.3600    -3.7140     0.2950 C.2   1 <1>   0.4950 
  6 C        2.5150    -1.7540    -0.6750 C.2   1 <1>  -0.0500 
  7 C       -1.1890    -3.7640     0.1530 C.3   1 <1>   0.0000 
  8 O        2.2930    -4.1180     0.9540 O.2   1 <1>  -0.5700 
  9 C        0.0990    -4.5560     0.4140 C.3   1 <1>  -0.0990 
 10 N        3.6950    -1.9130    -0.0280 N.pl3 1 <1>  -0.8690 
 11 C       -2.3860    -4.7260     0.1080 C.3   1 <1>  -0.2400 
 12 C       -1.4330    -2.7390     1.2760 C.3   1 <1>  -0.2400 
 13 C        4.9110    -1.0730    -0.1620 C.3   1 <1>   0.3530 
 14 C        6.1560    -1.9340    -0.3630 C.ar  1 <1>  -0.1430 
 15 C        7.3850    -1.5030     0.1340 C.ar  1 <1>   0.0830 
 16 C        6.0880    -3.1390    -1.0500 C.ar  1 <1>  -0.1500 
 17 O        7.4230    -0.3070     0.7820 O.3   1 <1>  -0.3630 
 18 C        8.5200    -2.2900    -0.0510 C.ar  1 <1>  -0.1500 
 19 C        7.2180    -3.9160    -1.2310 C.ar  1 <1>  -0.1500 
 20 C        8.6100     0.1890     1.3590 C.3   1 <1>   0.0400 
 21 C        8.4350    -3.4920    -0.7290 C.ar  1 <1>  -0.1500 
 22 H       -1.8930    -2.4160    -1.3660 H     1 <1>   0.0800 
 23 H       -1.0320    -3.7810    -1.9970 H     1 <1>   0.0800 
 24 H        2.4620    -0.9070    -1.3440 H     1 <1>   0.1500 
 25 H        0.1830    -5.3670    -0.2860 H     1 <1>   0.0800 
 26 H        0.0620    -4.9860     1.3990 H     1 <1>   0.0800 
 27 H        3.8160    -2.7110     0.6220 H     1 <1>   0.4000 
 28 H       -3.2970    -4.1880    -0.0870 H     1 <1>   0.0800 
 29 H       -2.4940    -5.2400     1.0470 H     1 <1>   0.0800 
 30 H       -2.2590    -5.4630    -0.6660 H     1 <1>   0.0800 
 31 H       -0.6250    -2.0330     1.3630 H     1 <1>   0.0800 
 32 H       -1.5370    -3.2380     2.2240 H     1 <1>   0.0800 
 33 H       -2.3370    -2.1860     1.0910 H     1 <1>   0.0800 
 34 H        4.8020    -0.4050    -0.9980 H     1 <1>   0.0800 
 35 H        5.0070    -0.4810     0.7310 H     1 <1>   0.0800 
 36 H        5.1480    -3.4820    -1.4490 H     1 <1>   0.1500 
 37 H        9.4790    -1.9870     0.3230 H     1 <1>   0.1500 
 38 H        7.1480    -4.8500    -1.7610 H     1 <1>   0.1500 
 39 H        8.3860     1.1300     1.8280 H     1 <1>   0.0800 
 40 H        9.3420     0.3320     0.5840 H     1 <1>   0.0800 
 41 H        8.9590    -0.5130     2.0970 H     1 <1>   0.0800 
 42 H        9.3130    -4.0980    -0.8690 H     1 <1>   0.1500 
@<TRIPOS>BOND
  1   1   2  2   
  2   2   3  1   
  3   2   4  1   
  4   3   5  1   
  5   3   6  2   
  6   4   7  1   
  7   4  22  1   
  8   4  23  1   
  9   5   8  2   
 10   5   9  1   
 11   6  10  1   
 12   6  24  1   
 13   7   9  1   
 14   7  11  1   
 15   7  12  1   
 16   9  25  1   
 17   9  26  1   
 18  10  13  1   
 19  10  27  1   
 20  11  28  1   
 21  11  29  1   
 22  11  30  1   
 23  12  31  1   
 24  12  32  1   
 25  12  33  1   
 26  13  14  1   
 27  13  34  1   
 28  13  35  1   
 29  14  15  ar  
 30  14  16  ar  
 31  15  17  1   
 32  15  18  ar  
 33  16  19  ar  
 34  16  36  1   
 35  17  20  1   
 36  18  21  ar  
 37  18  37  1   
 38  19  21  ar  
 39  19  38  1   
 40  20  39  1   
 41  20  40  1   
 42  20  41  1   
 43  21  42  1   
@<TRIPOS>SUBSTRUCTURE
  1 ****  10 GROUP 4 **** **** 0

# MOE 2024.06 (io_trps.svl 2023.06)
