@<TRIPOS>MOLECULE
NONAME
40 40 1 0 0 
SMALL
USER_CHARGES


@<TRIPOS>ATOM
  1 CL      -0.0710     0.0630     0.3870 Cl    1 <1>  -0.1770 
  2 C       -1.5180    -0.9110     0.3020 C.ar  1 <1>   0.1770 
  3 C       -2.7360    -0.2960     0.0980 C.ar  1 <1>  -0.1500 
  4 C       -1.4170    -2.2770     0.4410 C.ar  1 <1>  -0.1500 
  5 C       -3.9180    -1.0370     0.0240 C.ar  1 <1>  -0.1440 
  6 C       -2.5680    -3.0360     0.3720 C.ar  1 <1>  -0.1500 
  7 C       -3.8110    -2.4330     0.1660 C.ar  1 <1>   0.0830 
  8 C       -5.2810    -0.3190    -0.2070 C.3   1 <1>   0.1440 
  9 O       -4.9390    -3.1890     0.1000 O.3   1 <1>  -0.3630 
 10 C       -5.1470     1.2130    -0.3330 C.3   1 <1>  -0.2400 
 11 C       -6.2330    -0.5650     0.9760 C.3   1 <1>  -0.2400 
 12 C       -5.9310    -0.7960    -1.5180 C.3   1 <1>  -0.2400 
 13 C       -4.9420    -4.5870     0.2310 C.3   1 <1>   0.1200 
 14 C       -6.3950    -5.0420     0.0980 C.3   1 <1>  -0.1600 
 15 C       -6.5090    -6.5570     0.2270 C.3   1 <1>   0.3430 
 16 N       -7.9340    -6.9430     0.0920 N.4   1 <1>  -0.9060 
 17 C       -8.1450    -8.4170     0.2050 C.3   1 <1>   0.2630 
 18 H       -2.7120     0.7710     0.0020 H     1 <1>   0.1500 
 19 H       -0.4560    -2.7300     0.5990 H     1 <1>   0.1500 
 20 H       -2.4640    -4.0980     0.4830 H     1 <1>   0.1500 
 21 H       -4.5220     1.4730    -1.1680 H     1 <1>   0.0800 
 22 H       -4.7310     1.6340     0.5650 H     1 <1>   0.0800 
 23 H       -6.1080     1.6680    -0.4910 H     1 <1>   0.0800 
 24 H       -5.7580    -0.2690     1.8950 H     1 <1>   0.0800 
 25 H       -6.5080    -1.5970     1.0590 H     1 <1>   0.0800 
 26 H       -7.1380     0.0040     0.8610 H     1 <1>   0.0800 
 27 H       -5.2460    -0.6600    -2.3360 H     1 <1>   0.0800 
 28 H       -6.8250    -0.2350    -1.7250 H     1 <1>   0.0800 
 29 H       -6.2020    -1.8320    -1.4750 H     1 <1>   0.0800 
 30 H       -4.5390    -4.8350     1.1990 H     1 <1>   0.0800 
 31 H       -4.3280    -5.0000    -0.5520 H     1 <1>   0.0800 
 32 H       -6.7600    -4.7290    -0.8640 H     1 <1>   0.0800 
 33 H       -6.9700    -4.5660     0.8730 H     1 <1>   0.0800 
 34 H       -6.1310    -6.8690     1.1880 H     1 <1>   0.0800 
 35 H       -5.9220    -7.0320    -0.5440 H     1 <1>   0.0800 
 36 H       -8.2900    -6.6090    -0.8160 H     1 <1>   0.4500 
 37 H       -8.4860    -6.4560     0.8120 H     1 <1>   0.4500 
 38 H       -7.5980    -8.9360    -0.5670 H     1 <1>   0.0800 
 39 H       -9.1920    -8.6550     0.1010 H     1 <1>   0.0800 
 40 H       -7.8070    -8.7730     1.1650 H     1 <1>   0.0800 
@<TRIPOS>BOND
  1   1   2  1   
  2   2   3  ar  
  3   2   4  ar  
  4   3   5  ar  
  5   3  18  1   
  6   4   6  ar  
  7   4  19  1   
  8   5   7  ar  
  9   5   8  1   
 10   6   7  ar  
 11   6  20  1   
 12   7   9  1   
 13   8  10  1   
 14   8  11  1   
 15   8  12  1   
 16   9  13  1   
 17  10  21  1   
 18  10  22  1   
 19  10  23  1   
 20  11  24  1   
 21  11  25  1   
 22  11  26  1   
 23  12  27  1   
 24  12  28  1   
 25  12  29  1   
 26  13  14  1   
 27  13  30  1   
 28  13  31  1   
 29  14  15  1   
 30  14  32  1   
 31  14  33  1   
 32  15  16  1   
 33  15  34  1   
 34  15  35  1   
 35  16  17  1   
 36  16  36  1   
 37  16  37  1   
 38  17  38  1   
 39  17  39  1   
 40  17  40  1   
@<TRIPOS>SUBSTRUCTURE
  1 ****   9 GROUP 4 **** **** 0

# MOE 2024.06 (io_trps.svl 2023.06)
