@<TRIPOS>MOLECULE
NONAME
47 48 1 0 0 
SMALL
USER_CHARGES


@<TRIPOS>ATOM
  1 S        1.2290     0.6930    -1.0690 S.o2  1 <1>   1.3330 
  2 O        2.6000     0.7990    -1.5130 O.2   1 <1>  -0.6500 
  3 O        0.7620    -0.5190    -0.4430 O.2   1 <1>  -0.6500 
  4 N        0.9490     1.9970     0.0270 N.am  1 <1>  -0.6930 
  5 C        0.1610     1.1110    -2.4300 C.3   1 <1>  -0.1350 
  6 C       -0.2950     2.1740     0.6340 C.ar  1 <1>   0.1990 
  7 C        1.9640     3.0910     0.1240 C.3   1 <1>   0.2570 
  8 C       -1.2190     3.1210     0.1700 C.ar  1 <1>   0.0830 
  9 C       -0.6250     1.3900     1.7290 C.ar  1 <1>  -0.1500 
 10 C        3.1170     2.7690     1.0790 C.2   1 <1>   0.5690 
 11 O       -0.8770     3.8710    -0.9230 O.3   1 <1>  -0.3630 
 12 C       -2.4450     3.2610     0.8130 C.ar  1 <1>  -0.1500 
 13 C       -1.8440     1.5360     2.3670 C.ar  1 <1>  -0.1500 
 14 O        3.2920     3.4710     2.0480 O.2   1 <1>  -0.5700 
 15 N        3.9160     1.7060     0.8100 N.am  1 <1>  -0.7300 
 16 C       -1.3980     5.1670    -1.1360 C.3   1 <1>   0.1200 
 17 C       -2.7530     2.4720     1.9090 C.ar  1 <1>  -0.1500 
 18 C        4.9470     1.1410     1.6850 C.3   1 <1>   0.2200 
 19 C       -0.8480     6.1260    -0.0780 C.3   1 <1>  -0.2400 
 20 C        6.1450     0.7500     0.8300 C.3   1 <1>  -0.1600 
 21 C        4.4440    -0.1980     2.2110 C.3   1 <1>  -0.1600 
 22 C        5.7740    -0.5940     0.1900 C.3   1 <1>  -0.1600 
 23 C        4.6780    -1.2010     1.0750 C.3   1 <1>  -0.1600 
 24 H        0.2570     0.3830    -3.2110 H     1 <1>   0.0800 
 25 H        0.4180     2.0760    -2.8200 H     1 <1>   0.0800 
 26 H       -0.8600     1.1340    -2.1030 H     1 <1>   0.0800 
 27 H        1.4850     3.9870     0.4760 H     1 <1>   0.0800 
 28 H        2.3680     3.2970    -0.8500 H     1 <1>   0.0800 
 29 H        0.0830     0.6600     2.0790 H     1 <1>   0.1500 
 30 H       -3.1760     3.9700     0.4770 H     1 <1>   0.1500 
 31 H       -2.0820     0.9190     3.2170 H     1 <1>   0.1500 
 32 H        3.7130     1.1350    -0.0230 H     1 <1>   0.3700 
 33 H       -2.4720     5.1300    -1.1320 H     1 <1>   0.0800 
 34 H       -1.0760     5.4810    -2.1130 H     1 <1>   0.0800 
 35 H       -3.7030     2.5840     2.4050 H     1 <1>   0.1500 
 36 H        5.2010     1.8300     2.4740 H     1 <1>   0.0800 
 37 H       -1.1690     5.8370     0.9070 H     1 <1>   0.0800 
 38 H       -1.2080     7.1200    -0.2700 H     1 <1>   0.0800 
 39 H        0.2270     6.1410    -0.1140 H     1 <1>   0.0800 
 40 H        6.9930     0.6080     1.4760 H     1 <1>   0.0800 
 41 H        6.3870     1.5040     0.1020 H     1 <1>   0.0800 
 42 H        3.4130    -0.1510     2.5170 H     1 <1>   0.0800 
 43 H        5.0430    -0.4790     3.0590 H     1 <1>   0.0800 
 44 H        6.6330    -1.2400     0.1240 H     1 <1>   0.0800 
 45 H        5.3840    -0.4320    -0.8010 H     1 <1>   0.0800 
 46 H        3.7730    -1.3160     0.5010 H     1 <1>   0.0800 
 47 H        4.9660    -2.1630     1.4630 H     1 <1>   0.0800 
@<TRIPOS>BOND
  1   1   2  2   
  2   1   3  2   
  3   1   4  am  
  4   1   5  1   
  5   4   6  1   
  6   4   7  1   
  7   5  24  1   
  8   5  25  1   
  9   5  26  1   
 10   6   8  ar  
 11   6   9  ar  
 12   7  10  1   
 13   7  27  1   
 14   7  28  1   
 15   8  11  1   
 16   8  12  ar  
 17   9  13  ar  
 18   9  29  1   
 19  10  14  2   
 20  10  15  am  
 21  11  16  1   
 22  12  17  ar  
 23  12  30  1   
 24  13  17  ar  
 25  13  31  1   
 26  15  18  1   
 27  15  32  1   
 28  16  19  1   
 29  16  33  1   
 30  16  34  1   
 31  17  35  1   
 32  18  20  1   
 33  18  21  1   
 34  18  36  1   
 35  19  37  1   
 36  19  38  1   
 37  19  39  1   
 38  20  22  1   
 39  20  40  1   
 40  20  41  1   
 41  21  23  1   
 42  21  42  1   
 43  21  43  1   
 44  22  23  1   
 45  22  44  1   
 46  22  45  1   
 47  23  46  1   
 48  23  47  1   
@<TRIPOS>SUBSTRUCTURE
  1 ****   4 GROUP 4 **** **** 0

# MOE 2024.06 (io_trps.svl 2023.06)
