@<TRIPOS>MOLECULE
NONAME
42 44 1 0 0 
SMALL
USER_CHARGES


@<TRIPOS>ATOM
  1 O        0.5660    -0.4790     0.6790 O.3   1 <1>  -0.5600 
  2 C       -0.4470    -1.2350     1.2850 C.3   1 <1>   0.1200 
  3 C        1.5000    -1.2420    -0.0310 C.3   1 <1>   0.1200 
  4 C       -1.2330    -2.0490     0.2400 C.3   1 <1>   0.2090 
  5 C        0.8110    -2.0450    -1.1490 C.3   1 <1>   0.2090 
  6 N       -0.3030    -2.8870    -0.5960 N.pl3 1 <1>  -0.8380 
  7 C       -0.3520    -4.2500    -0.5850 C.ar  1 <1>   0.1000 
  8 C       -1.5660    -5.0190    -0.6230 C.ar  1 <1>   0.0000 
  9 C        0.8460    -4.9580    -0.4380 C.ar  1 <1>  -0.1500 
 10 C       -1.5280    -6.3670    -0.2000 C.ar  1 <1>   0.3610 
 11 C       -2.8120    -4.5610    -1.1220 C.ar  1 <1>   0.1000 
 12 C        0.8650    -6.2950    -0.1540 C.ar  1 <1>   0.2170 
 13 N       -0.2960    -6.9540    -0.0060 N.ar  1 <1>  -0.1790 
 14 C       -2.6990    -7.1300    -0.0310 C.ar  1 <1>  -0.1430 
 15 N       -2.9160    -3.3700    -1.7950 N.pl3 1 <1>  -0.9000 
 16 C       -3.9460    -5.3310    -0.9840 C.ar  1 <1>  -0.1500 
 17 C        2.1630    -7.0640     0.0260 C.3   1 <1>  -0.0970 
 18 C       -3.9140    -6.6000    -0.4270 C.ar  1 <1>  -0.1430 
 19 C       -2.6210    -8.5400     0.5700 C.3   1 <1>  -0.0970 
 20 C       -5.2370    -7.3510    -0.3080 C.3   1 <1>  -0.0970 
 21 H       -1.1040    -0.5540     1.7950 H     1 <1>   0.0800 
 22 H        0.0020    -1.8910     2.0110 H     1 <1>   0.0800 
 23 H        2.0000    -1.9000     0.6570 H     1 <1>   0.0800 
 24 H        2.2220    -0.5650    -0.4520 H     1 <1>   0.0800 
 25 H       -1.7770    -1.3670    -0.3910 H     1 <1>   0.0800 
 26 H       -1.9470    -2.6740     0.7470 H     1 <1>   0.0800 
 27 H        1.5300    -2.6500    -1.6690 H     1 <1>   0.0800 
 28 H        0.4030    -1.3530    -1.8650 H     1 <1>   0.0800 
 29 H        1.7760    -4.4290    -0.5060 H     1 <1>   0.1500 
 30 H       -0.2990    -7.9480     0.2220 H     1 <1>   0.4570 
 31 H       -3.6520    -3.1910    -2.4850 H     1 <1>   0.4000 
 32 H       -2.0360    -2.8480    -1.9390 H     1 <1>   0.4000 
 33 H       -4.8810    -4.9260    -1.3300 H     1 <1>   0.1500 
 34 H        3.0100    -6.4160    -0.1190 H     1 <1>   0.0800 
 35 H        2.2290    -7.8630    -0.6900 H     1 <1>   0.0800 
 36 H        2.2230    -7.4740     1.0190 H     1 <1>   0.0800 
 37 H       -1.9380    -8.5730     1.4000 H     1 <1>   0.0800 
 38 H       -2.3140    -9.2490    -0.1790 H     1 <1>   0.0800 
 39 H       -3.5710    -8.8650     0.9560 H     1 <1>   0.0800 
 40 H       -5.1630    -8.3220    -0.7640 H     1 <1>   0.0800 
 41 H       -6.0320    -6.8190    -0.8010 H     1 <1>   0.0800 
 42 H       -5.5080    -7.4650     0.7270 H     1 <1>   0.0800 
@<TRIPOS>BOND
  1   1   2  1   
  2   1   3  1   
  3   2   4  1   
  4   2  21  1   
  5   2  22  1   
  6   3   5  1   
  7   3  23  1   
  8   3  24  1   
  9   4   6  1   
 10   4  25  1   
 11   4  26  1   
 12   5   6  1   
 13   5  27  1   
 14   5  28  1   
 15   6   7  1   
 16   7   8  ar  
 17   7   9  ar  
 18   8  10  ar  
 19   8  11  ar  
 20   9  12  ar  
 21   9  29  1   
 22  10  13  ar  
 23  10  14  ar  
 24  11  15  1   
 25  11  16  ar  
 26  12  13  ar  
 27  12  17  1   
 28  13  30  1   
 29  14  18  ar  
 30  14  19  1   
 31  15  31  1   
 32  15  32  1   
 33  16  18  ar  
 34  16  33  1   
 35  17  34  1   
 36  17  35  1   
 37  17  36  1   
 38  18  20  1   
 39  19  37  1   
 40  19  38  1   
 41  19  39  1   
 42  20  40  1   
 43  20  41  1   
 44  20  42  1   
@<TRIPOS>SUBSTRUCTURE
  1 ****   8 GROUP 4 **** **** 0

# MOE 2024.06 (io_trps.svl 2023.06)
