@<TRIPOS>MOLECULE
NONAME
49 53 1 0 0 
SMALL
USER_CHARGES


@<TRIPOS>ATOM
  1 O        0.6120     0.4230    -1.6640 O.2   1 <1>  -0.5700 
  2 C        0.5110     1.4520    -1.0110 C.2   1 <1>   0.3980 
  3 C        1.6600     2.2540    -0.6600 C.ar  1 <1>   0.0860 
  4 C       -0.8060     1.8650    -0.5890 C.ar  1 <1>   0.0860 
  5 C        1.4520     3.5630    -0.1650 C.ar  1 <1>   0.0280 
  6 C        2.9800     1.7830    -0.7930 C.ar  1 <1>   0.1000 
  7 C       -1.0030     3.1390    -0.0360 C.ar  1 <1>   0.0280 
  8 C       -1.9010     1.0030    -0.7140 C.ar  1 <1>  -0.1500 
  9 C        0.1170     4.0530     0.0760 C.2   1 <1>  -0.0570 
 10 C        2.5510     4.4110     0.0890 C.ar  1 <1>   0.1170 
 11 N        3.2810     0.5010    -1.2210 N.pl3 1 <1>  -0.8690 
 12 C        4.0470     2.6220    -0.5050 C.ar  1 <1>  -0.1500 
 13 C       -2.2890     3.4750     0.4020 C.ar  1 <1>  -0.1500 
 14 C       -3.1610     1.3640    -0.2910 C.ar  1 <1>  -0.1500 
 15 C       -0.0260     5.3690     0.4100 C.2   1 <1>  -0.1360 
 16 N        2.3430     5.7460     0.4930 N.am  1 <1>  -0.4770 
 17 C        3.8420     3.9070    -0.0800 C.ar  1 <1>  -0.1500 
 18 C        3.9670    -0.4420    -0.3250 C.3   1 <1>   0.2890 
 19 C       -3.3540     2.6080     0.2750 C.ar  1 <1>  -0.1500 
 20 C        1.0630     6.2460     0.6090 C.2   1 <1>   0.6160 
 21 C        3.5020     6.6490     0.7770 C.3   1 <1>   0.0600 
 22 C        4.9950    -1.2300    -1.1390 C.3   1 <1>  -0.1600 
 23 C        2.9230    -1.3720     0.3000 C.3   1 <1>  -0.1600 
 24 O        0.8610     7.4190     0.8900 O.2   1 <1>  -0.5700 
 25 C        5.6680    -2.3180    -0.2870 C.3   1 <1>  -0.1600 
 26 C        3.5880    -2.4590     1.1590 C.3   1 <1>  -0.1600 
 27 C        4.6240    -3.2490     0.3460 C.3   1 <1>  -0.1600 
 28 H       -1.7570     0.0290    -1.1500 H     1 <1>   0.1500 
 29 H        2.4590     0.0380    -1.6530 H     1 <1>   0.4000 
 30 H        5.0460     2.2460    -0.6360 H     1 <1>   0.1500 
 31 H       -2.4860     4.4250     0.8600 H     1 <1>   0.1500 
 32 H       -3.9880     0.6820    -0.3980 H     1 <1>   0.1500 
 33 H       -0.9790     5.8370     0.5500 H     1 <1>   0.1500 
 34 H        4.7050     4.5140     0.1130 H     1 <1>   0.1500 
 35 H        4.4740     0.0980     0.4580 H     1 <1>   0.0800 
 36 H       -4.3340     2.8950     0.6170 H     1 <1>   0.1500 
 37 H        4.0810     6.7840    -0.1200 H     1 <1>   0.0800 
 38 H        4.1190     6.2140     1.5430 H     1 <1>   0.0800 
 39 H        3.1790     7.6160     1.1190 H     1 <1>   0.0800 
 40 H        5.7420    -0.5540    -1.5150 H     1 <1>   0.0800 
 41 H        4.5030    -1.6910    -1.9770 H     1 <1>   0.0800 
 42 H        2.3520    -1.8420    -0.4810 H     1 <1>   0.0800 
 43 H        2.2520    -0.7940     0.9100 H     1 <1>   0.0800 
 44 H        6.2500    -1.8540     0.4900 H     1 <1>   0.0800 
 45 H        6.3380    -2.8940    -0.9020 H     1 <1>   0.0800 
 46 H        2.8350    -3.1310     1.5340 H     1 <1>   0.0800 
 47 H        4.0710    -2.0000     2.0040 H     1 <1>   0.0800 
 48 H        5.1160    -3.9620     0.9850 H     1 <1>   0.0800 
 49 H        4.1200    -3.7980    -0.4310 H     1 <1>   0.0800 
@<TRIPOS>BOND
  1   1   2  2   
  2   2   3  1   
  3   2   4  1   
  4   3   5  ar  
  5   3   6  ar  
  6   4   7  ar  
  7   4   8  ar  
  8   5   9  1   
  9   5  10  ar  
 10   6  11  1   
 11   6  12  ar  
 12   7   9  1   
 13   7  13  ar  
 14   8  14  ar  
 15   8  28  1   
 16   9  15  2   
 17  10  16  1   
 18  10  17  ar  
 19  11  18  1   
 20  11  29  1   
 21  12  17  ar  
 22  12  30  1   
 23  13  19  ar  
 24  13  31  1   
 25  14  19  ar  
 26  14  32  1   
 27  15  20  1   
 28  15  33  1   
 29  16  20  am  
 30  16  21  1   
 31  17  34  1   
 32  18  22  1   
 33  18  23  1   
 34  18  35  1   
 35  19  36  1   
 36  20  24  2   
 37  21  37  1   
 38  21  38  1   
 39  21  39  1   
 40  22  25  1   
 41  22  40  1   
 42  22  41  1   
 43  23  26  1   
 44  23  42  1   
 45  23  43  1   
 46  25  27  1   
 47  25  44  1   
 48  25  45  1   
 49  26  27  1   
 50  26  46  1   
 51  26  47  1   
 52  27  48  1   
 53  27  49  1   
@<TRIPOS>SUBSTRUCTURE
  1 ****   3 GROUP 4 **** **** 0

# MOE 2024.06 (io_trps.svl 2023.06)
