@<TRIPOS>MOLECULE
NONAME
45 46 1 0 0 
SMALL
USER_CHARGES


@<TRIPOS>ATOM
  1 BR       0.3520    -0.2750     2.0610 Br    1 <1>  -0.1110 
  2 C       -0.6750     0.7940     0.8240 C.ar  1 <1>   0.1110 
  3 C       -0.1510     1.9880     0.3400 C.ar  1 <1>   0.0830 
  4 C       -1.9230     0.3350     0.4480 C.ar  1 <1>  -0.1500 
  5 O        1.0670     2.4280     0.7190 O.3   1 <1>  -0.3630 
  6 C       -0.9080     2.7520    -0.5370 C.ar  1 <1>  -0.1500 
  7 C       -2.6550     1.1100    -0.4330 C.ar  1 <1>   0.1770 
  8 C        2.1550     1.9630    -0.0470 C.3   1 <1>   0.1200 
  9 C       -2.1640     2.3090    -0.9280 C.ar  1 <1>  -0.1500 
 10 CL      -4.2350     0.5650    -0.9350 Cl    1 <1>  -0.1770 
 11 C        3.4430     2.3950     0.6470 C.3   1 <1>   0.1200 
 12 O        4.5290     1.9540    -0.1120 O.3   1 <1>  -0.5600 
 13 C        5.7680     2.2580     0.4340 C.3   1 <1>   0.1200 
 14 C        6.8330     1.6810    -0.5070 C.3   1 <1>   0.3430 
 15 N        8.2320     1.8850    -0.0070 N.4   1 <1>  -0.9590 
 16 C        8.6310     3.3250    -0.0070 C.3   1 <1>   0.3430 
 17 C        9.1830     1.0630    -0.8100 C.3   1 <1>   0.3430 
 18 C       10.0220     3.4750     0.6090 C.3   1 <1>  -0.1600 
 19 C       10.5860     1.1640    -0.2110 C.3   1 <1>  -0.1600 
 20 C       11.0630     2.6210    -0.1290 C.3   1 <1>  -0.0800 
 21 C       12.4240     2.7060     0.5680 C.3   1 <1>  -0.2400 
 22 H       -2.3150    -0.5900     0.8280 H     1 <1>   0.1500 
 23 H       -0.5160     3.6830    -0.9070 H     1 <1>   0.1500 
 24 H        2.0850     2.3960    -1.0290 H     1 <1>   0.0800 
 25 H        2.1020     0.8900    -0.1050 H     1 <1>   0.0800 
 26 H       -2.7630     2.8870    -1.6090 H     1 <1>   0.1500 
 27 H        3.4960     1.9500     1.6260 H     1 <1>   0.0800 
 28 H        3.4810     3.4690     0.7180 H     1 <1>   0.0800 
 29 H        5.8320     1.8030     1.4070 H     1 <1>   0.0800 
 30 H        5.8500     3.3290     0.5070 H     1 <1>   0.0800 
 31 H        6.7240     2.1380    -1.4770 H     1 <1>   0.0800 
 32 H        6.6420     0.6250    -0.6100 H     1 <1>   0.0800 
 33 H        8.2910     1.5440     0.9620 H     1 <1>   0.4500 
 34 H        7.9270     3.9100     0.5630 H     1 <1>   0.0800 
 35 H        8.6430     3.7000    -1.0180 H     1 <1>   0.0800 
 36 H        9.2010     1.4150    -1.8290 H     1 <1>   0.0800 
 37 H        8.8700     0.0310    -0.8140 H     1 <1>   0.0800 
 38 H        9.9820     3.2010     1.6490 H     1 <1>   0.0800 
 39 H       10.3130     4.5110     0.5610 H     1 <1>   0.0800 
 40 H       11.2670     0.6010    -0.8260 H     1 <1>   0.0800 
 41 H       10.5900     0.7130     0.7660 H     1 <1>   0.0800 
 42 H       11.1750     3.0040    -1.1310 H     1 <1>   0.0800 
 43 H       12.3670     2.3340     1.5770 H     1 <1>   0.0800 
 44 H       12.7660     3.7260     0.6010 H     1 <1>   0.0800 
 45 H       13.1570     2.1270     0.0330 H     1 <1>   0.0800 
@<TRIPOS>BOND
  1   1   2  1   
  2   2   3  ar  
  3   2   4  ar  
  4   3   5  1   
  5   3   6  ar  
  6   4   7  ar  
  7   4  22  1   
  8   5   8  1   
  9   6   9  ar  
 10   6  23  1   
 11   7   9  ar  
 12   7  10  1   
 13   8  11  1   
 14   8  24  1   
 15   8  25  1   
 16   9  26  1   
 17  11  12  1   
 18  11  27  1   
 19  11  28  1   
 20  12  13  1   
 21  13  14  1   
 22  13  29  1   
 23  13  30  1   
 24  14  15  1   
 25  14  31  1   
 26  14  32  1   
 27  15  16  1   
 28  15  17  1   
 29  15  33  1   
 30  16  18  1   
 31  16  34  1   
 32  16  35  1   
 33  17  19  1   
 34  17  36  1   
 35  17  37  1   
 36  18  20  1   
 37  18  38  1   
 38  18  39  1   
 39  19  20  1   
 40  19  40  1   
 41  19  41  1   
 42  20  21  1   
 43  20  42  1   
 44  21  43  1   
 45  21  44  1   
 46  21  45  1   
@<TRIPOS>SUBSTRUCTURE
  1 ****  12 GROUP 4 **** **** 0

# MOE 2024.06 (io_trps.svl 2023.06)
