@<TRIPOS>MOLECULE
NONAME
45 46 1 0 0 
SMALL
USER_CHARGES


@<TRIPOS>ATOM
  1 BR       0.1820    -0.1630    -1.1180 Br    1 <1>  -0.1110 
  2 C        1.8660    -0.8610    -0.5010 C.ar  1 <1>   0.1110 
  3 C        2.5150    -1.8090    -1.2680 C.ar  1 <1>  -0.1500 
  4 C        2.3810    -0.3970     0.6930 C.ar  1 <1>  -0.1500 
  5 C        3.7290    -2.3140    -0.8280 C.ar  1 <1>  -0.1440 
  6 C        3.5920    -0.9020     1.1330 C.ar  1 <1>  -0.1500 
  7 C        4.2720    -1.8570     0.3730 C.ar  1 <1>   0.0830 
  8 C        4.4540    -3.3630    -1.6590 C.3   1 <1>  -0.0960 
  9 O        5.4690    -2.3770     0.7510 O.3   1 <1>  -0.3630 
 10 C        6.1960    -1.8480     1.8500 C.3   1 <1>   0.1810 
 11 C        7.5830    -2.4780     1.9550 C.2   1 <1>   0.5690 
 12 O        7.8280    -3.0890     2.9700 O.2   1 <1>  -0.5700 
 13 N        8.5240    -2.3300     0.9590 N.am  1 <1>  -0.6600 
 14 C        8.3000    -1.5990    -0.3210 C.3   1 <1>   0.1400 
 15 C        9.8740    -2.9480     1.0780 C.3   1 <1>   0.1400 
 16 C        9.3580    -0.5050    -0.4760 C.3   1 <1>  -0.1600 
 17 C       10.9480    -1.8670     0.9370 C.3   1 <1>  -0.1600 
 18 C       10.7890    -1.0730    -0.3740 C.3   1 <1>  -0.0190 
 19 C       11.8660     0.0050    -0.4950 C.2   1 <1>   0.6590 
 20 O       11.6260     1.1810    -0.3870 O.2   1 <1>  -0.5700 
 21 O       13.0930    -0.4420    -0.7300 O.3   1 <1>  -0.4300 
 22 C       14.1840     0.4390    -0.8550 C.3   1 <1>   0.1200 
 23 C       15.4380    -0.3930    -1.1050 C.3   1 <1>  -0.2400 
 24 H        2.0710    -2.1410    -2.1900 H     1 <1>   0.1500 
 25 H        1.8420     0.3380     1.2630 H     1 <1>   0.1500 
 26 H        3.9830    -0.5430     2.0650 H     1 <1>   0.1500 
 27 H        3.8940    -3.6190    -2.5400 H     1 <1>   0.0800 
 28 H        4.5970    -4.2540    -1.0730 H     1 <1>   0.0800 
 29 H        5.4170    -2.9910    -1.9580 H     1 <1>   0.0800 
 30 H        5.6430    -2.0550     2.7480 H     1 <1>   0.0800 
 31 H        6.2980    -0.7870     1.7190 H     1 <1>   0.0800 
 32 H        7.3240    -1.1510    -0.3550 H     1 <1>   0.0800 
 33 H        8.3700    -2.2980    -1.1370 H     1 <1>   0.0800 
 34 H        9.9890    -3.6880     0.3040 H     1 <1>   0.0800 
 35 H        9.9860    -3.4440     2.0270 H     1 <1>   0.0800 
 36 H        9.2040     0.2360     0.2900 H     1 <1>   0.0800 
 37 H        9.2300    -0.0200    -1.4270 H     1 <1>   0.0800 
 38 H       11.9170    -2.3320     0.9660 H     1 <1>   0.0800 
 39 H       10.8790    -1.2000     1.7790 H     1 <1>   0.0800 
 40 H       10.9350    -1.7500    -1.1960 H     1 <1>   0.0800 
 41 H       14.2710     1.0070     0.0560 H     1 <1>   0.0800 
 42 H       13.9910     1.1070    -1.6790 H     1 <1>   0.0800 
 43 H       15.6100    -1.0610    -0.2800 H     1 <1>   0.0800 
 44 H       16.2890     0.2560    -1.2030 H     1 <1>   0.0800 
 45 H       15.3320    -0.9590    -2.0130 H     1 <1>   0.0800 
@<TRIPOS>BOND
  1   1   2  1   
  2   2   3  ar  
  3   2   4  ar  
  4   3   5  ar  
  5   3  24  1   
  6   4   6  ar  
  7   4  25  1   
  8   5   7  ar  
  9   5   8  1   
 10   6   7  ar  
 11   6  26  1   
 12   7   9  1   
 13   8  27  1   
 14   8  28  1   
 15   8  29  1   
 16   9  10  1   
 17  10  11  1   
 18  10  30  1   
 19  10  31  1   
 20  11  12  2   
 21  11  13  am  
 22  13  14  1   
 23  13  15  1   
 24  14  16  1   
 25  14  32  1   
 26  14  33  1   
 27  15  17  1   
 28  15  34  1   
 29  15  35  1   
 30  16  18  1   
 31  16  36  1   
 32  16  37  1   
 33  17  18  1   
 34  17  38  1   
 35  17  39  1   
 36  18  19  1   
 37  18  40  1   
 38  19  20  2   
 39  19  21  1   
 40  21  22  1   
 41  22  23  1   
 42  22  41  1   
 43  22  42  1   
 44  23  43  1   
 45  23  44  1   
 46  23  45  1   
@<TRIPOS>SUBSTRUCTURE
  1 ****  14 GROUP 4 **** **** 0

# MOE 2024.06 (io_trps.svl 2023.06)
