@<TRIPOS>MOLECULE
NONAME
36 38 1 0 0 
SMALL
USER_CHARGES


@<TRIPOS>ATOM
  1 O       -1.3140     0.7830     1.7050 O.2   1 <1>  -0.5700 
  2 C       -1.6240     1.3870     0.7080 C.2   1 <1>   0.6300 
  3 N       -2.4570     0.8870    -0.2400 N.am  1 <1>  -0.7300 
  4 C       -1.0670     2.7840     0.4890 C.3   1 <1>  -0.1000 
  5 C       -3.0820    -0.4560    -0.2880 C.3   1 <1>   0.2200 
  6 C       -0.5220     3.2220    -0.8420 C.3   1 <1>  -0.2000 
  7 C        0.4080     2.9960     0.3090 C.3   1 <1>  -0.2000 
  8 C       -3.8550    -0.7760     1.0030 C.3   1 <1>   0.0210 
  9 C       -2.0010    -1.4900    -0.6030 C.3   1 <1>  -0.2400 
 10 C       -4.7590    -1.9820     0.8140 C.2   1 <1>  -0.1810 
 11 C       -5.9460    -1.9900     0.0470 C.ar  1 <1>   0.0000 
 12 C       -4.5920    -3.2250     1.3250 C.2   1 <1>  -0.3020 
 13 C       -6.4540    -3.2830     0.1240 C.ar  1 <1>  -0.1520 
 14 C       -6.6340    -1.0250    -0.6970 C.ar  1 <1>  -0.1500 
 15 N       -5.6170    -4.0290     0.9130 N.pl3 1 <1>   0.0330 
 16 C       -7.6330    -3.6340    -0.5390 C.ar  1 <1>  -0.1500 
 17 C       -7.7960    -1.3700    -1.3490 C.ar  1 <1>  -0.1500 
 18 C       -8.2950    -2.6760    -1.2710 C.ar  1 <1>  -0.1500 
 19 H       -2.6210     1.4600    -1.0660 H     1 <1>   0.3700 
 20 H       -1.5890     3.5090     1.0870 H     1 <1>   0.1000 
 21 H       -3.7890    -0.4550    -1.1010 H     1 <1>   0.0800 
 22 H       -0.7000     4.2330    -1.1680 H     1 <1>   0.1000 
 23 H       -0.4820     2.5240    -1.6600 H     1 <1>   0.1000 
 24 H        1.0460     2.1280     0.3080 H     1 <1>   0.1000 
 25 H        0.8660     3.8420     0.7900 H     1 <1>   0.1000 
 26 H       -4.4610     0.0670     1.2810 H     1 <1>   0.0800 
 27 H       -3.1660    -0.9760     1.8040 H     1 <1>   0.0800 
 28 H       -1.2850    -1.5420     0.1980 H     1 <1>   0.0800 
 29 H       -1.4960    -1.2370    -1.5170 H     1 <1>   0.0800 
 30 H       -2.4470    -2.4610    -0.7210 H     1 <1>   0.0800 
 31 H       -3.8020    -3.5880     1.9580 H     1 <1>   0.1500 
 32 H       -6.2470    -0.0250    -0.7460 H     1 <1>   0.1500 
 33 H       -5.7500    -5.0160     1.1490 H     1 <1>   0.2700 
 34 H       -8.0100    -4.6390    -0.4710 H     1 <1>   0.1500 
 35 H       -8.3340    -0.6390    -1.9250 H     1 <1>   0.1500 
 36 H       -9.2040    -2.9210    -1.7910 H     1 <1>   0.1500 
@<TRIPOS>BOND
  1   1   2  2   
  2   2   3  am  
  3   2   4  1   
  4   3   5  1   
  5   3  19  1   
  6   4   6  1   
  7   4   7  1   
  8   4  20  1   
  9   5   8  1   
 10   5   9  1   
 11   5  21  1   
 12   6   7  1   
 13   6  22  1   
 14   6  23  1   
 15   7  24  1   
 16   7  25  1   
 17   8  10  1   
 18   8  26  1   
 19   8  27  1   
 20   9  28  1   
 21   9  29  1   
 22   9  30  1   
 23  10  11  1   
 24  10  12  2   
 25  11  13  ar  
 26  11  14  ar  
 27  12  15  1   
 28  12  31  1   
 29  13  15  1   
 30  13  16  ar  
 31  14  17  ar  
 32  14  32  1   
 33  15  33  1   
 34  16  18  ar  
 35  16  34  1   
 36  17  18  ar  
 37  17  35  1   
 38  18  36  1   
@<TRIPOS>SUBSTRUCTURE
  1 ****   8 GROUP 4 **** **** 0

# MOE 2024.06 (io_trps.svl 2023.06)
