@<TRIPOS>MOLECULE
NONAME
41 43 1 0 0 
SMALL
USER_CHARGES


@<TRIPOS>ATOM
  1 O       -0.8640    -0.1620     1.3140 O.2   1 <1>  -0.5700 
  2 C       -1.7810     0.3660     0.7420 C.2   1 <1>   0.5690 
  3 N       -2.9490     0.5890     1.3950 N.am  1 <1>  -0.5470 
  4 C       -1.6120     0.7530    -0.7090 C.3   1 <1>  -0.1790 
  5 C       -4.1320     1.2000     0.9590 C.ar  1 <1>   0.1170 
  6 C       -5.3320     0.5260     1.0590 C.ar  1 <1>  -0.1500 
  7 C       -4.1110     2.5030     0.4350 C.ar  1 <1>  -0.1500 
  8 C       -6.5030     1.1410     0.6260 C.ar  1 <1>   0.2270 
  9 C       -5.2640     3.1190     0.0050 C.ar  1 <1>  -0.1500 
 10 N       -7.7770     0.6630     0.6260 N.2   1 <1>  -0.5650 
 11 C       -6.4690     2.4200     0.1050 C.ar  1 <1>  -0.1520 
 12 C       -8.4830     1.6230     0.1230 C.2   1 <1>   0.0060 
 13 N       -7.7560     2.7280    -0.2160 N.pl3 1 <1>   0.0480 
 14 C       -9.9930     1.5230    -0.0610 C.3   1 <1>   0.5230 
 15 C       -8.1840     4.0210    -0.7910 C.3   1 <1>   0.0160 
 16 N      -10.3680     0.0930     0.0820 N.4   1 <1>  -0.9590 
 17 C      -10.1800    -0.7060    -1.1470 C.3   1 <1>   0.3430 
 18 C      -11.7210    -0.1880     0.5990 C.3   1 <1>   0.3430 
 19 C      -10.9640    -1.9830    -0.8790 C.3   1 <1>  -0.1600 
 20 C      -11.9600    -1.6480     0.2380 C.3   1 <1>  -0.1600 
 21 H       -2.9560     0.1900     2.3350 H     1 <1>   0.3700 
 22 H       -2.5160     0.5640    -1.2550 H     1 <1>   0.0800 
 23 H       -0.8180     0.1740    -1.1440 H     1 <1>   0.0800 
 24 H       -1.3580     1.7940    -0.7770 H     1 <1>   0.0800 
 25 H       -5.3830    -0.4680     1.4590 H     1 <1>   0.1500 
 26 H       -3.1710     3.0240     0.3810 H     1 <1>   0.1500 
 27 H       -5.2410     4.1180    -0.3960 H     1 <1>   0.1500 
 28 H      -10.2860     1.8950    -1.0290 H     1 <1>   0.0800 
 29 H      -10.4740     2.1090     0.7040 H     1 <1>   0.0800 
 30 H       -7.7200     4.1520    -1.7520 H     1 <1>   0.0800 
 31 H       -7.8690     4.8170    -0.1390 H     1 <1>   0.0800 
 32 H       -9.2510     4.0560    -0.9010 H     1 <1>   0.0800 
 33 H       -9.6570    -0.2630     0.7490 H     1 <1>   0.4500 
 34 H       -9.1350    -0.9060    -1.3310 H     1 <1>   0.0800 
 35 H      -10.6050    -0.1900    -1.9920 H     1 <1>   0.0800 
 36 H      -12.4450     0.4310     0.0920 H     1 <1>   0.0800 
 37 H      -11.7840    -0.0240     1.6630 H     1 <1>   0.0800 
 38 H      -10.2900    -2.7590    -0.5580 H     1 <1>   0.0800 
 39 H      -11.4620    -2.3140    -1.7740 H     1 <1>   0.0800 
 40 H      -12.9790    -1.7950    -0.0780 H     1 <1>   0.0800 
 41 H      -11.7780    -2.2690     1.0990 H     1 <1>   0.0800 
@<TRIPOS>BOND
  1   1   2  2   
  2   2   3  am  
  3   2   4  1   
  4   3   5  1   
  5   3  21  1   
  6   4  22  1   
  7   4  23  1   
  8   4  24  1   
  9   5   6  ar  
 10   5   7  ar  
 11   6   8  ar  
 12   6  25  1   
 13   7   9  ar  
 14   7  26  1   
 15   8  10  1   
 16   8  11  ar  
 17   9  11  ar  
 18   9  27  1   
 19  10  12  2   
 20  11  13  1   
 21  12  13  1   
 22  12  14  1   
 23  13  15  1   
 24  14  16  1   
 25  14  28  1   
 26  14  29  1   
 27  15  30  1   
 28  15  31  1   
 29  15  32  1   
 30  16  17  1   
 31  16  18  1   
 32  16  33  1   
 33  17  19  1   
 34  17  34  1   
 35  17  35  1   
 36  18  20  1   
 37  18  36  1   
 38  18  37  1   
 39  19  20  1   
 40  19  38  1   
 41  19  39  1   
 42  20  40  1   
 43  20  41  1   
@<TRIPOS>SUBSTRUCTURE
  1 ****   8 GROUP 4 **** **** 0

# MOE 2024.06 (io_trps.svl 2023.06)
