@<TRIPOS>MOLECULE
NONAME
49 51 1 0 0 
SMALL
USER_CHARGES


@<TRIPOS>ATOM
  1 S       -0.6080     0.8550    -0.4300 S.3   1 <1>  -0.3320 
  2 C        1.1280     0.4470    -0.6920 C.ar  1 <1>   0.1020 
  3 C       -0.6550     2.1120     0.9450 C.3   1 <1>   0.1310 
  4 C        2.1450     1.0260     0.0510 C.ar  1 <1>  -0.1500 
  5 C        1.4100    -0.4800    -1.6800 C.ar  1 <1>  -0.1500 
  6 C       -2.0830     2.5380     1.2580 C.2   1 <1>   0.5690 
  7 C        3.4580     0.6670    -0.2030 C.ar  1 <1>  -0.1500 
  8 C        2.7250    -0.8350    -1.9290 C.ar  1 <1>  -0.1500 
  9 O       -2.2630     3.4400     2.0400 O.2   1 <1>  -0.5700 
 10 N       -3.1300     1.9120     0.6580 N.am  1 <1>  -0.7300 
 11 C        3.7470    -0.2610    -1.1900 C.ar  1 <1>  -0.1500 
 12 C       -4.5380     2.2370     0.8970 C.3   1 <1>   0.2200 
 13 C       -5.3750     0.9620     0.8290 C.3   1 <1>  -0.1600 
 14 C       -4.9980     3.2500    -0.1470 C.3   1 <1>  -0.1600 
 15 C       -6.8570     1.2920     0.9860 C.3   1 <1>   0.3430 
 16 C       -6.4820     3.5560     0.0270 C.3   1 <1>   0.3430 
 17 N       -7.2680     2.2910    -0.0480 N.4   1 <1>  -0.9590 
 18 C       -8.7320     2.5610     0.0070 C.3   1 <1>   0.4860 
 19 C       -9.4680     1.2790    -0.3280 C.ar  1 <1>  -0.1430 
 20 C      -10.1140     0.5630     0.6700 C.ar  1 <1>  -0.1500 
 21 C       -9.4960     0.8090    -1.6340 C.ar  1 <1>  -0.1500 
 22 C      -10.7690    -0.6170     0.3670 C.ar  1 <1>  -0.1500 
 23 C      -10.1510    -0.3730    -1.9340 C.ar  1 <1>  -0.1500 
 24 C      -10.7860    -1.0870    -0.9330 C.ar  1 <1>  -0.1500 
 25 H       -0.0800     2.9610     0.6240 H     1 <1>   0.0800 
 26 H       -0.2070     1.6610     1.8100 H     1 <1>   0.0800 
 27 H        1.9440     1.7460     0.8190 H     1 <1>   0.1500 
 28 H        0.6100    -0.9180    -2.2470 H     1 <1>   0.1500 
 29 H        4.2580     1.1080     0.3670 H     1 <1>   0.1500 
 30 H        2.9520    -1.5550    -2.6950 H     1 <1>   0.1500 
 31 H       -2.9130     1.1810    -0.0280 H     1 <1>   0.3700 
 32 H        4.7690    -0.5380    -1.3850 H     1 <1>   0.1500 
 33 H       -4.6340     2.6720     1.8800 H     1 <1>   0.0800 
 34 H       -5.0800     0.3010     1.6250 H     1 <1>   0.0800 
 35 H       -5.2190     0.4550    -0.1060 H     1 <1>   0.0800 
 36 H       -4.8180     2.8780    -1.1400 H     1 <1>   0.0800 
 37 H       -4.4390     4.1610    -0.0230 H     1 <1>   0.0800 
 38 H       -7.0350     1.6920     1.9720 H     1 <1>   0.0800 
 39 H       -7.4350     0.3870     0.8790 H     1 <1>   0.0800 
 40 H       -6.7990     4.2390    -0.7460 H     1 <1>   0.0800 
 41 H       -6.6390     4.0300     0.9830 H     1 <1>   0.0800 
 42 H       -7.0980     1.8540    -0.9630 H     1 <1>   0.4500 
 43 H       -8.9990     3.3190    -0.7100 H     1 <1>   0.0800 
 44 H       -9.0140     2.9040     0.9900 H     1 <1>   0.0800 
 45 H      -10.1210     0.9100     1.6900 H     1 <1>   0.1500 
 46 H       -9.0180     1.3490    -2.4330 H     1 <1>   0.1500 
 47 H      -11.2710    -1.1740     1.1410 H     1 <1>   0.1500 
 48 H      -10.1740    -0.7390    -2.9470 H     1 <1>   0.1500 
 49 H      -11.2970    -2.0050    -1.1680 H     1 <1>   0.1500 
@<TRIPOS>BOND
  1   1   2  1   
  2   1   3  1   
  3   2   4  ar  
  4   2   5  ar  
  5   3   6  1   
  6   3  25  1   
  7   3  26  1   
  8   4   7  ar  
  9   4  27  1   
 10   5   8  ar  
 11   5  28  1   
 12   6   9  2   
 13   6  10  am  
 14   7  11  ar  
 15   7  29  1   
 16   8  11  ar  
 17   8  30  1   
 18  10  12  1   
 19  10  31  1   
 20  11  32  1   
 21  12  13  1   
 22  12  14  1   
 23  12  33  1   
 24  13  15  1   
 25  13  34  1   
 26  13  35  1   
 27  14  16  1   
 28  14  36  1   
 29  14  37  1   
 30  15  17  1   
 31  15  38  1   
 32  15  39  1   
 33  16  17  1   
 34  16  40  1   
 35  16  41  1   
 36  17  18  1   
 37  17  42  1   
 38  18  19  1   
 39  18  43  1   
 40  18  44  1   
 41  19  20  ar  
 42  19  21  ar  
 43  20  22  ar  
 44  20  45  1   
 45  21  23  ar  
 46  21  46  1   
 47  22  24  ar  
 48  22  47  1   
 49  23  24  ar  
 50  23  48  1   
 51  24  49  1   
@<TRIPOS>SUBSTRUCTURE
  1 ****  10 GROUP 4 **** **** 0

# MOE 2024.06 (io_trps.svl 2023.06)
