@<TRIPOS>MOLECULE
NONAME
33 35 1 0 0 
SMALL
USER_CHARGES


@<TRIPOS>ATOM
  1 F       -0.5940     0.8770    -1.7040 F     1 <1>  -0.1900 
  2 C       -1.5270     1.2390    -0.8570 C.ar  1 <1>   0.1900 
  3 C       -2.5020     0.3200    -0.4550 C.ar  1 <1>   0.1170 
  4 C       -1.5100     2.5480    -0.4160 C.ar  1 <1>  -0.1500 
  5 N       -2.5460    -1.0170    -0.8670 N.am  1 <1>  -0.5470 
  6 C       -3.5010     0.7630     0.4070 C.ar  1 <1>  -0.1500 
  7 C       -2.5170     2.9370     0.4460 C.ar  1 <1>   0.1900 
  8 C       -1.6570    -2.0060    -0.5660 C.2   1 <1>   0.5690 
  9 C       -3.5140     2.0720     0.8640 C.ar  1 <1>  -0.1500 
 10 F       -2.5310     4.1710     0.8790 F     1 <1>  -0.1900 
 11 O       -0.5480    -1.7400    -0.1600 O.2   1 <1>  -0.5700 
 12 C       -2.0200    -3.4760    -0.8390 C.3   1 <1>  -0.0190 
 13 C       -3.4400    -4.0120    -0.4890 C.3   1 <1>  -0.1860 
 14 C       -1.1710    -4.4200     0.0310 C.3   1 <1>   0.2000 
 15 C       -4.5140    -3.0190    -0.1050 C.2   1 <1>   0.9060 
 16 C       -3.1250    -5.0310     0.6130 C.3   1 <1>   0.2000 
 17 O       -1.9570    -4.5340     1.1540 O.3   1 <1>  -0.5600 
 18 C       -1.2090    -5.8650    -0.4890 C.3   1 <1>  -0.1600 
 19 O       -4.9300    -2.2830    -1.0080 O.co2 1 <1>  -0.9000 
 20 O       -4.9570    -2.9410     1.0400 O.co2 1 <1>  -0.9000 
 21 C       -2.5940    -6.3210    -0.0160 C.3   1 <1>  -0.1600 
 22 H       -0.7490     3.2330    -0.7340 H     1 <1>   0.1500 
 23 H       -3.5030    -1.3580    -1.0840 H     1 <1>   0.3700 
 24 H       -4.2640     0.0650     0.7190 H     1 <1>   0.1500 
 25 H       -4.2830     2.4110     1.5330 H     1 <1>   0.1500 
 26 H       -1.8070    -3.6530    -1.8760 H     1 <1>   0.0800 
 27 H       -3.8430    -4.5290    -1.3380 H     1 <1>   0.0800 
 28 H       -0.1840    -4.0710     0.2820 H     1 <1>   0.0800 
 29 H       -3.8860    -5.1610     1.3650 H     1 <1>   0.0800 
 30 H       -0.4330    -6.4440    -0.0200 H     1 <1>   0.0800 
 31 H       -1.0960    -5.9080    -1.5570 H     1 <1>   0.0800 
 32 H       -3.2210    -6.6740    -0.8160 H     1 <1>   0.0800 
 33 H       -2.5130    -7.0820     0.7400 H     1 <1>   0.0800 
@<TRIPOS>BOND
  1   1   2  1   
  2   2   3  ar  
  3   2   4  ar  
  4   3   5  1   
  5   3   6  ar  
  6   4   7  ar  
  7   4  22  1   
  8   5   8  am  
  9   5  23  1   
 10   6   9  ar  
 11   6  24  1   
 12   7   9  ar  
 13   7  10  1   
 14   8  11  2   
 15   8  12  1   
 16   9  25  1   
 17  12  13  1   
 18  12  14  1   
 19  12  26  1   
 20  13  15  1   
 21  13  16  1   
 22  13  27  1   
 23  14  17  1   
 24  14  18  1   
 25  14  28  1   
 26  15  19  ar  
 27  15  20  ar  
 28  16  17  1   
 29  16  21  1   
 30  16  29  1   
 31  18  21  1   
 32  18  30  1   
 33  18  31  1   
 34  21  32  1   
 35  21  33  1   
@<TRIPOS>SUBSTRUCTURE
  1 ****   5 GROUP 4 **** **** 0

# MOE 2024.06 (io_trps.svl 2023.06)
