@<TRIPOS>MOLECULE
NONAME
25 25 1 0 0 
SMALL
USER_CHARGES


@<TRIPOS>ATOM
  1 O       -0.5600    -0.8260     1.2580 O.2   1 <1>  -0.5700 
  2 C       -1.4930    -1.3500     0.6910 C.2   1 <1>   0.7060 
  3 O       -1.2860    -2.5860     0.2280 O.3   1 <1>  -0.4300 
  4 C       -2.7680    -0.6910     0.5720 C.2   1 <1>  -0.1360 
  5 C       -2.3050    -3.5630     0.1350 C.3   1 <1>   0.1200 
  6 C       -3.8190    -0.8920    -0.2660 C.2   1 <1>  -0.4000 
  7 C       -1.7240    -4.9610     0.3890 C.3   1 <1>   0.2000 
  8 C       -5.0650    -0.1910    -0.2760 C.2   1 <1>   1.0500 
  9 O       -0.8900    -5.3530    -0.6510 O.3   1 <1>  -0.5600 
 10 C       -2.7760    -6.0600     0.4450 C.3   1 <1>  -0.1600 
 11 O       -5.9370    -0.5220    -1.0910 O.co2 1 <1>  -0.9000 
 12 O       -5.2800     0.7190     0.5380 O.co2 1 <1>  -0.9000 
 13 C       -0.7490    -6.7360    -0.6580 C.3   1 <1>   0.1200 
 14 C       -2.0030    -7.2960     0.0110 C.3   1 <1>  -0.1600 
 15 H       -2.8620     0.1060     1.2890 H     1 <1>   0.1500 
 16 H       -3.0580    -3.3470     0.8730 H     1 <1>   0.0800 
 17 H       -2.7360    -3.5190    -0.8490 H     1 <1>   0.0800 
 18 H       -3.7960    -1.6300    -1.0370 H     1 <1>   0.1500 
 19 H       -1.1430    -4.9600     1.2960 H     1 <1>   0.0800 
 20 H       -3.1990    -6.1580     1.4290 H     1 <1>   0.0800 
 21 H       -3.5610    -5.8490    -0.2610 H     1 <1>   0.0800 
 22 H       -0.6500    -7.0630    -1.6780 H     1 <1>   0.0800 
 23 H        0.1380    -6.9850    -0.1010 H     1 <1>   0.0800 
 24 H       -2.5720    -7.8990    -0.6740 H     1 <1>   0.0800 
 25 H       -1.7220    -7.8970     0.8580 H     1 <1>   0.0800 
@<TRIPOS>BOND
  1   1   2  2   
  2   2   3  1   
  3   2   4  1   
  4   3   5  1   
  5   4   6  2   
  6   4  15  1   
  7   5   7  1   
  8   5  16  1   
  9   5  17  1   
 10   6   8  1   
 11   6  18  1   
 12   7   9  1   
 13   7  10  1   
 14   7  19  1   
 15   8  11  ar  
 16   8  12  ar  
 17   9  13  1   
 18  10  14  1   
 19  10  20  1   
 20  10  21  1   
 21  13  14  1   
 22  13  22  1   
 23  13  23  1   
 24  14  24  1   
 25  14  25  1   
@<TRIPOS>SUBSTRUCTURE
  1 ****   5 GROUP 4 **** **** 0

# MOE 2024.06 (io_trps.svl 2023.06)
