@<TRIPOS>MOLECULE
NONAME
51 53 1 0 0 
SMALL
USER_CHARGES


@<TRIPOS>ATOM
  1 S       -0.6880     1.0320    -1.1030 S.o2  1 <1>   1.4470 
  2 O       -0.2810    -0.2710    -1.5850 O.2   1 <1>  -0.6500 
  3 O       -0.9590     2.0710    -2.0740 O.2   1 <1>  -0.6500 
  4 N        0.5470     1.6280    -0.1040 N.am  1 <1>  -0.8490 
  5 C       -2.1090     0.8460     0.0270 C.ar  1 <1>  -0.0090 
  6 C        0.2690     3.0040     0.3300 C.3   1 <1>   0.1960 
  7 C        1.8510     1.4860    -0.7580 C.3   1 <1>   0.1960 
  8 C       -2.1360    -0.0660     1.0860 C.ar  1 <1>  -0.1440 
  9 C       -3.2210     1.6590    -0.1550 C.ar  1 <1>  -0.1500 
 10 C        0.9480     3.2860     1.6720 C.3   1 <1>  -0.1600 
 11 C        3.0380     1.7930     0.1650 C.3   1 <1>  -0.1600 
 12 C       -3.2470    -0.1400     1.9130 C.ar  1 <1>  -0.1500 
 13 C       -0.9640    -0.9980     1.3730 C.3   1 <1>  -0.0970 
 14 C       -4.3470     1.5980     0.6590 C.ar  1 <1>   0.0860 
 15 C        2.3770     3.8450     1.5750 C.3   1 <1>  -0.1600 
 16 C        3.2350     3.2920     0.4290 C.3   1 <1>  -0.1600 
 17 C       -4.3360     0.6810     1.7030 C.ar  1 <1>  -0.1500 
 18 C       -5.4840     2.4640     0.4190 C.2   1 <1>   0.5440 
 19 O       -5.3220     3.6690     0.4390 O.2   1 <1>  -0.5700 
 20 N       -6.7370     1.9560     0.1540 N.am  1 <1>  -0.6600 
 21 C       -6.9990     0.5430    -0.2570 C.3   1 <1>   0.1400 
 22 C       -7.9370     2.8350     0.0090 C.3   1 <1>   0.1400 
 23 C       -7.6860     0.5000    -1.6320 C.3   1 <1>   0.1200 
 24 C       -8.5660     2.6610    -1.3830 C.3   1 <1>   0.1200 
 25 O       -8.8280     1.3100    -1.6410 O.3   1 <1>  -0.5600 
 26 H       -0.7910     3.1200     0.4840 H     1 <1>   0.0800 
 27 H        0.5620     3.7170    -0.4230 H     1 <1>   0.0800 
 28 H        1.8910     2.1080    -1.6370 H     1 <1>   0.0800 
 29 H        1.9660     0.4650    -1.0830 H     1 <1>   0.0800 
 30 H       -3.2260     2.3780    -0.9580 H     1 <1>   0.1500 
 31 H        0.9460     2.3830     2.2580 H     1 <1>   0.0800 
 32 H        0.3530     4.0050     2.2080 H     1 <1>   0.0800 
 33 H        3.9210     1.4330    -0.3320 H     1 <1>   0.0800 
 34 H        2.9470     1.2420     1.0850 H     1 <1>   0.0800 
 35 H       -3.2690    -0.8400     2.7310 H     1 <1>   0.1500 
 36 H       -0.8170    -1.6770     0.5520 H     1 <1>   0.0800 
 37 H       -1.1390    -1.5820     2.2590 H     1 <1>   0.0800 
 38 H       -0.0610    -0.4340     1.5240 H     1 <1>   0.0800 
 39 H        2.8740     3.6480     2.5090 H     1 <1>   0.0800 
 40 H        2.3280     4.9160     1.4660 H     1 <1>   0.0800 
 41 H        3.0300     3.8420    -0.4740 H     1 <1>   0.0800 
 42 H        4.2680     3.4700     0.6740 H     1 <1>   0.0800 
 43 H       -5.1900     0.6200     2.3560 H     1 <1>   0.1500 
 44 H       -7.6370     0.0750     0.4720 H     1 <1>   0.0800 
 45 H       -6.0840    -0.0190    -0.3100 H     1 <1>   0.0800 
 46 H       -7.6760     3.8690     0.1540 H     1 <1>   0.0800 
 47 H       -8.6620     2.5720     0.7590 H     1 <1>   0.0800 
 48 H       -7.9950    -0.5040    -1.8630 H     1 <1>   0.0800 
 49 H       -7.0160     0.8420    -2.4020 H     1 <1>   0.0800 
 50 H       -7.9050     3.0390    -2.1440 H     1 <1>   0.0800 
 51 H       -9.4990     3.1940    -1.4380 H     1 <1>   0.0800 
@<TRIPOS>BOND
  1   1   2  2   
  2   1   3  2   
  3   1   4  am  
  4   1   5  1   
  5   4   6  1   
  6   4   7  1   
  7   5   8  ar  
  8   5   9  ar  
  9   6  10  1   
 10   6  26  1   
 11   6  27  1   
 12   7  11  1   
 13   7  28  1   
 14   7  29  1   
 15   8  12  ar  
 16   8  13  1   
 17   9  14  ar  
 18   9  30  1   
 19  10  15  1   
 20  10  31  1   
 21  10  32  1   
 22  11  16  1   
 23  11  33  1   
 24  11  34  1   
 25  12  17  ar  
 26  12  35  1   
 27  13  36  1   
 28  13  37  1   
 29  13  38  1   
 30  14  17  ar  
 31  14  18  1   
 32  15  16  1   
 33  15  39  1   
 34  15  40  1   
 35  16  41  1   
 36  16  42  1   
 37  17  43  1   
 38  18  19  2   
 39  18  20  am  
 40  20  21  1   
 41  20  22  1   
 42  21  23  1   
 43  21  44  1   
 44  21  45  1   
 45  22  24  1   
 46  22  46  1   
 47  22  47  1   
 48  23  25  1   
 49  23  48  1   
 50  23  49  1   
 51  24  25  1   
 52  24  50  1   
 53  24  51  1   
@<TRIPOS>SUBSTRUCTURE
  1 ****   9 GROUP 4 **** **** 0

# MOE 2024.06 (io_trps.svl 2023.06)
