@<TRIPOS>MOLECULE
NONAME
35 36 1 0 0 
SMALL
USER_CHARGES


@<TRIPOS>ATOM
  1 CL       1.5390     2.1840    -3.0650 Cl    1 <1>  -0.1770 
  2 C        0.7800     2.8290    -1.6260 C.ar  1 <1>   0.1770 
  3 C        1.4380     2.7670    -0.4040 C.ar  1 <1>   0.0820 
  4 C       -0.4750     3.3930    -1.7410 C.ar  1 <1>  -0.1500 
  5 O        2.6680     2.1980    -0.3680 O.3   1 <1>  -0.3630 
  6 C        0.8030     3.2900     0.7190 C.ar  1 <1>  -0.1500 
  7 C       -1.1170     3.9160    -0.6250 C.ar  1 <1>  -0.0090 
  8 C        3.4320     2.1240     0.8280 C.3   1 <1>   0.1810 
  9 C       -0.4560     3.8530     0.5970 C.ar  1 <1>  -0.1500 
 10 S       -2.7670     4.6540    -0.7460 S.o2  1 <1>   1.4470 
 11 C        4.7800     1.4620     0.5700 C.2   1 <1>   0.5690 
 12 O       -2.7200     5.9950    -0.2070 O.2   1 <1>  -0.6500 
 13 O       -3.3180     4.4300    -2.0650 O.2   1 <1>  -0.6500 
 14 N       -3.6650     3.7190     0.3430 N.am  1 <1>  -0.8490 
 15 O        5.5440     1.3030     1.4860 O.2   1 <1>  -0.5700 
 16 N        5.1130     1.0590    -0.6730 N.am  1 <1>  -0.8000 
 17 C       -3.9990     2.3840    -0.1250 C.3   1 <1>   0.1960 
 18 C       -4.9330     4.3310     0.6990 C.3   1 <1>   0.1960 
 19 C       -5.0890     1.9170     0.8300 C.3   1 <1>  -0.1600 
 20 C       -5.7380     3.2040     1.3380 C.3   1 <1>  -0.1600 
 21 H       -0.9520     3.4250    -2.7060 H     1 <1>   0.1500 
 22 H        1.2650     3.2690     1.6890 H     1 <1>   0.1500 
 23 H        2.8850     1.5450     1.5490 H     1 <1>   0.0800 
 24 H        3.5920     3.1210     1.1950 H     1 <1>   0.0800 
 25 H       -0.9440     4.2570     1.4700 H     1 <1>   0.1500 
 26 H        6.0130     0.6140    -0.8530 H     1 <1>   0.3700 
 27 H        4.4780     1.1820    -1.4660 H     1 <1>   0.3700 
 28 H       -3.1390     1.7350    -0.1030 H     1 <1>   0.0800 
 29 H       -4.3960     2.4240    -1.1270 H     1 <1>   0.0800 
 30 H       -5.4340     4.6800    -0.1910 H     1 <1>   0.0800 
 31 H       -4.7870     5.1580     1.3740 H     1 <1>   0.0800 
 32 H       -4.6440     1.3780     1.6480 H     1 <1>   0.0800 
 33 H       -5.7920     1.2760     0.3280 H     1 <1>   0.0800 
 34 H       -6.7740     3.2740     1.0560 H     1 <1>   0.0800 
 35 H       -5.6620     3.2650     2.4090 H     1 <1>   0.0800 
@<TRIPOS>BOND
  1   1   2  1   
  2   2   3  ar  
  3   2   4  ar  
  4   3   5  1   
  5   3   6  ar  
  6   4   7  ar  
  7   4  21  1   
  8   5   8  1   
  9   6   9  ar  
 10   6  22  1   
 11   7   9  ar  
 12   7  10  1   
 13   8  11  1   
 14   8  23  1   
 15   8  24  1   
 16   9  25  1   
 17  10  12  2   
 18  10  13  2   
 19  10  14  am  
 20  11  15  2   
 21  11  16  am  
 22  14  17  1   
 23  14  18  1   
 24  16  26  1   
 25  16  27  1   
 26  17  19  1   
 27  17  28  1   
 28  17  29  1   
 29  18  20  1   
 30  18  30  1   
 31  18  31  1   
 32  19  20  1   
 33  19  32  1   
 34  19  33  1   
 35  20  34  1   
 36  20  35  1   
@<TRIPOS>SUBSTRUCTURE
  1 ****   9 GROUP 4 **** **** 0

# MOE 2024.06 (io_trps.svl 2023.06)
