@<TRIPOS>MOLECULE
NONAME
41 40 1 0 0 
SMALL
USER_CHARGES


@<TRIPOS>ATOM
  1 O        0.1060     0.5530    -1.7830 O.3   1 <1>  -0.6800 
  2 C       -0.6070     1.4150    -0.9790 C.3   1 <1>   0.4800 
  3 C        0.4330     2.2470    -0.3000 C.1   1 <1>  -0.2000 
  4 C       -1.4780     0.5740     0.0350 C.3   1 <1>   0.0000 
  5 C       -1.4030     2.3080    -1.9350 C.3   1 <1>  -0.2400 
  6 C        1.3420     2.8310     0.1950 C.1   1 <1>  -0.2000 
  7 C       -2.3020     1.4860     0.9700 C.3   1 <1>  -0.2400 
  8 C       -0.5940    -0.3200     0.9370 C.3   1 <1>  -0.2400 
  9 C       -2.4780    -0.3620    -0.6840 C.3   1 <1>  -0.2400 
 10 C        2.5910     3.4210     0.7330 C.3   1 <1>   0.5430 
 11 N        3.6970     2.5190     0.3210 N.4   1 <1>  -0.9590 
 12 C        3.6580     1.2340     1.0740 C.3   1 <1>   0.3430 
 13 C        5.0080     3.2150     0.3910 C.3   1 <1>   0.3430 
 14 C        3.5180     0.0890     0.0790 C.3   1 <1>  -0.2400 
 15 C        6.0620     2.4330    -0.3830 C.3   1 <1>  -0.2400 
 16 H       -0.5290    -0.0230    -2.2450 H     1 <1>   0.4000 
 17 H       -0.7340     2.8170    -2.6060 H     1 <1>   0.0800 
 18 H       -1.9440     3.0550    -1.3850 H     1 <1>   0.0800 
 19 H       -2.1030     1.7390    -2.5160 H     1 <1>   0.0800 
 20 H       -1.6630     2.1560     1.5180 H     1 <1>   0.0800 
 21 H       -2.8530     0.8990     1.6830 H     1 <1>   0.0800 
 22 H       -3.0110     2.0720     0.4140 H     1 <1>   0.0800 
 23 H        0.0690     0.2730     1.5390 H     1 <1>   0.0800 
 24 H       -0.0020    -0.9950     0.3440 H     1 <1>   0.0800 
 25 H       -1.2020    -0.9090     1.6020 H     1 <1>   0.0800 
 26 H       -3.1860     0.1960    -1.2690 H     1 <1>   0.0800 
 27 H       -3.0370    -0.9350     0.0350 H     1 <1>   0.0800 
 28 H       -1.9680    -1.0560    -1.3270 H     1 <1>   0.0800 
 29 H        2.5410     3.5010     1.8070 H     1 <1>   0.0800 
 30 H        2.7280     4.4030     0.3100 H     1 <1>   0.0800 
 31 H        3.4890     2.2860    -0.6600 H     1 <1>   0.4500 
 32 H        2.8150     1.2190     1.7470 H     1 <1>   0.0800 
 33 H        4.5580     1.1090     1.6540 H     1 <1>   0.0800 
 34 H        5.3150     3.3300     1.4190 H     1 <1>   0.0800 
 35 H        4.9190     4.1970    -0.0460 H     1 <1>   0.0800 
 36 H        2.6030     0.1780    -0.4810 H     1 <1>   0.0800 
 37 H        3.4860    -0.8430     0.6140 H     1 <1>   0.0800 
 38 H        4.3520     0.0550    -0.5990 H     1 <1>   0.0800 
 39 H        6.2680     1.4860     0.0820 H     1 <1>   0.0800 
 40 H        6.9790     2.9960    -0.3960 H     1 <1>   0.0800 
 41 H        5.7540     2.2800    -1.4020 H     1 <1>   0.0800 
@<TRIPOS>BOND
  1   1   2  1   
  2   1  16  1   
  3   2   3  1   
  4   2   4  1   
  5   2   5  1   
  6   3   6  3   
  7   4   7  1   
  8   4   8  1   
  9   4   9  1   
 10   5  17  1   
 11   5  18  1   
 12   5  19  1   
 13   6  10  1   
 14   7  20  1   
 15   7  21  1   
 16   7  22  1   
 17   8  23  1   
 18   8  24  1   
 19   8  25  1   
 20   9  26  1   
 21   9  27  1   
 22   9  28  1   
 23  10  11  1   
 24  10  29  1   
 25  10  30  1   
 26  11  12  1   
 27  11  13  1   
 28  11  31  1   
 29  12  14  1   
 30  12  32  1   
 31  12  33  1   
 32  13  15  1   
 33  13  34  1   
 34  13  35  1   
 35  14  36  1   
 36  14  37  1   
 37  14  38  1   
 38  15  39  1   
 39  15  40  1   
 40  15  41  1   
@<TRIPOS>SUBSTRUCTURE
  1 ****   3 GROUP 4 **** **** 0

# MOE 2024.06 (io_trps.svl 2023.06)
