@<TRIPOS>MOLECULE
NONAME
38 39 1 0 0 
SMALL
USER_CHARGES


@<TRIPOS>ATOM
  1 O       -0.4070     0.3270     0.5570 O.2   1 <1>  -0.5700 
  2 C       -1.0880     1.1570    -0.0180 C.2   1 <1>   0.6900 
  3 N       -2.4050     0.9120    -0.2820 N.am  1 <1>  -0.6600 
  4 N       -0.5450     2.3430    -0.3890 N.am  1 <1>  -0.7300 
  5 C       -3.0830    -0.2370     0.3730 C.3   1 <1>   0.2780 
  6 C       -3.2020     1.5940    -1.3360 C.3   1 <1>   0.1400 
  7 C        0.8420     2.7730    -0.1220 C.3   1 <1>   0.1400 
  8 C       -4.5740     0.0310     0.5390 C.2   1 <1>  -0.2880 
  9 C       -4.4890     2.1610    -0.7290 C.3   1 <1>  -0.0220 
 10 C        0.8150     4.0070     0.7810 C.3   1 <1>  -0.1600 
 11 C       -5.2410     1.1000     0.0670 C.2   1 <1>  -0.1670 
 12 C        2.2320     4.5020     1.0890 C.3   1 <1>  -0.2400 
 13 C       -6.6580     1.3300     0.2540 C.ar  1 <1>   0.0280 
 14 C       -7.5730     0.2980     0.0650 C.ar  1 <1>  -0.1500 
 15 C       -7.1580     2.5760     0.6260 C.ar  1 <1>  -0.1500 
 16 C       -8.9320     0.4990     0.2330 C.ar  1 <1>  -0.1500 
 17 C       -8.5150     2.7860     0.7950 C.ar  1 <1>  -0.1500 
 18 C       -9.4050     1.7460     0.5980 C.ar  1 <1>  -0.1500 
 19 H       -1.1890     3.0680    -0.6870 H     1 <1>   0.3700 
 20 H       -2.6460    -0.4040     1.3440 H     1 <1>   0.0800 
 21 H       -2.9320    -1.1200    -0.2220 H     1 <1>   0.0800 
 22 H       -3.4580     0.8700    -2.0910 H     1 <1>   0.0800 
 23 H       -2.6390     2.3780    -1.8080 H     1 <1>   0.0800 
 24 H        1.3260     3.0040    -1.0560 H     1 <1>   0.0800 
 25 H        1.3910     1.9790     0.3560 H     1 <1>   0.0800 
 26 H       -5.0610    -0.7440     1.1010 H     1 <1>   0.1500 
 27 H       -5.1120     2.5220    -1.5280 H     1 <1>   0.0800 
 28 H       -4.2480     2.9900    -0.0890 H     1 <1>   0.0800 
 29 H        0.3230     3.7540     1.7040 H     1 <1>   0.0800 
 30 H        0.2640     4.7950     0.2990 H     1 <1>   0.0800 
 31 H        2.7970     3.7340     1.5890 H     1 <1>   0.0800 
 32 H        2.1890     5.3650     1.7300 H     1 <1>   0.0800 
 33 H        2.7440     4.7740     0.1820 H     1 <1>   0.0800 
 34 H       -7.2140    -0.6730    -0.2230 H     1 <1>   0.1500 
 35 H       -6.4770     3.3900     0.7940 H     1 <1>   0.1500 
 36 H       -9.6210    -0.3130     0.0800 H     1 <1>   0.1500 
 37 H       -8.8780     3.7570     1.0830 H     1 <1>   0.1500 
 38 H      -10.4610     1.9070     0.7290 H     1 <1>   0.1500 
@<TRIPOS>BOND
  1   1   2  2   
  2   2   3  am  
  3   2   4  am  
  4   3   5  1   
  5   3   6  1   
  6   4   7  1   
  7   4  19  1   
  8   5   8  1   
  9   5  20  1   
 10   5  21  1   
 11   6   9  1   
 12   6  22  1   
 13   6  23  1   
 14   7  10  1   
 15   7  24  1   
 16   7  25  1   
 17   8  11  2   
 18   8  26  1   
 19   9  11  1   
 20   9  27  1   
 21   9  28  1   
 22  10  12  1   
 23  10  29  1   
 24  10  30  1   
 25  11  13  1   
 26  12  31  1   
 27  12  32  1   
 28  12  33  1   
 29  13  14  ar  
 30  13  15  ar  
 31  14  16  ar  
 32  14  34  1   
 33  15  17  ar  
 34  15  35  1   
 35  16  18  ar  
 36  16  36  1   
 37  17  18  ar  
 38  17  37  1   
 39  18  38  1   
@<TRIPOS>SUBSTRUCTURE
  1 ****   9 GROUP 4 **** **** 0

# MOE 2024.06 (io_trps.svl 2023.06)
