@<TRIPOS>MOLECULE
NONAME
50 51 1 0 0 
SMALL
USER_CHARGES


@<TRIPOS>ATOM
  1 O        3.8460    -1.7120     0.8680 O.2   1 <1>  -0.5700 
  2 C        2.9410    -1.5900     0.0710 C.2   1 <1>   0.5690 
  3 N        1.7190    -2.1800     0.2690 N.am  1 <1>  -0.6600 
  4 C        3.2350    -0.7290    -1.1570 C.3   1 <1>  -0.0190 
  5 C        0.5220    -1.9900    -0.5970 C.3   1 <1>   0.1400 
  6 C        1.4840    -3.0350     1.4660 C.3   1 <1>   0.1400 
  7 C        4.6970    -0.9580    -1.5780 C.3   1 <1>   0.3430 
  8 C        2.9330     0.7640    -0.8630 C.3   1 <1>  -0.1600 
  9 C        0.4530    -3.1110    -1.6300 C.3   1 <1>  -0.2400 
 10 C        0.9460    -2.1790     2.6110 C.3   1 <1>  -0.2400 
 11 N        5.5890    -0.1410    -0.7100 N.4   1 <1>  -0.9590 
 12 C        4.0250     1.6960    -1.4150 C.3   1 <1>  -0.1600 
 13 C        5.4290     1.3350    -0.9000 C.3   1 <1>   0.3430 
 14 C        7.0050    -0.5890    -0.7340 C.3   1 <1>   0.4860 
 15 C        7.8070     0.2350     0.2580 C.ar  1 <1>  -0.1440 
 16 C        7.6720     0.0770     1.6360 C.ar  1 <1>  -0.1440 
 17 C        8.6960     1.1790    -0.2410 C.ar  1 <1>  -0.1500 
 18 C        8.4170     0.8810     2.4860 C.ar  1 <1>  -0.1500 
 19 C        6.7360    -0.9460     2.2710 C.3   1 <1>  -0.0970 
 20 C        9.4360     1.9720     0.6160 C.ar  1 <1>  -0.1500 
 21 C        9.2930     1.8240     1.9820 C.ar  1 <1>  -0.1500 
 22 H        2.6290    -1.0620    -1.9770 H     1 <1>   0.0800 
 23 H        0.5590    -1.0330    -1.0870 H     1 <1>   0.0800 
 24 H       -0.3690    -2.0030     0.0090 H     1 <1>   0.0800 
 25 H        2.4060    -3.5030     1.7700 H     1 <1>   0.0800 
 26 H        0.7830    -3.8180     1.2290 H     1 <1>   0.0800 
 27 H        4.8310    -0.6690    -2.6080 H     1 <1>   0.0800 
 28 H        4.9330    -2.0060    -1.4790 H     1 <1>   0.0800 
 29 H        2.8670     0.9170     0.2020 H     1 <1>   0.0800 
 30 H        1.9760     1.0320    -1.2800 H     1 <1>   0.0800 
 31 H        1.3300    -3.1180    -2.2500 H     1 <1>   0.0800 
 32 H       -0.4070    -2.9680    -2.2600 H     1 <1>   0.0800 
 33 H        0.3560    -4.0650    -1.1440 H     1 <1>   0.0800 
 34 H        1.6560    -1.4120     2.8640 H     1 <1>   0.0800 
 35 H        0.7910    -2.7950     3.4780 H     1 <1>   0.0800 
 36 H        0.0090    -1.7270     2.3440 H     1 <1>   0.0800 
 37 H        5.2610    -0.3520     0.2520 H     1 <1>   0.4500 
 38 H        3.8080     2.7150    -1.1440 H     1 <1>   0.0800 
 39 H        4.0260     1.6540    -2.4900 H     1 <1>   0.0800 
 40 H        6.1640     1.7010    -1.6000 H     1 <1>   0.0800 
 41 H        5.6050     1.8270     0.0440 H     1 <1>   0.0800 
 42 H        7.4140    -0.4650    -1.7220 H     1 <1>   0.0800 
 43 H        7.0680    -1.6310    -0.4670 H     1 <1>   0.0800 
 44 H        8.8270     1.3100    -1.3020 H     1 <1>   0.1500 
 45 H        8.3220     0.7780     3.5530 H     1 <1>   0.1500 
 46 H        5.7580    -0.5210     2.4080 H     1 <1>   0.0800 
 47 H        7.1070    -1.2400     3.2380 H     1 <1>   0.0800 
 48 H        6.6540    -1.8370     1.6770 H     1 <1>   0.0800 
 49 H       10.1240     2.7020     0.2260 H     1 <1>   0.1500 
 50 H        9.8670     2.4390     2.6540 H     1 <1>   0.1500 
@<TRIPOS>BOND
  1   1   2  2   
  2   2   3  am  
  3   2   4  1   
  4   3   5  1   
  5   3   6  1   
  6   4   7  1   
  7   4   8  1   
  8   4  22  1   
  9   5   9  1   
 10   5  23  1   
 11   5  24  1   
 12   6  10  1   
 13   6  25  1   
 14   6  26  1   
 15   7  11  1   
 16   7  27  1   
 17   7  28  1   
 18   8  12  1   
 19   8  29  1   
 20   8  30  1   
 21   9  31  1   
 22   9  32  1   
 23   9  33  1   
 24  10  34  1   
 25  10  35  1   
 26  10  36  1   
 27  11  13  1   
 28  11  14  1   
 29  11  37  1   
 30  12  13  1   
 31  12  38  1   
 32  12  39  1   
 33  13  40  1   
 34  13  41  1   
 35  14  15  1   
 36  14  42  1   
 37  14  43  1   
 38  15  16  ar  
 39  15  17  ar  
 40  16  18  ar  
 41  16  19  1   
 42  17  20  ar  
 43  17  44  1   
 44  18  21  ar  
 45  18  45  1   
 46  19  46  1   
 47  19  47  1   
 48  19  48  1   
 49  20  21  ar  
 50  20  49  1   
 51  21  50  1   
@<TRIPOS>SUBSTRUCTURE
  1 ****  11 GROUP 4 **** **** 0

# MOE 2024.06 (io_trps.svl 2023.06)
