@<TRIPOS>MOLECULE
NONAME
37 39 1 0 0 
SMALL
USER_CHARGES


@<TRIPOS>ATOM
  1 CL       0.7500     0.3570    -0.5950 Cl    1 <1>  -0.1770 
  2 C        1.3250    -1.2670    -0.2920 C.ar  1 <1>   0.1770 
  3 C        0.4430    -2.3300    -0.2020 C.ar  1 <1>   0.1900 
  4 C        2.6810    -1.4820    -0.1400 C.ar  1 <1>  -0.1500 
  5 F       -0.8430    -2.1310    -0.3450 F     1 <1>  -0.1900 
  6 C        0.8930    -3.6140     0.0410 C.ar  1 <1>  -0.1500 
  7 C        3.1650    -2.7650     0.1010 C.ar  1 <1>   0.1170 
  8 C        2.2550    -3.8210     0.1940 C.ar  1 <1>  -0.1500 
  9 N        4.5470    -2.9400     0.2600 N.am  1 <1>  -0.5470 
 10 C        5.3570    -4.0190     0.0340 C.2   1 <1>   0.6900 
 11 O        4.8930    -5.0680    -0.3710 O.2   1 <1>  -0.5700 
 12 N        6.7060    -3.9030     0.2730 N.am  1 <1>  -0.6600 
 13 C        7.5760    -5.1090     0.3380 C.3   1 <1>   0.1400 
 14 C        7.4310    -2.6170     0.4460 C.3   1 <1>   0.1400 
 15 C        8.8220    -4.8870    -0.5190 C.3   1 <1>  -0.1600 
 16 C        8.6900    -2.6150    -0.4230 C.3   1 <1>  -0.1600 
 17 C        9.7000    -3.7200     0.0820 C.3   1 <1>   0.5600 
 18 O       10.5650    -4.6870     0.6260 O.3   1 <1>  -0.5600 
 19 O       10.5370    -2.7030     0.5740 O.3   1 <1>  -0.5600 
 20 C       11.8710    -4.4320     0.2700 C.3   1 <1>   0.1200 
 21 C       11.8490    -2.9410     0.2280 C.3   1 <1>   0.1200 
 22 H        3.3560    -0.6500    -0.2150 H     1 <1>   0.1500 
 23 H        0.1960    -4.4300     0.1090 H     1 <1>   0.1500 
 24 H        2.6110    -4.8170     0.3900 H     1 <1>   0.1500 
 25 H        5.0590    -2.1310     0.5900 H     1 <1>   0.3700 
 26 H        7.0510    -5.9800    -0.0140 H     1 <1>   0.0800 
 27 H        7.8640    -5.2840     1.3610 H     1 <1>   0.0800 
 28 H        7.7050    -2.4990     1.4820 H     1 <1>   0.0800 
 29 H        6.8120    -1.7870     0.1560 H     1 <1>   0.0800 
 30 H        8.5190    -4.7310    -1.5380 H     1 <1>   0.0800 
 31 H        9.3140    -5.8470    -0.5840 H     1 <1>   0.0800 
 32 H        9.0560    -1.5990    -0.3930 H     1 <1>   0.0800 
 33 H        8.4090    -2.7170    -1.4550 H     1 <1>   0.0800 
 34 H       12.0760    -4.8660    -0.6920 H     1 <1>   0.0800 
 35 H       12.5300    -4.8200     1.0260 H     1 <1>   0.0800 
 36 H       12.4990    -2.4920     0.9570 H     1 <1>   0.0800 
 37 H       12.0400    -2.5570    -0.7590 H     1 <1>   0.0800 
@<TRIPOS>BOND
  1   1   2  1   
  2   2   3  ar  
  3   2   4  ar  
  4   3   5  1   
  5   3   6  ar  
  6   4   7  ar  
  7   4  22  1   
  8   6   8  ar  
  9   6  23  1   
 10   7   8  ar  
 11   7   9  1   
 12   8  24  1   
 13   9  10  am  
 14   9  25  1   
 15  10  11  2   
 16  10  12  am  
 17  12  13  1   
 18  12  14  1   
 19  13  15  1   
 20  13  26  1   
 21  13  27  1   
 22  14  16  1   
 23  14  28  1   
 24  14  29  1   
 25  15  17  1   
 26  15  30  1   
 27  15  31  1   
 28  16  17  1   
 29  16  32  1   
 30  16  33  1   
 31  17  18  1   
 32  17  19  1   
 33  18  20  1   
 34  19  21  1   
 35  20  21  1   
 36  20  34  1   
 37  20  35  1   
 38  21  36  1   
 39  21  37  1   
@<TRIPOS>SUBSTRUCTURE
  1 ****  10 GROUP 4 **** **** 0

# MOE 2024.06 (io_trps.svl 2023.06)
