@<TRIPOS>MOLECULE
NONAME
37 38 1 0 0 
SMALL
USER_CHARGES


@<TRIPOS>ATOM
  1 CL       2.5560     0.0640    -0.6610 Cl    1 <1>  -0.1770 
  2 C        2.4330     1.8070    -0.5820 C.ar  1 <1>   0.1770 
  3 C        3.2580     2.5270     0.2730 C.ar  1 <1>  -0.0230 
  4 C        1.4960     2.4330    -1.3820 C.ar  1 <1>  -0.1500 
  5 N        4.2220     1.8700     1.0770 N.pl3 1 <1>   0.5930 
  6 C        3.1130     3.9110     0.3200 C.ar  1 <1>  -0.1500 
  7 C        1.3690     3.8110    -1.3300 C.ar  1 <1>  -0.1500 
  8 N        4.1780     1.8060     2.4020 N.2   1 <1>  -0.4180 
  9 C        5.3690     1.2920     0.7390 C.2   1 <1>   0.2420 
 10 C        2.1760     4.5460    -0.4780 C.ar  1 <1>  -0.1500 
 11 N        5.2440     1.1970     2.7890 N.2   1 <1>   0.0000 
 12 S        5.9630     1.1620    -0.9570 S.3   1 <1>  -0.2860 
 13 N        6.0090     0.8640     1.7530 N.2   1 <1>  -0.3380 
 14 C        7.5930     0.2710    -0.7930 C.3   1 <1>   0.1310 
 15 C        8.6730     1.1450    -0.1690 C.2   1 <1>   0.5690 
 16 O        9.6920     0.6040     0.1840 O.2   1 <1>  -0.5700 
 17 N        8.4610     2.4850    -0.0470 N.am  1 <1>  -0.7300 
 18 C        9.2650     3.4880     0.6520 C.3   1 <1>   0.3000 
 19 C        8.4990     4.8050     0.5460 C.3   1 <1>  -0.2400 
 20 C       10.6260     3.6250    -0.0300 C.3   1 <1>  -0.2400 
 21 C        9.4100     3.0960     2.1220 C.3   1 <1>  -0.2400 
 22 H        0.8720     1.8490    -2.0360 H     1 <1>   0.1500 
 23 H        3.7290     4.4950     0.9840 H     1 <1>   0.1500 
 24 H        0.6410     4.3100    -1.9490 H     1 <1>   0.1500 
 25 H        2.0710     5.6180    -0.4350 H     1 <1>   0.1500 
 26 H        7.8910    -0.0300    -1.7790 H     1 <1>   0.0800 
 27 H        7.4230    -0.5980    -0.1840 H     1 <1>   0.0800 
 28 H        7.5740     2.8510    -0.3890 H     1 <1>   0.3700 
 29 H        8.3720     5.0880    -0.4840 H     1 <1>   0.0800 
 30 H        9.0450     5.5880     1.0420 H     1 <1>   0.0800 
 31 H        7.5360     4.7210     1.0160 H     1 <1>   0.0800 
 32 H       11.1950     4.4100     0.4320 H     1 <1>   0.0800 
 33 H       10.5040     3.8580    -1.0720 H     1 <1>   0.0800 
 34 H       11.1870     2.7120     0.0600 H     1 <1>   0.0800 
 35 H        9.9250     3.8680     2.6640 H     1 <1>   0.0800 
 36 H        9.9790     2.1890     2.2180 H     1 <1>   0.0800 
 37 H        8.4440     2.9490     2.5700 H     1 <1>   0.0800 
@<TRIPOS>BOND
  1   1   2  1   
  2   2   3  ar  
  3   2   4  ar  
  4   3   5  1   
  5   3   6  ar  
  6   4   7  ar  
  7   4  22  1   
  8   5   8  1   
  9   5   9  1   
 10   6  10  ar  
 11   6  23  1   
 12   7  10  ar  
 13   7  24  1   
 14   8  11  2   
 15   9  12  1   
 16   9  13  2   
 17  10  25  1   
 18  11  13  1   
 19  12  14  1   
 20  14  15  1   
 21  14  26  1   
 22  14  27  1   
 23  15  16  2   
 24  15  17  am  
 25  17  18  1   
 26  17  28  1   
 27  18  19  1   
 28  18  20  1   
 29  18  21  1   
 30  19  29  1   
 31  19  30  1   
 32  19  31  1   
 33  20  32  1   
 34  20  33  1   
 35  20  34  1   
 36  21  35  1   
 37  21  36  1   
 38  21  37  1   
@<TRIPOS>SUBSTRUCTURE
  1 ****   9 GROUP 4 **** **** 0

# MOE 2024.06 (io_trps.svl 2023.06)
