@<TRIPOS>MOLECULE
NONAME
28 27 1 0 0 
SMALL
USER_CHARGES


@<TRIPOS>ATOM
  1 CL       1.8650     0.2130    -0.2400 Cl    1 <1>  -0.2900 
  2 C        1.4440     1.8940    -0.5460 C.3   1 <1>   0.8700 
  3 CL       1.1080     2.0180    -2.2710 Cl    1 <1>  -0.2900 
  4 CL       2.9090     2.8100    -0.2330 Cl    1 <1>  -0.2900 
  5 C        0.2020     2.3470     0.3300 C.3   1 <1>   0.4700 
  6 O       -0.8540     1.4780     0.2100 O.3   1 <1>  -0.6800 
  7 N       -0.4970     3.5700     0.0220 N.3   1 <1>  -0.8980 
  8 P        0.3350     4.9320     0.4720 P.3   1 <1>   1.5100 
  9 O        1.0600     4.7360     1.7190 O.2   1 <1>  -0.7000 
 10 O        1.2100     5.3040    -0.8160 O.3   1 <1>  -0.5510 
 11 O       -0.8170     6.0440     0.5170 O.3   1 <1>  -0.5510 
 12 C        1.9390     6.4820    -0.8780 C.3   1 <1>   0.1200 
 13 C       -1.5940     6.3270    -0.5940 C.3   1 <1>   0.1200 
 14 C        3.2950     6.2920    -0.2010 C.3   1 <1>  -0.2400 
 15 C       -2.5520     7.4500    -0.2140 C.3   1 <1>  -0.2400 
 16 H        0.5030     2.3350     1.3660 H     1 <1>   0.0800 
 17 H       -1.2620     1.6210    -0.6670 H     1 <1>   0.4000 
 18 H       -1.2760     3.5450     0.6780 H     1 <1>   0.3600 
 19 H        1.3760     7.2770    -0.4170 H     1 <1>   0.0800 
 20 H        2.0850     6.7150    -1.9190 H     1 <1>   0.0800 
 21 H       -2.1400     5.4420    -0.8780 H     1 <1>   0.0800 
 22 H       -0.9530     6.6320    -1.4040 H     1 <1>   0.0800 
 23 H        3.1790     6.0640     0.8430 H     1 <1>   0.0800 
 24 H        3.8670     7.1980    -0.2830 H     1 <1>   0.0800 
 25 H        3.8440     5.5030    -0.6840 H     1 <1>   0.0800 
 26 H       -3.1840     7.1400     0.5990 H     1 <1>   0.0800 
 27 H       -3.1740     7.6980    -1.0550 H     1 <1>   0.0800 
 28 H       -2.0010     8.3270     0.0750 H     1 <1>   0.0800 
@<TRIPOS>BOND
  1   1   2  1   
  2   2   3  1   
  3   2   4  1   
  4   2   5  1   
  5   5   6  1   
  6   5   7  1   
  7   5  16  1   
  8   6  17  1   
  9   7   8  1   
 10   7  18  1   
 11   8   9  2   
 12   8  10  1   
 13   8  11  1   
 14  10  12  1   
 15  11  13  1   
 16  12  14  1   
 17  12  19  1   
 18  12  20  1   
 19  13  15  1   
 20  13  21  1   
 21  13  22  1   
 22  14  23  1   
 23  14  24  1   
 24  14  25  1   
 25  15  26  1   
 26  15  27  1   
 27  15  28  1   
@<TRIPOS>SUBSTRUCTURE
  1 ****   8 GROUP 4 **** **** 0

# MOE 2024.06 (io_trps.svl 2023.06)
