@<TRIPOS>MOLECULE
NONAME
41 42 1 0 0 
SMALL
USER_CHARGES


@<TRIPOS>ATOM
  1 O        2.9530    -5.8760    -0.2450 O.3   1 <1>  -0.3630 
  2 C        4.1710    -6.4420    -0.0340 C.ar  1 <1>   0.0830 
  3 C        1.7630    -6.5820    -0.0100 C.3   1 <1>   0.1200 
  4 C        5.2960    -5.6640    -0.2920 C.ar  1 <1>  -0.1440 
  5 C        4.3300    -7.7480     0.4240 C.ar  1 <1>  -0.1500 
  6 C        0.6100    -5.6380    -0.3510 C.3   1 <1>   0.3430 
  7 C        6.5590    -6.1980    -0.0910 C.ar  1 <1>  -0.1500 
  8 C        5.1620    -4.2330    -0.7950 C.3   1 <1>  -0.0960 
  9 C        5.5970    -8.2680     0.6210 C.ar  1 <1>  -0.1500 
 10 N       -0.7170    -6.2870    -0.1370 N.4   1 <1>  -0.9060 
 11 C        6.7170    -7.4960     0.3660 C.ar  1 <1>  -0.1430 
 12 C       -1.8560    -5.4020    -0.4570 C.3   1 <1>   0.4860 
 13 C        8.1080    -8.0650     0.5800 C.3   1 <1>  -0.0970 
 14 C       -3.1000    -6.2120    -0.1850 C.ar  1 <1>  -0.1430 
 15 C       -3.6620    -6.9890    -1.1890 C.ar  1 <1>  -0.1500 
 16 C       -3.6830    -6.1960     1.0750 C.ar  1 <1>  -0.1500 
 17 C       -4.7890    -7.7480    -0.9320 C.ar  1 <1>  -0.1500 
 18 C       -4.8100    -6.9570     1.3290 C.ar  1 <1>  -0.1500 
 19 C       -5.3620    -7.7340     0.3270 C.ar  1 <1>  -0.1500 
 20 H        1.7430    -6.8620     1.0290 H     1 <1>   0.0800 
 21 H        1.7590    -7.4490    -0.6470 H     1 <1>   0.0800 
 22 H        3.4930    -8.3830     0.6350 H     1 <1>   0.1500 
 23 H        0.7060    -5.3390    -1.3830 H     1 <1>   0.0800 
 24 H        0.6900    -4.7600     0.2700 H     1 <1>   0.0800 
 25 H        7.4310    -5.6020    -0.2910 H     1 <1>   0.1500 
 26 H        4.6350    -4.2230    -1.7320 H     1 <1>   0.0800 
 27 H        6.1260    -3.7820    -0.9420 H     1 <1>   0.0800 
 28 H        4.6160    -3.6450    -0.0800 H     1 <1>   0.0800 
 29 H        5.7110    -9.2780     0.9740 H     1 <1>   0.1500 
 30 H       -0.8320    -6.5910     0.8380 H     1 <1>   0.4500 
 31 H       -0.8180    -7.1330    -0.7100 H     1 <1>   0.4500 
 32 H       -1.8280    -5.1030    -1.4930 H     1 <1>   0.0800 
 33 H       -1.8440    -4.5220     0.1650 H     1 <1>   0.0800 
 34 H        8.7790    -7.2960     0.9180 H     1 <1>   0.0800 
 35 H        8.4800    -8.4710    -0.3430 H     1 <1>   0.0800 
 36 H        8.0880    -8.8450     1.3200 H     1 <1>   0.0800 
 37 H       -3.2410    -7.0130    -2.1810 H     1 <1>   0.1500 
 38 H       -3.2780    -5.5940     1.8720 H     1 <1>   0.1500 
 39 H       -5.2280    -8.3510    -1.7100 H     1 <1>   0.1500 
 40 H       -5.2650    -6.9450     2.3060 H     1 <1>   0.1500 
 41 H       -6.2410    -8.3250     0.5260 H     1 <1>   0.1500 
@<TRIPOS>BOND
  1   1   2  1   
  2   1   3  1   
  3   2   4  ar  
  4   2   5  ar  
  5   3   6  1   
  6   3  20  1   
  7   3  21  1   
  8   4   7  ar  
  9   4   8  1   
 10   5   9  ar  
 11   5  22  1   
 12   6  10  1   
 13   6  23  1   
 14   6  24  1   
 15   7  11  ar  
 16   7  25  1   
 17   8  26  1   
 18   8  27  1   
 19   8  28  1   
 20   9  11  ar  
 21   9  29  1   
 22  10  12  1   
 23  10  30  1   
 24  10  31  1   
 25  11  13  1   
 26  12  14  1   
 27  12  32  1   
 28  12  33  1   
 29  13  34  1   
 30  13  35  1   
 31  13  36  1   
 32  14  15  ar  
 33  14  16  ar  
 34  15  17  ar  
 35  15  37  1   
 36  16  18  ar  
 37  16  38  1   
 38  17  19  ar  
 39  17  39  1   
 40  18  19  ar  
 41  18  40  1   
 42  19  41  1   
@<TRIPOS>SUBSTRUCTURE
  1 ****   3 GROUP 4 **** **** 0

# MOE 2024.06 (io_trps.svl 2023.06)
