@<TRIPOS>MOLECULE
NONAME
38 38 1 0 0 
SMALL
USER_CHARGES


@<TRIPOS>ATOM
  1 O        0.5130    -1.3780     0.1210 O.3   1 <1>  -0.3630 
  2 C       -0.8300    -1.2930    -0.0830 C.ar  1 <1>   0.0820 
  3 C        1.4110    -0.4310    -0.3960 C.3   1 <1>   0.1200 
  4 C       -1.6410    -2.3030     0.4380 C.ar  1 <1>  -0.1440 
  5 C       -1.4030    -0.2400    -0.7930 C.ar  1 <1>  -0.1500 
  6 C        2.8150    -0.8740     0.0150 C.3   1 <1>  -0.1600 
  7 C       -3.0180    -2.2560     0.2260 C.ar  1 <1>  -0.1440 
  8 C       -1.0280    -3.4610     1.2280 C.3   1 <1>  -0.0960 
  9 C       -2.7690    -0.1960    -0.9890 C.ar  1 <1>  -0.1500 
 10 C        3.8680     0.0950    -0.5060 C.3   1 <1>   0.3430 
 11 C       -3.5700    -1.2010    -0.4830 C.ar  1 <1>  -0.1500 
 12 C       -3.9530    -3.3380     0.7500 C.3   1 <1>  -0.0970 
 13 N        5.2080    -0.3800    -0.0820 N.4   1 <1>  -0.9060 
 14 C        6.2990     0.5240    -0.5580 C.3   1 <1>   0.3430 
 15 C        7.6850     0.0320    -0.1210 C.3   1 <1>   0.1200 
 16 O        8.6140     0.9300    -0.6090 O.3   1 <1>  -0.6800 
 17 H        1.1620     0.5300     0.0240 H     1 <1>   0.0800 
 18 H        1.3010    -0.4150    -1.4670 H     1 <1>   0.0800 
 19 H       -0.8140     0.5560    -1.2020 H     1 <1>   0.1500 
 20 H        2.9890    -1.8560    -0.3890 H     1 <1>   0.0800 
 21 H        2.8540    -0.9150     1.0900 H     1 <1>   0.0800 
 22 H       -0.0470    -3.2220     1.5950 H     1 <1>   0.0800 
 23 H       -0.9540    -4.3280     0.5970 H     1 <1>   0.0800 
 24 H       -1.6330    -3.7000     2.0820 H     1 <1>   0.0800 
 25 H       -3.2120     0.6170    -1.5360 H     1 <1>   0.1500 
 26 H        3.6820     1.0810    -0.1080 H     1 <1>   0.0800 
 27 H        3.8160     0.1450    -1.5820 H     1 <1>   0.0800 
 28 H       -4.6320    -1.1540    -0.6460 H     1 <1>   0.1500 
 29 H       -3.5950    -4.3110     0.4630 H     1 <1>   0.0800 
 30 H       -4.9440    -3.2180     0.3520 H     1 <1>   0.0800 
 31 H       -4.0110    -3.2850     1.8220 H     1 <1>   0.0800 
 32 H        5.3580    -1.3300    -0.4480 H     1 <1>   0.4500 
 33 H        5.2320    -0.4450     0.9440 H     1 <1>   0.4500 
 34 H        6.1480     1.5150    -0.1630 H     1 <1>   0.0800 
 35 H        6.2800     0.5800    -1.6350 H     1 <1>   0.0800 
 36 H        7.9070    -0.9350    -0.5390 H     1 <1>   0.0800 
 37 H        7.7740     0.0110     0.9520 H     1 <1>   0.0800 
 38 H        9.5330     0.6790    -0.3660 H     1 <1>   0.4000 
@<TRIPOS>BOND
  1   1   2  1   
  2   1   3  1   
  3   2   4  ar  
  4   2   5  ar  
  5   3   6  1   
  6   3  17  1   
  7   3  18  1   
  8   4   7  ar  
  9   4   8  1   
 10   5   9  ar  
 11   5  19  1   
 12   6  10  1   
 13   6  20  1   
 14   6  21  1   
 15   7  11  ar  
 16   7  12  1   
 17   8  22  1   
 18   8  23  1   
 19   8  24  1   
 20   9  11  ar  
 21   9  25  1   
 22  10  13  1   
 23  10  26  1   
 24  10  27  1   
 25  11  28  1   
 26  12  29  1   
 27  12  30  1   
 28  12  31  1   
 29  13  14  1   
 30  13  32  1   
 31  13  33  1   
 32  14  15  1   
 33  14  34  1   
 34  14  35  1   
 35  15  16  1   
 36  15  36  1   
 37  15  37  1   
 38  16  38  1   
@<TRIPOS>SUBSTRUCTURE
  1 ****   3 GROUP 4 **** **** 0

# MOE 2024.06 (io_trps.svl 2023.06)
