@<TRIPOS>MOLECULE
NONAME
51 52 1 0 0 
SMALL
USER_CHARGES


@<TRIPOS>ATOM
  1 O       -5.9930     2.6120    -0.8060 O.3   1 <1>  -0.3630 
  2 C       -7.3110     2.3530    -0.6160 C.ar  1 <1>   0.0830 
  3 C       -5.2460     3.3440     0.1420 C.3   1 <1>   0.1200 
  4 C       -8.0210     2.7360     0.5190 C.ar  1 <1>  -0.1500 
  5 C       -7.9640     1.6640    -1.6250 C.ar  1 <1>  -0.1500 
  6 C       -3.8060     3.4680    -0.3680 C.3   1 <1>   0.2000 
  7 C       -9.3660     2.4280     0.6290 C.ar  1 <1>  -0.1500 
  8 C       -9.3080     1.3590    -1.5110 C.ar  1 <1>  -0.1500 
  9 O       -3.3300     2.1970    -0.6980 O.3   1 <1>  -0.6800 
 10 C       -2.8580     4.1030     0.6720 C.3   1 <1>   0.3430 
 11 C      -10.0180     1.7400    -0.3830 C.ar  1 <1>  -0.1440 
 12 N       -1.4400     3.7160     0.3920 N.4   1 <1>  -0.9590 
 13 C      -11.4950     1.4030    -0.2560 C.3   1 <1>  -0.0170 
 14 C       -0.5930     3.7060     1.6160 C.3   1 <1>   0.3430 
 15 C       -0.8370     4.4960    -0.7250 C.3   1 <1>   0.3430 
 16 C      -11.6790     0.0420     0.4250 C.3   1 <1>  -0.1600 
 17 C        0.7760     3.1090     1.2890 C.3   1 <1>  -0.1600 
 18 C        0.5280     3.9090    -1.0820 C.3   1 <1>  -0.1600 
 19 C      -13.1600    -0.3230     0.5660 C.3   1 <1>  -0.2400 
 20 C        1.4620     3.8560     0.1360 C.3   1 <1>  -0.0800 
 21 C        2.7890     3.1840    -0.2300 C.3   1 <1>  -0.2400 
 22 H       -5.2750     2.8130     1.0790 H     1 <1>   0.0800 
 23 H       -5.6980     4.3140     0.2530 H     1 <1>   0.0800 
 24 H       -7.5570     3.2680     1.3250 H     1 <1>   0.1500 
 25 H       -7.4180     1.3670    -2.5020 H     1 <1>   0.1500 
 26 H       -3.8050     4.0600    -1.2670 H     1 <1>   0.0800 
 27 H       -9.9090     2.7250     1.5090 H     1 <1>   0.1500 
 28 H       -9.8010     0.8220    -2.3020 H     1 <1>   0.1500 
 29 H       -4.0500     1.7080    -1.1630 H     1 <1>   0.4000 
 30 H       -3.1390     3.7330     1.6440 H     1 <1>   0.0800 
 31 H       -2.9700     5.1740     0.6790 H     1 <1>   0.0800 
 32 H       -1.5280     2.7400     0.0480 H     1 <1>   0.4500 
 33 H      -11.9450     1.3850    -1.2330 H     1 <1>   0.0800 
 34 H      -11.9900     2.1670     0.3180 H     1 <1>   0.0800 
 35 H       -1.0630     3.1170     2.3870 H     1 <1>   0.0800 
 36 H       -0.4680     4.7120     1.9830 H     1 <1>   0.0800 
 37 H       -0.7200     5.5260    -0.4300 H     1 <1>   0.0800 
 38 H       -1.4780     4.4570    -1.5910 H     1 <1>   0.0800 
 39 H      -11.2220     0.0680     1.4000 H     1 <1>   0.0800 
 40 H      -11.1770    -0.7150    -0.1540 H     1 <1>   0.0800 
 41 H        0.6570     2.0690     1.0400 H     1 <1>   0.0800 
 42 H        1.3960     3.1600     2.1670 H     1 <1>   0.0800 
 43 H        0.9760     4.5150    -1.8510 H     1 <1>   0.0800 
 44 H        0.3910     2.9220    -1.4900 H     1 <1>   0.0800 
 45 H      -13.6740     0.4110     1.1610 H     1 <1>   0.0800 
 46 H      -13.2570    -1.2810     1.0450 H     1 <1>   0.0800 
 47 H      -13.6280    -0.3760    -0.4020 H     1 <1>   0.0800 
 48 H        1.6730     4.8650     0.4540 H     1 <1>   0.0800 
 49 H        2.6310     2.1700    -0.5560 H     1 <1>   0.0800 
 50 H        3.4500     3.1690     0.6200 H     1 <1>   0.0800 
 51 H        3.2780     3.7240    -1.0220 H     1 <1>   0.0800 
@<TRIPOS>BOND
  1   1   2  1   
  2   1   3  1   
  3   2   4  ar  
  4   2   5  ar  
  5   3   6  1   
  6   3  22  1   
  7   3  23  1   
  8   4   7  ar  
  9   4  24  1   
 10   5   8  ar  
 11   5  25  1   
 12   6   9  1   
 13   6  10  1   
 14   6  26  1   
 15   7  11  ar  
 16   7  27  1   
 17   8  11  ar  
 18   8  28  1   
 19   9  29  1   
 20  10  12  1   
 21  10  30  1   
 22  10  31  1   
 23  11  13  1   
 24  12  14  1   
 25  12  15  1   
 26  12  32  1   
 27  13  16  1   
 28  13  33  1   
 29  13  34  1   
 30  14  17  1   
 31  14  35  1   
 32  14  36  1   
 33  15  18  1   
 34  15  37  1   
 35  15  38  1   
 36  16  19  1   
 37  16  39  1   
 38  16  40  1   
 39  17  20  1   
 40  17  41  1   
 41  17  42  1   
 42  18  20  1   
 43  18  43  1   
 44  18  44  1   
 45  19  45  1   
 46  19  46  1   
 47  19  47  1   
 48  20  21  1   
 49  20  48  1   
 50  21  49  1   
 51  21  50  1   
 52  21  51  1   
@<TRIPOS>SUBSTRUCTURE
  1 ****   3 GROUP 4 **** **** 0

# MOE 2024.06 (io_trps.svl 2023.06)
