@<TRIPOS>MOLECULE
NONAME
36 37 1 0 0 
SMALL
USER_CHARGES


@<TRIPOS>ATOM
  1 F        0.9840     0.5760     0.1970 F     1 <1>  -0.3400 
  2 C        1.7670    -0.4710     0.4220 C.3   1 <1>   1.1580 
  3 F        2.9740    -0.1260    -0.0060 F     1 <1>  -0.3400 
  4 F        1.8660    -0.5940     1.7390 F     1 <1>  -0.3400 
  5 C        1.2390    -1.7480    -0.2460 C.2   1 <1>  -0.1670 
  6 C       -0.0590    -2.2740     0.1060 C.ar  1 <1>   0.0280 
  7 C        1.9650    -2.4160    -1.1770 C.2   1 <1>  -0.1360 
  8 C       -0.4950    -3.4540    -0.5270 C.ar  1 <1>   0.0830 
  9 C       -0.9290    -1.6970     1.0380 C.ar  1 <1>  -0.1500 
 10 C        1.4910    -3.6010    -1.8040 C.2   1 <1>   0.7060 
 11 O        0.2930    -4.0580    -1.4480 O.3   1 <1>  -0.2320 
 12 C       -1.7300    -4.0310    -0.2420 C.ar  1 <1>  -0.1440 
 13 C       -2.1570    -2.2540     1.3190 C.ar  1 <1>  -0.1500 
 14 O        2.1210    -4.2090    -2.6430 O.2   1 <1>  -0.5700 
 15 C       -2.5720    -3.4200     0.6780 C.ar  1 <1>   0.0830 
 16 C       -2.1440    -5.3220    -0.9530 C.3   1 <1>  -0.0960 
 17 O       -3.7820    -3.9790     0.9170 O.3   1 <1>  -0.3630 
 18 C       -4.8370    -3.2640     1.5430 C.3   1 <1>   0.1810 
 19 C       -6.1630    -4.0170     1.4420 C.2   1 <1>   0.6590 
 20 O       -6.7310    -4.3620     2.4440 O.2   1 <1>  -0.5700 
 21 O       -6.7130    -4.2710     0.2540 O.3   1 <1>  -0.4300 
 22 C       -6.2580    -3.8360    -1.0090 C.3   1 <1>   0.1200 
 23 C       -6.8080    -2.4370    -1.2840 C.3   1 <1>  -0.2400 
 24 H        2.9410    -2.1020    -1.5040 H     1 <1>   0.1500 
 25 H       -0.6600    -0.7990     1.5630 H     1 <1>   0.1500 
 26 H       -2.7800    -1.7730     2.0490 H     1 <1>   0.1500 
 27 H       -1.3110    -6.0000    -1.0170 H     1 <1>   0.0800 
 28 H       -2.4800    -5.0970    -1.9490 H     1 <1>   0.0800 
 29 H       -2.9320    -5.8340    -0.4320 H     1 <1>   0.0800 
 30 H       -4.9280    -2.3030     1.0750 H     1 <1>   0.0800 
 31 H       -4.5830    -3.1400     2.5800 H     1 <1>   0.0800 
 32 H       -6.6420    -4.5290    -1.7390 H     1 <1>   0.0800 
 33 H       -5.1850    -3.8630    -1.0500 H     1 <1>   0.0800 
 34 H       -7.8830    -2.4510    -1.2450 H     1 <1>   0.0800 
 35 H       -6.5090    -2.1210    -2.2670 H     1 <1>   0.0800 
 36 H       -6.4340    -1.7250    -0.5720 H     1 <1>   0.0800 
@<TRIPOS>BOND
  1   1   2  1   
  2   2   3  1   
  3   2   4  1   
  4   2   5  1   
  5   5   6  1   
  6   5   7  2   
  7   6   8  ar  
  8   6   9  ar  
  9   7  10  1   
 10   7  24  1   
 11   8  11  1   
 12   8  12  ar  
 13   9  13  ar  
 14   9  25  1   
 15  10  11  1   
 16  10  14  2   
 17  12  15  ar  
 18  12  16  1   
 19  13  15  ar  
 20  13  26  1   
 21  15  17  1   
 22  16  27  1   
 23  16  28  1   
 24  16  29  1   
 25  17  18  1   
 26  18  19  1   
 27  18  30  1   
 28  18  31  1   
 29  19  20  2   
 30  19  21  1   
 31  21  22  1   
 32  22  23  1   
 33  22  32  1   
 34  22  33  1   
 35  23  34  1   
 36  23  35  1   
 37  23  36  1   
@<TRIPOS>SUBSTRUCTURE
  1 ****  12 GROUP 4 **** **** 0

# MOE 2024.06 (io_trps.svl 2023.06)
