@<TRIPOS>MOLECULE
NONAME
24 24 1 0 0 
SMALL
USER_CHARGES


@<TRIPOS>ATOM
  1 O       -2.6240     0.0730     1.5270 O.2   1 <1>  -0.5700 
  2 C       -2.8420    -0.9130     0.8590 C.2   1 <1>   0.6900 
  3 N       -3.6720    -0.9660    -0.2200 N.am  1 <1>  -0.4200 
  4 N       -2.2360    -2.0990     1.0700 N.am  1 <1>  -0.7300 
  5 C       -3.5920    -2.1960    -0.7980 C.2   1 <1>   0.5690 
  6 C       -4.5240     0.1380    -0.6760 C.3   1 <1>   0.2780 
  7 C       -2.6100    -3.0570     0.0220 C.3   1 <1>   0.3610 
  8 O       -4.1820    -2.5520    -1.7920 O.2   1 <1>  -0.5700 
  9 C       -5.9490    -0.1090    -0.2150 C.2   1 <1>  -0.2880 
 10 C       -3.2740    -4.2690     0.6790 C.3   1 <1>  -0.2400 
 11 C       -1.3530    -3.4480    -0.7590 C.3   1 <1>  -0.2400 
 12 C       -6.6190     0.6460     0.6620 C.2   1 <1>  -0.3000 
 13 H       -1.4500    -2.2180     1.7060 H     1 <1>   0.3700 
 14 H       -4.4900     0.1960    -1.7500 H     1 <1>   0.0800 
 15 H       -4.1570     1.0660    -0.2710 H     1 <1>   0.0800 
 16 H       -6.3800    -0.9810    -0.6790 H     1 <1>   0.1500 
 17 H       -4.1270    -3.9590     1.2550 H     1 <1>   0.0800 
 18 H       -2.5790    -4.7810     1.3190 H     1 <1>   0.0800 
 19 H       -3.6100    -4.9520    -0.0800 H     1 <1>   0.0800 
 20 H       -0.8820    -2.5740    -1.1730 H     1 <1>   0.0800 
 21 H       -1.6230    -4.1000    -1.5710 H     1 <1>   0.0800 
 22 H       -0.6560    -3.9630    -0.1240 H     1 <1>   0.0800 
 23 H       -7.6300     0.4490     0.9730 H     1 <1>   0.1500 
 24 H       -6.2130     1.5190     1.1460 H     1 <1>   0.1500 
@<TRIPOS>BOND
  1   1   2  2   
  2   2   3  am  
  3   2   4  am  
  4   3   5  am  
  5   3   6  1   
  6   4   7  1   
  7   4  13  1   
  8   5   7  1   
  9   5   8  2   
 10   6   9  1   
 11   6  14  1   
 12   6  15  1   
 13   7  10  1   
 14   7  11  1   
 15   9  12  2   
 16   9  16  1   
 17  10  17  1   
 18  10  18  1   
 19  10  19  1   
 20  11  20  1   
 21  11  21  1   
 22  11  22  1   
 23  12  23  1   
 24  12  24  1   
@<TRIPOS>SUBSTRUCTURE
  1 ****   3 GROUP 4 **** **** 0

# MOE 2024.06 (io_trps.svl 2023.06)
