@<TRIPOS>MOLECULE
NONAME
48 50 1 0 0 
SMALL
USER_CHARGES


@<TRIPOS>ATOM
  1 O        1.0640    -1.2700     1.2700 O.2   1 <1>  -0.5700 
  2 C        0.9970    -2.4170     0.8620 C.2   1 <1>   0.7150 
  3 N        2.1720    -3.0590     0.5180 N.am  1 <1>  -0.6600 
  4 C       -0.2840    -3.0830     0.7500 C.2   1 <1>   0.0550 
  5 C        2.2400    -4.1260    -0.5250 C.3   1 <1>   0.1400 
  6 C        3.5090    -2.4800     0.8480 C.3   1 <1>   0.1400 
  7 O       -1.3550    -2.4410     0.2910 O.3   1 <1>  -0.2800 
  8 C       -0.6490    -4.3630     1.0450 C.2   1 <1>  -0.1500 
  9 C        3.0000    -3.6230    -1.7660 C.3   1 <1>   0.1100 
 10 C        4.2260    -2.0150    -0.4290 C.3   1 <1>   0.1100 
 11 C       -2.3780    -3.2660     0.2870 C.2   1 <1>  -0.0100 
 12 C       -2.0060    -4.4800     0.7430 C.2   1 <1>  -0.1500 
 13 N        4.3430    -3.1140    -1.4200 N.3   1 <1>  -0.8100 
 14 C        5.0540    -2.6380    -2.6480 C.3   1 <1>   0.1710 
 15 C        6.5610    -2.4560    -2.4560 C.2   1 <1>   0.5690 
 16 O        7.1560    -1.6850    -3.1700 O.2   1 <1>  -0.5700 
 17 N        7.1270    -3.1950    -1.4580 N.am  1 <1>  -0.5470 
 18 C        8.4280    -3.3180    -0.9410 C.ar  1 <1>   0.1170 
 19 C        8.6240    -3.9610     0.2880 C.ar  1 <1>  -0.1430 
 20 C        9.5290    -2.8230    -1.6300 C.ar  1 <1>  -0.1500 
 21 C        9.9140    -4.0980     0.8010 C.ar  1 <1>  -0.1430 
 22 C        7.4010    -4.4990     1.0390 C.3   1 <1>  -0.0970 
 23 C       10.8030    -2.9570    -1.1190 C.ar  1 <1>  -0.1500 
 24 C       10.9920    -3.5930     0.0910 C.ar  1 <1>  -0.1500 
 25 C       10.2050    -4.7910     2.1260 C.3   1 <1>  -0.0970 
 26 H        1.2550    -4.4320    -0.8270 H     1 <1>   0.0800 
 27 H        2.7480    -4.9840    -0.1220 H     1 <1>   0.0800 
 28 H        4.1060    -3.2290     1.3380 H     1 <1>   0.0800 
 29 H        3.4090    -1.6490     1.5240 H     1 <1>   0.0800 
 30 H       -0.0290    -5.1470     1.4440 H     1 <1>   0.1500 
 31 H        2.4230    -2.8440    -2.2370 H     1 <1>   0.0800 
 32 H        3.0950    -4.4360    -2.4650 H     1 <1>   0.0800 
 33 H        5.2040    -1.6540    -0.1620 H     1 <1>   0.0800 
 34 H        3.6750    -1.1910    -0.8530 H     1 <1>   0.0800 
 35 H       -3.3340    -2.9080    -0.0540 H     1 <1>   0.1500 
 36 H       -2.6070    -5.3640     0.8630 H     1 <1>   0.1500 
 37 H        4.6310    -1.7070    -2.9820 H     1 <1>   0.0800 
 38 H        4.9270    -3.3580    -3.4350 H     1 <1>   0.0800 
 39 H        6.4090    -3.7110    -0.9450 H     1 <1>   0.3700 
 40 H        9.4000    -2.3310    -2.5760 H     1 <1>   0.1500 
 41 H        6.9330    -5.2740     0.4600 H     1 <1>   0.0800 
 42 H        6.6940    -3.7050     1.1980 H     1 <1>   0.0800 
 43 H        7.6440    -4.9070     1.9990 H     1 <1>   0.0800 
 44 H       11.6450    -2.5670    -1.6640 H     1 <1>   0.1500 
 45 H       11.9920    -3.6900     0.4760 H     1 <1>   0.1500 
 46 H        9.7320    -4.2590     2.9310 H     1 <1>   0.0800 
 47 H       11.2610    -4.8260     2.3230 H     1 <1>   0.0800 
 48 H        9.8380    -5.8010     2.1030 H     1 <1>   0.0800 
@<TRIPOS>BOND
  1   1   2  2   
  2   2   3  am  
  3   2   4  1   
  4   3   5  1   
  5   3   6  1   
  6   4   7  1   
  7   4   8  2   
  8   5   9  1   
  9   5  26  1   
 10   5  27  1   
 11   6  10  1   
 12   6  28  1   
 13   6  29  1   
 14   7  11  1   
 15   8  12  1   
 16   8  30  1   
 17   9  13  1   
 18   9  31  1   
 19   9  32  1   
 20  10  13  1   
 21  10  33  1   
 22  10  34  1   
 23  11  12  2   
 24  11  35  1   
 25  12  36  1   
 26  13  14  1   
 27  14  15  1   
 28  14  37  1   
 29  14  38  1   
 30  15  16  2   
 31  15  17  am  
 32  17  18  1   
 33  17  39  1   
 34  18  19  ar  
 35  18  20  ar  
 36  19  21  ar  
 37  19  22  1   
 38  20  23  ar  
 39  20  40  1   
 40  21  24  ar  
 41  21  25  1   
 42  22  41  1   
 43  22  42  1   
 44  22  43  1   
 45  23  24  ar  
 46  23  44  1   
 47  24  45  1   
 48  25  46  1   
 49  25  47  1   
 50  25  48  1   
@<TRIPOS>SUBSTRUCTURE
  1 ****  13 GROUP 4 **** **** 0

# MOE 2024.06 (io_trps.svl 2023.06)
