@<TRIPOS>MOLECULE
NONAME
41 42 1 0 0 
SMALL
USER_CHARGES


@<TRIPOS>ATOM
  1 O       -0.1870    -0.1740     0.4450 O.3   1 <1>  -0.3630 
  2 C       -1.4010    -0.7760     0.3740 C.ar  1 <1>   0.0830 
  3 C        0.9910    -0.8590     0.1050 C.3   1 <1>   0.1200 
  4 C       -1.5920    -2.0970    -0.0290 C.ar  1 <1>  -0.1500 
  5 C       -2.4970    -0.0080     0.7310 C.ar  1 <1>  -0.1500 
  6 C        2.1500     0.1190     0.2960 C.3   1 <1>  -0.1600 
  7 C       -2.8670    -2.6360    -0.0740 C.ar  1 <1>  -0.1440 
  8 C       -3.7710    -0.5440     0.6880 C.ar  1 <1>  -0.1500 
  9 C        3.4810    -0.5380    -0.0620 C.3   1 <1>   0.3430 
 10 C       -3.9540    -1.8560     0.2870 C.ar  1 <1>  -0.1500 
 11 C       -3.0800    -4.0750    -0.5110 C.3   1 <1>  -0.0960 
 12 N        4.6130     0.3840     0.2330 N.4   1 <1>  -0.9590 
 13 C        4.6690     1.5410    -0.7140 C.3   1 <1>   0.3430 
 14 C        5.9060    -0.3610     0.2560 C.3   1 <1>   0.3430 
 15 C        5.7700     2.5110    -0.2800 C.3   1 <1>  -0.1600 
 16 C        7.0320     0.5680     0.7120 C.3   1 <1>  -0.1600 
 17 C        7.1330     1.8150    -0.1750 C.3   1 <1>  -0.1600 
 18 H        0.9100    -1.1760    -0.9210 H     1 <1>   0.0800 
 19 H        1.0840    -1.7110     0.7570 H     1 <1>   0.0800 
 20 H       -0.7640    -2.7170    -0.3080 H     1 <1>   0.1500 
 21 H       -2.3480     1.0100     1.0410 H     1 <1>   0.1500 
 22 H        2.1640     0.4290     1.3270 H     1 <1>   0.0800 
 23 H        1.9710     0.9720    -0.3330 H     1 <1>   0.0800 
 24 H       -4.6180     0.0570     0.9670 H     1 <1>   0.1500 
 25 H        3.4890    -0.8120    -1.1060 H     1 <1>   0.0800 
 26 H        3.5900    -1.4380     0.5230 H     1 <1>   0.0800 
 27 H       -4.9490    -2.2660     0.2580 H     1 <1>   0.1500 
 28 H       -2.2950    -4.3900    -1.1750 H     1 <1>   0.0800 
 29 H       -4.0180    -4.1750    -1.0270 H     1 <1>   0.0800 
 30 H       -3.0880    -4.7190     0.3500 H     1 <1>   0.0800 
 31 H        4.4730     0.7720     1.1750 H     1 <1>   0.4500 
 32 H        3.7260     2.0620    -0.7270 H     1 <1>   0.0800 
 33 H        4.8750     1.1870    -1.7120 H     1 <1>   0.0800 
 34 H        6.1290    -0.7370    -0.7310 H     1 <1>   0.0800 
 35 H        5.8400    -1.1990     0.9310 H     1 <1>   0.0800 
 36 H        5.5070     2.9500     0.6660 H     1 <1>   0.0800 
 37 H        5.8350     3.3120    -0.9970 H     1 <1>   0.0800 
 38 H        7.9650     0.0330     0.6790 H     1 <1>   0.0800 
 39 H        6.8650     0.8570     1.7360 H     1 <1>   0.0800 
 40 H        7.8620     2.4970     0.2330 H     1 <1>   0.0800 
 41 H        7.4680     1.5300    -1.1590 H     1 <1>   0.0800 
@<TRIPOS>BOND
  1   1   2  1   
  2   1   3  1   
  3   2   4  ar  
  4   2   5  ar  
  5   3   6  1   
  6   3  18  1   
  7   3  19  1   
  8   4   7  ar  
  9   4  20  1   
 10   5   8  ar  
 11   5  21  1   
 12   6   9  1   
 13   6  22  1   
 14   6  23  1   
 15   7  10  ar  
 16   7  11  1   
 17   8  10  ar  
 18   8  24  1   
 19   9  12  1   
 20   9  25  1   
 21   9  26  1   
 22  10  27  1   
 23  11  28  1   
 24  11  29  1   
 25  11  30  1   
 26  12  13  1   
 27  12  14  1   
 28  12  31  1   
 29  13  15  1   
 30  13  32  1   
 31  13  33  1   
 32  14  16  1   
 33  14  34  1   
 34  14  35  1   
 35  15  17  1   
 36  15  36  1   
 37  15  37  1   
 38  16  17  1   
 39  16  38  1   
 40  16  39  1   
 41  17  40  1   
 42  17  41  1   
@<TRIPOS>SUBSTRUCTURE
  1 ****   3 GROUP 4 **** **** 0

# MOE 2024.06 (io_trps.svl 2023.06)
