@<TRIPOS>MOLECULE
NONAME
38 39 1 0 0 
SMALL
USER_CHARGES


@<TRIPOS>ATOM
  1 CL      -0.6730    -1.4120     1.0550 Cl    1 <1>  -0.1770 
  2 C       -2.2330    -0.6950     0.7400 C.ar  1 <1>   0.1770 
  3 C       -3.3780    -1.3990     1.0570 C.ar  1 <1>  -0.1500 
  4 C       -2.3010     0.5680     0.1780 C.ar  1 <1>  -0.1500 
  5 C       -4.5930    -0.7990     0.7930 C.ar  1 <1>   0.1900 
  6 C       -3.5350     1.1470    -0.0760 C.ar  1 <1>  -0.1500 
  7 F       -5.6820    -1.4640     1.0970 F     1 <1>  -0.1900 
  8 C       -4.7180     0.4710     0.2240 C.ar  1 <1>   0.1170 
  9 N       -6.0030     1.0050    -0.0090 N.am  1 <1>  -0.5470 
 10 C       -6.4420     2.1160    -0.6780 C.2   1 <1>   0.5690 
 11 O       -5.7050     2.8890    -1.2380 O.2   1 <1>  -0.5700 
 12 C       -7.9360     2.4020    -0.7170 C.3   1 <1>   0.1310 
 13 S       -8.9330     0.8630    -0.4020 S.3   1 <1>  -0.2860 
 14 C      -10.6150     1.4910    -0.3470 C.2   1 <1>   0.2430 
 15 N      -10.9090     2.7340    -0.4830 N.2   1 <1>  -0.3380 
 16 N      -11.6760     0.7080    -0.1570 N.pl3 1 <1>   0.0480 
 17 N      -12.2390     2.8020    -0.3790 N.2   1 <1>  -0.3380 
 18 C      -12.6790     1.6000    -0.1850 C.2   1 <1>   0.0060 
 19 C      -11.7140    -0.7600     0.0300 C.3   1 <1>   0.0960 
 20 C      -14.1450     1.2160    -0.0100 C.3   1 <1>   0.0200 
 21 C      -11.5650    -1.1220     1.5110 C.3   1 <1>  -0.2400 
 22 C      -15.0870     2.4250     0.0410 C.3   1 <1>  -0.2400 
 23 H       -3.3220    -2.3780     1.4950 H     1 <1>   0.1500 
 24 H       -1.3920     1.0940    -0.0590 H     1 <1>   0.1500 
 25 H       -3.5650     2.1300    -0.5100 H     1 <1>   0.1500 
 26 H       -6.7600     0.4110     0.3420 H     1 <1>   0.3700 
 27 H       -8.2230     2.7760    -1.6820 H     1 <1>   0.0800 
 28 H       -8.1990     3.1160     0.0410 H     1 <1>   0.0800 
 29 H      -10.9170    -1.2050    -0.5390 H     1 <1>   0.0800 
 30 H      -12.6460    -1.1380    -0.3510 H     1 <1>   0.0800 
 31 H      -14.2540     0.6580     0.9020 H     1 <1>   0.0800 
 32 H      -14.4380     0.5830    -0.8290 H     1 <1>   0.0800 
 33 H      -10.6210    -0.7680     1.8890 H     1 <1>   0.0800 
 34 H      -11.5970    -2.1900     1.6300 H     1 <1>   0.0800 
 35 H      -12.3630    -0.6900     2.0890 H     1 <1>   0.0800 
 36 H      -14.8180     3.0700     0.8590 H     1 <1>   0.0800 
 37 H      -16.1030     2.1020     0.1730 H     1 <1>   0.0800 
 38 H      -15.0180     2.9880    -0.8740 H     1 <1>   0.0800 
@<TRIPOS>BOND
  1   1   2  1   
  2   2   3  ar  
  3   2   4  ar  
  4   3   5  ar  
  5   3  23  1   
  6   4   6  ar  
  7   4  24  1   
  8   5   7  1   
  9   5   8  ar  
 10   6   8  ar  
 11   6  25  1   
 12   8   9  1   
 13   9  10  am  
 14   9  26  1   
 15  10  11  2   
 16  10  12  1   
 17  12  13  1   
 18  12  27  1   
 19  12  28  1   
 20  13  14  1   
 21  14  15  2   
 22  14  16  1   
 23  15  17  1   
 24  16  18  1   
 25  16  19  1   
 26  17  18  2   
 27  18  20  1   
 28  19  21  1   
 29  19  29  1   
 30  19  30  1   
 31  20  22  1   
 32  20  31  1   
 33  20  32  1   
 34  21  33  1   
 35  21  34  1   
 36  21  35  1   
 37  22  36  1   
 38  22  37  1   
 39  22  38  1   
@<TRIPOS>SUBSTRUCTURE
  1 ****  13 GROUP 4 **** **** 0

# MOE 2024.06 (io_trps.svl 2023.06)
