@<TRIPOS>MOLECULE
NONAME
47 49 1 0 0 
SMALL
USER_CHARGES


@<TRIPOS>ATOM
  1 O        4.0640    -1.0720     0.4070 O.co2 1 <1>  -0.9000 
  2 C        3.8470     0.1120     0.6800 C.2   1 <1>   0.9060 
  3 O        4.0990     0.5640     1.8030 O.co2 1 <1>  -0.9000 
  4 C        3.2450     0.9960    -0.4040 C.3   1 <1>  -0.1860 
  5 C        4.1640     2.1050    -0.9640 C.3   1 <1>  -0.0190 
  6 C        1.8950     1.5960     0.0440 C.3   1 <1>  -0.0220 
  7 C        5.4040     1.6540    -1.7600 C.2   1 <1>   0.5690 
  8 C        4.4000     3.2420     0.0420 C.3   1 <1>  -0.0220 
  9 C        1.9570     3.0270     0.5920 C.2   1 <1>  -0.2760 
 10 O        5.2540     1.6420    -2.9640 O.2   1 <1>  -0.5700 
 11 N        6.6450     1.3530    -1.2320 N.am  1 <1>  -0.6600 
 12 C        3.0810     3.7630     0.6070 C.2   1 <1>  -0.2760 
 13 C        0.5910     3.4540     1.1150 C.3   1 <1>  -0.1020 
 14 C        6.9520     1.0380     0.1920 C.3   1 <1>   0.1400 
 15 C        7.8280     1.1610    -2.1230 C.3   1 <1>   0.1400 
 16 C        3.2500     5.1630     1.1870 C.3   1 <1>  -0.1020 
 17 C        7.4080    -0.4170     0.3100 C.3   1 <1>  -0.1600 
 18 C        8.3050    -0.2890    -2.0470 C.3   1 <1>  -0.1600 
 19 C        8.6060    -0.6760    -0.6050 C.3   1 <1>   0.5600 
 20 O        9.0020    -2.0060    -0.5610 O.3   1 <1>  -0.5600 
 21 O        9.7220     0.0310    -0.1630 O.3   1 <1>  -0.5600 
 22 C        9.8870    -2.1630     0.4860 C.3   1 <1>   0.1200 
 23 C       10.4170    -0.7610     0.7330 C.3   1 <1>   0.1200 
 24 H        3.0340     0.3270    -1.2170 H     1 <1>   0.0800 
 25 H        3.5550     2.5750    -1.7160 H     1 <1>   0.0800 
 26 H        1.4630     0.9460     0.7860 H     1 <1>   0.0800 
 27 H        1.2350     1.5960    -0.8040 H     1 <1>   0.0800 
 28 H        4.9190     4.0330    -0.4680 H     1 <1>   0.0800 
 29 H        5.0070     2.9240     0.8670 H     1 <1>   0.0800 
 30 H        0.3230     2.8420     1.9570 H     1 <1>   0.0800 
 31 H       -0.1500     3.3260     0.3470 H     1 <1>   0.0800 
 32 H        0.5630     4.4790     1.4240 H     1 <1>   0.0800 
 33 H        6.1080     1.1880     0.8240 H     1 <1>   0.0800 
 34 H        7.7330     1.6930     0.5360 H     1 <1>   0.0800 
 35 H        8.6160     1.8200    -1.8010 H     1 <1>   0.0800 
 36 H        7.5890     1.4080    -3.1420 H     1 <1>   0.0800 
 37 H        4.0520     5.1580     1.9030 H     1 <1>   0.0800 
 38 H        2.3730     5.5150     1.6890 H     1 <1>   0.0800 
 39 H        3.4910     5.8570     0.4020 H     1 <1>   0.0800 
 40 H        6.5950    -1.0540     0.0150 H     1 <1>   0.0800 
 41 H        7.6420    -0.6360     1.3330 H     1 <1>   0.0800 
 42 H        9.1850    -0.4220    -2.6470 H     1 <1>   0.0800 
 43 H        7.5270    -0.9250    -2.4280 H     1 <1>   0.0800 
 44 H       10.6620    -2.8480     0.1930 H     1 <1>   0.0800 
 45 H        9.3530    -2.5410     1.3400 H     1 <1>   0.0800 
 46 H       10.2050    -0.4290     1.7340 H     1 <1>   0.0800 
 47 H       11.4690    -0.6840     0.5250 H     1 <1>   0.0800 
@<TRIPOS>BOND
  1   1   2  ar  
  2   2   3  ar  
  3   2   4  1   
  4   4   5  1   
  5   4   6  1   
  6   4  24  1   
  7   5   7  1   
  8   5   8  1   
  9   5  25  1   
 10   6   9  1   
 11   6  26  1   
 12   6  27  1   
 13   7  10  2   
 14   7  11  am  
 15   8  12  1   
 16   8  28  1   
 17   8  29  1   
 18   9  12  2   
 19   9  13  1   
 20  11  14  1   
 21  11  15  1   
 22  12  16  1   
 23  13  30  1   
 24  13  31  1   
 25  13  32  1   
 26  14  17  1   
 27  14  33  1   
 28  14  34  1   
 29  15  18  1   
 30  15  35  1   
 31  15  36  1   
 32  16  37  1   
 33  16  38  1   
 34  16  39  1   
 35  17  19  1   
 36  17  40  1   
 37  17  41  1   
 38  18  19  1   
 39  18  42  1   
 40  18  43  1   
 41  19  20  1   
 42  19  21  1   
 43  20  22  1   
 44  21  23  1   
 45  22  23  1   
 46  22  44  1   
 47  22  45  1   
 48  23  46  1   
 49  23  47  1   
@<TRIPOS>SUBSTRUCTURE
  1 ****  14 GROUP 4 **** **** 0

# MOE 2024.06 (io_trps.svl 2023.06)
