@<TRIPOS>MOLECULE
NONAME
45 46 1 0 0 
SMALL
USER_CHARGES


@<TRIPOS>ATOM
  1 O       -0.1080     1.3870    -0.7510 O.3   1 <1>  -0.5600 
  2 C       -1.0700     1.3360    -1.7640 C.3   1 <1>   0.1200 
  3 C       -0.4010     2.2630     0.2970 C.3   1 <1>   0.1200 
  4 C       -2.4290     0.8930    -1.1870 C.3   1 <1>   0.3430 
  5 C       -1.7280     1.8610     0.9710 C.3   1 <1>   0.3430 
  6 N       -2.8500     1.7590    -0.0280 N.4   1 <1>  -0.9590 
  7 C       -4.0940     1.2700     0.6290 C.3   1 <1>   0.3430 
  8 C       -5.3080     1.4910    -0.2770 C.3   1 <1>  -0.1600 
  9 C       -6.5960     1.0750     0.4480 C.3   1 <1>  -0.1600 
 10 C       -7.8370     1.2860    -0.4220 C.3   1 <1>   0.1200 
 11 O       -8.9510     0.8660     0.3260 O.3   1 <1>  -0.3630 
 12 C      -10.2150     0.8950    -0.1790 C.ar  1 <1>   0.0830 
 13 C      -11.2500     0.4020     0.6190 C.ar  1 <1>  -0.1430 
 14 C      -10.4940     1.3890    -1.4510 C.ar  1 <1>  -0.1500 
 15 C      -12.5530     0.3900     0.1250 C.ar  1 <1>  -0.1430 
 16 C      -10.9300    -0.1270     2.0180 C.3   1 <1>  -0.0970 
 17 C      -11.7890     1.3850    -1.9280 C.ar  1 <1>  -0.1500 
 18 C      -12.8110     0.8850    -1.1440 C.ar  1 <1>  -0.1500 
 19 C      -13.7240    -0.1580     0.9300 C.3   1 <1>  -0.0970 
 20 H       -0.7310     0.6270    -2.5000 H     1 <1>   0.0800 
 21 H       -1.1380     2.3040    -2.2280 H     1 <1>   0.0800 
 22 H       -0.4460     3.2670    -0.0890 H     1 <1>   0.0800 
 23 H        0.4070     2.2050     1.0060 H     1 <1>   0.0800 
 24 H       -2.3390    -0.1310    -0.8630 H     1 <1>   0.0800 
 25 H       -3.1710     0.9290    -1.9680 H     1 <1>   0.0800 
 26 H       -1.9730     2.5850     1.7310 H     1 <1>   0.0800 
 27 H       -1.5830     0.9090     1.4550 H     1 <1>   0.0800 
 28 H       -3.0260     2.7060    -0.3900 H     1 <1>   0.4500 
 29 H       -4.2510     1.8080     1.5500 H     1 <1>   0.0800 
 30 H       -4.0000     0.2220     0.8670 H     1 <1>   0.0800 
 31 H       -5.2160     0.9060    -1.1750 H     1 <1>   0.0800 
 32 H       -5.3800     2.5330    -0.5410 H     1 <1>   0.0800 
 33 H       -6.7120     1.6540     1.3490 H     1 <1>   0.0800 
 34 H       -6.5430     0.0320     0.7150 H     1 <1>   0.0800 
 35 H       -7.7900     0.6900    -1.3180 H     1 <1>   0.0800 
 36 H       -7.9680     2.3260    -0.6670 H     1 <1>   0.0800 
 37 H       -9.7250     1.7810    -2.0850 H     1 <1>   0.1500 
 38 H      -11.7720    -0.0460     2.6790 H     1 <1>   0.0800 
 39 H      -10.6340    -1.1580     1.9530 H     1 <1>   0.0800 
 40 H      -10.1280     0.4330     2.4630 H     1 <1>   0.0800 
 41 H      -12.0050     1.7670    -2.9100 H     1 <1>   0.1500 
 42 H      -13.8140     0.8850    -1.5330 H     1 <1>   0.1500 
 43 H      -13.4920    -1.1410     1.2990 H     1 <1>   0.0800 
 44 H      -14.6100    -0.2300     0.3270 H     1 <1>   0.0800 
 45 H      -13.9310     0.4920     1.7610 H     1 <1>   0.0800 
@<TRIPOS>BOND
  1   1   2  1   
  2   1   3  1   
  3   2   4  1   
  4   2  20  1   
  5   2  21  1   
  6   3   5  1   
  7   3  22  1   
  8   3  23  1   
  9   4   6  1   
 10   4  24  1   
 11   4  25  1   
 12   5   6  1   
 13   5  26  1   
 14   5  27  1   
 15   6   7  1   
 16   6  28  1   
 17   7   8  1   
 18   7  29  1   
 19   7  30  1   
 20   8   9  1   
 21   8  31  1   
 22   8  32  1   
 23   9  10  1   
 24   9  33  1   
 25   9  34  1   
 26  10  11  1   
 27  10  35  1   
 28  10  36  1   
 29  11  12  1   
 30  12  13  ar  
 31  12  14  ar  
 32  13  15  ar  
 33  13  16  1   
 34  14  17  ar  
 35  14  37  1   
 36  15  18  ar  
 37  15  19  1   
 38  16  38  1   
 39  16  39  1   
 40  16  40  1   
 41  17  18  ar  
 42  17  41  1   
 43  18  42  1   
 44  19  43  1   
 45  19  44  1   
 46  19  45  1   
@<TRIPOS>SUBSTRUCTURE
  1 ****   9 GROUP 4 **** **** 0

# MOE 2024.06 (io_trps.svl 2023.06)
