@<TRIPOS>MOLECULE
NONAME
30 30 1 0 0 
SMALL
USER_CHARGES


@<TRIPOS>ATOM
  1 I       -0.6550     0.3670     0.0090 I     1 <1>  -0.0810 
  2 C        1.3490     1.0870     0.0040 C.ar  1 <1>   0.0810 
  3 C        2.3840     0.1700     0.0120 C.ar  1 <1>  -0.1500 
  4 C        1.5620     2.4530    -0.0070 C.ar  1 <1>  -0.1500 
  5 C        3.6860     0.6420     0.0080 C.ar  1 <1>  -0.1500 
  6 C        2.8690     2.9110    -0.0100 C.ar  1 <1>  -0.1500 
  7 C        3.9310     2.0160    -0.0020 C.ar  1 <1>   0.0830 
  8 O        5.1750     2.5580    -0.0060 O.3   1 <1>  -0.3630 
  9 C        6.3270     1.7470     0.0000 C.3   1 <1>   0.1200 
 10 C        7.5520     2.6620    -0.0070 C.3   1 <1>  -0.1600 
 11 C        8.8550     1.8510    -0.0020 C.3   1 <1>  -0.1600 
 12 C       10.0780     2.7780    -0.0090 C.3   1 <1>  -0.1600 
 13 C       11.3800     1.9750    -0.0030 C.3   1 <1>   0.0700 
 14 S       12.7890     3.1650    -0.0120 S.3   1 <1>  -0.2660 
 15 C       14.2250     2.0750    -0.0060 C.1   1 <1>   0.5930 
 16 N       15.1110     1.3620    -0.0010 N.1   1 <1>  -0.5570 
 17 H        2.1780    -0.8860     0.0200 H     1 <1>   0.1500 
 18 H        0.7360     3.1410    -0.0120 H     1 <1>   0.1500 
 19 H        4.4890    -0.0700     0.0140 H     1 <1>   0.1500 
 20 H        3.0750     3.9660    -0.0180 H     1 <1>   0.1500 
 21 H        6.3100     1.1270    -0.8800 H     1 <1>   0.0800 
 22 H        6.3100     1.1400     0.8880 H     1 <1>   0.0800 
 23 H        7.5180     3.2950     0.8630 H     1 <1>   0.0800 
 24 H        7.5180     3.2820    -0.8860 H     1 <1>   0.0800 
 25 H        8.8830     1.2140    -0.8700 H     1 <1>   0.0800 
 26 H        8.8830     1.2270     0.8760 H     1 <1>   0.0800 
 27 H       10.0520     3.4140     0.8600 H     1 <1>   0.0800 
 28 H       10.0510     3.4020    -0.8860 H     1 <1>   0.0800 
 29 H       11.4730     1.3610    -0.8820 H     1 <1>   0.0800 
 30 H       11.4740     1.3730     0.8840 H     1 <1>   0.0800 
@<TRIPOS>BOND
  1   1   2  1   
  2   2   3  ar  
  3   2   4  ar  
  4   3   5  ar  
  5   3  17  1   
  6   4   6  ar  
  7   4  18  1   
  8   5   7  ar  
  9   5  19  1   
 10   6   7  ar  
 11   6  20  1   
 12   7   8  1   
 13   8   9  1   
 14   9  10  1   
 15   9  21  1   
 16   9  22  1   
 17  10  11  1   
 18  10  23  1   
 19  10  24  1   
 20  11  12  1   
 21  11  25  1   
 22  11  26  1   
 23  12  13  1   
 24  12  27  1   
 25  12  28  1   
 26  13  14  1   
 27  13  29  1   
 28  13  30  1   
 29  14  15  1   
 30  15  16  3   
@<TRIPOS>SUBSTRUCTURE
  1 ****   9 GROUP 4 **** **** 0

# MOE 2024.06 (io_trps.svl 2023.06)
