@<TRIPOS>MOLECULE
NONAME
37 37 1 0 0 
SMALL
USER_CHARGES


@<TRIPOS>ATOM
  1 O       -8.2290     0.8480     0.0790 O.3   1 <1>  -0.3630 
  2 C       -9.4880     0.3590    -0.0480 C.ar  1 <1>   0.0830 
  3 C       -7.1060     0.0070    -0.0070 C.3   1 <1>   0.1200 
  4 C       -9.7790    -0.9780    -0.3130 C.ar  1 <1>  -0.1500 
  5 C      -10.5240     1.2660     0.1000 C.ar  1 <1>  -0.1500 
  6 C       -5.8690     0.8860     0.2000 C.3   1 <1>   0.3430 
  7 C      -11.0950    -1.3970    -0.4260 C.ar  1 <1>  -0.1440 
  8 C      -11.8380     0.8500    -0.0110 C.ar  1 <1>  -0.1500 
  9 N       -4.5810     0.1120     0.1260 N.4   1 <1>  -0.9590 
 10 C      -12.1210    -0.4790    -0.2720 C.ar  1 <1>  -0.1500 
 11 C      -11.4190    -2.8530    -0.7120 C.3   1 <1>  -0.0970 
 12 C       -4.4120    -0.7760     1.3110 C.3   1 <1>   0.3430 
 13 C       -3.4200     1.0360    -0.0180 C.3   1 <1>   0.3430 
 14 C       -3.4170    -1.8820     0.9810 C.3   1 <1>  -0.2400 
 15 C       -3.3530     1.5520    -1.4510 C.3   1 <1>  -0.2400 
 16 H       -7.1010    -0.4420    -0.9840 H     1 <1>   0.0800 
 17 H       -7.1960    -0.7390     0.7630 H     1 <1>   0.0800 
 18 H       -9.0020    -1.7060    -0.4340 H     1 <1>   0.1500 
 19 H      -10.3010     2.2980     0.3020 H     1 <1>   0.1500 
 20 H       -5.9430     1.3740     1.1580 H     1 <1>   0.0800 
 21 H       -5.8780     1.6450    -0.5640 H     1 <1>   0.0800 
 22 H      -12.6400     1.5580     0.1060 H     1 <1>   0.1500 
 23 H       -4.6010    -0.4810    -0.7150 H     1 <1>   0.4500 
 24 H      -13.1470    -0.7950    -0.3550 H     1 <1>   0.1500 
 25 H      -10.6160    -3.3250    -1.2480 H     1 <1>   0.0800 
 26 H      -12.3100    -2.9260    -1.3100 H     1 <1>   0.0800 
 27 H      -11.5790    -3.3790     0.2120 H     1 <1>   0.0800 
 28 H       -5.3550    -1.2300     1.5710 H     1 <1>   0.0800 
 29 H       -4.0710    -0.2050     2.1610 H     1 <1>   0.0800 
 30 H       -2.5030     0.5140     0.2010 H     1 <1>   0.0800 
 31 H       -3.5090     1.8600     0.6720 H     1 <1>   0.0800 
 32 H       -3.7500    -2.4570     0.1350 H     1 <1>   0.0800 
 33 H       -2.4350    -1.4900     0.7880 H     1 <1>   0.0800 
 34 H       -3.3420    -2.5480     1.8220 H     1 <1>   0.0800 
 35 H       -2.4790     2.1700    -1.5600 H     1 <1>   0.0800 
 36 H       -3.2690     0.7370    -2.1480 H     1 <1>   0.0800 
 37 H       -4.2080     2.1540    -1.6990 H     1 <1>   0.0800 
@<TRIPOS>BOND
  1   1   2  1   
  2   1   3  1   
  3   2   4  ar  
  4   2   5  ar  
  5   3   6  1   
  6   3  16  1   
  7   3  17  1   
  8   4   7  ar  
  9   4  18  1   
 10   5   8  ar  
 11   5  19  1   
 12   6   9  1   
 13   6  20  1   
 14   6  21  1   
 15   7  10  ar  
 16   7  11  1   
 17   8  10  ar  
 18   8  22  1   
 19   9  12  1   
 20   9  13  1   
 21   9  23  1   
 22  10  24  1   
 23  11  25  1   
 24  11  26  1   
 25  11  27  1   
 26  12  14  1   
 27  12  28  1   
 28  12  29  1   
 29  13  15  1   
 30  13  30  1   
 31  13  31  1   
 32  14  32  1   
 33  14  33  1   
 34  14  34  1   
 35  15  35  1   
 36  15  36  1   
 37  15  37  1   
@<TRIPOS>SUBSTRUCTURE
  1 ****   3 GROUP 4 **** **** 0

# MOE 2024.06 (io_trps.svl 2023.06)
