@<TRIPOS>MOLECULE
NONAME
26 27 1 0 0 
SMALL
USER_CHARGES


@<TRIPOS>ATOM
  1 S       -0.0360     0.3060     0.0110 S.3   1 <1>  -0.2860 
  2 C       -1.8270     0.2210     0.0070 C.2   1 <1>   0.2420 
  3 C        0.5520    -1.4420     0.0120 C.3   1 <1>   0.0700 
  4 N       -2.5670     1.2710     0.0050 N.2   1 <1>  -0.5650 
  5 N       -2.4850    -0.9600     0.0050 N.pl3 1 <1>   0.0330 
  6 C        2.0790    -1.4200     0.0160 C.3   1 <1>  -0.2400 
  7 C       -3.8310     0.7590     0.0020 C.ar  1 <1>   0.2270 
  8 C       -3.8020    -0.6260     0.0020 C.ar  1 <1>  -0.1520 
  9 C       -5.0480     1.4340    -0.0010 C.ar  1 <1>  -0.1500 
 10 C       -4.9790    -1.3760    -0.0010 C.ar  1 <1>  -0.1500 
 11 C       -6.2230     0.7010    -0.0040 C.ar  1 <1>   0.0830 
 12 C       -6.1790    -0.7000    -0.0040 C.ar  1 <1>  -0.1500 
 13 O       -7.4640     1.2570    -0.0070 O.3   1 <1>  -0.3630 
 14 C       -7.6180     2.6600    -0.0080 C.3   1 <1>   0.0400 
 15 H        0.1680    -1.9140    -0.8750 H     1 <1>   0.0800 
 16 H        0.1640    -1.9140     0.8980 H     1 <1>   0.0800 
 17 H       -2.0820    -1.8960     0.0060 H     1 <1>   0.2700 
 18 H        2.4440    -0.9110    -0.8580 H     1 <1>   0.0800 
 19 H        2.4630    -2.4250     0.0170 H     1 <1>   0.0800 
 20 H        2.4400    -0.9120     0.8930 H     1 <1>   0.0800 
 21 H       -5.0200     2.5050    -0.0010 H     1 <1>   0.1500 
 22 H       -4.9460    -2.4510    -0.0010 H     1 <1>   0.1500 
 23 H       -7.1110    -1.2370    -0.0070 H     1 <1>   0.1500 
 24 H       -8.6700     2.8810    -0.0100 H     1 <1>   0.0800 
 25 H       -7.1570     3.0610    -0.8930 H     1 <1>   0.0800 
 26 H       -7.1620     3.0610     0.8800 H     1 <1>   0.0800 
@<TRIPOS>BOND
  1   1   2  1   
  2   1   3  1   
  3   2   4  2   
  4   2   5  1   
  5   3   6  1   
  6   3  15  1   
  7   3  16  1   
  8   4   7  1   
  9   5   8  1   
 10   5  17  1   
 11   6  18  1   
 12   6  19  1   
 13   6  20  1   
 14   7   8  ar  
 15   7   9  ar  
 16   8  10  ar  
 17   9  11  ar  
 18   9  21  1   
 19  10  12  ar  
 20  10  22  1   
 21  11  12  ar  
 22  11  13  1   
 23  12  23  1   
 24  13  14  1   
 25  14  24  1   
 26  14  25  1   
 27  14  26  1   
@<TRIPOS>SUBSTRUCTURE
  1 ****   7 GROUP 4 **** **** 0

# MOE 2024.06 (io_trps.svl 2023.06)
