@<TRIPOS>MOLECULE
NONAME
61 64 1 0 0 
SMALL
USER_CHARGES


@<TRIPOS>ATOM
  1 O       -5.7990     6.0870     0.4280 O.3   1 <1>  -0.3670 
  2 C       -5.5540     7.4060     0.2330 C.ar  1 <1>   0.0760 
  3 C       -6.0760     5.2250    -0.6560 C.3   1 <1>   0.1140 
  4 C       -5.4870     8.0040    -1.0240 C.ar  1 <1>  -0.1560 
  5 C       -5.3630     8.1810     1.3660 C.ar  1 <1>  -0.1560 
  6 C       -6.3360     3.8160    -0.1060 C.3   1 <1>   0.1940 
  7 C       -5.2320     9.3610    -1.1320 C.ar  1 <1>  -0.1560 
  8 C       -5.1080     9.5360     1.2560 C.ar  1 <1>  -0.1560 
  9 O       -5.2980     3.4960     0.7700 O.3   1 <1>  -0.6830 
 10 C       -6.4380     2.7610    -1.2280 C.3   1 <1>   0.3490 
 11 C       -5.0430    10.1270     0.0060 C.ar  1 <1>  -0.1560 
 12 N       -6.8590     1.4060    -0.7450 N.pl3 1 <1>  -0.7670 
 13 C       -6.1510     0.5230    -0.0420 C.cat 1 <1>   1.0690 
 14 C       -8.0670     0.8010    -1.0710 C.ar  1 <1>   0.3040 
 15 N       -4.9780     0.7780     0.4780 N.pl3 1 <1>  -0.8390 
 16 N       -6.7930    -0.6470     0.0670 N.pl3 1 <1>  -0.7670 
 17 C       -8.0280    -0.4840    -0.5560 C.ar  1 <1>   0.3040 
 18 C       -9.1870     1.2550    -1.7610 C.ar  1 <1>  -0.1150 
 19 C       -6.3770    -1.8920     0.7710 C.3   1 <1>   0.3490 
 20 C       -9.1130    -1.3430    -0.7100 C.ar  1 <1>  -0.1150 
 21 C      -10.2600     0.4000    -1.9200 C.ar  1 <1>  -0.1560 
 22 C       -6.0100    -3.0140    -0.2350 C.3   1 <1>   0.3380 
 23 C      -10.2240    -0.8920    -1.3970 C.ar  1 <1>  -0.1560 
 24 N       -5.7750    -4.3700     0.3780 N.4   1 <1>  -0.9610 
 25 C       -4.5750    -4.4300     1.2720 C.3   1 <1>   0.3380 
 26 C       -5.6610    -5.4020    -0.7000 C.3   1 <1>   0.3380 
 27 C       -4.5110    -5.7970     1.9530 C.3   1 <1>  -0.1660 
 28 C       -5.6250    -6.7960    -0.0750 C.3   1 <1>  -0.1660 
 29 C       -4.4740    -6.9370     0.9290 C.3   1 <1>  -0.1660 
 30 H       -5.2250     5.2280    -1.3150 H     1 <1>   0.0740 
 31 H       -6.9420     5.5990    -1.1740 H     1 <1>   0.0740 
 32 H       -5.6270     7.4410    -1.9260 H     1 <1>   0.1440 
 33 H       -5.4150     7.7200     2.3360 H     1 <1>   0.1440 
 34 H       -7.2540     3.8330     0.4570 H     1 <1>   0.0740 
 35 H       -5.1800     9.8240    -2.1020 H     1 <1>   0.1440 
 36 H       -4.9620    10.1310     2.1400 H     1 <1>   0.1440 
 37 H       -5.1080     4.3090     1.3010 H     1 <1>   0.3950 
 38 H       -5.4870     2.6850    -1.7280 H     1 <1>   0.0740 
 39 H       -7.1470     3.1090    -1.9580 H     1 <1>   0.0740 
 40 H       -4.8450    11.1810    -0.0810 H     1 <1>   0.1440 
 41 H       -4.4440     0.1720     1.0860 H     1 <1>   0.4460 
 42 H       -4.7100     1.7730     0.5420 H     1 <1>   0.4460 
 43 H       -9.2260     2.2510    -2.1620 H     1 <1>   0.1440 
 44 H       -7.1940    -2.2210     1.3920 H     1 <1>   0.0740 
 45 H       -5.5340    -1.6860     1.4070 H     1 <1>   0.0740 
 46 H       -9.1010    -2.3360    -0.3030 H     1 <1>   0.1440 
 47 H      -11.1400     0.7280    -2.4510 H     1 <1>   0.1440 
 48 H       -5.1280    -2.7170    -0.7790 H     1 <1>   0.0740 
 49 H       -6.8180    -3.0980    -0.9430 H     1 <1>   0.0740 
 50 H      -11.0800    -1.5360    -1.5320 H     1 <1>   0.1440 
 51 H       -6.5850    -4.6620     0.9440 H     1 <1>   0.4460 
 52 H       -4.6300    -3.6650     2.0290 H     1 <1>   0.0740 
 53 H       -3.6780    -4.2770     0.6930 H     1 <1>   0.0740 
 54 H       -4.7600    -5.2410    -1.2700 H     1 <1>   0.0740 
 55 H       -6.5040    -5.3360    -1.3700 H     1 <1>   0.0740 
 56 H       -5.3590    -5.9170     2.6050 H     1 <1>   0.0740 
 57 H       -3.6270    -5.8450     2.5650 H     1 <1>   0.0740 
 58 H       -5.5040    -7.5290    -0.8550 H     1 <1>   0.0740 
 59 H       -6.5640    -6.9990     0.4110 H     1 <1>   0.0740 
 60 H       -4.5420    -7.8870     1.4340 H     1 <1>   0.0740 
 61 H       -3.5350    -6.9150     0.4010 H     1 <1>   0.0740 
@<TRIPOS>BOND
  1   1   2  1   
  2   1   3  1   
  3   2   4  ar  
  4   2   5  ar  
  5   3   6  1   
  6   3  30  1   
  7   3  31  1   
  8   4   7  ar  
  9   4  32  1   
 10   5   8  ar  
 11   5  33  1   
 12   6   9  1   
 13   6  10  1   
 14   6  34  1   
 15   7  11  ar  
 16   7  35  1   
 17   8  11  ar  
 18   8  36  1   
 19   9  37  1   
 20  10  12  1   
 21  10  38  1   
 22  10  39  1   
 23  11  40  1   
 24  12  13  ar  
 25  12  14  1   
 26  13  15  ar  
 27  13  16  ar  
 28  14  17  ar  
 29  14  18  ar  
 30  15  41  1   
 31  15  42  1   
 32  16  17  1   
 33  16  19  1   
 34  17  20  ar  
 35  18  21  ar  
 36  18  43  1   
 37  19  22  1   
 38  19  44  1   
 39  19  45  1   
 40  20  23  ar  
 41  20  46  1   
 42  21  23  ar  
 43  21  47  1   
 44  22  24  1   
 45  22  48  1   
 46  22  49  1   
 47  23  50  1   
 48  24  25  1   
 49  24  26  1   
 50  24  51  1   
 51  25  27  1   
 52  25  52  1   
 53  25  53  1   
 54  26  28  1   
 55  26  54  1   
 56  26  55  1   
 57  27  29  1   
 58  27  56  1   
 59  27  57  1   
 60  28  29  1   
 61  28  58  1   
 62  28  59  1   
 63  29  60  1   
 64  29  61  1   
@<TRIPOS>SUBSTRUCTURE
  1 ****  13 GROUP 4 **** **** 0

# MOE 2024.06 (io_trps.svl 2023.06)
