@<TRIPOS>MOLECULE
NONAME
55 57 1 0 0 
SMALL
USER_CHARGES


@<TRIPOS>ATOM
  1 O       -0.2500     0.7210     0.3150 O.3   1 <1>  -0.3630 
  2 C       -1.1830     1.2340    -0.5330 C.ar  1 <1>   0.0830 
  3 C        1.1340     0.8360     0.0570 C.3   1 <1>   0.2640 
  4 C       -1.0160     2.3510    -1.3680 C.ar  1 <1>   0.0830 
  5 C       -2.3900     0.5590    -0.5230 C.ar  1 <1>  -0.1500 
  6 C        1.8640    -0.2330     0.8540 C.ar  1 <1>  -0.1440 
  7 O        0.1610     3.0390    -1.3530 O.3   1 <1>  -0.3630 
  8 C       -2.0760     2.7390    -2.1840 C.ar  1 <1>  -0.1500 
  9 C       -3.4460     0.9630    -1.3240 C.ar  1 <1>  -0.1440 
 10 C        2.0170    -0.0950     2.2250 C.ar  1 <1>  -0.1500 
 11 C        2.3850    -1.3520     0.2210 C.ar  1 <1>  -0.1500 
 12 C        0.3770     4.1900    -2.1420 C.3   1 <1>   0.0400 
 13 C       -3.2780     2.0530    -2.1630 C.ar  1 <1>  -0.1500 
 14 C       -4.7690     0.2230    -1.2660 C.3   1 <1>   0.4860 
 15 C        2.6870    -1.0610     2.9560 C.ar  1 <1>  -0.1500 
 16 C        3.0550    -2.3190     0.9510 C.ar  1 <1>  -0.1500 
 17 N       -5.3960     0.4770     0.0590 N.4   1 <1>  -0.9590 
 18 C        3.2070    -2.1740     2.3190 C.ar  1 <1>  -0.1500 
 19 C       -6.5980    -0.3970     0.2780 C.3   1 <1>   0.3430 
 20 C       -5.6380     1.9480     0.2620 C.3   1 <1>   0.3430 
 21 C       -7.9060     0.3640     0.0140 C.3   1 <1>  -0.0800 
 22 C       -6.6850     2.1850     1.3570 C.3   1 <1>  -0.0800 
 23 C       -8.0460     1.5730     0.9630 C.3   1 <1>  -0.1600 
 24 C       -9.1200    -0.5640     0.1430 C.3   1 <1>  -0.2400 
 25 C       -6.8330     3.6810     1.6620 C.3   1 <1>  -0.2400 
 26 H        1.2990     0.7070    -0.9980 H     1 <1>   0.0800 
 27 H        1.4560     1.8150     0.3610 H     1 <1>   0.0800 
 28 H       -2.4760    -0.2940     0.1270 H     1 <1>   0.1500 
 29 H       -1.9880     3.5790    -2.8470 H     1 <1>   0.1500 
 30 H        1.6110     0.7660     2.7270 H     1 <1>   0.1500 
 31 H        2.2710    -1.4760    -0.8410 H     1 <1>   0.1500 
 32 H        0.2890     3.9260    -3.1810 H     1 <1>   0.0800 
 33 H       -0.3430     4.9420    -1.8700 H     1 <1>   0.0800 
 34 H        1.3700     4.5500    -1.9420 H     1 <1>   0.0800 
 35 H       -4.0760     2.3830    -2.8080 H     1 <1>   0.1500 
 36 H       -4.5910    -0.8320    -1.3970 H     1 <1>   0.0800 
 37 H       -5.4180     0.5620    -2.0570 H     1 <1>   0.0800 
 38 H        2.8010    -0.9470     4.0200 H     1 <1>   0.1500 
 39 H        3.4580    -3.1840     0.4550 H     1 <1>   0.1500 
 40 H       -4.6890     0.2080     0.7550 H     1 <1>   0.4500 
 41 H        3.7270    -2.9250     2.8860 H     1 <1>   0.1500 
 42 H       -6.6100    -0.7330     1.3030 H     1 <1>   0.0800 
 43 H       -6.5470    -1.2690    -0.3530 H     1 <1>   0.0800 
 44 H       -5.9990     2.3870    -0.6540 H     1 <1>   0.0800 
 45 H       -4.7130     2.4370     0.5240 H     1 <1>   0.0800 
 46 H       -7.8810     0.7210    -1.0020 H     1 <1>   0.0800 
 47 H       -6.3340     1.7070     2.2570 H     1 <1>   0.0800 
 48 H       -8.5570     1.2850     1.8670 H     1 <1>   0.0800 
 49 H       -8.6630     2.3100     0.4760 H     1 <1>   0.0800 
 50 H       -9.1910    -0.9730     1.1370 H     1 <1>   0.0800 
 51 H       -9.0540    -1.3780    -0.5580 H     1 <1>   0.0800 
 52 H      -10.0270    -0.0200    -0.0630 H     1 <1>   0.0800 
 53 H       -7.1620     4.2240     0.7920 H     1 <1>   0.0800 
 54 H       -5.8950     4.0960     1.9890 H     1 <1>   0.0800 
 55 H       -7.5540     3.8310     2.4470 H     1 <1>   0.0800 
@<TRIPOS>BOND
  1   1   2  1   
  2   1   3  1   
  3   2   4  ar  
  4   2   5  ar  
  5   3   6  1   
  6   3  26  1   
  7   3  27  1   
  8   4   7  1   
  9   4   8  ar  
 10   5   9  ar  
 11   5  28  1   
 12   6  10  ar  
 13   6  11  ar  
 14   7  12  1   
 15   8  13  ar  
 16   8  29  1   
 17   9  13  ar  
 18   9  14  1   
 19  10  15  ar  
 20  10  30  1   
 21  11  16  ar  
 22  11  31  1   
 23  12  32  1   
 24  12  33  1   
 25  12  34  1   
 26  13  35  1   
 27  14  17  1   
 28  14  36  1   
 29  14  37  1   
 30  15  18  ar  
 31  15  38  1   
 32  16  18  ar  
 33  16  39  1   
 34  17  19  1   
 35  17  20  1   
 36  17  40  1   
 37  18  41  1   
 38  19  21  1   
 39  19  42  1   
 40  19  43  1   
 41  20  22  1   
 42  20  44  1   
 43  20  45  1   
 44  21  23  1   
 45  21  24  1   
 46  21  46  1   
 47  22  23  1   
 48  22  25  1   
 49  22  47  1   
 50  23  48  1   
 51  23  49  1   
 52  24  50  1   
 53  24  51  1   
 54  24  52  1   
 55  25  53  1   
 56  25  54  1   
 57  25  55  1   
@<TRIPOS>SUBSTRUCTURE
  1 ****   5 GROUP 4 **** **** 0

# MOE 2024.06 (io_trps.svl 2023.06)
