@<TRIPOS>MOLECULE
NONAME
36 36 1 0 0 
SMALL
USER_CHARGES


@<TRIPOS>ATOM
  1 S       -0.6760    -0.1810    -0.1230 S.3   1 <1>  -0.3320 
  2 C       -1.2850     1.4990     0.1750 C.ar  1 <1>   0.1020 
  3 C        1.1580    -0.0960    -0.3360 C.3   1 <1>   0.0700 
  4 C       -2.6190     1.7080     0.5660 C.ar  1 <1>   0.0860 
  5 C       -0.4040     2.5600     0.0150 C.ar  1 <1>  -0.1500 
  6 C        1.6840    -1.5280    -0.4420 C.3   1 <1>  -0.1600 
  7 C       -3.6200     0.6680     0.7390 C.2   1 <1>   0.5440 
  8 C       -2.9990     3.0320     0.8040 C.ar  1 <1>  -0.1500 
  9 C       -0.8220     3.8560     0.2530 C.ar  1 <1>  -0.1500 
 10 C        3.2050    -1.5500    -0.6200 C.3   1 <1>  -0.2400 
 11 O       -4.4630     0.7710     1.6100 O.2   1 <1>  -0.5700 
 12 N       -3.6900    -0.4180    -0.0870 N.am  1 <1>  -0.7300 
 13 C       -2.1240     4.0900     0.6510 C.ar  1 <1>  -0.1500 
 14 C       -4.6230    -1.5620     0.0760 C.3   1 <1>   0.1400 
 15 C       -6.0310    -1.1750    -0.3760 C.3   1 <1>   0.1200 
 16 O       -6.8210    -2.3240    -0.4090 O.3   1 <1>  -0.5600 
 17 C       -8.1510    -2.0780    -0.7310 C.3   1 <1>   0.0400 
 18 H        1.5610     0.4080     0.5250 H     1 <1>   0.0800 
 19 H        1.3550     0.4620    -1.2340 H     1 <1>   0.0800 
 20 H        0.6100     2.4060    -0.2950 H     1 <1>   0.1500 
 21 H        1.2190    -2.0170    -1.2810 H     1 <1>   0.0800 
 22 H        1.4210    -2.0690     0.4510 H     1 <1>   0.0800 
 23 H       -4.0100     3.2310     1.1170 H     1 <1>   0.1500 
 24 H       -0.1390     4.6790     0.1300 H     1 <1>   0.1500 
 25 H        3.4880    -1.0290    -1.5180 H     1 <1>   0.0800 
 26 H        3.5520    -2.5660    -0.6910 H     1 <1>   0.0800 
 27 H        3.6900    -1.0830     0.2200 H     1 <1>   0.0800 
 28 H       -2.8730    -0.6010    -0.6780 H     1 <1>   0.3700 
 29 H       -2.4560     5.0970     0.8430 H     1 <1>   0.1500 
 30 H       -4.6500    -1.8560     1.1110 H     1 <1>   0.0800 
 31 H       -4.2710    -2.3890    -0.5160 H     1 <1>   0.0800 
 32 H       -6.0030    -0.7540    -1.3650 H     1 <1>   0.0800 
 33 H       -6.4600    -0.4740     0.3190 H     1 <1>   0.0800 
 34 H       -8.6730    -3.0180    -0.7370 H     1 <1>   0.0800 
 35 H       -8.2020    -1.6260    -1.7060 H     1 <1>   0.0800 
 36 H       -8.5800    -1.4280     0.0120 H     1 <1>   0.0800 
@<TRIPOS>BOND
  1   1   2  1   
  2   1   3  1   
  3   2   4  ar  
  4   2   5  ar  
  5   3   6  1   
  6   3  18  1   
  7   3  19  1   
  8   4   7  1   
  9   4   8  ar  
 10   5   9  ar  
 11   5  20  1   
 12   6  10  1   
 13   6  21  1   
 14   6  22  1   
 15   7  11  2   
 16   7  12  am  
 17   8  13  ar  
 18   8  23  1   
 19   9  13  ar  
 20   9  24  1   
 21  10  25  1   
 22  10  26  1   
 23  10  27  1   
 24  12  14  1   
 25  12  28  1   
 26  13  29  1   
 27  14  15  1   
 28  14  30  1   
 29  14  31  1   
 30  15  16  1   
 31  15  32  1   
 32  15  33  1   
 33  16  17  1   
 34  17  34  1   
 35  17  35  1   
 36  17  36  1   
@<TRIPOS>SUBSTRUCTURE
  1 ****   7 GROUP 4 **** **** 0

# MOE 2024.06 (io_trps.svl 2023.06)
