@<TRIPOS>MOLECULE
NONAME
43 45 1 0 0 
SMALL
USER_CHARGES


@<TRIPOS>ATOM
  1 S       -0.0060     0.1000    -0.0060 S.o2  1 <1>   1.3330 
  2 O        1.1890     0.1570    -0.8130 O.2   1 <1>  -0.6500 
  3 O       -0.8660     1.2470     0.1490 O.2   1 <1>  -0.6500 
  4 N       -0.9470    -1.2170    -0.6140 N.am  1 <1>  -0.6930 
  5 C        0.4430    -0.5030     1.6060 C.3   1 <1>  -0.1350 
  6 C       -2.1900    -1.6300    -0.1920 C.ar  1 <1>   0.1990 
  7 C       -0.3090    -2.2570    -1.4500 C.3   1 <1>   0.1960 
  8 C       -2.4810    -2.8900    -0.6680 C.ar  1 <1>  -0.1440 
  9 C       -3.1140    -0.9740     0.6100 C.ar  1 <1>  -0.1500 
 10 C       -1.3420    -3.3960    -1.5240 C.3   1 <1>  -0.0160 
 11 C       -3.6670    -3.5200    -0.3530 C.ar  1 <1>  -0.1500 
 12 C       -4.3030    -1.6040     0.9310 C.ar  1 <1>  -0.1500 
 13 C       -4.6130    -2.8860     0.4590 C.ar  1 <1>   0.0860 
 14 C       -5.8490    -3.5560     0.8100 C.2   1 <1>   0.5440 
 15 O       -5.7960    -4.7130     1.1930 O.2   1 <1>  -0.5700 
 16 N       -7.0800    -2.9330     0.7400 N.am  1 <1>  -0.6600 
 17 C       -7.3370    -1.6760    -0.0330 C.3   1 <1>   0.1400 
 18 C       -8.2900    -3.5040     1.3940 C.3   1 <1>   0.1400 
 19 C       -8.4530    -1.8790    -1.0660 C.3   1 <1>  -0.1860 
 20 C       -9.3830    -3.7540     0.3520 C.3   1 <1>  -0.1600 
 21 C       -8.7480    -0.5720    -1.7890 C.2   1 <1>   0.9060 
 22 C       -9.7200    -2.4710    -0.4170 C.3   1 <1>  -0.1600 
 23 O       -9.5050    -0.5990    -2.7640 O.co2 1 <1>  -0.9000 
 24 O       -8.2280     0.4770    -1.3880 O.co2 1 <1>  -0.9000 
 25 H        1.0570     0.2190     2.1090 H     1 <1>   0.0800 
 26 H        0.9900    -1.4210     1.5200 H     1 <1>   0.0800 
 27 H       -0.4370    -0.6770     2.1940 H     1 <1>   0.0800 
 28 H        0.6040    -2.5930    -0.9900 H     1 <1>   0.0800 
 29 H       -0.0980    -1.8570    -2.4270 H     1 <1>   0.0800 
 30 H       -2.9110     0.0170     0.9700 H     1 <1>   0.1500 
 31 H       -0.9360    -4.3090    -1.1300 H     1 <1>   0.0800 
 32 H       -1.6660    -3.5480    -2.5380 H     1 <1>   0.0800 
 33 H       -3.8820    -4.5070    -0.7250 H     1 <1>   0.1500 
 34 H       -5.0180    -1.0980     1.5570 H     1 <1>   0.1500 
 35 H       -6.4540    -1.3500    -0.5530 H     1 <1>   0.0800 
 36 H       -7.6230    -0.8960     0.6520 H     1 <1>   0.0800 
 37 H       -8.6450    -2.8040     2.1300 H     1 <1>   0.0800 
 38 H       -8.0530    -4.4250     1.8970 H     1 <1>   0.0800 
 39 H       -8.0950    -2.5600    -1.8140 H     1 <1>   0.0800 
 40 H      -10.2660    -4.1230     0.8420 H     1 <1>   0.0800 
 41 H       -9.0420    -4.5100    -0.3330 H     1 <1>   0.0800 
 42 H      -10.4470    -2.6800    -1.1840 H     1 <1>   0.0800 
 43 H      -10.1460    -1.7430     0.2520 H     1 <1>   0.0800 
@<TRIPOS>BOND
  1   1   2  2   
  2   1   3  2   
  3   1   4  am  
  4   1   5  1   
  5   4   6  1   
  6   4   7  1   
  7   5  25  1   
  8   5  26  1   
  9   5  27  1   
 10   6   8  ar  
 11   6   9  ar  
 12   7  10  1   
 13   7  28  1   
 14   7  29  1   
 15   8  10  1   
 16   8  11  ar  
 17   9  12  ar  
 18   9  30  1   
 19  10  31  1   
 20  10  32  1   
 21  11  13  ar  
 22  11  33  1   
 23  12  13  ar  
 24  12  34  1   
 25  13  14  1   
 26  14  15  2   
 27  14  16  am  
 28  16  17  1   
 29  16  18  1   
 30  17  19  1   
 31  17  35  1   
 32  17  36  1   
 33  18  20  1   
 34  18  37  1   
 35  18  38  1   
 36  19  21  1   
 37  19  22  1   
 38  19  39  1   
 39  20  22  1   
 40  20  40  1   
 41  20  41  1   
 42  21  23  ar  
 43  21  24  ar  
 44  22  42  1   
 45  22  43  1   
@<TRIPOS>SUBSTRUCTURE
  1 ****  12 GROUP 4 **** **** 0

# MOE 2024.06 (io_trps.svl 2023.06)
