@<TRIPOS>MOLECULE
NONAME
36 37 1 0 0 
SMALL
USER_CHARGES


@<TRIPOS>ATOM
  1 S       -1.2610     3.1570    -0.2520 S.3   1 <1>  -0.0800 
  2 C       -1.8100     1.6810     0.5250 C.2   1 <1>  -0.1400 
  3 C       -0.4400     2.2450    -1.5050 C.2   1 <1>  -0.1100 
  4 C       -1.3740     0.6020    -0.1520 C.2   1 <1>  -0.1500 
  5 C       -2.6580     1.8370     1.7800 C.3   1 <1>   0.0810 
  6 C       -0.5940     0.9230    -1.3090 C.2   1 <1>  -0.1500 
  7 C       -3.6250     0.6780     1.9930 C.2   1 <1>   0.5690 
  8 O       -3.5490     0.0750     3.0350 O.2   1 <1>  -0.5700 
  9 N       -4.5720     0.3320     1.0520 N.am  1 <1>  -0.6600 
 10 C       -5.4030    -0.9010     1.2270 C.3   1 <1>   0.1400 
 11 C       -4.8350     1.0780    -0.2210 C.3   1 <1>   0.1400 
 12 C       -6.8990    -0.5880     1.0510 C.3   1 <1>   0.3430 
 13 C       -6.3420     1.3500    -0.4090 C.3   1 <1>   0.3430 
 14 N       -7.1780     0.1060    -0.2550 N.4   1 <1>  -0.9590 
 15 C       -8.6230     0.3780    -0.4170 C.3   1 <1>   0.4810 
 16 C       -8.8660     0.6290    -1.8860 C.2   1 <1>  -0.2880 
 17 C       -9.4310    -0.2390    -2.7320 C.2   1 <1>  -0.3000 
 18 H        0.0820     2.8030    -2.2630 H     1 <1>   0.1500 
 19 H       -1.5620    -0.4250     0.1140 H     1 <1>   0.1500 
 20 H       -3.2260     2.7460     1.7270 H     1 <1>   0.0800 
 21 H       -2.0040     1.9140     2.6290 H     1 <1>   0.0800 
 22 H       -0.1840     0.1480    -1.9330 H     1 <1>   0.1500 
 23 H       -5.2540    -1.3270     2.2050 H     1 <1>   0.0800 
 24 H       -5.0970    -1.6390     0.5060 H     1 <1>   0.0800 
 25 H       -4.4630     0.5010    -1.0510 H     1 <1>   0.0800 
 26 H       -4.3190     2.0210    -0.2280 H     1 <1>   0.0800 
 27 H       -7.2120     0.0370     1.8710 H     1 <1>   0.0800 
 28 H       -7.4570    -1.5090     1.1060 H     1 <1>   0.0800 
 29 H       -6.4970     1.7780    -1.3850 H     1 <1>   0.0800 
 30 H       -6.6470     2.0800     0.3230 H     1 <1>   0.0800 
 31 H       -6.9300    -0.5340    -1.0210 H     1 <1>   0.4500 
 32 H       -8.9320     1.2230     0.1780 H     1 <1>   0.0800 
 33 H       -9.1920    -0.4860    -0.1120 H     1 <1>   0.0800 
 34 H       -8.5460     1.6050    -2.2090 H     1 <1>   0.1500 
 35 H       -9.6020    -0.0330    -3.7780 H     1 <1>   0.1500 
 36 H       -9.7810    -1.2250    -2.4700 H     1 <1>   0.1500 
@<TRIPOS>BOND
  1   1   2  1   
  2   1   3  1   
  3   2   4  2   
  4   2   5  1   
  5   3   6  2   
  6   3  18  1   
  7   4   6  1   
  8   4  19  1   
  9   5   7  1   
 10   5  20  1   
 11   5  21  1   
 12   6  22  1   
 13   7   8  2   
 14   7   9  am  
 15   9  10  1   
 16   9  11  1   
 17  10  12  1   
 18  10  23  1   
 19  10  24  1   
 20  11  13  1   
 21  11  25  1   
 22  11  26  1   
 23  12  14  1   
 24  12  27  1   
 25  12  28  1   
 26  13  14  1   
 27  13  29  1   
 28  13  30  1   
 29  14  15  1   
 30  14  31  1   
 31  15  16  1   
 32  15  32  1   
 33  15  33  1   
 34  16  17  2   
 35  16  34  1   
 36  17  35  1   
 37  17  36  1   
@<TRIPOS>SUBSTRUCTURE
  1 ****  11 GROUP 4 **** **** 0

# MOE 2024.06 (io_trps.svl 2023.06)
