@<TRIPOS>MOLECULE
NONAME
42 44 1 0 0 
SMALL
USER_CHARGES


@<TRIPOS>ATOM
  1 S        0.7780     1.3700     1.9320 S.o2  1 <1>   1.4470 
  2 O        0.1660     0.2580     2.6270 O.2   1 <1>  -0.6500 
  3 O        1.5770     2.3070     2.6950 O.2   1 <1>  -0.6500 
  4 N        1.8230     0.7170     0.7610 N.am  1 <1>  -0.8490 
  5 C       -0.5070     2.2320     0.9610 C.ar  1 <1>  -0.0090 
  6 C        2.6530     1.7520     0.1330 C.3   1 <1>   0.1960 
  7 C        2.6630    -0.3450     1.3250 C.3   1 <1>   0.1960 
  8 C       -1.2380     3.3150     1.4580 C.ar  1 <1>  -0.1440 
  9 C       -0.8080     1.7860    -0.3230 C.ar  1 <1>  -0.1500 
 10 C        3.4250     1.1560    -1.0410 C.3   1 <1>  -0.1600 
 11 C        3.4500    -1.0330     0.2110 C.3   1 <1>  -0.1600 
 12 C       -2.2000     3.9300     0.6720 C.ar  1 <1>  -0.1500 
 13 C       -1.0150     3.8530     2.8670 C.3   1 <1>  -0.0970 
 14 C       -1.7680     2.3970    -1.1110 C.ar  1 <1>  -0.1440 
 15 C        4.2770    -0.0160    -0.5580 C.3   1 <1>   0.5600 
 16 C       -2.4640     3.4780    -0.6060 C.ar  1 <1>  -0.1500 
 17 C       -2.0550     1.8790    -2.5090 C.3   1 <1>  -0.0970 
 18 O        4.9000    -0.6430    -1.6260 O.3   1 <1>  -0.5600 
 19 O        5.3070     0.4410     0.2560 O.3   1 <1>  -0.5600 
 20 C        6.1450    -0.0770    -1.8180 C.3   1 <1>   0.1200 
 21 C        6.4480     0.6180    -0.5050 C.3   1 <1>   0.1200 
 22 H        3.3430     2.1620     0.8550 H     1 <1>   0.0800 
 23 H        2.0300     2.5540    -0.2270 H     1 <1>   0.0800 
 24 H        2.0480    -1.0820     1.8130 H     1 <1>   0.0800 
 25 H        3.3380     0.0690     2.0580 H     1 <1>   0.0800 
 26 H       -0.2810     0.9340    -0.7180 H     1 <1>   0.1500 
 27 H        4.0440     1.9090    -1.4900 H     1 <1>   0.0800 
 28 H        2.7230     0.8050    -1.7750 H     1 <1>   0.0800 
 29 H        2.7560    -1.5090    -0.4580 H     1 <1>   0.0800 
 30 H        4.0970    -1.7830     0.6250 H     1 <1>   0.0800 
 31 H       -2.7580     4.7690     1.0520 H     1 <1>   0.1500 
 32 H       -1.0120     3.0500     3.5820 H     1 <1>   0.0800 
 33 H       -1.7940     4.5390     3.1470 H     1 <1>   0.0800 
 34 H       -0.0750     4.3720     2.9200 H     1 <1>   0.0800 
 35 H       -3.2160     3.9670    -1.2000 H     1 <1>   0.1500 
 36 H       -1.1580     1.4910    -2.9580 H     1 <1>   0.0800 
 37 H       -2.4330     2.6670    -3.1340 H     1 <1>   0.0800 
 38 H       -2.7870     1.0920    -2.4610 H     1 <1>   0.0800 
 39 H        6.0900     0.6230    -2.6330 H     1 <1>   0.0800 
 40 H        6.8550    -0.8540    -2.0400 H     1 <1>   0.0800 
 41 H        7.2800     0.1650     0.0060 H     1 <1>   0.0800 
 42 H        6.6220     1.6700    -0.6420 H     1 <1>   0.0800 
@<TRIPOS>BOND
  1   1   2  2   
  2   1   3  2   
  3   1   4  am  
  4   1   5  1   
  5   4   6  1   
  6   4   7  1   
  7   5   8  ar  
  8   5   9  ar  
  9   6  10  1   
 10   6  22  1   
 11   6  23  1   
 12   7  11  1   
 13   7  24  1   
 14   7  25  1   
 15   8  12  ar  
 16   8  13  1   
 17   9  14  ar  
 18   9  26  1   
 19  10  15  1   
 20  10  27  1   
 21  10  28  1   
 22  11  15  1   
 23  11  29  1   
 24  11  30  1   
 25  12  16  ar  
 26  12  31  1   
 27  13  32  1   
 28  13  33  1   
 29  13  34  1   
 30  14  16  ar  
 31  14  17  1   
 32  15  18  1   
 33  15  19  1   
 34  16  35  1   
 35  17  36  1   
 36  17  37  1   
 37  17  38  1   
 38  18  20  1   
 39  19  21  1   
 40  20  21  1   
 41  20  39  1   
 42  20  40  1   
 43  21  41  1   
 44  21  42  1   
@<TRIPOS>SUBSTRUCTURE
  1 ****   4 GROUP 4 **** **** 0

# MOE 2024.06 (io_trps.svl 2023.06)
