@<TRIPOS>MOLECULE
NONAME
38 39 1 0 0 
SMALL
USER_CHARGES


@<TRIPOS>ATOM
  1 O       -1.4010    -0.5460    -2.2830 O.2   1 <1>  -0.5700 
  2 C       -1.3100    -1.4900    -1.5290 C.2   1 <1>   0.5690 
  3 N       -0.3820    -1.4770    -0.5160 N.am  1 <1>  -0.6600 
  4 C       -2.2370    -2.6770    -1.8270 C.3   1 <1>   0.1810 
  5 C        0.5030    -0.3170    -0.2770 C.3   1 <1>   0.1400 
  6 C       -0.2200    -2.4880     0.5510 C.3   1 <1>   0.1400 
  7 O       -2.5690    -3.5040    -0.7140 O.3   1 <1>  -0.3620 
  8 C        1.0400    -0.5170     1.1350 C.3   1 <1>  -0.1600 
  9 C        0.9910    -2.0260     1.3520 C.3   1 <1>  -0.1600 
 10 C       -3.8270    -3.4400    -0.2140 C.ar  1 <1>   0.0820 
 11 C       -4.3800    -2.2660     0.3060 C.ar  1 <1>   0.0820 
 12 C       -4.5680    -4.6080    -0.2190 C.ar  1 <1>  -0.1500 
 13 O       -3.6070    -1.1470     0.3380 O.3   1 <1>  -0.3630 
 14 C       -5.6850    -2.2850     0.7850 C.ar  1 <1>  -0.1500 
 15 C       -5.8630    -4.6140     0.2660 C.ar  1 <1>  -0.1500 
 16 C       -4.1050     0.1090     0.7300 C.3   1 <1>   0.1200 
 17 C       -6.4400    -3.4530     0.7690 C.ar  1 <1>   0.0730 
 18 C       -2.9760     1.1230     0.5850 C.3   1 <1>  -0.2400 
 19 C       -7.7860    -3.4600     1.2660 C.1   1 <1>   0.4840 
 20 N       -8.8560    -3.4580     1.6600 N.1   1 <1>  -0.5570 
 21 H       -1.7530    -3.3040    -2.5510 H     1 <1>   0.0800 
 22 H       -3.1480    -2.3060    -2.2600 H     1 <1>   0.0800 
 23 H       -0.0390     0.6090    -0.3710 H     1 <1>   0.0800 
 24 H        1.3050    -0.3380    -0.9950 H     1 <1>   0.0800 
 25 H       -0.0690    -3.4700     0.1360 H     1 <1>   0.0800 
 26 H       -1.1010    -2.4850     1.1720 H     1 <1>   0.0800 
 27 H        0.3820    -0.0260     1.8300 H     1 <1>   0.0800 
 28 H        2.0320    -0.1160     1.2460 H     1 <1>   0.0800 
 29 H        1.8750    -2.4830     0.9430 H     1 <1>   0.0800 
 30 H        0.9070    -2.2900     2.3910 H     1 <1>   0.0800 
 31 H       -4.1260    -5.5090    -0.6060 H     1 <1>   0.1500 
 32 H       -6.1380    -1.3970     1.1850 H     1 <1>   0.1500 
 33 H       -6.4300    -5.5300     0.2520 H     1 <1>   0.1500 
 34 H       -4.4270     0.0460     1.7550 H     1 <1>   0.0800 
 35 H       -4.9310     0.3650     0.0890 H     1 <1>   0.0800 
 36 H       -2.1450     0.8410     1.2060 H     1 <1>   0.0800 
 37 H       -3.3160     2.0980     0.8830 H     1 <1>   0.0800 
 38 H       -2.6540     1.1700    -0.4410 H     1 <1>   0.0800 
@<TRIPOS>BOND
  1   1   2  2   
  2   2   3  am  
  3   2   4  1   
  4   3   5  1   
  5   3   6  1   
  6   4   7  1   
  7   4  21  1   
  8   4  22  1   
  9   5   8  1   
 10   5  23  1   
 11   5  24  1   
 12   6   9  1   
 13   6  25  1   
 14   6  26  1   
 15   7  10  1   
 16   8   9  1   
 17   8  27  1   
 18   8  28  1   
 19   9  29  1   
 20   9  30  1   
 21  10  11  ar  
 22  10  12  ar  
 23  11  13  1   
 24  11  14  ar  
 25  12  15  ar  
 26  12  31  1   
 27  13  16  1   
 28  14  17  ar  
 29  14  32  1   
 30  15  17  ar  
 31  15  33  1   
 32  16  18  1   
 33  16  34  1   
 34  16  35  1   
 35  17  19  1   
 36  18  36  1   
 37  18  37  1   
 38  18  38  1   
 39  19  20  3   
@<TRIPOS>SUBSTRUCTURE
  1 ****  13 GROUP 4 **** **** 0

# MOE 2024.06 (io_trps.svl 2023.06)
