@<TRIPOS>MOLECULE
NONAME
31 32 1 0 0 
SMALL
USER_CHARGES


@<TRIPOS>ATOM
  1 CL      -0.0420    -0.2550     1.7020 Cl    1 <1>  -0.1770 
  2 C       -1.6310    -0.2900     0.9760 C.ar  1 <1>   0.1770 
  3 C       -1.9660    -1.2160    -0.0150 C.ar  1 <1>   0.0860 
  4 C       -2.5430     0.6370     1.4420 C.ar  1 <1>  -0.1500 
  5 C       -1.0600    -2.2220    -0.5370 C.2   1 <1>   0.5440 
  6 C       -3.2710    -1.1550    -0.5090 C.ar  1 <1>  -0.1500 
  7 C       -3.8270     0.6590     0.9280 C.ar  1 <1>  -0.1500 
  8 O       -1.4750    -3.3060    -0.8820 O.2   1 <1>  -0.5700 
  9 N        0.2660    -2.0180    -0.7010 N.am  1 <1>  -0.8000 
 10 C       -4.2130    -0.2380    -0.0610 C.ar  1 <1>  -0.0090 
 11 S       -5.9080    -0.2390    -0.7150 S.o2  1 <1>   1.4470 
 12 O       -6.4970     1.0660    -0.5060 O.2   1 <1>  -0.6500 
 13 O       -5.9290    -0.8240    -2.0380 O.2   1 <1>  -0.6500 
 14 N       -6.7100    -1.3120     0.3200 N.am  1 <1>  -0.8490 
 15 C       -6.3840    -2.7160     0.1240 C.3   1 <1>   0.1960 
 16 C       -8.1550    -1.2310     0.2010 C.3   1 <1>   0.1960 
 17 C       -7.4860    -3.4630     0.8640 C.3   1 <1>  -0.1600 
 18 C       -8.6700    -2.4950     0.8810 C.3   1 <1>  -0.1600 
 19 H       -2.2520     1.3350     2.2080 H     1 <1>   0.1500 
 20 H       -3.5590    -1.8580    -1.2760 H     1 <1>   0.1500 
 21 H       -4.5410     1.3790     1.2970 H     1 <1>   0.1500 
 22 H        0.8400    -2.7860    -1.0500 H     1 <1>   0.3700 
 23 H        0.7620    -1.2120    -0.3190 H     1 <1>   0.3700 
 24 H       -5.4090    -2.9520     0.5170 H     1 <1>   0.0800 
 25 H       -6.4240    -2.9700    -0.9230 H     1 <1>   0.0800 
 26 H       -8.4370    -1.2350    -0.8400 H     1 <1>   0.0800 
 27 H       -8.5310    -0.3370     0.6700 H     1 <1>   0.0800 
 28 H       -7.1650    -3.6740     1.8690 H     1 <1>   0.0800 
 29 H       -7.7230    -4.3880     0.3690 H     1 <1>   0.0800 
 30 H       -9.5210    -2.8880     0.3540 H     1 <1>   0.0800 
 31 H       -8.9560    -2.2710     1.8940 H     1 <1>   0.0800 
@<TRIPOS>BOND
  1   1   2  1   
  2   2   3  ar  
  3   2   4  ar  
  4   3   5  1   
  5   3   6  ar  
  6   4   7  ar  
  7   4  19  1   
  8   5   8  2   
  9   5   9  am  
 10   6  10  ar  
 11   6  20  1   
 12   7  10  ar  
 13   7  21  1   
 14   9  22  1   
 15   9  23  1   
 16  10  11  1   
 17  11  12  2   
 18  11  13  2   
 19  11  14  am  
 20  14  15  1   
 21  14  16  1   
 22  15  17  1   
 23  15  24  1   
 24  15  25  1   
 25  16  18  1   
 26  16  26  1   
 27  16  27  1   
 28  17  18  1   
 29  17  28  1   
 30  17  29  1   
 31  18  30  1   
 32  18  31  1   
@<TRIPOS>SUBSTRUCTURE
  1 ****  10 GROUP 4 **** **** 0

# MOE 2024.06 (io_trps.svl 2023.06)
