@<TRIPOS>MOLECULE
NONAME
45 47 1 0 0 
SMALL
USER_CHARGES


@<TRIPOS>ATOM
  1 O        0.6130     5.2180    -0.0300 O.3   1 <1>  -0.3630 
  2 C        1.9140     4.8450    -0.1440 C.ar  1 <1>   0.0830 
  3 C        0.2370     6.5710    -0.1550 C.3   1 <1>   0.3200 
  4 C        2.9650     5.7370    -0.3480 C.ar  1 <1>  -0.1500 
  5 C        2.1820     3.4880    -0.0460 C.ar  1 <1>  -0.1500 
  6 C       -1.2440     6.6310     0.0080 C.1   1 <1>  -0.2000 
  7 C        4.2610     5.2620    -0.4520 C.ar  1 <1>  -0.1500 
  8 C        3.4790     3.0150    -0.1490 C.ar  1 <1>  -0.1500 
  9 C       -2.4230     6.5860     0.1540 C.1   1 <1>  -0.2000 
 10 C        4.5290     3.9060    -0.3540 C.ar  1 <1>   0.0830 
 11 C       -3.8800     6.3770     0.3560 C.3   1 <1>   0.5430 
 12 O        5.8290     3.5310    -0.4670 O.3   1 <1>  -0.3630 
 13 N       -4.1540     4.9440     0.0940 N.4   1 <1>  -0.9590 
 14 C        6.2060     2.1750    -0.3810 C.3   1 <1>   0.0400 
 15 C       -5.6090     4.6550     0.0010 C.3   1 <1>   0.4860 
 16 C       -3.5000     4.0340     1.0840 C.3   1 <1>   0.3430 
 17 C       -5.8350     3.1860    -0.3170 C.ar  1 <1>  -0.1430 
 18 C       -3.5250     2.5960     0.5620 C.3   1 <1>  -0.0170 
 19 C       -4.8700     2.2210    -0.0440 C.ar  1 <1>  -0.1430 
 20 C       -7.0420     2.8040    -0.8840 C.ar  1 <1>  -0.1500 
 21 C       -5.1240     0.8920    -0.3410 C.ar  1 <1>  -0.1500 
 22 C       -7.2890     1.4750    -1.1770 C.ar  1 <1>  -0.1500 
 23 C       -6.3300     0.5190    -0.9050 C.ar  1 <1>  -0.1500 
 24 H        0.5300     6.9210    -1.1300 H     1 <1>   0.0800 
 25 H        0.7290     7.1370     0.6160 H     1 <1>   0.0800 
 26 H        2.8070     6.7950    -0.4300 H     1 <1>   0.1500 
 27 H        1.3700     2.8030     0.1120 H     1 <1>   0.1500 
 28 H        5.0790     5.9410    -0.6090 H     1 <1>   0.1500 
 29 H        3.6500     1.9590    -0.0690 H     1 <1>   0.1500 
 30 H       -4.4280     6.9980    -0.3340 H     1 <1>   0.0800 
 31 H       -4.1570     6.6400     1.3640 H     1 <1>   0.0800 
 32 H       -3.7440     4.7240    -0.8220 H     1 <1>   0.4500 
 33 H        7.2730     2.1170    -0.4970 H     1 <1>   0.0800 
 34 H        5.7220     1.6270    -1.1700 H     1 <1>   0.0800 
 35 H        5.9230     1.7950     0.5850 H     1 <1>   0.0800 
 36 H       -6.0550     5.2570    -0.7740 H     1 <1>   0.0800 
 37 H       -6.0930     4.8890     0.9360 H     1 <1>   0.0800 
 38 H       -4.0250     4.0820     2.0240 H     1 <1>   0.0800 
 39 H       -2.4750     4.3270     1.2510 H     1 <1>   0.0800 
 40 H       -3.2910     1.9280     1.3720 H     1 <1>   0.0800 
 41 H       -2.7580     2.4800    -0.1840 H     1 <1>   0.0800 
 42 H       -7.8070     3.5300    -1.1040 H     1 <1>   0.1500 
 43 H       -4.3860     0.1340    -0.1380 H     1 <1>   0.1500 
 44 H       -8.2280     1.1820    -1.6170 H     1 <1>   0.1500 
 45 H       -6.5220    -0.5160    -1.1330 H     1 <1>   0.1500 
@<TRIPOS>BOND
  1   1   2  1   
  2   1   3  1   
  3   2   4  ar  
  4   2   5  ar  
  5   3   6  1   
  6   3  24  1   
  7   3  25  1   
  8   4   7  ar  
  9   4  26  1   
 10   5   8  ar  
 11   5  27  1   
 12   6   9  3   
 13   7  10  ar  
 14   7  28  1   
 15   8  10  ar  
 16   8  29  1   
 17   9  11  1   
 18  10  12  1   
 19  11  13  1   
 20  11  30  1   
 21  11  31  1   
 22  12  14  1   
 23  13  15  1   
 24  13  16  1   
 25  13  32  1   
 26  14  33  1   
 27  14  34  1   
 28  14  35  1   
 29  15  17  1   
 30  15  36  1   
 31  15  37  1   
 32  16  18  1   
 33  16  38  1   
 34  16  39  1   
 35  17  19  ar  
 36  17  20  ar  
 37  18  19  1   
 38  18  40  1   
 39  18  41  1   
 40  19  21  ar  
 41  20  22  ar  
 42  20  42  1   
 43  21  23  ar  
 44  21  43  1   
 45  22  23  ar  
 46  22  44  1   
 47  23  45  1   
@<TRIPOS>SUBSTRUCTURE
  1 ****   1 GROUP 4 **** **** 0

# MOE 2024.06 (io_trps.svl 2023.06)
