@<TRIPOS>MOLECULE
NONAME
49 51 1 0 0 
SMALL
USER_CHARGES


@<TRIPOS>ATOM
  1 CL       1.5680     3.1140     4.4000 Cl    1 <1>  -0.1770 
  2 C        1.6170     4.3910     3.2100 C.ar  1 <1>   0.1770 
  3 C        1.1760     5.6550     3.5530 C.ar  1 <1>  -0.1500 
  4 C        2.0950     4.1160     1.9420 C.ar  1 <1>  -0.1500 
  5 C        1.2170     6.6630     2.6050 C.ar  1 <1>  -0.1500 
  6 C        2.1350     5.1270     0.9950 C.ar  1 <1>  -0.1500 
  7 C        1.6960     6.4090     1.3280 C.ar  1 <1>   0.0830 
  8 O        1.7060     7.4550     0.4650 O.3   1 <1>  -0.3630 
  9 C        2.1670     7.3050    -0.8700 C.3   1 <1>   0.1810 
 10 C        2.0710     8.6160    -1.6530 C.2   1 <1>   0.5690 
 11 O        1.6180     8.5510    -2.7700 O.2   1 <1>  -0.5700 
 12 N        2.5000     9.8250    -1.1450 N.am  1 <1>  -0.6600 
 13 C        3.2460     9.9950     0.1420 C.3   1 <1>   0.1400 
 14 C        2.1610    11.1040    -1.8470 C.3   1 <1>   0.1400 
 15 C        4.4610    10.9280    -0.0310 C.3   1 <1>   0.3430 
 16 C        3.4020    11.9970    -2.0140 C.3   1 <1>   0.3430 
 17 N        4.1010    12.2280    -0.7040 N.4   1 <1>  -0.9590 
 18 C        5.2910    13.1120    -0.8580 C.3   1 <1>   0.4860 
 19 C        5.8600    13.3960     0.5200 C.ar  1 <1>  -0.1430 
 20 C        7.0770    12.8580     0.9320 C.ar  1 <1>  -0.1430 
 21 C        5.1360    14.2050     1.3860 C.ar  1 <1>  -0.1500 
 22 C        7.5340    13.1220     2.2150 C.ar  1 <1>  -0.1500 
 23 C        7.9420    11.9970     0.0200 C.3   1 <1>  -0.0970 
 24 C        5.6020    14.4620     2.6620 C.ar  1 <1>  -0.1500 
 25 C        6.8010    13.9150     3.0770 C.ar  1 <1>  -0.1500 
 26 H        0.8060     5.8410     4.5450 H     1 <1>   0.1500 
 27 H        2.4280     3.1220     1.7040 H     1 <1>   0.1500 
 28 H        0.8730     7.6520     2.8540 H     1 <1>   0.1500 
 29 H        2.5060     4.8910     0.0150 H     1 <1>   0.1500 
 30 H        1.5550     6.5640    -1.3520 H     1 <1>   0.0800 
 31 H        3.1880     6.9750    -0.8460 H     1 <1>   0.0800 
 32 H        3.6020     9.0470     0.5040 H     1 <1>   0.0800 
 33 H        2.5800    10.3970     0.8860 H     1 <1>   0.0800 
 34 H        1.4100    11.6270    -1.2810 H     1 <1>   0.0800 
 35 H        1.7450    10.9070    -2.8210 H     1 <1>   0.0800 
 36 H        5.2020    10.4130    -0.6190 H     1 <1>   0.0800 
 37 H        4.8920    11.1240     0.9390 H     1 <1>   0.0800 
 38 H        3.1000    12.9390    -2.4430 H     1 <1>   0.0800 
 39 H        4.0730    11.5160    -2.7070 H     1 <1>   0.0800 
 40 H        3.4580    12.7160    -0.0690 H     1 <1>   0.4500 
 41 H        5.0060    14.0430    -1.3210 H     1 <1>   0.0800 
 42 H        6.0310    12.6370    -1.4790 H     1 <1>   0.0800 
 43 H        4.2040    14.6520     1.0860 H     1 <1>   0.1500 
 44 H        8.4710    12.7160     2.5570 H     1 <1>   0.1500 
 45 H        8.2180    12.5480    -0.8610 H     1 <1>   0.0800 
 46 H        7.4250    11.1000    -0.2670 H     1 <1>   0.0800 
 47 H        8.8510    11.7070     0.5180 H     1 <1>   0.0800 
 48 H        5.0400    15.0890     3.3340 H     1 <1>   0.1500 
 49 H        7.1680    14.1130     4.0700 H     1 <1>   0.1500 
@<TRIPOS>BOND
  1   1   2  1   
  2   2   3  ar  
  3   2   4  ar  
  4   3   5  ar  
  5   3  26  1   
  6   4   6  ar  
  7   4  27  1   
  8   5   7  ar  
  9   5  28  1   
 10   6   7  ar  
 11   6  29  1   
 12   7   8  1   
 13   8   9  1   
 14   9  10  1   
 15   9  30  1   
 16   9  31  1   
 17  10  11  2   
 18  10  12  am  
 19  12  13  1   
 20  12  14  1   
 21  13  15  1   
 22  13  32  1   
 23  13  33  1   
 24  14  16  1   
 25  14  34  1   
 26  14  35  1   
 27  15  17  1   
 28  15  36  1   
 29  15  37  1   
 30  16  17  1   
 31  16  38  1   
 32  16  39  1   
 33  17  18  1   
 34  17  40  1   
 35  18  19  1   
 36  18  41  1   
 37  18  42  1   
 38  19  20  ar  
 39  19  21  ar  
 40  20  22  ar  
 41  20  23  1   
 42  21  24  ar  
 43  21  43  1   
 44  22  25  ar  
 45  22  44  1   
 46  23  45  1   
 47  23  46  1   
 48  23  47  1   
 49  24  25  ar  
 50  24  48  1   
 51  25  49  1   
@<TRIPOS>SUBSTRUCTURE
  1 ****  13 GROUP 4 **** **** 0

# MOE 2024.06 (io_trps.svl 2023.06)
