@<TRIPOS>MOLECULE
NONAME
50 51 1 0 0 
SMALL
USER_CHARGES


@<TRIPOS>ATOM
  1 S        0.7140     0.0130    -1.6880 S.o2  1 <1>   1.4470 
  2 O        1.4230     1.2340    -2.0040 O.2   1 <1>  -0.6500 
  3 O        0.6730    -1.0370    -2.6810 O.2   1 <1>  -0.6500 
  4 N        1.4790    -0.6290    -0.2800 N.am  1 <1>  -0.6930 
  5 C       -0.9540     0.4830    -1.1410 C.ar  1 <1>  -0.0090 
  6 C        1.0900    -1.8480     0.1880 C.ar  1 <1>   0.8190 
  7 C        2.6670     0.0780     0.2560 C.3   1 <1>   0.1960 
  8 C       -2.0840    -0.1670    -1.6260 C.ar  1 <1>  -0.1500 
  9 C       -1.1440     1.5030    -0.2170 C.ar  1 <1>  -0.1500 
 10 N        2.0190    -2.5880     0.7840 N.ar  1 <1>  -0.6200 
 11 N       -0.1910    -2.1720     0.0430 N.ar  1 <1>  -0.6200 
 12 C        3.9220    -0.2780    -0.5540 C.3   1 <1>  -0.1600 
 13 C       -3.3540     0.1870    -1.2050 C.ar  1 <1>  -0.1500 
 14 C       -2.4110     1.8620     0.2100 C.ar  1 <1>  -0.1500 
 15 C        1.6180    -3.7540     1.2350 C.ar  1 <1>   0.3930 
 16 C       -0.5680    -3.3370     0.5050 C.ar  1 <1>   0.1670 
 17 C        5.1820     0.4600    -0.0680 C.3   1 <1>  -0.0800 
 18 C       -3.5250     1.2040    -0.2820 C.ar  1 <1>  -0.1430 
 19 O        2.5000    -4.5730     1.8370 O.3   1 <1>  -0.3630 
 20 C        0.3180    -4.1820     1.1190 C.ar  1 <1>  -0.1500 
 21 C       -2.0250    -3.7030     0.3270 C.3   1 <1>  -0.0970 
 22 C        6.3490     0.1670    -1.0190 C.3   1 <1>  -0.2400 
 23 C        5.5740     0.0550     1.3600 C.3   1 <1>  -0.2400 
 24 C       -4.9160     1.5960     0.1820 C.3   1 <1>  -0.0970 
 25 C        3.8620    -4.2120     1.9650 C.3   1 <1>   0.0400 
 26 H        2.8040    -0.1970     1.2880 H     1 <1>   0.0800 
 27 H        2.5010     1.1410     0.2250 H     1 <1>   0.0800 
 28 H       -1.9630    -0.9650    -2.3390 H     1 <1>   0.1500 
 29 H       -0.2870     2.0260     0.1720 H     1 <1>   0.1500 
 30 H        3.7510    -0.0190    -1.5840 H     1 <1>   0.0800 
 31 H        4.0910    -1.3400    -0.5040 H     1 <1>   0.0800 
 32 H       -4.2080    -0.3350    -1.6000 H     1 <1>   0.1500 
 33 H       -2.5250     2.6570     0.9250 H     1 <1>   0.1500 
 34 H        4.9930     1.5210    -0.0890 H     1 <1>   0.0800 
 35 H        0.0300    -5.1410     1.5010 H     1 <1>   0.1500 
 36 H       -2.6430    -2.9570     0.7930 H     1 <1>   0.0800 
 37 H       -2.2410    -4.6590     0.7660 H     1 <1>   0.0800 
 38 H       -2.2600    -3.7390    -0.7220 H     1 <1>   0.0800 
 39 H        6.5730    -0.8850    -1.0320 H     1 <1>   0.0800 
 40 H        7.2290     0.7030    -0.7090 H     1 <1>   0.0800 
 41 H        6.1020     0.4780    -2.0190 H     1 <1>   0.0800 
 42 H        5.7080    -1.0110     1.4260 H     1 <1>   0.0800 
 43 H        4.8230     0.3540     2.0670 H     1 <1>   0.0800 
 44 H        6.4970     0.5320     1.6400 H     1 <1>   0.0800 
 45 H       -5.5780     0.7490     0.1460 H     1 <1>   0.0800 
 46 H       -5.3060     2.3690    -0.4550 H     1 <1>   0.0800 
 47 H       -4.8860     1.9600     1.1930 H     1 <1>   0.0800 
 48 H        4.3790    -5.0120     2.4640 H     1 <1>   0.0800 
 49 H        3.9300    -3.3080     2.5450 H     1 <1>   0.0800 
 50 H        4.2750    -4.0600     0.9830 H     1 <1>   0.0800 
@<TRIPOS>BOND
  1   1   2  2   
  2   1   3  2   
  3   1   4  am  
  4   1   5  1   
  5   4   6  1   
  6   4   7  1   
  7   5   8  ar  
  8   5   9  ar  
  9   6  10  ar  
 10   6  11  ar  
 11   7  12  1   
 12   7  26  1   
 13   7  27  1   
 14   8  13  ar  
 15   8  28  1   
 16   9  14  ar  
 17   9  29  1   
 18  10  15  ar  
 19  11  16  ar  
 20  12  17  1   
 21  12  30  1   
 22  12  31  1   
 23  13  18  ar  
 24  13  32  1   
 25  14  18  ar  
 26  14  33  1   
 27  15  19  1   
 28  15  20  ar  
 29  16  20  ar  
 30  16  21  1   
 31  17  22  1   
 32  17  23  1   
 33  17  34  1   
 34  18  24  1   
 35  19  25  1   
 36  20  35  1   
 37  21  36  1   
 38  21  37  1   
 39  21  38  1   
 40  22  39  1   
 41  22  40  1   
 42  22  41  1   
 43  23  42  1   
 44  23  43  1   
 45  23  44  1   
 46  24  45  1   
 47  24  46  1   
 48  24  47  1   
 49  25  48  1   
 50  25  49  1   
 51  25  50  1   
@<TRIPOS>SUBSTRUCTURE
  1 ****   4 GROUP 4 **** **** 0

# MOE 2024.06 (io_trps.svl 2023.06)
