@<TRIPOS>MOLECULE
NONAME
33 33 1 0 0 
SMALL
USER_CHARGES


@<TRIPOS>ATOM
  1 O        0.4200    -0.2050     1.4770 O.2   1 <1>  -0.5700 
  2 C        1.1070    -0.6370     0.5710 C.2   1 <1>   0.6340 
  3 O        1.7560     0.2300    -0.2160 O.3   1 <1>  -0.4300 
  4 C        1.2300    -2.0430     0.2660 C.ar  1 <1>   0.0860 
  5 C        1.7380     1.6190     0.0420 C.3   1 <1>   0.0400 
  6 C        2.4710    -2.6890     0.3770 C.ar  1 <1>   0.0820 
  7 C        0.1250    -2.8030    -0.1470 C.ar  1 <1>  -0.1440 
  8 O        3.5430    -1.9660     0.7600 O.3   1 <1>  -0.3630 
  9 C        2.6140    -4.0530     0.1260 C.ar  1 <1>  -0.1430 
 10 C        0.2690    -4.1480    -0.4280 C.ar  1 <1>  -0.1500 
 11 C       -1.2500    -2.1610    -0.2970 C.3   1 <1>  -0.0970 
 12 C        4.4100    -1.5170    -0.2570 C.3   1 <1>   0.2580 
 13 C        1.5010    -4.7680    -0.2940 C.ar  1 <1>   0.0820 
 14 C        3.9500    -4.7710     0.3170 C.3   1 <1>  -0.0960 
 15 C        5.3780    -0.5240     0.3560 C.2   1 <1>  -0.2880 
 16 O        1.5950    -6.0750    -0.5790 O.3   1 <1>  -0.5320 
 17 C        5.5510     0.7380    -0.0500 C.2   1 <1>  -0.3000 
 18 H        2.3230     2.1130    -0.7120 H     1 <1>   0.0800 
 19 H        2.1630     1.7930     1.0150 H     1 <1>   0.0800 
 20 H        0.7200     1.9660     0.0120 H     1 <1>   0.0800 
 21 H       -0.5790    -4.7240    -0.7490 H     1 <1>   0.1500 
 22 H       -1.1950    -1.3050    -0.9450 H     1 <1>   0.0800 
 23 H       -1.6120    -1.8420     0.6650 H     1 <1>   0.0800 
 24 H       -1.9610    -2.8520    -0.7120 H     1 <1>   0.0800 
 25 H        3.8260    -1.0560    -1.0330 H     1 <1>   0.0800 
 26 H        4.9370    -2.3630    -0.6580 H     1 <1>   0.0800 
 27 H        4.5940    -4.2340     0.9890 H     1 <1>   0.0800 
 28 H        4.4440    -4.8800    -0.6320 H     1 <1>   0.0800 
 29 H        3.7930    -5.7490     0.7360 H     1 <1>   0.0800 
 30 H        5.9230    -0.9500     1.1810 H     1 <1>   0.1500 
 31 H        0.7520    -6.4800    -0.8460 H     1 <1>   0.4500 
 32 H        6.2440     1.4250     0.4060 H     1 <1>   0.1500 
 33 H        5.0160     1.1900    -0.8670 H     1 <1>   0.1500 
@<TRIPOS>BOND
  1   1   2  2   
  2   2   3  1   
  3   2   4  1   
  4   3   5  1   
  5   4   6  ar  
  6   4   7  ar  
  7   5  18  1   
  8   5  19  1   
  9   5  20  1   
 10   6   8  1   
 11   6   9  ar  
 12   7  10  ar  
 13   7  11  1   
 14   8  12  1   
 15   9  13  ar  
 16   9  14  1   
 17  10  13  ar  
 18  10  21  1   
 19  11  22  1   
 20  11  23  1   
 21  11  24  1   
 22  12  15  1   
 23  12  25  1   
 24  12  26  1   
 25  13  16  1   
 26  14  27  1   
 27  14  28  1   
 28  14  29  1   
 29  15  17  2   
 30  15  30  1   
 31  16  31  1   
 32  17  32  1   
 33  17  33  1   
@<TRIPOS>SUBSTRUCTURE
  1 ****   6 GROUP 4 **** **** 0

# MOE 2024.06 (io_trps.svl 2023.06)
