@<TRIPOS>MOLECULE
NONAME
46 49 1 0 0 
SMALL
USER_CHARGES


@<TRIPOS>ATOM
  1 F       -0.9210     2.0210    -2.4330 F     1 <1>  -0.1900 
  2 C       -0.6720     2.4510    -1.2220 C.ar  1 <1>   0.1900 
  3 C       -1.6780     2.4280    -0.2650 C.ar  1 <1>   0.0830 
  4 C        0.5980     2.9200    -0.9430 C.ar  1 <1>  -0.1500 
  5 O       -2.9090     1.9450    -0.5840 O.3   1 <1>  -0.1650 
  6 C       -1.3840     2.8820     1.0160 C.ar  1 <1>  -0.1500 
  7 C        0.8750     3.3760     0.3360 C.ar  1 <1>  -0.1500 
  8 C       -4.0590     2.6140    -0.3690 C.ar  1 <1>   0.7020 
  9 C       -0.1140     3.3560     1.3100 C.ar  1 <1>  -0.1500 
 10 N       -5.1390     1.8940    -0.4690 N.ar  1 <1>  -0.6200 
 11 N       -4.0000     3.8880    -0.0890 N.ar  1 <1>  -0.6200 
 12 C       -6.2470     2.5600    -0.2560 C.ar  1 <1>   0.7200 
 13 C       -5.1660     4.4500     0.1000 C.ar  1 <1>   0.7200 
 14 N       -6.3150     3.8330     0.0310 N.ar  1 <1>  -0.6200 
 15 N       -7.4310     1.8630    -0.3440 N.pl3 1 <1>  -0.8380 
 16 N       -5.1780     5.7960     0.3940 N.pl3 1 <1>  -0.8380 
 17 C       -7.5370     0.4710    -0.8890 C.3   1 <1>   0.2090 
 18 C       -8.7590     2.4450     0.0300 C.3   1 <1>   0.2090 
 19 C       -6.4070     6.6440     0.2880 C.3   1 <1>   0.2090 
 20 C       -3.9380     6.6220     0.5550 C.3   1 <1>   0.2090 
 21 C       -8.4280    -0.4020     0.0110 C.3   1 <1>   0.1200 
 22 C       -9.5760     1.4500     0.8710 C.3   1 <1>   0.1200 
 23 C       -6.2130     7.7390    -0.7760 C.3   1 <1>   0.1200 
 24 C       -3.8780     7.7140    -0.5280 C.3   1 <1>   0.1200 
 25 O       -9.6710     0.2060     0.2340 O.3   1 <1>  -0.5600 
 26 O       -5.0510     8.4840    -0.5300 O.3   1 <1>  -0.5600 
 27 H        1.3510     2.9260    -1.7110 H     1 <1>   0.1500 
 28 H       -2.1440     2.8680     1.7780 H     1 <1>   0.1500 
 29 H        1.8580     3.7460     0.5750 H     1 <1>   0.1500 
 30 H        0.1060     3.7090     2.3030 H     1 <1>   0.1500 
 31 H       -6.5720     0.0050    -0.9730 H     1 <1>   0.0800 
 32 H       -7.9670     0.5130    -1.8740 H     1 <1>   0.0800 
 33 H       -9.3040     2.6830    -0.8660 H     1 <1>   0.0800 
 34 H       -8.6400     3.3520     0.5960 H     1 <1>   0.0800 
 35 H       -6.5990     7.1050     1.2400 H     1 <1>   0.0800 
 36 H       -7.2710     6.0590     0.0280 H     1 <1>   0.0800 
 37 H       -3.0470     6.0230     0.5010 H     1 <1>   0.0800 
 38 H       -3.9530     7.0900     1.5230 H     1 <1>   0.0800 
 39 H       -7.9500    -0.5690     0.9600 H     1 <1>   0.0800 
 40 H       -8.6070    -1.3530    -0.4580 H     1 <1>   0.0800 
 41 H      -10.5750     1.8210     1.0160 H     1 <1>   0.0800 
 42 H       -9.1160     1.3090     1.8340 H     1 <1>   0.0800 
 43 H       -7.0460     8.4180    -0.7650 H     1 <1>   0.0800 
 44 H       -6.1380     7.2980    -1.7550 H     1 <1>   0.0800 
 45 H       -3.7550     7.2690    -1.5000 H     1 <1>   0.0800 
 46 H       -3.0510     8.3750    -0.3410 H     1 <1>   0.0800 
@<TRIPOS>BOND
  1   1   2  1   
  2   2   3  ar  
  3   2   4  ar  
  4   3   5  1   
  5   3   6  ar  
  6   4   7  ar  
  7   4  27  1   
  8   5   8  1   
  9   6   9  ar  
 10   6  28  1   
 11   7   9  ar  
 12   7  29  1   
 13   8  10  ar  
 14   8  11  ar  
 15   9  30  1   
 16  10  12  ar  
 17  11  13  ar  
 18  12  14  ar  
 19  12  15  1   
 20  13  14  ar  
 21  13  16  1   
 22  15  17  1   
 23  15  18  1   
 24  16  19  1   
 25  16  20  1   
 26  17  21  1   
 27  17  31  1   
 28  17  32  1   
 29  18  22  1   
 30  18  33  1   
 31  18  34  1   
 32  19  23  1   
 33  19  35  1   
 34  19  36  1   
 35  20  24  1   
 36  20  37  1   
 37  20  38  1   
 38  21  25  1   
 39  21  39  1   
 40  21  40  1   
 41  22  25  1   
 42  22  41  1   
 43  22  42  1   
 44  23  26  1   
 45  23  43  1   
 46  23  44  1   
 47  24  26  1   
 48  24  45  1   
 49  24  46  1   
@<TRIPOS>SUBSTRUCTURE
  1 ****  11 GROUP 4 **** **** 0

# MOE 2024.06 (io_trps.svl 2023.06)
