@<TRIPOS>MOLECULE
NONAME
44 46 1 0 0 
SMALL
USER_CHARGES


@<TRIPOS>ATOM
  1 S        0.4830    -0.6830    -1.2840 S.o2  1 <1>   1.4470 
  2 O        0.0790     0.5510    -1.9220 O.2   1 <1>  -0.6500 
  3 O        0.6240    -1.8670    -2.1050 O.2   1 <1>  -0.6500 
  4 N       -0.6970    -1.0430    -0.1240 N.am  1 <1>  -0.8490 
  5 C        1.9850    -0.4320    -0.2810 C.ar  1 <1>  -0.0090 
  6 C       -0.5100    -2.3160     0.5530 C.3   1 <1>   0.1960 
  7 C       -2.0350    -1.0930    -0.6800 C.3   1 <1>   0.1960 
  8 C        2.1830     0.6760     0.5480 C.ar  1 <1>  -0.1440 
  9 C        2.9800    -1.4020    -0.3100 C.ar  1 <1>  -0.1500 
 10 C       -1.8530    -2.5850     1.2190 C.3   1 <1>  -0.1600 
 11 C       -2.8660    -1.8010     0.3830 C.3   1 <1>  -0.1600 
 12 C        3.3430     0.7860     1.3000 C.ar  1 <1>  -0.1500 
 13 C        1.1460     1.7880     0.6630 C.3   1 <1>  -0.0970 
 14 C        4.1520    -1.3130     0.4340 C.ar  1 <1>   0.0860 
 15 C        4.3110    -0.1960     1.2460 C.ar  1 <1>  -0.1500 
 16 C        5.1530    -2.3600     0.3650 C.2   1 <1>   0.5440 
 17 O        4.8250    -3.5150     0.5620 O.2   1 <1>  -0.5700 
 18 N        6.4670    -2.0820     0.0700 N.am  1 <1>  -0.6600 
 19 C        6.9560    -0.8150    -0.5170 C.3   1 <1>   0.1400 
 20 C        7.4890    -3.1450    -0.0350 C.3   1 <1>   0.1400 
 21 C        8.2220    -1.2040    -1.2720 C.3   1 <1>  -0.1600 
 22 C        8.7420    -2.4370    -0.5380 C.3   1 <1>  -0.1600 
 23 H        0.2920    -2.2630     1.2710 H     1 <1>   0.0800 
 24 H       -0.3030    -3.0960    -0.1630 H     1 <1>   0.0800 
 25 H       -2.0330    -1.6720    -1.5900 H     1 <1>   0.0800 
 26 H       -2.4020    -0.1010    -0.8890 H     1 <1>   0.0800 
 27 H        2.8510    -2.2730    -0.9310 H     1 <1>   0.1500 
 28 H       -1.8340    -2.2110     2.2270 H     1 <1>   0.0800 
 29 H       -2.0680    -3.6390     1.2370 H     1 <1>   0.0800 
 30 H       -3.5970    -2.4450    -0.0750 H     1 <1>   0.0800 
 31 H       -3.3720    -1.0740     0.9930 H     1 <1>   0.0800 
 32 H        3.4970     1.6390     1.9390 H     1 <1>   0.1500 
 33 H        1.0850     2.3340    -0.2620 H     1 <1>   0.0800 
 34 H        1.4010     2.4800     1.4450 H     1 <1>   0.0800 
 35 H        0.1770     1.3800     0.8890 H     1 <1>   0.0800 
 36 H        5.2020    -0.1050     1.8430 H     1 <1>   0.1500 
 37 H        7.1930    -0.1280     0.2760 H     1 <1>   0.0800 
 38 H        6.2240    -0.3780    -1.1750 H     1 <1>   0.0800 
 39 H        7.1570    -3.8830    -0.7460 H     1 <1>   0.0800 
 40 H        7.6490    -3.6140     0.9210 H     1 <1>   0.0800 
 41 H        8.9400    -0.4040    -1.2920 H     1 <1>   0.0800 
 42 H        7.9590    -1.4660    -2.2830 H     1 <1>   0.0800 
 43 H        9.3320    -3.0750    -1.1720 H     1 <1>   0.0800 
 44 H        9.3360    -2.1370     0.3070 H     1 <1>   0.0800 
@<TRIPOS>BOND
  1   1   2  2   
  2   1   3  2   
  3   1   4  am  
  4   1   5  1   
  5   4   6  1   
  6   4   7  1   
  7   5   8  ar  
  8   5   9  ar  
  9   6  10  1   
 10   6  23  1   
 11   6  24  1   
 12   7  11  1   
 13   7  25  1   
 14   7  26  1   
 15   8  12  ar  
 16   8  13  1   
 17   9  14  ar  
 18   9  27  1   
 19  10  11  1   
 20  10  28  1   
 21  10  29  1   
 22  11  30  1   
 23  11  31  1   
 24  12  15  ar  
 25  12  32  1   
 26  13  33  1   
 27  13  34  1   
 28  13  35  1   
 29  14  15  ar  
 30  14  16  1   
 31  15  36  1   
 32  16  17  2   
 33  16  18  am  
 34  18  19  1   
 35  18  20  1   
 36  19  21  1   
 37  19  37  1   
 38  19  38  1   
 39  20  22  1   
 40  20  39  1   
 41  20  40  1   
 42  21  22  1   
 43  21  41  1   
 44  21  42  1   
 45  22  43  1   
 46  22  44  1   
@<TRIPOS>SUBSTRUCTURE
  1 ****   9 GROUP 4 **** **** 0

# MOE 2024.06 (io_trps.svl 2023.06)
