@<TRIPOS>MOLECULE
NONAME
52 54 1 0 0 
SMALL
USER_CHARGES


@<TRIPOS>ATOM
  1 CL       2.3600    -0.1890     2.8220 Cl    1 <1>  -0.1770 
  2 C        3.5290    -1.0810     1.8700 C.ar  1 <1>   0.1770 
  3 C        4.8570    -1.1450     2.2700 C.ar  1 <1>  -0.1440 
  4 C        3.0910    -1.7130     0.7210 C.ar  1 <1>  -0.1500 
  5 C        5.7480    -1.8620     1.4880 C.ar  1 <1>  -0.1500 
  6 C        5.3300    -0.4460     3.5360 C.3   1 <1>  -0.0960 
  7 C        3.9940    -2.4240    -0.0480 C.ar  1 <1>  -0.1500 
  8 C        5.3290    -2.5050     0.3260 C.ar  1 <1>   0.1000 
  9 N        6.2150    -3.2280    -0.4650 N.pl3 1 <1>  -0.8380 
 10 C        6.7050    -4.5120     0.1150 C.3   1 <1>   0.2090 
 11 C        7.2920    -2.4370    -1.1330 C.3   1 <1>   0.2090 
 12 C        7.4190    -5.3610    -0.9600 C.3   1 <1>   0.3430 
 13 C        7.9920    -3.2840    -2.2150 C.3   1 <1>   0.3430 
 14 N        8.5030    -4.5940    -1.6690 N.4   1 <1>  -0.9590 
 15 C        9.2450    -5.4020    -2.6790 C.3   1 <1>   0.3430 
 16 C       10.6980    -4.9040    -2.8550 C.3   1 <1>   0.1400 
 17 N       11.5100    -5.0300    -1.6040 N.am  1 <1>  -0.7300 
 18 C       11.5050    -4.1530    -0.5690 C.2   1 <1>   0.6900 
 19 O       10.6150    -3.3270    -0.4970 O.2   1 <1>  -0.5700 
 20 N       12.4690    -4.2700     0.3840 N.am  1 <1>  -0.5470 
 21 C       12.6970    -3.5010     1.5330 C.ar  1 <1>   0.1170 
 22 C       12.3860    -2.1460     1.6060 C.ar  1 <1>  -0.1500 
 23 C       13.2740    -4.1080     2.6430 C.ar  1 <1>  -0.1500 
 24 C       12.6360    -1.4220     2.7580 C.ar  1 <1>  -0.1500 
 25 C       13.5260    -3.3870     3.7960 C.ar  1 <1>  -0.1500 
 26 C       13.2060    -2.0420     3.8560 C.ar  1 <1>  -0.1500 
 27 H        2.0570    -1.6460     0.4370 H     1 <1>   0.1500 
 28 H        6.7810    -1.9270     1.7750 H     1 <1>   0.1500 
 29 H        5.1400     0.6100     3.4650 H     1 <1>   0.0800 
 30 H        6.3840    -0.5940     3.6900 H     1 <1>   0.0800 
 31 H        4.8020    -0.8360     4.3890 H     1 <1>   0.0800 
 32 H        3.6720    -2.9210    -0.9450 H     1 <1>   0.1500 
 33 H        5.8690    -5.0640     0.5110 H     1 <1>   0.0800 
 34 H        7.3830    -4.3090     0.9260 H     1 <1>   0.0800 
 35 H        8.0160    -2.1140    -0.4040 H     1 <1>   0.0800 
 36 H        6.8600    -1.5610    -1.5850 H     1 <1>   0.0800 
 37 H        6.6810    -5.6850    -1.6740 H     1 <1>   0.0800 
 38 H        7.8370    -6.2360    -0.4910 H     1 <1>   0.0800 
 39 H        8.8120    -2.7130    -2.6190 H     1 <1>   0.0800 
 40 H        7.2870    -3.4700    -3.0080 H     1 <1>   0.0800 
 41 H        9.2090    -4.3110    -0.9560 H     1 <1>   0.4500 
 42 H        8.7300    -5.3630    -3.6250 H     1 <1>   0.0800 
 43 H        9.2810    -6.4320    -2.3650 H     1 <1>   0.0800 
 44 H       10.6940    -3.8770    -3.1780 H     1 <1>   0.0800 
 45 H       11.1700    -5.4840    -3.6290 H     1 <1>   0.0800 
 46 H       12.3370    -5.6230    -1.6960 H     1 <1>   0.3700 
 47 H       13.0710    -5.0820     0.2970 H     1 <1>   0.3700 
 48 H       11.9530    -1.6470     0.7590 H     1 <1>   0.1500 
 49 H       13.5280    -5.1510     2.6130 H     1 <1>   0.1500 
 50 H       12.3900    -0.3750     2.8000 H     1 <1>   0.1500 
 51 H       13.9720    -3.8690     4.6500 H     1 <1>   0.1500 
 52 H       13.4000    -1.4790     4.7520 H     1 <1>   0.1500 
@<TRIPOS>BOND
  1   1   2  1   
  2   2   3  ar  
  3   2   4  ar  
  4   3   5  ar  
  5   3   6  1   
  6   4   7  ar  
  7   4  27  1   
  8   5   8  ar  
  9   5  28  1   
 10   6  29  1   
 11   6  30  1   
 12   6  31  1   
 13   7   8  ar  
 14   7  32  1   
 15   8   9  1   
 16   9  10  1   
 17   9  11  1   
 18  10  12  1   
 19  10  33  1   
 20  10  34  1   
 21  11  13  1   
 22  11  35  1   
 23  11  36  1   
 24  12  14  1   
 25  12  37  1   
 26  12  38  1   
 27  13  14  1   
 28  13  39  1   
 29  13  40  1   
 30  14  15  1   
 31  14  41  1   
 32  15  16  1   
 33  15  42  1   
 34  15  43  1   
 35  16  17  1   
 36  16  44  1   
 37  16  45  1   
 38  17  18  am  
 39  17  46  1   
 40  18  19  2   
 41  18  20  am  
 42  20  21  1   
 43  20  47  1   
 44  21  22  ar  
 45  21  23  ar  
 46  22  24  ar  
 47  22  48  1   
 48  23  25  ar  
 49  23  49  1   
 50  24  26  ar  
 51  24  50  1   
 52  25  26  ar  
 53  25  51  1   
 54  26  52  1   
@<TRIPOS>SUBSTRUCTURE
  1 ****  11 GROUP 4 **** **** 0

# MOE 2024.06 (io_trps.svl 2023.06)
