@<TRIPOS>MOLECULE
NONAME
32 32 1 0 0 
SMALL
USER_CHARGES


@<TRIPOS>ATOM
  1 CL      -1.5040     0.4440     1.1880 Cl    1 <1>  -0.1770 
  2 C       -0.7020     1.9000     0.6630 C.ar  1 <1>   0.1770 
  3 C        0.5140     2.2390     1.2260 C.ar  1 <1>  -0.1500 
  4 C       -1.2910     2.6900    -0.3050 C.ar  1 <1>  -0.1500 
  5 C        1.1600     3.3950     0.8130 C.ar  1 <1>  -0.1440 
  6 C       -0.6490     3.8440    -0.7220 C.ar  1 <1>  -0.1500 
  7 C        0.5790     4.2010    -0.1660 C.ar  1 <1>   0.0830 
  8 C        2.4880     3.7820     1.4270 C.3   1 <1>   0.4870 
  9 O        1.2620     5.3160    -0.5430 O.3   1 <1>  -0.3630 
 10 N        3.4840     3.7930     0.3390 N.4   1 <1>  -0.9060 
 11 C        0.6440     6.3160    -1.3320 C.3   1 <1>   0.0400 
 12 C        4.8240     4.2780     0.7700 C.3   1 <1>   0.3430 
 13 C        5.8070     4.3430    -0.4020 C.3   1 <1>   0.1200 
 14 O        7.0160     4.7860     0.1100 O.3   1 <1>  -0.5600 
 15 C        8.0330     4.9100    -0.8350 C.3   1 <1>   0.0400 
 16 H        0.9270     1.5920     1.9810 H     1 <1>   0.1500 
 17 H       -2.2390     2.4010    -0.7240 H     1 <1>   0.1500 
 18 H       -1.1230     4.4430    -1.4780 H     1 <1>   0.1500 
 19 H        2.7700     3.0770     2.1920 H     1 <1>   0.0800 
 20 H        2.4050     4.7640     1.8670 H     1 <1>   0.0800 
 21 H        3.0750     4.4170    -0.3770 H     1 <1>   0.4500 
 22 H        3.5280     2.8560    -0.0770 H     1 <1>   0.4500 
 23 H        1.3210     7.1470    -1.4190 H     1 <1>   0.0800 
 24 H       -0.2620     6.6370    -0.8480 H     1 <1>   0.0800 
 25 H        0.4340     5.9160    -2.3090 H     1 <1>   0.0800 
 26 H        5.2280     3.6170     1.5200 H     1 <1>   0.0800 
 27 H        4.7350     5.2650     1.1950 H     1 <1>   0.0800 
 28 H        5.4740     5.0460    -1.1460 H     1 <1>   0.0800 
 29 H        5.9580     3.3690    -0.8350 H     1 <1>   0.0800 
 30 H        8.9190     5.2570    -0.3310 H     1 <1>   0.0800 
 31 H        7.7430     5.6270    -1.5840 H     1 <1>   0.0800 
 32 H        8.2280     3.9500    -1.2830 H     1 <1>   0.0800 
@<TRIPOS>BOND
  1   1   2  1   
  2   2   3  ar  
  3   2   4  ar  
  4   3   5  ar  
  5   3  16  1   
  6   4   6  ar  
  7   4  17  1   
  8   5   7  ar  
  9   5   8  1   
 10   6   7  ar  
 11   6  18  1   
 12   7   9  1   
 13   8  10  1   
 14   8  19  1   
 15   8  20  1   
 16   9  11  1   
 17  10  12  1   
 18  10  21  1   
 19  10  22  1   
 20  11  23  1   
 21  11  24  1   
 22  11  25  1   
 23  12  13  1   
 24  12  26  1   
 25  12  27  1   
 26  13  14  1   
 27  13  28  1   
 28  13  29  1   
 29  14  15  1   
 30  15  30  1   
 31  15  31  1   
 32  15  32  1   
@<TRIPOS>SUBSTRUCTURE
  1 ****   5 GROUP 4 **** **** 0

# MOE 2024.06 (io_trps.svl 2023.06)
