@<TRIPOS>MOLECULE
NONAME
49 50 1 0 0 
SMALL
USER_CHARGES


@<TRIPOS>ATOM
  1 O      -11.6790     0.4250    -0.8940 O.3   1 <1>  -0.3630 
  2 C      -12.8690     0.2100    -0.2740 C.ar  1 <1>   0.0830 
  3 C      -10.5590     0.3680    -0.0540 C.3   1 <1>   0.1200 
  4 C      -13.4050    -1.0770    -0.2420 C.ar  1 <1>   0.0830 
  5 C      -13.5480     1.2800     0.3100 C.ar  1 <1>   0.0830 
  6 C       -9.3350     0.7210    -0.8970 C.3   1 <1>  -0.1600 
  7 O      -12.6890    -2.0890    -0.8140 O.3   1 <1>  -0.3630 
  8 C      -14.6370    -1.2840     0.3730 C.ar  1 <1>  -0.1500 
  9 O      -12.9680     2.5160     0.2630 O.3   1 <1>  -0.3620 
 10 C      -14.7780     1.0510     0.9200 C.ar  1 <1>  -0.1500 
 11 C       -8.0510     0.7150    -0.0580 C.3   1 <1>  -0.1600 
 12 C      -13.2680    -3.3540    -1.0460 C.3   1 <1>   0.0400 
 13 C      -15.3160    -0.2240     0.9480 C.ar  1 <1>  -0.1500 
 14 C      -13.6940     3.6770     0.6010 C.3   1 <1>   0.0400 
 15 C       -6.8510     1.0950    -0.9260 C.3   1 <1>   0.3430 
 16 N       -5.6220     1.2130    -0.0960 N.4   1 <1>  -0.9590 
 17 C       -4.5640     1.9580    -0.8380 C.3   1 <1>   0.3430 
 18 C       -5.1250    -0.1170     0.3730 C.3   1 <1>   0.3430 
 19 C       -3.3620     2.2000     0.0770 C.3   1 <1>  -0.1600 
 20 C       -3.9340     0.0790     1.3130 C.3   1 <1>  -0.1600 
 21 C       -2.8110     0.8870     0.6500 C.3   1 <1>  -0.1600 
 22 H      -10.4920    -0.6300     0.3450 H     1 <1>   0.0800 
 23 H      -10.7010     1.0750     0.7450 H     1 <1>   0.0800 
 24 H       -9.4890     1.6980    -1.3230 H     1 <1>   0.0800 
 25 H       -9.2550     0.0040    -1.6970 H     1 <1>   0.0800 
 26 H      -15.0810    -2.2600     0.4190 H     1 <1>   0.1500 
 27 H      -15.3290     1.8480     1.3810 H     1 <1>   0.1500 
 28 H       -7.9190    -0.2680     0.3590 H     1 <1>   0.0800 
 29 H       -8.1590     1.4250     0.7440 H     1 <1>   0.0800 
 30 H      -12.5600    -3.9480    -1.5950 H     1 <1>   0.0800 
 31 H      -14.1650    -3.2260    -1.6250 H     1 <1>   0.0800 
 32 H      -13.4800    -3.8200    -0.1000 H     1 <1>   0.0800 
 33 H      -16.2680    -0.3920     1.4220 H     1 <1>   0.1500 
 34 H      -13.0750     4.5300     0.3880 H     1 <1>   0.0800 
 35 H      -13.9290     3.6490     1.6490 H     1 <1>   0.0800 
 36 H      -14.5880     3.7150     0.0040 H     1 <1>   0.0800 
 37 H       -7.0580     2.0420    -1.3990 H     1 <1>   0.0800 
 38 H       -6.7090     0.3590    -1.7010 H     1 <1>   0.0800 
 39 H       -5.8520     1.7670     0.7390 H     1 <1>   0.4500 
 40 H       -4.9490     2.9060    -1.1810 H     1 <1>   0.0800 
 41 H       -4.2510     1.3880    -1.6990 H     1 <1>   0.0800 
 42 H       -4.8210    -0.7110    -0.4740 H     1 <1>   0.0800 
 43 H       -5.9050    -0.6450     0.8950 H     1 <1>   0.0800 
 44 H       -3.6490     2.8590     0.8780 H     1 <1>   0.0800 
 45 H       -2.5870     2.6950    -0.4830 H     1 <1>   0.0800 
 46 H       -3.5530    -0.8850     1.6030 H     1 <1>   0.0800 
 47 H       -4.2640     0.5750     2.2090 H     1 <1>   0.0800 
 48 H       -2.0370     1.0980     1.3690 H     1 <1>   0.0800 
 49 H       -2.3700     0.3060    -0.1430 H     1 <1>   0.0800 
@<TRIPOS>BOND
  1   1   2  1   
  2   1   3  1   
  3   2   4  ar  
  4   2   5  ar  
  5   3   6  1   
  6   3  22  1   
  7   3  23  1   
  8   4   7  1   
  9   4   8  ar  
 10   5   9  1   
 11   5  10  ar  
 12   6  11  1   
 13   6  24  1   
 14   6  25  1   
 15   7  12  1   
 16   8  13  ar  
 17   8  26  1   
 18   9  14  1   
 19  10  13  ar  
 20  10  27  1   
 21  11  15  1   
 22  11  28  1   
 23  11  29  1   
 24  12  30  1   
 25  12  31  1   
 26  12  32  1   
 27  13  33  1   
 28  14  34  1   
 29  14  35  1   
 30  14  36  1   
 31  15  16  1   
 32  15  37  1   
 33  15  38  1   
 34  16  17  1   
 35  16  18  1   
 36  16  39  1   
 37  17  19  1   
 38  17  40  1   
 39  17  41  1   
 40  18  20  1   
 41  18  42  1   
 42  18  43  1   
 43  19  21  1   
 44  19  44  1   
 45  19  45  1   
 46  20  21  1   
 47  20  46  1   
 48  20  47  1   
 49  21  48  1   
 50  21  49  1   
@<TRIPOS>SUBSTRUCTURE
  1 ****   3 GROUP 4 **** **** 0

# MOE 2024.06 (io_trps.svl 2023.06)
