@<TRIPOS>MOLECULE
NONAME
24 25 1 0 0 
SMALL
USER_CHARGES


@<TRIPOS>ATOM
  1 S       -0.3450     0.3080     0.4620 S.3   1 <1>  -0.0800 
  2 C       -1.8470    -0.5420     0.1660 C.ar  1 <1>   0.0400 
  3 C        0.5360    -1.1930     0.1880 C.2   1 <1>   0.1980 
  4 C       -1.5440    -1.8620    -0.1070 C.ar  1 <1>   0.2270 
  5 C       -3.1330    -0.0410     0.1880 C.ar  1 <1>  -0.1500 
  6 N       -0.1910    -2.1960    -0.0870 N.2   1 <1>  -0.5650 
  7 C        2.0400    -1.1330     0.3080 C.3   1 <1>  -0.0600 
  8 C       -2.5900    -2.7310    -0.3750 C.ar  1 <1>  -0.1500 
  9 C       -4.1760    -0.9240    -0.0830 C.ar  1 <1>   0.0830 
 10 C       -3.8990    -2.2700    -0.3640 C.ar  1 <1>  -0.1430 
 11 O       -5.4780    -0.5370    -0.0880 O.3   1 <1>  -0.3630 
 12 C       -5.0360    -3.2380    -0.6600 C.3   1 <1>  -0.0970 
 13 C       -5.8580     0.7940     0.1830 C.3   1 <1>   0.0400 
 14 H       -3.2880     0.9960     0.4090 H     1 <1>   0.1500 
 15 H        2.3150    -0.8190     1.2970 H     1 <1>   0.0800 
 16 H        2.4350    -0.4380    -0.4100 H     1 <1>   0.0800 
 17 H        2.4570    -2.1060     0.1200 H     1 <1>   0.0800 
 18 H       -2.3570    -3.7570    -0.5880 H     1 <1>   0.1500 
 19 H       -4.6630    -4.2270    -0.8550 H     1 <1>   0.0800 
 20 H       -5.5850    -2.9020    -1.5210 H     1 <1>   0.0800 
 21 H       -5.7050    -3.2820     0.1800 H     1 <1>   0.0800 
 22 H       -6.9290     0.8540     0.1210 H     1 <1>   0.0800 
 23 H       -5.4120     1.4410    -0.5520 H     1 <1>   0.0800 
 24 H       -5.5340     1.0540     1.1750 H     1 <1>   0.0800 
@<TRIPOS>BOND
  1   1   2  1   
  2   1   3  1   
  3   2   4  ar  
  4   2   5  ar  
  5   3   6  2   
  6   3   7  1   
  7   4   6  1   
  8   4   8  ar  
  9   5   9  ar  
 10   5  14  1   
 11   7  15  1   
 12   7  16  1   
 13   7  17  1   
 14   8  10  ar  
 15   8  18  1   
 16   9  10  ar  
 17   9  11  1   
 18  10  12  1   
 19  11  13  1   
 20  12  19  1   
 21  12  20  1   
 22  12  21  1   
 23  13  22  1   
 24  13  23  1   
 25  13  24  1   
@<TRIPOS>SUBSTRUCTURE
  1 ****   2 GROUP 4 **** **** 0

# MOE 2024.06 (io_trps.svl 2023.06)
