@<TRIPOS>MOLECULE
NONAME
41 42 1 0 0 
SMALL
USER_CHARGES


@<TRIPOS>ATOM
  1 F        0.8480    -0.3970    -0.7950 F     1 <1>  -0.1900 
  2 C        0.7050    -1.6260    -0.3610 C.ar  1 <1>   0.1900 
  3 C        1.8300    -2.3840    -0.0530 C.ar  1 <1>   0.0830 
  4 C       -0.5800    -2.1160    -0.2300 C.ar  1 <1>  -0.1500 
  5 O        3.0610    -1.8230    -0.2120 O.3   1 <1>  -0.3630 
  6 C        1.6330    -3.6860     0.4040 C.ar  1 <1>  -0.1500 
  7 C       -0.7570    -3.4120     0.2260 C.ar  1 <1>  -0.1500 
  8 C        4.2410    -2.5300     0.0780 C.3   1 <1>   0.1200 
  9 C        0.3470    -4.1900     0.5410 C.ar  1 <1>  -0.1500 
 10 C        5.4150    -1.5940    -0.2160 C.3   1 <1>  -0.1600 
 11 C        6.7690    -2.2620     0.0610 C.3   1 <1>  -0.1600 
 12 C        7.9120    -1.2890    -0.2400 C.3   1 <1>   0.3430 
 13 N        9.2250    -1.8870     0.1250 N.4   1 <1>  -0.9590 
 14 C       10.2720    -0.8260     0.2110 C.3   1 <1>   0.3430 
 15 C        9.6350    -2.9760    -0.8140 C.3   1 <1>   0.3430 
 16 C       11.5780    -1.4290     0.7310 C.3   1 <1>  -0.1600 
 17 C       10.9280    -3.6270    -0.3180 C.3   1 <1>  -0.1600 
 18 C       12.0520    -2.5980    -0.1420 C.3   1 <1>  -0.1600 
 19 H       -1.4210    -1.4950    -0.4790 H     1 <1>   0.1500 
 20 H        2.4590    -4.3210     0.6590 H     1 <1>   0.1500 
 21 H       -1.7490    -3.8140     0.3370 H     1 <1>   0.1500 
 22 H        4.2740    -3.4040    -0.5490 H     1 <1>   0.0800 
 23 H        4.2200    -2.8110     1.1170 H     1 <1>   0.0800 
 24 H        0.2030    -5.1960     0.8950 H     1 <1>   0.1500 
 25 H        5.3100    -0.7150     0.3980 H     1 <1>   0.0800 
 26 H        5.3610    -1.2960    -1.2500 H     1 <1>   0.0800 
 27 H        6.8520    -3.1390    -0.5570 H     1 <1>   0.0800 
 28 H        6.8070    -2.5560     1.0960 H     1 <1>   0.0800 
 29 H        7.7550    -0.3890     0.3350 H     1 <1>   0.0800 
 30 H        7.9020    -1.0220    -1.2850 H     1 <1>   0.0800 
 31 H        9.1430    -2.3030     1.0610 H     1 <1>   0.4500 
 32 H        9.9510    -0.0410     0.8770 H     1 <1>   0.0800 
 33 H       10.4380    -0.3980    -0.7650 H     1 <1>   0.0800 
 34 H        9.7940    -2.5680    -1.7990 H     1 <1>   0.0800 
 35 H        8.8640    -3.7260    -0.8780 H     1 <1>   0.0800 
 36 H       11.4400    -1.7610     1.7460 H     1 <1>   0.0800 
 37 H       12.3370    -0.6660     0.7440 H     1 <1>   0.0800 
 38 H       11.2400    -4.3750    -1.0270 H     1 <1>   0.0800 
 39 H       10.7410    -4.1290     0.6150 H     1 <1>   0.0800 
 40 H       12.9120    -3.0670     0.3070 H     1 <1>   0.0800 
 41 H       12.3520    -2.2250    -1.1080 H     1 <1>   0.0800 
@<TRIPOS>BOND
  1   1   2  1   
  2   2   3  ar  
  3   2   4  ar  
  4   3   5  1   
  5   3   6  ar  
  6   4   7  ar  
  7   4  19  1   
  8   5   8  1   
  9   6   9  ar  
 10   6  20  1   
 11   7   9  ar  
 12   7  21  1   
 13   8  10  1   
 14   8  22  1   
 15   8  23  1   
 16   9  24  1   
 17  10  11  1   
 18  10  25  1   
 19  10  26  1   
 20  11  12  1   
 21  11  27  1   
 22  11  28  1   
 23  12  13  1   
 24  12  29  1   
 25  12  30  1   
 26  13  14  1   
 27  13  15  1   
 28  13  31  1   
 29  14  16  1   
 30  14  32  1   
 31  14  33  1   
 32  15  17  1   
 33  15  34  1   
 34  15  35  1   
 35  16  18  1   
 36  16  36  1   
 37  16  37  1   
 38  17  18  1   
 39  17  38  1   
 40  17  39  1   
 41  18  40  1   
 42  18  41  1   
@<TRIPOS>SUBSTRUCTURE
  1 ****  10 GROUP 4 **** **** 0

# MOE 2024.06 (io_trps.svl 2023.06)
