@<TRIPOS>MOLECULE
NONAME
50 54 1 0 0 
SMALL
USER_CHARGES


@<TRIPOS>ATOM
  1 O       -8.1900     4.5040     0.8960 O.3   1 <1>  -0.6800 
  2 C       -8.2450     3.1870     0.5310 C.3   1 <1>   0.2800 
  3 C       -8.1550     2.3320     1.8060 C.3   1 <1>  -0.1600 
  4 C       -7.0690     2.8820    -0.4180 C.3   1 <1>  -0.1600 
  5 C       -9.5760     2.9020    -0.1750 C.3   1 <1>  -0.1600 
  6 C       -8.1700     0.8350     1.4240 C.3   1 <1>  -0.0800 
  7 C       -7.0910     1.3820    -0.7990 C.3   1 <1>  -0.0800 
  8 C       -9.6200     1.4140    -0.5760 C.3   1 <1>  -0.0800 
  9 C       -6.9320     0.5980     0.5320 C.3   1 <1>   0.4230 
 10 C       -9.5000     0.5420     0.6910 C.3   1 <1>  -0.1600 
 11 C       -8.4400     1.1250    -1.5220 C.3   1 <1>  -0.1600 
 12 N       -6.5520    -0.8600     0.4370 N.4   1 <1>  -0.9590 
 13 C       -5.0460    -0.9820     0.3350 C.3   1 <1>   0.3430 
 14 C       -7.2240    -1.6680    -0.6490 C.3   1 <1>   0.3430 
 15 C       -4.5170    -2.4500     0.2330 C.3   1 <1>   0.4230 
 16 C       -6.7630    -3.1530    -0.6860 C.3   1 <1>   0.3430 
 17 N       -5.2590    -3.3280    -0.7360 N.4   1 <1>  -0.9590 
 18 C       -4.5910    -3.2240     1.5480 C.3   1 <1>  -0.1600 
 19 C       -4.8860    -4.7270    -0.3670 C.3   1 <1>   0.3430 
 20 C       -4.6520    -4.7000     1.1420 C.3   1 <1>  -0.1600 
 21 H       -8.3910     5.0770     0.1330 H     1 <1>   0.4000 
 22 H       -8.9900     2.5560     2.4480 H     1 <1>   0.0800 
 23 H       -7.2540     2.5750     2.3420 H     1 <1>   0.0800 
 24 H       -6.1410     3.1310     0.0680 H     1 <1>   0.0800 
 25 H       -7.1510     3.4860    -1.3060 H     1 <1>   0.0800 
 26 H       -9.6730     3.5170    -1.0530 H     1 <1>   0.0800 
 27 H      -10.3970     3.1260     0.4840 H     1 <1>   0.0800 
 28 H       -8.1040     0.2560     2.3280 H     1 <1>   0.0800 
 29 H       -6.2640     1.1850    -1.4580 H     1 <1>   0.0800 
 30 H      -10.5530     1.2090    -1.0770 H     1 <1>   0.0800 
 31 H       -6.1220     1.0810     1.0560 H     1 <1>   0.0800 
 32 H       -9.5880    -0.4970     0.4390 H     1 <1>   0.0800 
 33 H      -10.3240     0.7680     1.3480 H     1 <1>   0.0800 
 34 H       -8.5250     0.1300    -1.9080 H     1 <1>   0.0800 
 35 H       -8.5130     1.7770    -2.3780 H     1 <1>   0.0800 
 36 H       -6.8410    -1.2520     1.3450 H     1 <1>   0.4500 
 37 H       -4.5860    -0.5110     1.1890 H     1 <1>   0.0800 
 38 H       -4.7090    -0.4470    -0.5380 H     1 <1>   0.0800 
 39 H       -7.0070    -1.2260    -1.6070 H     1 <1>   0.0800 
 40 H       -8.2920    -1.6430    -0.5180 H     1 <1>   0.0800 
 41 H       -3.4790    -2.4170    -0.0600 H     1 <1>   0.0800 
 42 H       -7.2110    -3.6380    -1.5390 H     1 <1>   0.0800 
 43 H       -7.1480    -3.6420     0.1940 H     1 <1>   0.0800 
 44 H       -4.9220    -3.1530    -1.6960 H     1 <1>   0.4500 
 45 H       -5.4750    -2.9630     2.1020 H     1 <1>   0.0800 
 46 H       -3.7320    -3.0210     2.1650 H     1 <1>   0.0800 
 47 H       -3.9670    -5.0030    -0.8620 H     1 <1>   0.0800 
 48 H       -5.6530    -5.4360    -0.6390 H     1 <1>   0.0800 
 49 H       -5.4470    -5.2120     1.6570 H     1 <1>   0.0800 
 50 H       -3.7290    -5.2070     1.3710 H     1 <1>   0.0800 
@<TRIPOS>BOND
  1   1   2  1   
  2   1  21  1   
  3   2   3  1   
  4   2   4  1   
  5   2   5  1   
  6   3   6  1   
  7   3  22  1   
  8   3  23  1   
  9   4   7  1   
 10   4  24  1   
 11   4  25  1   
 12   5   8  1   
 13   5  26  1   
 14   5  27  1   
 15   6   9  1   
 16   6  10  1   
 17   6  28  1   
 18   7   9  1   
 19   7  11  1   
 20   7  29  1   
 21   8  10  1   
 22   8  11  1   
 23   8  30  1   
 24   9  12  1   
 25   9  31  1   
 26  10  32  1   
 27  10  33  1   
 28  11  34  1   
 29  11  35  1   
 30  12  13  1   
 31  12  14  1   
 32  12  36  1   
 33  13  15  1   
 34  13  37  1   
 35  13  38  1   
 36  14  16  1   
 37  14  39  1   
 38  14  40  1   
 39  15  17  1   
 40  15  18  1   
 41  15  41  1   
 42  16  17  1   
 43  16  42  1   
 44  16  43  1   
 45  17  19  1   
 46  17  44  1   
 47  18  20  1   
 48  18  45  1   
 49  18  46  1   
 50  19  20  1   
 51  19  47  1   
 52  19  48  1   
 53  20  49  1   
 54  20  50  1   
@<TRIPOS>SUBSTRUCTURE
  1 ****   9 GROUP 4 **** **** 0

# MOE 2024.06 (io_trps.svl 2023.06)
