@<TRIPOS>MOLECULE
NONAME
54 58 1 0 0 
SMALL
USER_CHARGES


@<TRIPOS>ATOM
  1 O       -0.2700    -1.1260    -2.2590 O.2   1 <1>  -0.5700 
  2 C       -1.2850    -1.3630    -1.6440 C.2   1 <1>   0.5690 
  3 N       -2.4710    -0.7700    -2.0280 N.am  1 <1>  -0.6600 
  4 C       -1.2110    -2.2930    -0.4080 C.3   1 <1>   0.2610 
  5 C       -3.7270    -0.8340    -1.2330 C.3   1 <1>   0.1400 
  6 C       -2.4540     0.4050    -2.9400 C.3   1 <1>   0.1400 
  7 O       -1.7300    -1.6790     0.7530 O.3   1 <1>  -0.5600 
  8 C        0.1880    -2.7440     0.0040 C.3   1 <1>  -0.1600 
  9 C       -3.8140     0.4250    -0.3500 C.3   1 <1>   0.3430 
 10 C       -2.5310     1.6880    -2.0910 C.3   1 <1>   0.3430 
 11 C       -1.1430    -2.2010     1.9090 C.3   1 <1>   0.1200 
 12 C       -0.0030    -3.1100     1.4620 C.3   1 <1>  -0.1600 
 13 N       -3.7280     1.7130    -1.1530 N.4   1 <1>  -0.9590 
 14 C       -3.7950     2.9480    -0.3030 C.3   1 <1>   0.5030 
 15 C       -2.5940     3.0470     0.6660 C.3   1 <1>  -0.1600 
 16 C       -5.1040     2.9390     0.5230 C.3   1 <1>  -0.1600 
 17 C       -3.8110     4.2020    -1.2100 C.3   1 <1>  -0.1600 
 18 C       -2.7010     4.3270     1.5190 C.3   1 <1>  -0.0800 
 19 C       -5.2210     4.2150     1.3760 C.3   1 <1>  -0.0800 
 20 C       -3.9200     5.4850    -0.3660 C.3   1 <1>  -0.0800 
 21 C       -4.0120     4.2940     2.3280 C.3   1 <1>  -0.1600 
 22 C       -2.7170     5.5580     0.5930 C.3   1 <1>  -0.1600 
 23 C       -5.2210     5.4450     0.4540 C.3   1 <1>  -0.1600 
 24 H       -1.8130    -3.1630    -0.6000 H     1 <1>   0.0800 
 25 H       -3.7550    -1.7170    -0.6200 H     1 <1>   0.0800 
 26 H       -4.5730    -0.8800    -1.8960 H     1 <1>   0.0800 
 27 H       -3.2850     0.3520    -3.6200 H     1 <1>   0.0800 
 28 H       -1.5530     0.4190    -3.5300 H     1 <1>   0.0800 
 29 H        0.8780    -1.9220    -0.0840 H     1 <1>   0.0800 
 30 H        0.5390    -3.5660    -0.5940 H     1 <1>   0.0800 
 31 H       -3.0060     0.3840     0.3620 H     1 <1>   0.0800 
 32 H       -4.7390     0.3900     0.1990 H     1 <1>   0.0800 
 33 H       -2.5640     2.5320    -2.7580 H     1 <1>   0.0800 
 34 H       -1.6210     1.7560    -1.5180 H     1 <1>   0.0800 
 35 H       -1.8880    -2.7420     2.4670 H     1 <1>   0.0800 
 36 H       -0.7750    -1.3760     2.4950 H     1 <1>   0.0800 
 37 H        0.8880    -2.9530     2.0440 H     1 <1>   0.0800 
 38 H       -0.3070    -4.1380     1.5560 H     1 <1>   0.0800 
 39 H       -4.5640     1.7470    -1.7450 H     1 <1>   0.4500 
 40 H       -1.6670     3.0800     0.1240 H     1 <1>   0.0800 
 41 H       -2.5660     2.2020     1.3290 H     1 <1>   0.0800 
 42 H       -5.1330     2.1050     1.1980 H     1 <1>   0.0800 
 43 H       -5.9560     2.8780    -0.1310 H     1 <1>   0.0800 
 44 H       -2.9070     4.2790    -1.7840 H     1 <1>   0.0800 
 45 H       -4.6440     4.1600    -1.8890 H     1 <1>   0.0800 
 46 H       -1.8620     4.3910     2.1930 H     1 <1>   0.0800 
 47 H       -6.1330     4.1940     1.9500 H     1 <1>   0.0800 
 48 H       -3.9240     6.3500    -1.0080 H     1 <1>   0.0800 
 49 H       -4.0110     3.4500     2.9970 H     1 <1>   0.0800 
 50 H       -4.0860     5.1820     2.9330 H     1 <1>   0.0800 
 51 H       -1.7990     5.6100     0.0330 H     1 <1>   0.0800 
 52 H       -2.7810     6.4550     1.1860 H     1 <1>   0.0800 
 53 H       -5.3050     6.3420     1.0450 H     1 <1>   0.0800 
 54 H       -6.0720     5.4150    -0.2040 H     1 <1>   0.0800 
@<TRIPOS>BOND
  1   1   2  2   
  2   2   3  am  
  3   2   4  1   
  4   3   5  1   
  5   3   6  1   
  6   4   7  1   
  7   4   8  1   
  8   4  24  1   
  9   5   9  1   
 10   5  25  1   
 11   5  26  1   
 12   6  10  1   
 13   6  27  1   
 14   6  28  1   
 15   7  11  1   
 16   8  12  1   
 17   8  29  1   
 18   8  30  1   
 19   9  13  1   
 20   9  31  1   
 21   9  32  1   
 22  10  13  1   
 23  10  33  1   
 24  10  34  1   
 25  11  12  1   
 26  11  35  1   
 27  11  36  1   
 28  12  37  1   
 29  12  38  1   
 30  13  14  1   
 31  13  39  1   
 32  14  15  1   
 33  14  16  1   
 34  14  17  1   
 35  15  18  1   
 36  15  40  1   
 37  15  41  1   
 38  16  19  1   
 39  16  42  1   
 40  16  43  1   
 41  17  20  1   
 42  17  44  1   
 43  17  45  1   
 44  18  21  1   
 45  18  22  1   
 46  18  46  1   
 47  19  21  1   
 48  19  23  1   
 49  19  47  1   
 50  20  22  1   
 51  20  23  1   
 52  20  48  1   
 53  21  49  1   
 54  21  50  1   
 55  22  51  1   
 56  22  52  1   
 57  23  53  1   
 58  23  54  1   
@<TRIPOS>SUBSTRUCTURE
  1 ****   9 GROUP 4 **** **** 0

# MOE 2024.06 (io_trps.svl 2023.06)
