@<TRIPOS>MOLECULE
ka-07030
25 25 1 0 0 
SMALL
USER_CHARGES


@<TRIPOS>ATOM
  1 O        0.3710    -0.9900    -0.5280 O.2   1 <1>  -0.5700 
  2 C        1.0680    -1.7760     0.0670 C.2   1 <1>   0.6590 
  3 O        0.5990    -2.9390     0.5100 O.3   1 <1>  -0.4300 
  4 C        2.5520    -1.4950     0.3350 C.3   1 <1>   0.2610 
  5 C       -0.7510    -3.3150     0.3230 C.3   1 <1>   0.0400 
  6 O        2.7930    -0.1150     0.3970 O.3   1 <1>  -0.6800 
  7 C        3.4320    -2.1180    -0.7590 C.3   1 <1>  -0.0160 
  8 C        4.9020    -2.1840    -0.3630 C.ar  1 <1>  -0.1440 
  9 C        5.7060    -1.0590    -0.4600 C.ar  1 <1>  -0.1500 
 10 C        5.4510    -3.3720     0.0980 C.ar  1 <1>  -0.1500 
 11 C        7.0430    -1.1190    -0.1050 C.ar  1 <1>  -0.1500 
 12 C        6.7880    -3.4340     0.4540 C.ar  1 <1>  -0.1500 
 13 C        7.5850    -2.3070     0.3520 C.ar  1 <1>  -0.1500 
 14 H        2.8190    -1.9110     1.2900 H     1 <1>   0.0800 
 15 H       -1.3840    -2.5890     0.8050 H     1 <1>   0.0800 
 16 H       -0.8990    -4.2850     0.7620 H     1 <1>   0.0800 
 17 H       -0.9610    -3.3480    -0.7320 H     1 <1>   0.0800 
 18 H        2.1240     0.3430    -0.1560 H     1 <1>   0.4000 
 19 H        3.3190    -1.5650    -1.6750 H     1 <1>   0.0800 
 20 H        3.0880    -3.1190    -0.9510 H     1 <1>   0.0800 
 21 H        5.2910    -0.1290    -0.8080 H     1 <1>   0.1500 
 22 H        4.8450    -4.2560     0.1830 H     1 <1>   0.1500 
 23 H        7.6580    -0.2400    -0.1820 H     1 <1>   0.1500 
 24 H        7.2070    -4.3580     0.8100 H     1 <1>   0.1500 
 25 H        8.6230    -2.3540     0.6290 H     1 <1>   0.1500 
@<TRIPOS>BOND
  1   1   2  2   
  2   2   3  1   
  3   2   4  1   
  4   3   5  1   
  5   4   6  1   
  6   4   7  1   
  7   4  14  1   
  8   5  15  1   
  9   5  16  1   
 10   5  17  1   
 11   6  18  1   
 12   7   8  1   
 13   7  19  1   
 14   7  20  1   
 15   8   9  ar  
 16   8  10  ar  
 17   9  11  ar  
 18   9  21  1   
 19  10  12  ar  
 20  10  22  1   
 21  11  13  ar  
 22  11  23  1   
 23  12  13  ar  
 24  12  24  1   
 25  13  25  1   
@<TRIPOS>SUBSTRUCTURE
  1 ****   7 GROUP 4 **** **** 0

# MOE 2024.06 (io_trps.svl 2023.06)
