@<TRIPOS>MOLECULE
NONAME
40 43 1 0 0 
SMALL
USER_CHARGES


@<TRIPOS>ATOM
  1 O       -1.0700     1.1480     2.4070 O.2   1 <1>  -0.5700 
  2 C       -1.1740     0.8360     1.2470 C.2   1 <1>   0.5690 
  3 N       -1.1930     1.6810     0.1730 N.am  1 <1>  -0.1200 
  4 C       -1.2980    -0.6040     0.8010 C.3   1 <1>  -0.0990 
  5 N       -1.1510     3.1430     0.2710 N.am  1 <1>  -0.4300 
  6 C       -1.3660     0.9890    -0.9920 C.2   1 <1>   0.5690 
  7 C       -1.4220    -0.5000    -0.7310 C.3   1 <1>  -0.0990 
  8 C       -0.1010     4.0030     0.2430 C.2   1 <1>   0.5690 
  9 O       -1.4710     1.4560    -2.0990 O.2   1 <1>  -0.5700 
 10 O       -0.3460     5.1850     0.3240 O.2   1 <1>  -0.5700 
 11 C        1.3750     3.5800     0.0950 C.3   1 <1>   0.0610 
 12 C        1.8310     2.4990     0.9780 C.3   1 <1>  -0.1600 
 13 C        2.4910     4.7990     0.8150 C.3   1 <1>  -0.1600 
 14 C        1.7420     2.8040    -1.4430 C.3   1 <1>  -0.1600 
 15 C        3.2440     2.6630     0.4440 C.3   1 <1>  -0.0800 
 16 C        4.1650     4.4410     0.3450 C.3   1 <1>  -0.0800 
 17 C        3.4340     2.3920    -1.6320 C.3   1 <1>  -0.0800 
 18 C        3.4510     4.4170    -0.5340 C.3   1 <1>  -0.1600 
 19 C        3.5420     1.4950    -0.4860 C.3   1 <1>  -0.1600 
 20 C        4.7390     3.4880    -1.0730 C.3   1 <1>  -0.1600 
 21 H       -2.1730    -1.0480     1.2410 H     1 <1>   0.0800 
 22 H       -0.4210    -1.1540     1.0920 H     1 <1>   0.0800 
 23 H       -2.0590     3.6020     0.3710 H     1 <1>   0.3700 
 24 H       -2.3580    -0.8980    -1.0810 H     1 <1>   0.0800 
 25 H       -0.6050    -0.9890    -1.2290 H     1 <1>   0.0800 
 26 H        1.3870     1.5430     0.7910 H     1 <1>   0.0800 
 27 H        1.7330     2.7390     2.0230 H     1 <1>   0.0800 
 28 H        2.4290     4.7800     1.8920 H     1 <1>   0.0800 
 29 H        2.1480     5.8110     0.5840 H     1 <1>   0.0800 
 30 H        1.4320     3.4420    -2.2530 H     1 <1>   0.0800 
 31 H        1.1540     1.9130    -1.5520 H     1 <1>   0.0800 
 32 H        3.8810     2.4820     1.3120 H     1 <1>   0.0800 
 33 H        4.8620     5.2320     0.6400 H     1 <1>   0.0800 
 34 H        3.6590     1.8880    -2.5560 H     1 <1>   0.0800 
 35 H        2.7680     4.7730    -1.3330 H     1 <1>   0.0800 
 36 H        3.8890     5.4080    -0.8350 H     1 <1>   0.0800 
 37 H        2.8320     0.6870    -0.5040 H     1 <1>   0.0800 
 38 H        4.5330     1.0930    -0.3600 H     1 <1>   0.0800 
 39 H        5.6070     2.9240    -0.7650 H     1 <1>   0.0800 
 40 H        5.1290     4.0570    -1.9230 H     1 <1>   0.0800 
@<TRIPOS>BOND
  1   1   2  2   
  2   2   3  am  
  3   2   4  1   
  4   3   5  1   
  5   3   6  am  
  6   4   7  1   
  7   4  21  1   
  8   4  22  1   
  9   5   8  am  
 10   5  23  1   
 11   6   7  1   
 12   6   9  2   
 13   7  24  1   
 14   7  25  1   
 15   8  10  2   
 16   8  11  1   
 17  11  12  1   
 18  11  13  1   
 19  11  14  1   
 20  12  15  1   
 21  12  26  1   
 22  12  27  1   
 23  13  16  1   
 24  13  28  1   
 25  13  29  1   
 26  14  17  1   
 27  14  30  1   
 28  14  31  1   
 29  15  18  1   
 30  15  19  1   
 31  15  32  1   
 32  16  18  1   
 33  16  20  1   
 34  16  33  1   
 35  17  19  1   
 36  17  20  1   
 37  17  34  1   
 38  18  35  1   
 39  18  36  1   
 40  19  37  1   
 41  19  38  1   
 42  20  39  1   
 43  20  40  1   
@<TRIPOS>SUBSTRUCTURE
  1 ****  11 GROUP 4 **** **** 0

# MOE 2024.06 (io_trps.svl 2023.06)
