@<TRIPOS>MOLECULE
NONAME
45 46 1 0 0 
SMALL
USER_CHARGES


@<TRIPOS>ATOM
  1 O        3.9530    -8.0430    -0.2450 O.3   1 <1>  -0.5600 
  2 C        5.3170    -7.7780    -0.3910 C.3   1 <1>   0.1200 
  3 C        3.3320    -7.3790     0.8160 C.3   1 <1>   0.1200 
  4 C        5.5450    -6.2720    -0.6230 C.3   1 <1>   0.3430 
  5 C        3.4670    -5.8540     0.6400 C.3   1 <1>   0.3430 
  6 N        4.9040    -5.4390     0.4590 N.4   1 <1>  -0.9590 
  7 C        4.9860    -3.9680     0.1740 C.3   1 <1>   0.3430 
  8 C        6.4190    -3.4290     0.2040 C.3   1 <1>   0.1200 
  9 O        6.3440    -2.0540    -0.0700 O.3   1 <1>  -0.3630 
 10 C        7.4580    -1.2800    -0.1690 C.ar  1 <1>   0.0820 
 11 C        7.2820     0.0480    -0.5450 C.ar  1 <1>  -0.1430 
 12 C        8.7410    -1.7620     0.0870 C.ar  1 <1>  -0.1500 
 13 C        8.3880     0.8720    -0.6630 C.ar  1 <1>  -0.1500 
 14 C        5.8960     0.6080    -0.8290 C.3   1 <1>  -0.0970 
 15 C        9.8480    -0.9350    -0.0320 C.ar  1 <1>  -0.1430 
 16 C        9.6580     0.3860    -0.4100 C.ar  1 <1>  -0.1500 
 17 C       11.2490    -1.4760     0.2520 C.3   1 <1>   0.0630 
 18 C       11.8960    -0.7310     1.4240 C.3   1 <1>  -0.2400 
 19 C       12.1310    -1.3930    -0.9970 C.3   1 <1>  -0.2400 
 20 H        5.6690    -8.3410    -1.2390 H     1 <1>   0.0800 
 21 H        5.8350    -8.1230     0.4870 H     1 <1>   0.0800 
 22 H        3.7750    -7.7080     1.7410 H     1 <1>   0.0800 
 23 H        2.2930    -7.6620     0.8150 H     1 <1>   0.0800 
 24 H        5.1250    -6.0120    -1.5810 H     1 <1>   0.0800 
 25 H        6.6040    -6.0780    -0.6640 H     1 <1>   0.0800 
 26 H        3.0440    -5.3580     1.4990 H     1 <1>   0.0800 
 27 H        2.8920    -5.5640    -0.2250 H     1 <1>   0.0800 
 28 H        5.3900    -5.6370     1.3440 H     1 <1>   0.4500 
 29 H        4.4130    -3.4290     0.9110 H     1 <1>   0.0800 
 30 H        4.5610    -3.7650    -0.7960 H     1 <1>   0.0800 
 31 H        7.0270    -3.8820    -0.5580 H     1 <1>   0.0800 
 32 H        6.8580    -3.5500     1.1780 H     1 <1>   0.0800 
 33 H        8.9010    -2.7780     0.3840 H     1 <1>   0.1500 
 34 H        8.2700     1.9010    -0.9540 H     1 <1>   0.1500 
 35 H        5.4430     0.0680    -1.6400 H     1 <1>   0.0800 
 36 H        5.9450     1.6480    -1.0960 H     1 <1>   0.0800 
 37 H        5.2770     0.5100     0.0450 H     1 <1>   0.0800 
 38 H       10.4990     1.0470    -0.5100 H     1 <1>   0.1500 
 39 H       11.1720    -2.5140     0.5290 H     1 <1>   0.0800 
 40 H       12.0490     0.3050     1.1830 H     1 <1>   0.0800 
 41 H       12.8470    -1.1710     1.6660 H     1 <1>   0.0800 
 42 H       11.2620    -0.7900     2.2910 H     1 <1>   0.0800 
 43 H       12.2890    -0.3710    -1.2890 H     1 <1>   0.0800 
 44 H       11.6610    -1.9120    -1.8130 H     1 <1>   0.0800 
 45 H       13.0880    -1.8470    -0.8090 H     1 <1>   0.0800 
@<TRIPOS>BOND
  1   1   2  1   
  2   1   3  1   
  3   2   4  1   
  4   2  20  1   
  5   2  21  1   
  6   3   5  1   
  7   3  22  1   
  8   3  23  1   
  9   4   6  1   
 10   4  24  1   
 11   4  25  1   
 12   5   6  1   
 13   5  26  1   
 14   5  27  1   
 15   6   7  1   
 16   6  28  1   
 17   7   8  1   
 18   7  29  1   
 19   7  30  1   
 20   8   9  1   
 21   8  31  1   
 22   8  32  1   
 23   9  10  1   
 24  10  11  ar  
 25  10  12  ar  
 26  11  13  ar  
 27  11  14  1   
 28  12  15  ar  
 29  12  33  1   
 30  13  16  ar  
 31  13  34  1   
 32  14  35  1   
 33  14  36  1   
 34  14  37  1   
 35  15  16  ar  
 36  15  17  1   
 37  16  38  1   
 38  17  18  1   
 39  17  19  1   
 40  17  39  1   
 41  18  40  1   
 42  18  41  1   
 43  18  42  1   
 44  19  43  1   
 45  19  44  1   
 46  19  45  1   
@<TRIPOS>SUBSTRUCTURE
  1 ****   8 GROUP 4 **** **** 0

# MOE 2024.06 (io_trps.svl 2023.06)
