@<TRIPOS>MOLECULE
NONAME
40 40 1 0 0 
SMALL
USER_CHARGES


@<TRIPOS>ATOM
  1 O        0.0900    -4.9520     0.0120 O.3   1 <1>  -0.3630 
  2 C       -1.1310    -5.5430    -0.0120 C.ar  1 <1>   0.0830 
  3 C        1.2690    -5.7130    -0.0250 C.3   1 <1>   0.1200 
  4 C       -2.2310    -4.7030     0.0280 C.ar  1 <1>  -0.1500 
  5 C       -1.3270    -6.9180    -0.0750 C.ar  1 <1>  -0.1500 
  6 C        2.4380    -4.7270     0.0180 C.3   1 <1>   0.3430 
  7 C       -3.5200    -5.2100     0.0080 C.ar  1 <1>  -0.1440 
  8 C       -2.6120    -7.4290    -0.0960 C.ar  1 <1>  -0.1500 
  9 N        3.7580    -5.4270    -0.0170 N.4   1 <1>  -0.9060 
 10 C       -3.7130    -6.5860    -0.0550 C.ar  1 <1>  -0.1430 
 11 C       -4.6960    -4.2440     0.0540 C.3   1 <1>  -0.0970 
 12 C        4.8920    -4.4720     0.0240 C.3   1 <1>   0.3430 
 13 C       -5.1090    -7.1930    -0.0800 C.3   1 <1>  -0.0970 
 14 C        6.2010    -5.2560    -0.0150 C.3   1 <1>  -0.1600 
 15 C        7.4060    -4.3080     0.0270 C.3   1 <1>  -0.1600 
 16 C        8.7200    -5.0920    -0.0120 C.3   1 <1>  -0.2400 
 17 H        1.2700    -6.2790    -0.9400 H     1 <1>   0.0800 
 18 H        1.2740    -6.3600     0.8340 H     1 <1>   0.0800 
 19 H       -2.0670    -3.6420     0.0770 H     1 <1>   0.1500 
 20 H       -0.5080    -7.6090    -0.1090 H     1 <1>   0.1500 
 21 H        2.3610    -4.1420     0.9210 H     1 <1>   0.0800 
 22 H        2.3580    -4.0620    -0.8270 H     1 <1>   0.0800 
 23 H       -2.7530    -8.4940    -0.1450 H     1 <1>   0.1500 
 24 H        3.8340    -5.9930    -0.8720 H     1 <1>   0.4500 
 25 H        3.8370    -6.0700     0.7810 H     1 <1>   0.4500 
 26 H       -4.3570    -3.2250     0.1010 H     1 <1>   0.0800 
 27 H       -5.2980    -4.4390     0.9230 H     1 <1>   0.0800 
 28 H       -5.3010    -4.3570    -0.8270 H     1 <1>   0.0800 
 29 H        4.8500    -3.8840     0.9280 H     1 <1>   0.0800 
 30 H        4.8460    -3.8030    -0.8210 H     1 <1>   0.0800 
 31 H       -5.6490    -6.8370    -0.9390 H     1 <1>   0.0800 
 32 H       -5.6450    -6.9190     0.8100 H     1 <1>   0.0800 
 33 H       -5.0640    -8.2650    -0.1310 H     1 <1>   0.0800 
 34 H        6.2510    -5.8390    -0.9190 H     1 <1>   0.0800 
 35 H        6.2540    -5.9200     0.8310 H     1 <1>   0.0800 
 36 H        7.3810    -3.7160     0.9280 H     1 <1>   0.0800 
 37 H        7.3780    -3.6350    -0.8150 H     1 <1>   0.0800 
 38 H        8.7960    -5.7540     0.8320 H     1 <1>   0.0800 
 39 H        9.5550    -4.4120     0.0170 H     1 <1>   0.0800 
 40 H        8.7930    -5.6730    -0.9160 H     1 <1>   0.0800 
@<TRIPOS>BOND
  1   1   2  1   
  2   1   3  1   
  3   2   4  ar  
  4   2   5  ar  
  5   3   6  1   
  6   3  17  1   
  7   3  18  1   
  8   4   7  ar  
  9   4  19  1   
 10   5   8  ar  
 11   5  20  1   
 12   6   9  1   
 13   6  21  1   
 14   6  22  1   
 15   7  10  ar  
 16   7  11  1   
 17   8  10  ar  
 18   8  23  1   
 19   9  12  1   
 20   9  24  1   
 21   9  25  1   
 22  10  13  1   
 23  11  26  1   
 24  11  27  1   
 25  11  28  1   
 26  12  14  1   
 27  12  29  1   
 28  12  30  1   
 29  13  31  1   
 30  13  32  1   
 31  13  33  1   
 32  14  15  1   
 33  14  34  1   
 34  14  35  1   
 35  15  16  1   
 36  15  36  1   
 37  15  37  1   
 38  16  38  1   
 39  16  39  1   
 40  16  40  1   
@<TRIPOS>SUBSTRUCTURE
  1 ****   3 GROUP 4 **** **** 0

# MOE 2024.06 (io_trps.svl 2023.06)
