@<TRIPOS>MOLECULE
NONAME
31 32 1 0 0 
SMALL
USER_CHARGES


@<TRIPOS>ATOM
  1 CL       0.0440     0.9800     1.2060 Cl    1 <1>  -0.1770 
  2 C        1.6790     1.3210     0.6970 C.ar  1 <1>   0.1770 
  3 C        2.1790     2.6010     0.8440 C.ar  1 <1>  -0.1500 
  4 C        2.4420     0.3070     0.1510 C.ar  1 <1>  -0.1500 
  5 C        3.4760     2.8800     0.4460 C.ar  1 <1>  -0.1440 
  6 C        3.7410     0.5680    -0.2540 C.ar  1 <1>  -0.1440 
  7 C        4.2570     1.8530    -0.0880 C.ar  1 <1>   0.0830 
  8 C        4.0150     4.2980     0.5880 C.3   1 <1>  -0.0960 
  9 C        4.5660    -0.5520    -0.8740 C.3   1 <1>  -0.0960 
 10 O        5.5290     2.1150    -0.4600 O.3   1 <1>  -0.3630 
 11 C        6.5110     1.9180     0.5330 C.3   1 <1>   0.1200 
 12 C        7.8070     2.5940     0.0910 C.3   1 <1>   0.0960 
 13 N        7.6120     4.0480    -0.0350 N.pl3 1 <1>   0.3140 
 14 N        7.8920     4.8920     0.9490 N.2   1 <1>  -0.7070 
 15 C        7.1490     4.7450    -1.0760 C.2   1 <1>   0.0360 
 16 C        7.5840     6.0350     0.4290 C.2   1 <1>   0.3660 
 17 N        7.1150     6.0040    -0.8250 N.2   1 <1>  -0.5650 
 18 H        1.5490     3.3640     1.2640 H     1 <1>   0.1500 
 19 H        2.0120    -0.6720     0.0460 H     1 <1>   0.1500 
 20 H        3.2520     4.9700     0.9330 H     1 <1>   0.0800 
 21 H        4.3680     4.6520    -0.3650 H     1 <1>   0.0800 
 22 H        4.8300     4.3220     1.2880 H     1 <1>   0.0800 
 23 H        3.9280    -1.3360    -1.2410 H     1 <1>   0.0800 
 24 H        5.2340    -0.9660    -0.1410 H     1 <1>   0.0800 
 25 H        5.1410    -0.1760    -1.7010 H     1 <1>   0.0800 
 26 H        6.6570     0.8610     0.6560 H     1 <1>   0.0800 
 27 H        6.1650     2.3400     1.4610 H     1 <1>   0.0800 
 28 H        8.1330     2.1950    -0.8510 H     1 <1>   0.0800 
 29 H        8.5730     2.4210     0.8240 H     1 <1>   0.0800 
 30 H        6.8410     4.2830    -1.9970 H     1 <1>   0.1500 
 31 H        7.6880     6.9710     0.9540 H     1 <1>   0.1500 
@<TRIPOS>BOND
  1   1   2  1   
  2   2   3  ar  
  3   2   4  ar  
  4   3   5  ar  
  5   3  18  1   
  6   4   6  ar  
  7   4  19  1   
  8   5   7  ar  
  9   5   8  1   
 10   6   7  ar  
 11   6   9  1   
 12   7  10  1   
 13   8  20  1   
 14   8  21  1   
 15   8  22  1   
 16   9  23  1   
 17   9  24  1   
 18   9  25  1   
 19  10  11  1   
 20  11  12  1   
 21  11  26  1   
 22  11  27  1   
 23  12  13  1   
 24  12  28  1   
 25  12  29  1   
 26  13  14  1   
 27  13  15  1   
 28  14  16  2   
 29  15  17  2   
 30  15  30  1   
 31  16  17  1   
 32  16  31  1   
@<TRIPOS>SUBSTRUCTURE
  1 ****  10 GROUP 4 **** **** 0

# MOE 2024.06 (io_trps.svl 2023.06)
