@<TRIPOS>MOLECULE
NONAME
54 56 1 0 0 
SMALL
USER_CHARGES


@<TRIPOS>ATOM
  1 O       -6.0890    -0.6400    -0.5630 O.3   1 <1>  -0.5600 
  2 C       -6.6990     0.5180    -1.0370 C.3   1 <1>   0.2640 
  3 C       -4.7070    -0.5330    -0.3840 C.3   1 <1>   0.1200 
  4 C       -8.1950     0.2710    -1.1270 C.ar  1 <1>  -0.1440 
  5 C       -4.1710    -1.8630     0.1660 C.3   1 <1>   0.2000 
  6 C       -8.7460    -0.2810    -2.2740 C.ar  1 <1>  -0.1500 
  7 C       -9.0250     0.5970    -0.0650 C.ar  1 <1>  -0.1500 
  8 O       -5.0160    -2.2530     1.1970 O.3   1 <1>  -0.6800 
  9 C       -2.7150    -1.7460     0.6680 C.3   1 <1>   0.1100 
 10 C      -10.1110    -0.4960    -2.3610 C.ar  1 <1>  -0.1500 
 11 C      -10.3900     0.3820    -0.1500 C.ar  1 <1>  -0.1500 
 12 N       -2.0100    -3.0440     0.8330 N.3   1 <1>  -0.8100 
 13 C      -10.9340    -0.1640    -1.3000 C.ar  1 <1>  -0.1500 
 14 C       -0.5780    -2.8280     1.1520 C.3   1 <1>   0.1100 
 15 C       -2.6490    -3.9050     1.8680 C.3   1 <1>   0.1100 
 16 C        0.2110    -4.1570     1.2410 C.3   1 <1>   0.3430 
 17 C       -1.8190    -5.1610     2.2170 C.3   1 <1>   0.3430 
 18 N       -0.7120    -5.3420     1.2300 N.4   1 <1>  -0.9590 
 19 C       -0.0200    -6.6520     1.3080 C.3   1 <1>   0.4860 
 20 C        0.9740    -6.7460     0.1670 C.ar  1 <1>  -0.1430 
 21 C        0.5300    -6.8990    -1.1390 C.ar  1 <1>  -0.1500 
 22 C        2.3360    -6.6710     0.4220 C.ar  1 <1>  -0.1500 
 23 C        1.4400    -6.9640    -2.1800 C.ar  1 <1>  -0.1500 
 24 C        3.2440    -6.7370    -0.6210 C.ar  1 <1>  -0.1500 
 25 C        2.7960    -6.8820    -1.9210 C.ar  1 <1>  -0.1500 
 26 H       -6.2970     0.7500    -2.0080 H     1 <1>   0.0800 
 27 H       -6.4930     1.3260    -0.3560 H     1 <1>   0.0800 
 28 H       -4.5080     0.2620     0.3140 H     1 <1>   0.0800 
 29 H       -4.2470    -0.3080    -1.3310 H     1 <1>   0.0800 
 30 H       -4.2270    -2.6050    -0.6120 H     1 <1>   0.0800 
 31 H       -8.1130    -0.5490    -3.1010 H     1 <1>   0.1500 
 32 H       -8.6100     1.0160     0.8350 H     1 <1>   0.1500 
 33 H       -5.9270    -2.0070     0.9120 H     1 <1>   0.4000 
 34 H       -2.7050    -1.1930     1.5930 H     1 <1>   0.0800 
 35 H       -2.1710    -1.1690    -0.0610 H     1 <1>   0.0800 
 36 H      -10.5320    -0.9250    -3.2540 H     1 <1>   0.1500 
 37 H      -11.0280     0.6380     0.6770 H     1 <1>   0.1500 
 38 H      -11.9940    -0.3310    -1.3670 H     1 <1>   0.1500 
 39 H       -0.4920    -2.3030     2.0890 H     1 <1>   0.0800 
 40 H       -0.1260    -2.2100     0.3940 H     1 <1>   0.0800 
 41 H       -3.6040    -4.2400     1.5020 H     1 <1>   0.0800 
 42 H       -2.8320    -3.3360     2.7640 H     1 <1>   0.0800 
 43 H        0.8100    -4.1560     2.1350 H     1 <1>   0.0800 
 44 H        0.8810    -4.2160     0.3980 H     1 <1>   0.0800 
 45 H       -2.4690    -6.0200     2.2180 H     1 <1>   0.0800 
 46 H       -1.4120    -5.0520     3.2090 H     1 <1>   0.0800 
 47 H       -1.1720    -5.2650     0.3110 H     1 <1>   0.4500 
 48 H       -0.7350    -7.4540     1.2260 H     1 <1>   0.0800 
 49 H        0.4940    -6.7450     2.2510 H     1 <1>   0.0800 
 50 H       -0.5200    -6.9700    -1.3650 H     1 <1>   0.1500 
 51 H        2.7090    -6.5630     1.4260 H     1 <1>   0.1500 
 52 H        1.0960    -7.0830    -3.1940 H     1 <1>   0.1500 
 53 H        4.3020    -6.6800    -0.4240 H     1 <1>   0.1500 
 54 H        3.5030    -6.9340    -2.7320 H     1 <1>   0.1500 
@<TRIPOS>BOND
  1   1   2  1   
  2   1   3  1   
  3   2   4  1   
  4   2  26  1   
  5   2  27  1   
  6   3   5  1   
  7   3  28  1   
  8   3  29  1   
  9   4   6  ar  
 10   4   7  ar  
 11   5   8  1   
 12   5   9  1   
 13   5  30  1   
 14   6  10  ar  
 15   6  31  1   
 16   7  11  ar  
 17   7  32  1   
 18   8  33  1   
 19   9  12  1   
 20   9  34  1   
 21   9  35  1   
 22  10  13  ar  
 23  10  36  1   
 24  11  13  ar  
 25  11  37  1   
 26  12  14  1   
 27  12  15  1   
 28  13  38  1   
 29  14  16  1   
 30  14  39  1   
 31  14  40  1   
 32  15  17  1   
 33  15  41  1   
 34  15  42  1   
 35  16  18  1   
 36  16  43  1   
 37  16  44  1   
 38  17  18  1   
 39  17  45  1   
 40  17  46  1   
 41  18  19  1   
 42  18  47  1   
 43  19  20  1   
 44  19  48  1   
 45  19  49  1   
 46  20  21  ar  
 47  20  22  ar  
 48  21  23  ar  
 49  21  50  1   
 50  22  24  ar  
 51  22  51  1   
 52  23  25  ar  
 53  23  52  1   
 54  24  25  ar  
 55  24  53  1   
 56  25  54  1   
@<TRIPOS>SUBSTRUCTURE
  1 ****   5 GROUP 4 **** **** 0

# MOE 2024.06 (io_trps.svl 2023.06)
