@<TRIPOS>MOLECULE
NONAME
46 48 1 0 0 
SMALL
USER_CHARGES


@<TRIPOS>ATOM
  1 O       -0.0890    -1.2680     0.7320 O.3   1 <1>  -0.3630 
  2 C       -1.2490    -1.4050     0.0140 C.ar  1 <1>   0.0830 
  3 C        0.1200    -0.1490     1.5650 C.3   1 <1>   0.1200 
  4 C       -1.3820    -2.5150    -0.8410 C.ar  1 <1>   0.1000 
  5 C       -2.2890    -0.4840     0.1080 C.ar  1 <1>  -0.1500 
  6 C        1.5070    -0.2730     2.1890 C.3   1 <1>  -0.2400 
  7 N       -0.4010    -3.5030    -1.0100 N.pl3 1 <1>  -0.8380 
  8 C       -2.5530    -2.6600    -1.5710 C.ar  1 <1>  -0.1500 
  9 C       -3.4480    -0.6510    -0.6320 C.ar  1 <1>  -0.1500 
 10 C        0.8230    -3.1140    -1.7710 C.3   1 <1>   0.2090 
 11 C       -0.2150    -4.4630     0.1170 C.3   1 <1>   0.2090 
 12 C       -3.5800    -1.7400    -1.4720 C.ar  1 <1>  -0.1500 
 13 C        2.0170    -2.8010    -0.8460 C.3   1 <1>   0.3430 
 14 C        1.0050    -4.1110     0.9940 C.3   1 <1>   0.3430 
 15 N        2.2590    -3.8740     0.1910 N.4   1 <1>  -0.9590 
 16 C        3.4060    -3.5340     1.0770 C.3   1 <1>   0.4860 
 17 C        4.6570    -3.3670     0.2420 C.ar  1 <1>  -0.1430 
 18 C        5.3160    -4.4810    -0.2560 C.ar  1 <1>   0.1600 
 19 C        5.1620    -2.1110    -0.0410 C.ar  1 <1>  -0.1500 
 20 N        6.3930    -4.4400    -1.0160 N.ar  1 <1>  -0.6200 
 21 C        6.2950    -2.0560    -0.8240 C.ar  1 <1>  -0.1500 
 22 C        6.8630    -3.2320    -1.2820 C.ar  1 <1>   0.1600 
 23 H       -0.6410    -0.1430     2.3280 H     1 <1>   0.0800 
 24 H        0.0510     0.7430     0.9660 H     1 <1>   0.0800 
 25 H       -2.2320     0.3750     0.7480 H     1 <1>   0.1500 
 26 H        1.5690    -1.1650     2.7850 H     1 <1>   0.0800 
 27 H        1.6840     0.5730     2.8300 H     1 <1>   0.0800 
 28 H        2.2610    -0.2790     1.4240 H     1 <1>   0.0800 
 29 H       -2.6550    -3.5070    -2.2250 H     1 <1>   0.1500 
 30 H       -4.2480     0.0650    -0.5530 H     1 <1>   0.1500 
 31 H        0.6070    -2.2450    -2.3710 H     1 <1>   0.0800 
 32 H        1.0850    -3.9120    -2.4430 H     1 <1>   0.0800 
 33 H       -0.0990    -5.4540    -0.2860 H     1 <1>   0.0800 
 34 H       -1.1000    -4.4650     0.7300 H     1 <1>   0.0800 
 35 H       -4.4790    -1.8720    -2.0490 H     1 <1>   0.1500 
 36 H        1.8230    -1.8630    -0.3560 H     1 <1>   0.0800 
 37 H        2.8970    -2.6740    -1.4560 H     1 <1>   0.0800 
 38 H        1.1640    -4.9090     1.6990 H     1 <1>   0.0800 
 39 H        0.7640    -3.2230     1.5540 H     1 <1>   0.0800 
 40 H        2.4800    -4.7350    -0.3220 H     1 <1>   0.4500 
 41 H        3.5600    -4.3180     1.8010 H     1 <1>   0.0800 
 42 H        3.2000    -2.6190     1.6080 H     1 <1>   0.0800 
 43 H        4.9450    -5.4660    -0.0270 H     1 <1>   0.1500 
 44 H        4.7080    -1.2050     0.3250 H     1 <1>   0.1500 
 45 H        6.7420    -1.1110    -1.0810 H     1 <1>   0.1500 
 46 H        7.7480    -3.1780    -1.8950 H     1 <1>   0.1500 
@<TRIPOS>BOND
  1   1   2  1   
  2   1   3  1   
  3   2   4  ar  
  4   2   5  ar  
  5   3   6  1   
  6   3  23  1   
  7   3  24  1   
  8   4   7  1   
  9   4   8  ar  
 10   5   9  ar  
 11   5  25  1   
 12   6  26  1   
 13   6  27  1   
 14   6  28  1   
 15   7  10  1   
 16   7  11  1   
 17   8  12  ar  
 18   8  29  1   
 19   9  12  ar  
 20   9  30  1   
 21  10  13  1   
 22  10  31  1   
 23  10  32  1   
 24  11  14  1   
 25  11  33  1   
 26  11  34  1   
 27  12  35  1   
 28  13  15  1   
 29  13  36  1   
 30  13  37  1   
 31  14  15  1   
 32  14  38  1   
 33  14  39  1   
 34  15  16  1   
 35  15  40  1   
 36  16  17  1   
 37  16  41  1   
 38  16  42  1   
 39  17  18  ar  
 40  17  19  ar  
 41  18  20  ar  
 42  18  43  1   
 43  19  21  ar  
 44  19  44  1   
 45  20  22  ar  
 46  21  22  ar  
 47  21  45  1   
 48  22  46  1   
@<TRIPOS>SUBSTRUCTURE
  1 ****  13 GROUP 4 **** **** 0

# MOE 2024.06 (io_trps.svl 2023.06)
