@<TRIPOS>MOLECULE
NONAME
40 40 1 0 0 
SMALL
USER_CHARGES


@<TRIPOS>ATOM
  1 N       -1.0460     0.5720    -2.0880 N.1   1 <1>  -0.5570 
  2 C       -1.8250    -0.0760    -1.5790 C.1   1 <1>   0.3570 
  3 C       -2.9210    -0.8340    -0.9300 C.3   1 <1>   0.0400 
  4 C       -4.1790     0.0350    -0.9960 C.3   1 <1>   0.3430 
  5 N       -5.3640    -0.6320    -0.3540 N.4   1 <1>  -0.9060 
  6 C       -6.6280     0.1530    -0.4440 C.3   1 <1>   0.4230 
  7 C       -6.5860     1.3640     0.4900 C.3   1 <1>  -0.1600 
  8 C       -7.7960    -0.7420    -0.0350 C.3   1 <1>  -0.1600 
  9 C       -7.8910     2.1770     0.4380 C.3   1 <1>   0.5030 
 10 C       -9.1440    -0.0050    -0.1090 C.3   1 <1>   0.5030 
 11 N       -9.0710     1.3070     0.5520 N.4   1 <1>  -0.9060 
 12 C       -7.9580     3.1250     1.6330 C.3   1 <1>  -0.2400 
 13 C       -7.9870     3.0100    -0.8430 C.3   1 <1>  -0.2400 
 14 C       -9.6170     0.1710    -1.5540 C.3   1 <1>  -0.2400 
 15 C      -10.2070    -0.7930     0.6510 C.3   1 <1>  -0.2400 
 16 H       -2.6400    -1.0350     0.0870 H     1 <1>   0.0800 
 17 H       -3.0580    -1.7570    -1.4630 H     1 <1>   0.0800 
 18 H       -4.3970     0.2490    -2.0310 H     1 <1>   0.0800 
 19 H       -3.9740     0.9730    -0.5040 H     1 <1>   0.0800 
 20 H       -5.1530    -0.8410     0.6320 H     1 <1>   0.4500 
 21 H       -5.5100    -1.5440    -0.8120 H     1 <1>   0.4500 
 22 H       -6.7730     0.4820    -1.4620 H     1 <1>   0.0800 
 23 H       -5.7730     2.0160     0.2220 H     1 <1>   0.0800 
 24 H       -6.4170     1.0340     1.5000 H     1 <1>   0.0800 
 25 H       -7.6450    -1.0970     0.9700 H     1 <1>   0.0800 
 26 H       -7.8430    -1.6030    -0.6800 H     1 <1>   0.0800 
 27 H       -9.8860     1.8510     0.2460 H     1 <1>   0.4500 
 28 H       -9.2380     1.1520     1.5510 H     1 <1>   0.4500 
 29 H       -7.9220     2.5920     2.5670 H     1 <1>   0.0800 
 30 H       -8.8540     3.7220     1.6070 H     1 <1>   0.0800 
 31 H       -7.1220     3.8040     1.6160 H     1 <1>   0.0800 
 32 H       -7.8210     2.4350    -1.7310 H     1 <1>   0.0800 
 33 H       -7.2350     3.7810    -0.8320 H     1 <1>   0.0800 
 34 H       -8.9410     3.5020    -0.9160 H     1 <1>   0.0800 
 35 H       -8.8730     0.6070    -2.1890 H     1 <1>   0.0800 
 36 H      -10.5120     0.7660    -1.6000 H     1 <1>   0.0800 
 37 H       -9.8560    -0.7910    -1.9770 H     1 <1>   0.0800 
 38 H       -9.9430    -0.9250     1.6860 H     1 <1>   0.0800 
 39 H      -10.3210    -1.7740     0.2200 H     1 <1>   0.0800 
 40 H      -11.1670    -0.3070     0.5960 H     1 <1>   0.0800 
@<TRIPOS>BOND
  1   1   2  3   
  2   2   3  1   
  3   3   4  1   
  4   3  16  1   
  5   3  17  1   
  6   4   5  1   
  7   4  18  1   
  8   4  19  1   
  9   5   6  1   
 10   5  20  1   
 11   5  21  1   
 12   6   7  1   
 13   6   8  1   
 14   6  22  1   
 15   7   9  1   
 16   7  23  1   
 17   7  24  1   
 18   8  10  1   
 19   8  25  1   
 20   8  26  1   
 21   9  11  1   
 22   9  12  1   
 23   9  13  1   
 24  10  11  1   
 25  10  14  1   
 26  10  15  1   
 27  11  27  1   
 28  11  28  1   
 29  12  29  1   
 30  12  30  1   
 31  12  31  1   
 32  13  32  1   
 33  13  33  1   
 34  13  34  1   
 35  14  35  1   
 36  14  36  1   
 37  14  37  1   
 38  15  38  1   
 39  15  39  1   
 40  15  40  1   
@<TRIPOS>SUBSTRUCTURE
  1 ****   6 GROUP 4 **** **** 0

# MOE 2024.06 (io_trps.svl 2023.06)
