@<TRIPOS>MOLECULE
NONAME
47 48 1 0 0 
SMALL
USER_CHARGES


@<TRIPOS>ATOM
  1 CL       1.0550     0.2570     0.9970 Cl    1 <1>  -0.1770 
  2 C        0.4400     1.8030     0.4580 C.ar  1 <1>   0.1770 
  3 C        1.2940     2.7390    -0.1040 C.ar  1 <1>  -0.1440 
  4 C       -0.9090     2.0550     0.6090 C.ar  1 <1>  -0.1500 
  5 C        0.7590     3.9460    -0.5220 C.ar  1 <1>  -0.1500 
  6 C        2.7800     2.4520    -0.2650 C.3   1 <1>  -0.0960 
  7 C       -1.4510     3.2710     0.2070 C.ar  1 <1>  -0.0090 
  8 C       -0.6020     4.2090    -0.3730 C.ar  1 <1>   0.0830 
  9 S       -3.2130     3.6460     0.3860 S.o2  1 <1>   1.4470 
 10 O       -1.1680     5.3700    -0.7850 O.3   1 <1>  -0.3630 
 11 O       -3.4770     4.8900     1.0720 O.2   1 <1>  -0.6500 
 12 O       -3.9420     3.3680    -0.8310 O.2   1 <1>  -0.6500 
 13 N       -3.7870     2.5200     1.4990 N.am  1 <1>  -0.9140 
 14 C       -0.4170     6.4250    -1.3410 C.3   1 <1>   0.1200 
 15 C       -5.1990     2.6810     1.8830 C.3   1 <1>   0.1960 
 16 C       -1.3780     7.5690    -1.6490 C.3   1 <1>  -0.2400 
 17 C       -6.2020     2.4100     0.7320 C.3   1 <1>   0.3430 
 18 N       -7.1040     3.5700     0.4000 N.4   1 <1>  -0.9590 
 19 C       -8.0630     3.2140    -0.6990 C.3   1 <1>   0.3430 
 20 C       -6.3960     4.8480     0.0270 C.3   1 <1>   0.3430 
 21 C       -8.9600     4.4130    -1.0880 C.3   1 <1>   0.1200 
 22 C       -7.4030     5.9800    -0.2790 C.3   1 <1>   0.1200 
 23 O       -8.7260     5.5100    -0.2480 O.3   1 <1>  -0.5600 
 24 H       -1.5260     1.2860     1.0380 H     1 <1>   0.1500 
 25 H        1.4150     4.6720    -0.9640 H     1 <1>   0.1500 
 26 H        3.2230     2.2570     0.6960 H     1 <1>   0.0800 
 27 H        3.2910     3.2850    -0.7120 H     1 <1>   0.0800 
 28 H        2.9220     1.5890    -0.8910 H     1 <1>   0.0800 
 29 H       -3.2470     2.7290     2.3400 H     1 <1>   0.4200 
 30 H        0.0560     6.0730    -2.2420 H     1 <1>   0.0800 
 31 H        0.3240     6.7340    -0.6240 H     1 <1>   0.0800 
 32 H       -5.3560     3.6630     2.2970 H     1 <1>   0.0800 
 33 H       -5.4050     1.9700     2.6650 H     1 <1>   0.0800 
 34 H       -2.1200     7.2480    -2.3580 H     1 <1>   0.0800 
 35 H       -0.8360     8.3960    -2.0710 H     1 <1>   0.0800 
 36 H       -1.8600     7.8990    -0.7470 H     1 <1>   0.0800 
 37 H       -6.8140     1.5720     1.0200 H     1 <1>   0.0800 
 38 H       -5.6540     2.1130    -0.1470 H     1 <1>   0.0800 
 39 H       -7.6970     3.8200     1.2060 H     1 <1>   0.4500 
 40 H       -8.6900     2.3940    -0.3890 H     1 <1>   0.0800 
 41 H       -7.5170     2.8920    -1.5710 H     1 <1>   0.0800 
 42 H       -5.7840     4.6890    -0.8450 H     1 <1>   0.0800 
 43 H       -5.7470     5.1710     0.8230 H     1 <1>   0.0800 
 44 H       -9.9990     4.1440    -1.0000 H     1 <1>   0.0800 
 45 H       -8.7750     4.7120    -2.1060 H     1 <1>   0.0800 
 46 H       -7.2090     6.4080    -1.2480 H     1 <1>   0.0800 
 47 H       -7.3150     6.7610     0.4560 H     1 <1>   0.0800 
@<TRIPOS>BOND
  1   1   2  1   
  2   2   3  ar  
  3   2   4  ar  
  4   3   5  ar  
  5   3   6  1   
  6   4   7  ar  
  7   4  24  1   
  8   5   8  ar  
  9   5  25  1   
 10   6  26  1   
 11   6  27  1   
 12   6  28  1   
 13   7   8  ar  
 14   7   9  1   
 15   8  10  1   
 16   9  11  2   
 17   9  12  2   
 18   9  13  am  
 19  10  14  1   
 20  13  15  1   
 21  13  29  1   
 22  14  16  1   
 23  14  30  1   
 24  14  31  1   
 25  15  17  1   
 26  15  32  1   
 27  15  33  1   
 28  16  34  1   
 29  16  35  1   
 30  16  36  1   
 31  17  18  1   
 32  17  37  1   
 33  17  38  1   
 34  18  19  1   
 35  18  20  1   
 36  18  39  1   
 37  19  21  1   
 38  19  40  1   
 39  19  41  1   
 40  20  22  1   
 41  20  42  1   
 42  20  43  1   
 43  21  23  1   
 44  21  44  1   
 45  21  45  1   
 46  22  23  1   
 47  22  46  1   
 48  22  47  1   
@<TRIPOS>SUBSTRUCTURE
  1 ****   9 GROUP 4 **** **** 0

# MOE 2024.06 (io_trps.svl 2023.06)
