@<TRIPOS>MOLECULE
NONAME
62 63 1 0 0 
SMALL
USER_CHARGES


@<TRIPOS>ATOM
  1 O       -0.8010    -0.4880     1.4070 O.3   1 <1>  -0.5320 
  2 C       -1.8120    -0.6390     0.5420 C.ar  1 <1>   0.0830 
  3 C       -2.2630     0.4820    -0.1740 C.ar  1 <1>  -0.1430 
  4 C       -2.3680    -1.9210     0.3980 C.ar  1 <1>  -0.1430 
  5 C       -3.3210     0.2780    -1.0520 C.ar  1 <1>  -0.1500 
  6 C       -1.6310     1.9030    -0.0210 C.3   1 <1>   0.1440 
  7 C       -3.4250    -2.0460    -0.4970 C.ar  1 <1>  -0.1500 
  8 C       -1.8550    -3.1690     1.1870 C.3   1 <1>   0.1440 
  9 C       -3.9050    -0.9640    -1.2090 C.ar  1 <1>  -0.1430 
 10 C       -1.7870     2.4200     1.4210 C.3   1 <1>  -0.2400 
 11 C       -0.1450     1.8880    -0.4210 C.3   1 <1>  -0.2400 
 12 C       -2.2930     2.9690    -0.9200 C.3   1 <1>  -0.2400 
 13 C       -0.3790    -3.4630     0.8530 C.3   1 <1>  -0.2400 
 14 C       -2.6200    -4.4650     0.8470 C.3   1 <1>  -0.2400 
 15 C       -2.0310    -2.9720     2.7050 C.3   1 <1>  -0.2400 
 16 C       -5.0860    -1.1280    -2.1450 C.3   1 <1>   0.4860 
 17 N       -6.3170    -1.2820    -1.3280 N.4   1 <1>  -0.9590 
 18 C       -7.5560    -1.5630    -2.1200 C.3   1 <1>   0.3430 
 19 C       -6.5450    -0.1680    -0.3470 C.3   1 <1>   0.3430 
 20 C       -8.7720    -1.8110    -1.1910 C.3   1 <1>   0.1100 
 21 C       -7.7530    -0.4770     0.5720 C.3   1 <1>   0.1100 
 22 N       -8.4060    -1.7710     0.2490 N.3   1 <1>  -0.8100 
 23 C       -9.5740    -1.9950     1.1300 C.3   1 <1>   0.1100 
 24 C      -10.0290    -3.4600     1.1140 C.3   1 <1>   0.1200 
 25 O      -11.0930    -3.6130     1.9890 O.3   1 <1>  -0.6800 
 26 H       -0.5630    -1.3330     1.8250 H     1 <1>   0.4500 
 27 H       -3.7180     1.0840    -1.6370 H     1 <1>   0.1500 
 28 H       -3.9020    -2.9910    -0.6660 H     1 <1>   0.1500 
 29 H       -1.2200     1.8320     2.1160 H     1 <1>   0.0800 
 30 H       -2.8200     2.3860     1.7160 H     1 <1>   0.0800 
 31 H       -1.4390     3.4340     1.5020 H     1 <1>   0.0800 
 32 H       -0.0340     1.4780    -1.4080 H     1 <1>   0.0800 
 33 H        0.4430     1.2970     0.2540 H     1 <1>   0.0800 
 34 H        0.2640     2.8820    -0.4130 H     1 <1>   0.0800 
 35 H       -3.3340     3.0830    -0.6760 H     1 <1>   0.0800 
 36 H       -2.1920     2.7080    -1.9580 H     1 <1>   0.0800 
 37 H       -1.8220     3.9260    -0.7810 H     1 <1>   0.0800 
 38 H       -0.2620    -3.5620    -0.2110 H     1 <1>   0.0800 
 39 H       -0.0630    -4.3820     1.3130 H     1 <1>   0.0800 
 40 H        0.2910    -2.6960     1.1870 H     1 <1>   0.0800 
 41 H       -2.5190    -4.7050    -0.1960 H     1 <1>   0.0800 
 42 H       -3.6630    -4.3700     1.0930 H     1 <1>   0.0800 
 43 H       -2.2310    -5.2960     1.4080 H     1 <1>   0.0800 
 44 H       -1.4260    -2.1810     3.1010 H     1 <1>   0.0800 
 45 H       -1.7660    -3.8690     3.2360 H     1 <1>   0.0800 
 46 H       -3.0590    -2.7430     2.9260 H     1 <1>   0.0800 
 47 H       -4.9360    -2.0000    -2.7610 H     1 <1>   0.0800 
 48 H       -5.1690    -0.2650    -2.7840 H     1 <1>   0.0800 
 49 H       -6.2040    -2.1030    -0.7150 H     1 <1>   0.4500 
 50 H       -7.4070    -2.4350    -2.7350 H     1 <1>   0.0800 
 51 H       -7.7750    -0.7350    -2.7730 H     1 <1>   0.0800 
 52 H       -6.7220     0.7570    -0.8690 H     1 <1>   0.0800 
 53 H       -5.6710    -0.0340     0.2700 H     1 <1>   0.0800 
 54 H       -9.1920    -2.7720    -1.4350 H     1 <1>   0.0800 
 55 H       -9.5270    -1.0710    -1.3960 H     1 <1>   0.0800 
 56 H       -8.4680     0.3250     0.4910 H     1 <1>   0.0800 
 57 H       -7.4090    -0.4980     1.5920 H     1 <1>   0.0800 
 58 H      -10.3910    -1.3610     0.8290 H     1 <1>   0.0800 
 59 H       -9.3020    -1.7460     2.1410 H     1 <1>   0.0800 
 60 H       -9.2350    -4.1160     1.4280 H     1 <1>   0.0800 
 61 H      -10.3770    -3.7470     0.1380 H     1 <1>   0.0800 
 62 H      -10.7960    -3.5610     2.9180 H     1 <1>   0.4000 
@<TRIPOS>BOND
  1   1   2  1   
  2   1  26  1   
  3   2   3  ar  
  4   2   4  ar  
  5   3   5  ar  
  6   3   6  1   
  7   4   7  ar  
  8   4   8  1   
  9   5   9  ar  
 10   5  27  1   
 11   6  10  1   
 12   6  11  1   
 13   6  12  1   
 14   7   9  ar  
 15   7  28  1   
 16   8  13  1   
 17   8  14  1   
 18   8  15  1   
 19   9  16  1   
 20  10  29  1   
 21  10  30  1   
 22  10  31  1   
 23  11  32  1   
 24  11  33  1   
 25  11  34  1   
 26  12  35  1   
 27  12  36  1   
 28  12  37  1   
 29  13  38  1   
 30  13  39  1   
 31  13  40  1   
 32  14  41  1   
 33  14  42  1   
 34  14  43  1   
 35  15  44  1   
 36  15  45  1   
 37  15  46  1   
 38  16  17  1   
 39  16  47  1   
 40  16  48  1   
 41  17  18  1   
 42  17  19  1   
 43  17  49  1   
 44  18  20  1   
 45  18  50  1   
 46  18  51  1   
 47  19  21  1   
 48  19  52  1   
 49  19  53  1   
 50  20  22  1   
 51  20  54  1   
 52  20  55  1   
 53  21  22  1   
 54  21  56  1   
 55  21  57  1   
 56  22  23  1   
 57  23  24  1   
 58  23  58  1   
 59  23  59  1   
 60  24  25  1   
 61  24  60  1   
 62  24  61  1   
 63  25  62  1   
@<TRIPOS>SUBSTRUCTURE
  1 ****   9 GROUP 4 **** **** 0

# MOE 2024.06 (io_trps.svl 2023.06)
