@<TRIPOS>MOLECULE
NONAME
37 38 1 0 0 
SMALL
USER_CHARGES


@<TRIPOS>ATOM
  1 O        0.1390    -0.3630     0.6300 O.3   1 <1>  -0.3630 
  2 C       -1.0970    -0.8180     0.3050 C.ar  1 <1>   0.0830 
  3 C        1.2900    -1.1440     0.4050 C.3   1 <1>   0.1200 
  4 C       -1.3440    -2.0870    -0.2130 C.ar  1 <1>  -0.1500 
  5 C       -2.1540     0.0530     0.5090 C.ar  1 <1>  -0.1500 
  6 C        2.5280    -0.3320     0.7960 C.3   1 <1>  -0.1600 
  7 C       -2.6380    -2.4730    -0.5230 C.ar  1 <1>  -0.1440 
  8 C       -3.4500    -0.3230     0.2000 C.ar  1 <1>  -0.1430 
  9 C        2.6410     0.9870     0.0080 C.3   1 <1>  -0.1600 
 10 C       -3.6840    -1.5880    -0.3160 C.ar  1 <1>  -0.1500 
 11 C       -2.9150    -3.8540    -1.0890 C.3   1 <1>  -0.0970 
 12 C       -4.6090     0.6310     0.4230 C.3   1 <1>  -0.0970 
 13 C        3.8860     1.8030     0.3930 C.3   1 <1>   0.0960 
 14 N        5.1380     1.0850     0.0750 N.pl3 1 <1>   0.3140 
 15 N        5.9310     0.5690     1.0030 N.2   1 <1>  -0.7070 
 16 C        5.6690     0.8350    -1.1250 C.2   1 <1>   0.0370 
 17 C        6.8800     0.0460     0.2980 C.2   1 <1>   0.3660 
 18 N        6.7680     0.1800    -1.0300 N.2   1 <1>  -0.5650 
 19 H        1.3250    -1.4040    -0.6390 H     1 <1>   0.0800 
 20 H        1.2170    -2.0350     1.0050 H     1 <1>   0.0800 
 21 H       -0.5450    -2.7810    -0.3790 H     1 <1>   0.1500 
 22 H       -1.9480     1.0270     0.9130 H     1 <1>   0.1500 
 23 H        3.3970    -0.9420     0.6170 H     1 <1>   0.0800 
 24 H        2.4900    -0.1290     1.8530 H     1 <1>   0.0800 
 25 H        1.7720     1.5900     0.2110 H     1 <1>   0.0800 
 26 H        2.6510     0.7850    -1.0490 H     1 <1>   0.0800 
 27 H       -4.6900    -1.8840    -0.5570 H     1 <1>   0.1500 
 28 H       -2.1450    -4.5450    -0.7980 H     1 <1>   0.0800 
 29 H       -2.9510    -3.8050    -2.1630 H     1 <1>   0.0800 
 30 H       -3.8570    -4.2240    -0.7260 H     1 <1>   0.0800 
 31 H       -4.2520     1.6260     0.6190 H     1 <1>   0.0800 
 32 H       -5.1940     0.3020     1.2620 H     1 <1>   0.0800 
 33 H       -5.2350     0.6600    -0.4500 H     1 <1>   0.0800 
 34 H        3.8750     2.0110     1.4480 H     1 <1>   0.0800 
 35 H        3.8900     2.7380    -0.1360 H     1 <1>   0.0800 
 36 H        5.2130     1.1520    -2.0450 H     1 <1>   0.1500 
 37 H        7.7220    -0.4710     0.7300 H     1 <1>   0.1500 
@<TRIPOS>BOND
  1   1   2  1   
  2   1   3  1   
  3   2   4  ar  
  4   2   5  ar  
  5   3   6  1   
  6   3  19  1   
  7   3  20  1   
  8   4   7  ar  
  9   4  21  1   
 10   5   8  ar  
 11   5  22  1   
 12   6   9  1   
 13   6  23  1   
 14   6  24  1   
 15   7  10  ar  
 16   7  11  1   
 17   8  10  ar  
 18   8  12  1   
 19   9  13  1   
 20   9  25  1   
 21   9  26  1   
 22  10  27  1   
 23  11  28  1   
 24  11  29  1   
 25  11  30  1   
 26  12  31  1   
 27  12  32  1   
 28  12  33  1   
 29  13  14  1   
 30  13  34  1   
 31  13  35  1   
 32  14  15  1   
 33  14  16  1   
 34  15  17  2   
 35  16  18  2   
 36  16  36  1   
 37  17  18  1   
 38  17  37  1   
@<TRIPOS>SUBSTRUCTURE
  1 ****   3 GROUP 4 **** **** 0

# MOE 2024.06 (io_trps.svl 2023.06)
