@<TRIPOS>MOLECULE
NONAME
36 36 1 0 0 
SMALL
USER_CHARGES


@<TRIPOS>ATOM
  1 I        2.3890    -2.0470     2.4920 I     1 <1>  -0.0810 
  2 C        1.2280    -2.6740     0.8130 C.ar  1 <1>   0.0810 
  3 C        1.5890    -2.3210    -0.4920 C.ar  1 <1>   0.0860 
  4 C        0.0990    -3.4170     1.1100 C.ar  1 <1>  -0.1500 
  5 C        2.7740    -1.5720    -0.8400 C.2   1 <1>   0.6340 
  6 C        0.7180    -2.7360    -1.5020 C.ar  1 <1>  -0.1500 
  7 C       -0.7280    -3.8230     0.0790 C.ar  1 <1>  -0.1500 
  8 O        2.7490    -0.5500    -1.4900 O.2   1 <1>  -0.5700 
  9 O        3.9640    -2.0490    -0.4580 O.3   1 <1>  -0.4300 
 10 C       -0.4190    -3.4770    -1.2250 C.ar  1 <1>  -0.1500 
 11 C        5.1550    -1.3480    -0.7450 C.3   1 <1>   0.1200 
 12 C        6.3050    -2.0380    -0.0050 C.3   1 <1>   0.3430 
 13 N        7.6350    -1.3850    -0.2580 N.4   1 <1>  -0.9590 
 14 C        8.7430    -2.2660     0.2080 C.3   1 <1>   0.4230 
 15 C        7.6860     0.0100     0.3000 C.3   1 <1>   0.2630 
 16 C        8.8400    -2.3120     1.7350 C.3   1 <1>  -0.2400 
 17 C       10.0540    -1.7880    -0.4090 C.3   1 <1>  -0.2400 
 18 H       -0.1390    -3.6730     2.1280 H     1 <1>   0.1500 
 19 H        0.9380    -2.4700    -2.5230 H     1 <1>   0.1500 
 20 H       -1.6120    -4.4020     0.2890 H     1 <1>   0.1500 
 21 H       -1.0680    -3.7850    -2.0280 H     1 <1>   0.1500 
 22 H        5.0290    -0.3340    -0.4080 H     1 <1>   0.0800 
 23 H        5.3020    -1.3710    -1.8110 H     1 <1>   0.0800 
 24 H        6.3440    -3.0650    -0.3310 H     1 <1>   0.0800 
 25 H        6.0930    -2.0270     1.0510 H     1 <1>   0.0800 
 26 H        7.7520    -1.3150    -1.2790 H     1 <1>   0.4500 
 27 H        8.5580    -3.2680    -0.1480 H     1 <1>   0.0800 
 28 H        7.5250    -0.0060     1.3660 H     1 <1>   0.0800 
 29 H        6.9270     0.6270    -0.1520 H     1 <1>   0.0800 
 30 H        8.6460     0.4600     0.1050 H     1 <1>   0.0800 
 31 H        9.1210    -1.3600     2.1480 H     1 <1>   0.0800 
 32 H        9.5980    -3.0210     2.0170 H     1 <1>   0.0800 
 33 H        7.9160    -2.6390     2.1760 H     1 <1>   0.0800 
 34 H       10.3440    -0.8230    -0.0360 H     1 <1>   0.0800 
 35 H        9.9810    -1.7540    -1.4820 H     1 <1>   0.0800 
 36 H       10.8370    -2.4820    -0.1590 H     1 <1>   0.0800 
@<TRIPOS>BOND
  1   1   2  1   
  2   2   3  ar  
  3   2   4  ar  
  4   3   5  1   
  5   3   6  ar  
  6   4   7  ar  
  7   4  18  1   
  8   5   8  2   
  9   5   9  1   
 10   6  10  ar  
 11   6  19  1   
 12   7  10  ar  
 13   7  20  1   
 14   9  11  1   
 15  10  21  1   
 16  11  12  1   
 17  11  22  1   
 18  11  23  1   
 19  12  13  1   
 20  12  24  1   
 21  12  25  1   
 22  13  14  1   
 23  13  15  1   
 24  13  26  1   
 25  14  16  1   
 26  14  17  1   
 27  14  27  1   
 28  15  28  1   
 29  15  29  1   
 30  15  30  1   
 31  16  31  1   
 32  16  32  1   
 33  16  33  1   
 34  17  34  1   
 35  17  35  1   
 36  17  36  1   
@<TRIPOS>SUBSTRUCTURE
  1 ****   9 GROUP 4 **** **** 0

# MOE 2024.06 (io_trps.svl 2023.06)
