@<TRIPOS>MOLECULE
NONAME
45 47 1 0 0 
SMALL
USER_CHARGES


@<TRIPOS>ATOM
  1 F       -2.8700    -0.8830    -3.1390 F     1 <1>  -0.1900 
  2 C       -3.4340    -1.2290    -2.0140 C.ar  1 <1>   0.1900 
  3 C       -3.4230    -0.3350    -0.9600 C.ar  1 <1>  -0.1500 
  4 C       -4.0210    -2.4750    -1.9180 C.ar  1 <1>  -0.1500 
  5 C       -4.0250    -0.7060     0.2300 C.ar  1 <1>  -0.1500 
  6 C       -4.6210    -2.8360    -0.7220 C.ar  1 <1>  -0.1500 
  7 C       -4.6260    -1.9540     0.3520 C.ar  1 <1>  -0.1430 
  8 C       -5.3120    -2.3490     1.6580 C.3   1 <1>   0.0440 
  9 C       -6.7970    -2.0230     1.6690 C.2   1 <1>   0.5690 
 10 O       -7.4660    -2.4500     2.5770 O.2   1 <1>  -0.5700 
 11 N       -7.3080    -1.2710     0.6460 N.am  1 <1>  -0.5470 
 12 C       -8.6090    -0.8130     0.4040 C.ar  1 <1>   0.1170 
 13 C       -9.5310    -0.5990     1.4220 C.ar  1 <1>  -0.1500 
 14 C       -8.9980    -0.5490    -0.9030 C.ar  1 <1>  -0.1500 
 15 C      -10.8090    -0.1520     1.1440 C.ar  1 <1>  -0.1500 
 16 C      -10.2760    -0.1030    -1.1890 C.ar  1 <1>  -0.1500 
 17 C      -11.1940     0.0890    -0.1670 C.ar  1 <1>  -0.1430 
 18 C      -12.6070     0.5450    -0.4760 C.3   1 <1>   0.4860 
 19 N      -13.5200    -0.6140    -0.2910 N.4   1 <1>  -0.9590 
 20 C      -13.2280    -1.7480    -1.2010 C.3   1 <1>   0.3430 
 21 C      -14.9540    -0.2930    -0.4650 C.3   1 <1>   0.3430 
 22 C      -14.5000    -2.5840    -1.1760 C.3   1 <1>  -0.1600 
 23 C      -15.6130    -1.6470    -0.6940 C.3   1 <1>  -0.1600 
 24 H       -2.9530     0.6250    -1.0740 H     1 <1>   0.1500 
 25 H       -4.0070    -3.1440    -2.7590 H     1 <1>   0.1500 
 26 H       -4.0220    -0.0170     1.0590 H     1 <1>   0.1500 
 27 H       -5.0820    -3.8050    -0.6350 H     1 <1>   0.1500 
 28 H       -4.8490    -1.8430     2.4850 H     1 <1>   0.0800 
 29 H       -5.1960    -3.4050     1.8240 H     1 <1>   0.0800 
 30 H       -6.6240    -1.0590    -0.0850 H     1 <1>   0.3700 
 31 H       -9.2460    -0.7800     2.4440 H     1 <1>   0.1500 
 32 H       -8.2940    -0.6970    -1.7030 H     1 <1>   0.1500 
 33 H      -11.4880     0.0040     1.9640 H     1 <1>   0.1500 
 34 H      -10.5410     0.0900    -2.2150 H     1 <1>   0.1500 
 35 H      -12.6640     0.9100    -1.4880 H     1 <1>   0.0800 
 36 H      -12.8790     1.3450     0.1940 H     1 <1>   0.0800 
 37 H      -13.3770    -0.9670     0.6630 H     1 <1>   0.4500 
 38 H      -12.3670    -2.3110    -0.8720 H     1 <1>   0.0800 
 39 H      -13.0550    -1.3820    -2.2000 H     1 <1>   0.0800 
 40 H      -15.0890     0.3240    -1.3390 H     1 <1>   0.0800 
 41 H      -15.3610     0.2090     0.3980 H     1 <1>   0.0800 
 42 H      -14.3800    -3.4080    -0.4930 H     1 <1>   0.0800 
 43 H      -14.7060    -2.9810    -2.1550 H     1 <1>   0.0800 
 44 H      -16.4060    -1.5620    -1.4170 H     1 <1>   0.0800 
 45 H      -16.0320    -2.0080     0.2290 H     1 <1>   0.0800 
@<TRIPOS>BOND
  1   1   2  1   
  2   2   3  ar  
  3   2   4  ar  
  4   3   5  ar  
  5   3  24  1   
  6   4   6  ar  
  7   4  25  1   
  8   5   7  ar  
  9   5  26  1   
 10   6   7  ar  
 11   6  27  1   
 12   7   8  1   
 13   8   9  1   
 14   8  28  1   
 15   8  29  1   
 16   9  10  2   
 17   9  11  am  
 18  11  12  1   
 19  11  30  1   
 20  12  13  ar  
 21  12  14  ar  
 22  13  15  ar  
 23  13  31  1   
 24  14  16  ar  
 25  14  32  1   
 26  15  17  ar  
 27  15  33  1   
 28  16  17  ar  
 29  16  34  1   
 30  17  18  1   
 31  18  19  1   
 32  18  35  1   
 33  18  36  1   
 34  19  20  1   
 35  19  21  1   
 36  19  37  1   
 37  20  22  1   
 38  20  38  1   
 39  20  39  1   
 40  21  23  1   
 41  21  40  1   
 42  21  41  1   
 43  22  23  1   
 44  22  42  1   
 45  22  43  1   
 46  23  44  1   
 47  23  45  1   
@<TRIPOS>SUBSTRUCTURE
  1 ****  12 GROUP 4 **** **** 0

# MOE 2024.06 (io_trps.svl 2023.06)
