@<TRIPOS>MOLECULE
NONAME
32 32 1 0 0 
SMALL
USER_CHARGES


@<TRIPOS>ATOM
  1 S       -0.0460     0.3420    -0.5020 S.3   1 <1>  -0.3320 
  2 C       -1.4790    -0.7260    -0.2690 C.ar  1 <1>   0.1020 
  3 C        1.3900    -0.5270     0.2680 C.3   1 <1>   0.0700 
  4 C       -1.4010    -1.9310     0.4120 C.ar  1 <1>  -0.1500 
  5 C       -2.6790    -0.2910    -0.8040 C.ar  1 <1>  -0.1500 
  6 C        2.6250     0.3550     0.0930 C.3   1 <1>  -0.0990 
  7 C       -2.5410    -2.7050     0.5540 C.ar  1 <1>  -0.1500 
  8 C       -3.8150    -1.0690    -0.6590 C.ar  1 <1>  -0.1500 
  9 C        3.8580    -0.3420     0.6200 C.2   1 <1>   0.5690 
 10 C       -3.7450    -2.2740     0.0200 C.ar  1 <1>  -0.1500 
 11 O        3.8310    -0.8140     1.7300 O.2   1 <1>  -0.5700 
 12 N        4.9520    -0.4140    -0.1770 N.am  1 <1>  -0.7300 
 13 C        6.2220    -1.0520     0.1860 C.3   1 <1>   0.2200 
 14 C        7.3200     0.0040     0.1280 C.3   1 <1>  -0.2400 
 15 C        6.4860    -2.1830    -0.8020 C.3   1 <1>  -0.2400 
 16 H        1.5040    -1.4710    -0.2350 H     1 <1>   0.0800 
 17 H        1.1620    -0.6790     1.3090 H     1 <1>   0.0800 
 18 H       -0.4770    -2.2770     0.8330 H     1 <1>   0.1500 
 19 H       -2.7200     0.6470    -1.3280 H     1 <1>   0.1500 
 20 H        2.4900     1.2710     0.6370 H     1 <1>   0.0800 
 21 H        2.7530     0.5870    -0.9480 H     1 <1>   0.0800 
 22 H       -2.4920    -3.6420     1.0810 H     1 <1>   0.1500 
 23 H       -4.7520    -0.7360    -1.0730 H     1 <1>   0.1500 
 24 H       -4.6280    -2.8790     0.1320 H     1 <1>   0.1500 
 25 H        4.9340     0.0040    -1.1050 H     1 <1>   0.3700 
 26 H        6.1590    -1.4530     1.1860 H     1 <1>   0.0800 
 27 H        7.4060     0.4160    -0.8600 H     1 <1>   0.0800 
 28 H        8.2620    -0.4360     0.4000 H     1 <1>   0.0800 
 29 H        7.1050     0.7920     0.8280 H     1 <1>   0.0800 
 30 H        6.5570    -1.8080    -1.8060 H     1 <1>   0.0800 
 31 H        5.6940    -2.9090    -0.7450 H     1 <1>   0.0800 
 32 H        7.4090    -2.6750    -0.5530 H     1 <1>   0.0800 
@<TRIPOS>BOND
  1   1   2  1   
  2   1   3  1   
  3   2   4  ar  
  4   2   5  ar  
  5   3   6  1   
  6   3  16  1   
  7   3  17  1   
  8   4   7  ar  
  9   4  18  1   
 10   5   8  ar  
 11   5  19  1   
 12   6   9  1   
 13   6  20  1   
 14   6  21  1   
 15   7  10  ar  
 16   7  22  1   
 17   8  10  ar  
 18   8  23  1   
 19   9  11  2   
 20   9  12  am  
 21  10  24  1   
 22  12  13  1   
 23  12  25  1   
 24  13  14  1   
 25  13  15  1   
 26  13  26  1   
 27  14  27  1   
 28  14  28  1   
 29  14  29  1   
 30  15  30  1   
 31  15  31  1   
 32  15  32  1   
@<TRIPOS>SUBSTRUCTURE
  1 ****   3 GROUP 4 **** **** 0

# MOE 2024.06 (io_trps.svl 2023.06)
