@<TRIPOS>MOLECULE
NONAME
30 31 1 0 0 
SMALL
USER_CHARGES


@<TRIPOS>ATOM
  1 O       -1.1610     6.4140    -0.3760 O.2   1 <1>  -0.5700 
  2 C       -0.6380     5.3620    -0.0700 C.2   1 <1>   0.5440 
  3 N        0.6890     5.3500     0.2930 N.am  1 <1>  -0.6600 
  4 C       -1.4490     4.1580    -0.1010 C.ar  1 <1>   0.0860 
  5 C        1.4090     6.6120     0.6580 C.3   1 <1>   0.1400 
  6 C        1.6180     4.2040     0.0560 C.3   1 <1>   0.1400 
  7 C       -2.3760     3.9450    -1.1200 C.ar  1 <1>  -0.1500 
  8 C       -1.3840     3.1810     0.8930 C.ar  1 <1>  -0.1500 
  9 C        2.5640     6.8830    -0.3180 C.3   1 <1>   0.1200 
 10 C        2.7660     4.6180    -0.8820 C.3   1 <1>   0.1200 
 11 C       -3.1770     2.8230    -1.1340 C.ar  1 <1>   0.2110 
 12 C       -2.2000     2.0690     0.8510 C.ar  1 <1>   0.2110 
 13 O        3.4030     5.7660    -0.4050 O.3   1 <1>  -0.5600 
 14 N       -3.0880     1.8950    -0.1550 N.ar  1 <1>  -0.2100 
 15 C       -3.9660     0.6920    -0.1830 C.3   1 <1>   0.2480 
 16 H        1.8070     6.5170     1.6530 H     1 <1>   0.0800 
 17 H        0.7360     7.4530     0.6550 H     1 <1>   0.0800 
 18 H        1.0950     3.3750    -0.3840 H     1 <1>   0.0800 
 19 H        2.0340     3.8830     0.9960 H     1 <1>   0.0800 
 20 H       -2.4640     4.6830    -1.9020 H     1 <1>   0.1500 
 21 H       -0.6920     3.3130     1.7080 H     1 <1>   0.1500 
 22 H        3.1540     7.7130     0.0260 H     1 <1>   0.0800 
 23 H        2.1840     7.1120    -1.2990 H     1 <1>   0.0800 
 24 H        2.3970     4.8170    -1.8730 H     1 <1>   0.0800 
 25 H        3.5030     3.8360    -0.9380 H     1 <1>   0.0800 
 26 H       -3.8890     2.6830    -1.9340 H     1 <1>   0.1500 
 27 H       -2.1360     1.3270     1.6310 H     1 <1>   0.1500 
 28 H       -4.9110     0.9320    -0.6400 H     1 <1>   0.0800 
 29 H       -4.1520     0.3410     0.8170 H     1 <1>   0.0800 
 30 H       -3.4920    -0.0910    -0.7490 H     1 <1>   0.0800 
@<TRIPOS>BOND
  1   1   2  2   
  2   2   3  am  
  3   2   4  1   
  4   3   5  1   
  5   3   6  1   
  6   4   7  ar  
  7   4   8  ar  
  8   5   9  1   
  9   5  16  1   
 10   5  17  1   
 11   6  10  1   
 12   6  18  1   
 13   6  19  1   
 14   7  11  ar  
 15   7  20  1   
 16   8  12  ar  
 17   8  21  1   
 18   9  13  1   
 19   9  22  1   
 20   9  23  1   
 21  10  13  1   
 22  10  24  1   
 23  10  25  1   
 24  11  14  ar  
 25  11  26  1   
 26  12  14  ar  
 27  12  27  1   
 28  14  15  1   
 29  15  28  1   
 30  15  29  1   
 31  15  30  1   
@<TRIPOS>SUBSTRUCTURE
  1 ****   4 GROUP 4 **** **** 0

# MOE 2024.06 (io_trps.svl 2023.06)
