@<TRIPOS>MOLECULE
NONAME
47 49 1 0 0 
SMALL
USER_CHARGES


@<TRIPOS>ATOM
  1 F       -0.8850    -0.0720     1.7390 F     1 <1>  -0.1900 
  2 C       -1.8850    -0.6510     1.1340 C.ar  1 <1>   0.1900 
  3 C       -2.6920    -1.5110     1.8520 C.ar  1 <1>  -0.1500 
  4 C       -2.0990    -0.3840    -0.2040 C.ar  1 <1>  -0.1500 
  5 C       -3.7560    -2.1190     1.2080 C.ar  1 <1>  -0.1500 
  6 C       -3.1660    -0.9960    -0.8410 C.ar  1 <1>  -0.1500 
  7 C       -4.0020    -1.8570    -0.1370 C.ar  1 <1>  -0.1430 
  8 C       -5.1860    -2.5020    -0.8330 C.3   1 <1>   0.4870 
  9 N       -6.4340    -1.8280    -0.3560 N.4   1 <1>  -0.9590 
 10 C       -7.6440    -2.5630    -0.8050 C.3   1 <1>   0.3430 
 11 C       -6.4530    -0.3930    -0.7540 C.3   1 <1>   0.3430 
 12 C       -8.8970    -1.9070    -0.2220 C.3   1 <1>  -0.1600 
 13 C       -7.6860     0.2950    -0.1700 C.3   1 <1>  -0.1600 
 14 C       -8.9930    -0.4100    -0.5710 C.3   1 <1>   0.4230 
 15 N      -10.1680     0.2210     0.1230 N.4   1 <1>  -0.9590 
 16 C      -11.4780    -0.4470    -0.1960 C.3   1 <1>   0.3430 
 17 C      -10.2970     1.6960    -0.1460 C.3   1 <1>   0.3430 
 18 C      -12.5880     0.1070     0.7000 C.3   1 <1>  -0.1600 
 19 C      -11.3750     2.3070     0.7510 C.3   1 <1>  -0.1600 
 20 C      -12.7310     1.6240     0.5520 C.3   1 <1>  -0.1600 
 21 H       -2.4810    -1.6970     2.8910 H     1 <1>   0.1500 
 22 H       -1.4390     0.2860    -0.7270 H     1 <1>   0.1500 
 23 H       -4.3740    -2.7990     1.7700 H     1 <1>   0.1500 
 24 H       -3.3240    -0.7920    -1.8870 H     1 <1>   0.1500 
 25 H       -5.2090    -3.5520    -0.5870 H     1 <1>   0.0800 
 26 H       -5.0850    -2.4040    -1.9020 H     1 <1>   0.0800 
 27 H       -6.3670    -1.8660     0.6720 H     1 <1>   0.4500 
 28 H       -7.5920    -3.5910    -0.4800 H     1 <1>   0.0800 
 29 H       -7.6960    -2.5560    -1.8830 H     1 <1>   0.0800 
 30 H       -6.4620    -0.3120    -1.8300 H     1 <1>   0.0800 
 31 H       -5.5650     0.1030    -0.3910 H     1 <1>   0.0800 
 32 H       -8.8970    -2.0440     0.8450 H     1 <1>   0.0800 
 33 H       -9.7370    -2.4390    -0.6300 H     1 <1>   0.0800 
 34 H       -7.6760     1.3030    -0.5390 H     1 <1>   0.0800 
 35 H       -7.5890     0.3280     0.9010 H     1 <1>   0.0800 
 36 H       -9.1240    -0.3120    -1.6380 H     1 <1>   0.0800 
 37 H      -10.0440     0.1300     1.1400 H     1 <1>   0.4500 
 38 H      -11.4150    -1.5090    -0.0310 H     1 <1>   0.0800 
 39 H      -11.7360    -0.2770    -1.2290 H     1 <1>   0.0800 
 40 H      -10.5560     1.8600    -1.1800 H     1 <1>   0.0800 
 41 H       -9.3680     2.2030     0.0560 H     1 <1>   0.0800 
 42 H      -12.3840    -0.1450     1.7270 H     1 <1>   0.0800 
 43 H      -13.5200    -0.3620     0.4360 H     1 <1>   0.0800 
 44 H      -11.4710     3.3540     0.5220 H     1 <1>   0.0800 
 45 H      -11.0730     2.2320     1.7820 H     1 <1>   0.0800 
 46 H      -13.4410     1.9990     1.2720 H     1 <1>   0.0800 
 47 H      -13.1110     1.8570    -0.4300 H     1 <1>   0.0800 
@<TRIPOS>BOND
  1   1   2  1   
  2   2   3  ar  
  3   2   4  ar  
  4   3   5  ar  
  5   3  21  1   
  6   4   6  ar  
  7   4  22  1   
  8   5   7  ar  
  9   5  23  1   
 10   6   7  ar  
 11   6  24  1   
 12   7   8  1   
 13   8   9  1   
 14   8  25  1   
 15   8  26  1   
 16   9  10  1   
 17   9  11  1   
 18   9  27  1   
 19  10  12  1   
 20  10  28  1   
 21  10  29  1   
 22  11  13  1   
 23  11  30  1   
 24  11  31  1   
 25  12  14  1   
 26  12  32  1   
 27  12  33  1   
 28  13  14  1   
 29  13  34  1   
 30  13  35  1   
 31  14  15  1   
 32  14  36  1   
 33  15  16  1   
 34  15  17  1   
 35  15  37  1   
 36  16  18  1   
 37  16  38  1   
 38  16  39  1   
 39  17  19  1   
 40  17  40  1   
 41  17  41  1   
 42  18  20  1   
 43  18  42  1   
 44  18  43  1   
 45  19  20  1   
 46  19  44  1   
 47  19  45  1   
 48  20  46  1   
 49  20  47  1   
@<TRIPOS>SUBSTRUCTURE
  1 ****  11 GROUP 4 **** **** 0

# MOE 2024.06 (io_trps.svl 2023.06)
