@<TRIPOS>MOLECULE
NONAME
35 36 1 0 0 
SMALL
USER_CHARGES


@<TRIPOS>ATOM
  1 O       -8.9000    -0.6640     0.3430 O.3   1 <1>  -0.3630 
  2 C      -10.2200    -0.9210     0.1630 C.ar  1 <1>   0.0830 
  3 C       -7.9170    -1.6050    -0.0040 C.3   1 <1>   0.1200 
  4 C      -10.7150    -2.1130    -0.3640 C.ar  1 <1>  -0.1500 
  5 C      -11.1060     0.0780     0.5320 C.ar  1 <1>  -0.1500 
  6 C       -6.5620    -0.9810     0.3250 C.3   1 <1>  -0.1600 
  7 C      -12.0790    -2.2890    -0.5140 C.ar  1 <1>  -0.1500 
  8 C      -12.4700    -0.1000     0.3810 C.ar  1 <1>  -0.1500 
  9 C       -5.4230    -1.9300    -0.0380 C.3   1 <1>   0.3430 
 10 C      -12.9570    -1.2850    -0.1430 C.ar  1 <1>  -0.1500 
 11 N       -4.1160    -1.3390     0.3600 N.4   1 <1>  -0.9590 
 12 C       -3.7190    -0.1450    -0.4290 C.3   1 <1>   0.3430 
 13 C       -2.9880    -2.2950     0.2390 C.3   1 <1>   0.3430 
 14 C       -2.2170    -0.0270    -0.2100 C.3   1 <1>  -0.1600 
 15 C       -1.7470    -1.4140     0.2360 C.3   1 <1>  -0.1600 
 16 H       -8.0090    -1.8120    -1.0570 H     1 <1>   0.0800 
 17 H       -8.0890    -2.4980     0.5730 H     1 <1>   0.0800 
 18 H      -10.0630    -2.9110    -0.6610 H     1 <1>   0.1500 
 19 H      -10.7230     0.9970     0.9380 H     1 <1>   0.1500 
 20 H       -6.5340    -0.7660     1.3790 H     1 <1>   0.0800 
 21 H       -6.4730    -0.0650    -0.2310 H     1 <1>   0.0800 
 22 H      -12.4620    -3.2090    -0.9210 H     1 <1>   0.1500 
 23 H      -13.1510     0.6820     0.6710 H     1 <1>   0.1500 
 24 H       -5.4320    -2.1270    -1.0980 H     1 <1>   0.0800 
 25 H       -5.5680    -2.8650     0.4810 H     1 <1>   0.0800 
 26 H      -14.0180    -1.4250    -0.2600 H     1 <1>   0.1500 
 27 H       -4.1670    -1.0500     1.3470 H     1 <1>   0.4500 
 28 H       -4.2410     0.7420    -0.1040 H     1 <1>   0.0800 
 29 H       -3.9180    -0.3150    -1.4750 H     1 <1>   0.0800 
 30 H       -3.0550    -2.8230    -0.7000 H     1 <1>   0.0800 
 31 H       -2.9730    -3.0050     1.0510 H     1 <1>   0.0800 
 32 H       -2.0140     0.7030     0.5540 H     1 <1>   0.0800 
 33 H       -1.7300     0.2870    -1.1180 H     1 <1>   0.0800 
 34 H       -1.0000    -1.8170    -0.4270 H     1 <1>   0.0800 
 35 H       -1.3300    -1.3680     1.2280 H     1 <1>   0.0800 
@<TRIPOS>BOND
  1   1   2  1   
  2   1   3  1   
  3   2   4  ar  
  4   2   5  ar  
  5   3   6  1   
  6   3  16  1   
  7   3  17  1   
  8   4   7  ar  
  9   4  18  1   
 10   5   8  ar  
 11   5  19  1   
 12   6   9  1   
 13   6  20  1   
 14   6  21  1   
 15   7  10  ar  
 16   7  22  1   
 17   8  10  ar  
 18   8  23  1   
 19   9  11  1   
 20   9  24  1   
 21   9  25  1   
 22  10  26  1   
 23  11  12  1   
 24  11  13  1   
 25  11  27  1   
 26  12  14  1   
 27  12  28  1   
 28  12  29  1   
 29  13  15  1   
 30  13  30  1   
 31  13  31  1   
 32  14  15  1   
 33  14  32  1   
 34  14  33  1   
 35  15  34  1   
 36  15  35  1   
@<TRIPOS>SUBSTRUCTURE
  1 ****   3 GROUP 4 **** **** 0

# MOE 2024.06 (io_trps.svl 2023.06)
