@<TRIPOS>MOLECULE
NONAME
46 48 1 0 0 
SMALL
USER_CHARGES


@<TRIPOS>ATOM
  1 O        0.7170    -1.2220     1.7790 O.2   1 <1>  -0.5700 
  2 C        1.0120    -2.1680     1.0690 C.2   1 <1>   0.7160 
  3 N        2.3380    -2.3670     0.7300 N.am  1 <1>  -0.6600 
  4 C       -0.0340    -3.0360     0.6150 C.2   1 <1>  -0.0860 
  5 C        2.7530    -3.2200    -0.4210 C.3   1 <1>   0.1400 
  6 C        3.4210    -1.6370     1.4450 C.3   1 <1>   0.1400 
  7 C       -0.1690    -4.3950     0.6720 C.2   1 <1>  -0.0880 
  8 C       -1.2030    -2.6120    -0.0160 C.2   1 <1>   0.1390 
  9 C        3.4120    -2.4050    -1.5410 C.3   1 <1>  -0.1600 
 10 C        3.7890    -0.3620     0.6810 C.3   1 <1>  -0.1600 
 11 N       -1.3450    -4.7180     0.0530 N.pl3 1 <1>   0.5930 
 12 N        0.7060    -5.3030     1.2980 N.am  1 <1>  -0.4940 
 13 N       -1.9830    -3.5840    -0.3520 N.2   1 <1>  -0.7070 
 14 C        4.8140    -1.8920    -1.1780 C.3   1 <1>  -0.1600 
 15 C        4.8310    -0.5470    -0.4360 C.3   1 <1>  -0.1600 
 16 C       -1.9650    -5.9950    -0.0060 C.ar  1 <1>  -0.0230 
 17 C        1.4960    -6.2400     0.6990 C.2   1 <1>   0.5690 
 18 C       -3.0520    -6.2860     0.8120 C.ar  1 <1>  -0.1500 
 19 C       -1.5030    -6.9790    -0.8760 C.ar  1 <1>  -0.1500 
 20 O        1.6080    -6.3310    -0.4970 O.2   1 <1>  -0.5700 
 21 C        2.2820    -7.1720     1.5850 C.3   1 <1>  -0.1790 
 22 C       -3.6530    -7.5320     0.7750 C.ar  1 <1>  -0.1500 
 23 C       -2.1010    -8.2260    -0.9130 C.ar  1 <1>  -0.1500 
 24 C       -3.1760    -8.5040    -0.0870 C.ar  1 <1>  -0.1500 
 25 H        1.9000    -3.7190    -0.8440 H     1 <1>   0.0800 
 26 H        3.4280    -3.9830    -0.0740 H     1 <1>   0.0800 
 27 H        4.2810    -2.2710     1.5710 H     1 <1>   0.0800 
 28 H        3.0730    -1.3650     2.4280 H     1 <1>   0.0800 
 29 H       -1.4290    -1.5740    -0.2020 H     1 <1>   0.1500 
 30 H        2.7700    -1.5960    -1.8420 H     1 <1>   0.0800 
 31 H        3.5130    -3.0620    -2.3870 H     1 <1>   0.0800 
 32 H        4.1810     0.3530     1.3830 H     1 <1>   0.0800 
 33 H        2.8890     0.0680     0.2740 H     1 <1>   0.0800 
 34 H        0.8200    -5.2040     2.3090 H     1 <1>   0.3700 
 35 H        5.3800    -1.7710    -2.0860 H     1 <1>   0.0800 
 36 H        5.3270    -2.6360    -0.5920 H     1 <1>   0.0800 
 37 H        5.8130    -0.4170    -0.0160 H     1 <1>   0.0800 
 38 H        4.6920     0.2460    -1.1520 H     1 <1>   0.0800 
 39 H       -3.4310    -5.5280     1.4770 H     1 <1>   0.1500 
 40 H       -0.6720    -6.7680    -1.5270 H     1 <1>   0.1500 
 41 H        2.9850    -6.6130     2.1730 H     1 <1>   0.0800 
 42 H        2.8210    -7.8780     0.9790 H     1 <1>   0.0800 
 43 H        1.6150    -7.7100     2.2310 H     1 <1>   0.0800 
 44 H       -4.4930    -7.7440     1.4130 H     1 <1>   0.1500 
 45 H       -1.7310    -8.9780    -1.5880 H     1 <1>   0.1500 
 46 H       -3.6420    -9.4740    -0.1170 H     1 <1>   0.1500 
@<TRIPOS>BOND
  1   1   2  2   
  2   2   3  am  
  3   2   4  1   
  4   3   5  1   
  5   3   6  1   
  6   4   7  2   
  7   4   8  1   
  8   5   9  1   
  9   5  25  1   
 10   5  26  1   
 11   6  10  1   
 12   6  27  1   
 13   6  28  1   
 14   7  11  1   
 15   7  12  1   
 16   8  13  2   
 17   8  29  1   
 18   9  14  1   
 19   9  30  1   
 20   9  31  1   
 21  10  15  1   
 22  10  32  1   
 23  10  33  1   
 24  11  13  1   
 25  11  16  1   
 26  12  17  am  
 27  12  34  1   
 28  14  15  1   
 29  14  35  1   
 30  14  36  1   
 31  15  37  1   
 32  15  38  1   
 33  16  18  ar  
 34  16  19  ar  
 35  17  20  2   
 36  17  21  1   
 37  18  22  ar  
 38  18  39  1   
 39  19  23  ar  
 40  19  40  1   
 41  21  41  1   
 42  21  42  1   
 43  21  43  1   
 44  22  24  ar  
 45  22  44  1   
 46  23  24  ar  
 47  23  45  1   
 48  24  46  1   
@<TRIPOS>SUBSTRUCTURE
  1 ****   7 GROUP 4 **** **** 0

# MOE 2024.06 (io_trps.svl 2023.06)
