@<TRIPOS>MOLECULE
NONAME
35 37 1 0 0 
SMALL
USER_CHARGES


@<TRIPOS>ATOM
  1 O       -0.0490    -0.6160    -1.2660 O.2   1 <1>  -0.5700 
  2 C       -0.0480    -1.7080    -0.7140 C.2   1 <1>   0.4690 
  3 C        1.1600    -2.4420    -0.4540 C.2   1 <1>   0.0910 
  4 C       -1.3140    -2.2820    -0.3170 C.ar  1 <1>   0.0860 
  5 O        2.3650    -1.8990    -0.8350 O.3   1 <1>  -0.3570 
  6 C        1.1480    -3.6960     0.1130 C.2   1 <1>   0.1140 
  7 C       -1.3530    -3.5670     0.2440 C.ar  1 <1>   0.0860 
  8 C       -2.5140    -1.5830    -0.4790 C.ar  1 <1>  -0.1500 
  9 C        2.6930    -0.5810    -0.4420 C.3   1 <1>   0.0400 
 10 N        2.3410    -4.4020     0.3940 N.pl3 1 <1>  -0.8380 
 11 C       -0.1300    -4.3200     0.4250 C.2   1 <1>   0.4690 
 12 C       -2.5920    -4.0960     0.6180 C.ar  1 <1>  -0.1500 
 13 C       -3.7260    -2.1240    -0.1020 C.ar  1 <1>  -0.1500 
 14 C        2.5680    -5.7950    -0.0940 C.3   1 <1>   0.2090 
 15 C        3.5390    -3.8170     1.0640 C.3   1 <1>   0.2090 
 16 O       -0.2060    -5.4660     0.8370 O.2   1 <1>  -0.5700 
 17 C       -3.7650    -3.3900     0.4500 C.ar  1 <1>  -0.1500 
 18 C        3.8840    -5.8800    -0.8930 C.3   1 <1>   0.1200 
 19 C        4.7850    -3.9970     0.1790 C.3   1 <1>   0.1200 
 20 O        4.9610    -5.3440    -0.1690 O.3   1 <1>  -0.5600 
 21 H       -2.4960    -0.5950    -0.9110 H     1 <1>   0.1500 
 22 H        3.7640    -0.4870    -0.4440 H     1 <1>   0.0800 
 23 H        2.3070    -0.3940     0.5440 H     1 <1>   0.0800 
 24 H        2.2730     0.1110    -1.1510 H     1 <1>   0.0800 
 25 H       -2.6350    -5.0830     1.0500 H     1 <1>   0.1500 
 26 H       -4.6370    -1.5660    -0.2380 H     1 <1>   0.1500 
 27 H        1.7520    -6.1060    -0.7220 H     1 <1>   0.0800 
 28 H        2.6130    -6.4640     0.7480 H     1 <1>   0.0800 
 29 H        3.6980    -4.3220     2.0000 H     1 <1>   0.0800 
 30 H        3.3810    -2.7760     1.2770 H     1 <1>   0.0800 
 31 H       -4.7070    -3.8210     0.7470 H     1 <1>   0.1500 
 32 H        3.7900    -5.3370    -1.8170 H     1 <1>   0.0800 
 33 H        4.1150    -6.9060    -1.1150 H     1 <1>   0.0800 
 34 H        5.6640    -3.6770     0.7070 H     1 <1>   0.0800 
 35 H        4.6880    -3.4170    -0.7220 H     1 <1>   0.0800 
@<TRIPOS>BOND
  1   1   2  2   
  2   2   3  1   
  3   2   4  1   
  4   3   5  1   
  5   3   6  2   
  6   4   7  ar  
  7   4   8  ar  
  8   5   9  1   
  9   6  10  1   
 10   6  11  1   
 11   7  11  1   
 12   7  12  ar  
 13   8  13  ar  
 14   8  21  1   
 15   9  22  1   
 16   9  23  1   
 17   9  24  1   
 18  10  14  1   
 19  10  15  1   
 20  11  16  2   
 21  12  17  ar  
 22  12  25  1   
 23  13  17  ar  
 24  13  26  1   
 25  14  18  1   
 26  14  27  1   
 27  14  28  1   
 28  15  19  1   
 29  15  29  1   
 30  15  30  1   
 31  17  31  1   
 32  18  20  1   
 33  18  32  1   
 34  18  33  1   
 35  19  20  1   
 36  19  34  1   
 37  19  35  1   
@<TRIPOS>SUBSTRUCTURE
  1 ****   6 GROUP 4 **** **** 0

# MOE 2024.06 (io_trps.svl 2023.06)
