@<TRIPOS>MOLECULE
NONAME
47 48 1 0 0 
SMALL
USER_CHARGES


@<TRIPOS>ATOM
  1 O        1.6100    -1.2480    -3.3210 O.2   1 <1>  -0.5700 
  2 C        2.1480    -1.7790    -2.3810 C.2   1 <1>   0.5690 
  3 N        2.9720    -1.0380    -1.5900 N.am  1 <1>  -0.5470 
  4 C        1.9300    -3.2690    -2.1450 C.3   1 <1>   0.1810 
  5 C        3.7690    -1.4030    -0.4990 C.ar  1 <1>   0.1170 
  6 O        0.8940    -3.4790    -1.1990 O.3   1 <1>  -0.3630 
  7 C        5.1190    -1.0780    -0.5050 C.ar  1 <1>  -0.1500 
  8 C        3.2440    -2.0660     0.6040 C.ar  1 <1>  -0.1500 
  9 C        0.4780    -4.7120    -0.8770 C.ar  1 <1>   0.7030 
 10 C        5.9370    -1.4160     0.5600 C.ar  1 <1>  -0.1500 
 11 C        4.0580    -2.4100     1.6690 C.ar  1 <1>  -0.1500 
 12 N        1.0500    -5.7300    -1.4600 N.ar  1 <1>  -0.6200 
 13 N       -0.4740    -4.7490     0.0050 N.ar  1 <1>  -0.6200 
 14 C        5.4060    -2.0890     1.6570 C.ar  1 <1>   0.0830 
 15 C        0.5610    -6.8890    -1.0910 C.ar  1 <1>   0.7200 
 16 C       -0.8770    -5.9610     0.2980 C.ar  1 <1>   0.7200 
 17 O        6.1340    -2.4590     2.7430 O.3   1 <1>  -0.3620 
 18 N       -0.3990    -7.0620    -0.2210 N.ar  1 <1>  -0.6200 
 19 N        1.1030    -8.0160    -1.6730 N.pl3 1 <1>  -0.8380 
 20 N       -1.8910    -6.0810     1.2280 N.pl3 1 <1>  -0.8380 
 21 C        7.5080    -2.1540     2.8380 C.3   1 <1>   0.0400 
 22 C        0.4160    -9.3370    -1.6280 C.3   1 <1>   0.1290 
 23 C        2.4190    -8.0030    -2.3730 C.3   1 <1>   0.1290 
 24 C       -2.2370    -7.3830     1.8660 C.3   1 <1>   0.1290 
 25 C       -2.7090    -4.9150     1.6660 C.3   1 <1>   0.1290 
 26 H        3.0520    -0.0720    -1.9080 H     1 <1>   0.3700 
 27 H        2.8290    -3.7260    -1.7750 H     1 <1>   0.0800 
 28 H        1.6410    -3.7350    -3.0700 H     1 <1>   0.0800 
 29 H        5.5350    -0.5600    -1.3500 H     1 <1>   0.1500 
 30 H        2.1970    -2.3060     0.6410 H     1 <1>   0.1500 
 31 H        6.9760    -1.1490     0.5190 H     1 <1>   0.1500 
 32 H        3.6500    -2.9260     2.5190 H     1 <1>   0.1500 
 33 H        7.8690    -2.5320     3.7770 H     1 <1>   0.0800 
 34 H        7.6320    -1.0870     2.8020 H     1 <1>   0.0800 
 35 H        8.0280    -2.6320     2.0270 H     1 <1>   0.0800 
 36 H       -0.6470    -9.2080    -1.5230 H     1 <1>   0.0800 
 37 H        0.7840    -9.9060    -0.7920 H     1 <1>   0.0800 
 38 H        0.6010    -9.8810    -2.5380 H     1 <1>   0.0800 
 39 H        3.0320    -7.1940    -2.0160 H     1 <1>   0.0800 
 40 H        2.2620    -7.8840    -3.4310 H     1 <1>   0.0800 
 41 H        2.9410    -8.9260    -2.1920 H     1 <1>   0.0800 
 42 H       -1.3870    -8.0430     1.8710 H     1 <1>   0.0800 
 43 H       -3.0380    -7.8500     1.3190 H     1 <1>   0.0800 
 44 H       -2.5470    -7.2250     2.8840 H     1 <1>   0.0800 
 45 H       -2.2640    -4.4710     2.5400 H     1 <1>   0.0800 
 46 H       -3.7110    -5.2320     1.8990 H     1 <1>   0.0800 
 47 H       -2.7630    -4.1740     0.8870 H     1 <1>   0.0800 
@<TRIPOS>BOND
  1   1   2  2   
  2   2   3  am  
  3   2   4  1   
  4   3   5  1   
  5   3  26  1   
  6   4   6  1   
  7   4  27  1   
  8   4  28  1   
  9   5   7  ar  
 10   5   8  ar  
 11   6   9  1   
 12   7  10  ar  
 13   7  29  1   
 14   8  11  ar  
 15   8  30  1   
 16   9  12  ar  
 17   9  13  ar  
 18  10  14  ar  
 19  10  31  1   
 20  11  14  ar  
 21  11  32  1   
 22  12  15  ar  
 23  13  16  ar  
 24  14  17  1   
 25  15  18  ar  
 26  15  19  1   
 27  16  18  ar  
 28  16  20  1   
 29  17  21  1   
 30  19  22  1   
 31  19  23  1   
 32  20  24  1   
 33  20  25  1   
 34  21  33  1   
 35  21  34  1   
 36  21  35  1   
 37  22  36  1   
 38  22  37  1   
 39  22  38  1   
 40  23  39  1   
 41  23  40  1   
 42  23  41  1   
 43  24  42  1   
 44  24  43  1   
 45  24  44  1   
 46  25  45  1   
 47  25  46  1   
 48  25  47  1   
@<TRIPOS>SUBSTRUCTURE
  1 ****   6 GROUP 4 **** **** 0

# MOE 2024.06 (io_trps.svl 2023.06)
