@<TRIPOS>MOLECULE
NONAME
37 38 1 0 0 
SMALL
USER_CHARGES


@<TRIPOS>ATOM
  1 O        0.3230    -0.1970     0.2950 O.3   1 <1>  -0.1650 
  2 C        0.2200    -1.5190     0.0920 C.ar  1 <1>   0.7020 
  3 C        1.5200     0.4450     0.3130 C.ar  1 <1>   0.3920 
  4 N        1.3070    -2.2430     0.0520 N.ar  1 <1>  -0.6200 
  5 N       -0.9990    -1.9580    -0.0560 N.ar  1 <1>  -0.6200 
  6 N        1.8330     1.0670     1.4450 N.ar  1 <1>  -0.3100 
  7 C        2.3160     0.4500    -0.8240 C.ar  1 <1>  -0.1500 
  8 C        1.1040    -3.5210    -0.1430 C.ar  1 <1>   0.7200 
  9 C       -1.0650    -3.2480    -0.2480 C.ar  1 <1>   0.7200 
 10 N        2.9740     1.7160     1.5240 N.ar  1 <1>  -0.3100 
 11 C        3.4990     1.1230    -0.7460 C.ar  1 <1>  -0.1500 
 12 N       -0.0680    -4.0800    -0.3020 N.ar  1 <1>  -0.6200 
 13 N        2.2210    -4.3300    -0.1850 N.pl3 1 <1>  -0.8380 
 14 N       -2.2790    -3.8180    -0.4110 N.pl3 1 <1>  -0.8690 
 15 C        3.8080     1.7510     0.4570 C.ar  1 <1>   0.1390 
 16 C        2.1750    -5.7460    -0.6440 C.3   1 <1>   0.1290 
 17 C        3.5680    -3.8240     0.2200 C.3   1 <1>   0.1290 
 18 C       -3.5820    -3.2040    -0.1540 C.3   1 <1>   0.2890 
 19 O        4.8960     2.3660     0.5500 O.3   1 <1>  -0.8290 
 20 C       -4.0850    -3.7130     1.1910 C.3   1 <1>  -0.2400 
 21 C       -4.5180    -3.6060    -1.2860 C.3   1 <1>  -0.2400 
 22 H        2.0110    -0.0590    -1.7170 H     1 <1>   0.1500 
 23 H        4.2010     1.1950    -1.5530 H     1 <1>   0.1500 
 24 H       -2.2570    -4.8330    -0.4530 H     1 <1>   0.4000 
 25 H        1.3270    -5.9140    -1.2850 H     1 <1>   0.0800 
 26 H        2.1030    -6.3980     0.2080 H     1 <1>   0.0800 
 27 H        3.0670    -5.9810    -1.1980 H     1 <1>   0.0800 
 28 H        3.4790    -3.1020     1.0150 H     1 <1>   0.0800 
 29 H        4.0450    -3.3520    -0.6220 H     1 <1>   0.0800 
 30 H        4.1830    -4.6350     0.5690 H     1 <1>   0.0800 
 31 H       -3.4950    -2.1290    -0.1260 H     1 <1>   0.0800 
 32 H       -4.1820    -4.7840     1.1820 H     1 <1>   0.0800 
 33 H       -5.0450    -3.2810     1.4100 H     1 <1>   0.0800 
 34 H       -3.4000    -3.4230     1.9680 H     1 <1>   0.0800 
 35 H       -4.6260    -4.6750    -1.3300 H     1 <1>   0.0800 
 36 H       -4.1280    -3.2490    -2.2220 H     1 <1>   0.0800 
 37 H       -5.4870    -3.1670    -1.1320 H     1 <1>   0.0800 
@<TRIPOS>BOND
  1   1   2  1   
  2   1   3  1   
  3   2   4  ar  
  4   2   5  ar  
  5   3   6  ar  
  6   3   7  ar  
  7   4   8  ar  
  8   5   9  ar  
  9   6  10  ar  
 10   7  11  ar  
 11   7  22  1   
 12   8  12  ar  
 13   8  13  1   
 14   9  12  ar  
 15   9  14  1   
 16  10  15  ar  
 17  11  15  ar  
 18  11  23  1   
 19  13  16  1   
 20  13  17  1   
 21  14  18  1   
 22  14  24  1   
 23  15  19  1   
 24  16  25  1   
 25  16  26  1   
 26  16  27  1   
 27  17  28  1   
 28  17  29  1   
 29  17  30  1   
 30  18  20  1   
 31  18  21  1   
 32  18  31  1   
 33  20  32  1   
 34  20  33  1   
 35  20  34  1   
 36  21  35  1   
 37  21  36  1   
 38  21  37  1   
@<TRIPOS>SUBSTRUCTURE
  1 ****   2 GROUP 4 **** **** 0

# MOE 2024.06 (io_trps.svl 2023.06)
