@<TRIPOS>MOLECULE
NONAME
43 44 1 0 0 
SMALL
USER_CHARGES


@<TRIPOS>ATOM
  1 O       -1.0240     0.9780    -1.3870 O.3   1 <1>  -0.3630 
  2 C       -0.6970     2.0370    -0.6130 C.ar  1 <1>   0.0830 
  3 C       -1.9420     0.0520    -0.8500 C.3   1 <1>   0.1200 
  4 C        0.2850     1.9320     0.3680 C.ar  1 <1>  -0.1440 
  5 C       -1.3500     3.2400    -0.8290 C.ar  1 <1>  -0.1500 
  6 C       -3.3690     0.4930    -1.1820 C.3   1 <1>  -0.1600 
  7 C        0.5750     3.0440     1.1430 C.ar  1 <1>  -0.1500 
  8 C        1.0480     0.6360     0.5980 C.3   1 <1>  -0.0970 
  9 C       -1.0550     4.3470    -0.0520 C.ar  1 <1>  -0.1430 
 10 C       -4.3770    -0.5490    -0.7030 C.3   1 <1>   0.1200 
 11 C       -0.0910     4.2410     0.9370 C.ar  1 <1>  -0.1500 
 12 C       -1.7730     5.6650    -0.2800 C.3   1 <1>  -0.0970 
 13 O       -5.6690    -0.0970    -1.0330 O.3   1 <1>  -0.3630 
 14 C       -6.7620    -0.5550    -0.3580 C.ar  1 <1>   0.0830 
 15 C       -6.9220    -1.8570     0.1470 C.ar  1 <1>   0.0830 
 16 C       -7.7750     0.3750    -0.1880 C.ar  1 <1>  -0.1500 
 17 O       -5.9480    -2.7930    -0.0560 O.3   1 <1>  -0.3630 
 18 C       -8.0920    -2.1710     0.8360 C.ar  1 <1>  -0.1500 
 19 C       -8.9340     0.0470     0.4910 C.ar  1 <1>  -0.1500 
 20 C       -6.1800    -4.1670     0.1660 C.3   1 <1>   0.0400 
 21 C       -9.0900    -1.2260     1.0060 C.ar  1 <1>  -0.1500 
 22 H       -1.7940    -0.0140     0.2140 H     1 <1>   0.0800 
 23 H       -1.7300    -0.9030    -1.2980 H     1 <1>   0.0800 
 24 H       -2.0870     3.2970    -1.6080 H     1 <1>   0.1500 
 25 H       -3.4640     0.6110    -2.2470 H     1 <1>   0.0800 
 26 H       -3.5780     1.4270    -0.6930 H     1 <1>   0.0800 
 27 H        1.3250     2.9860     1.9120 H     1 <1>   0.1500 
 28 H        0.4620    -0.0330     1.2020 H     1 <1>   0.0800 
 29 H        1.9800     0.8270     1.0980 H     1 <1>   0.0800 
 30 H        1.2630     0.1610    -0.3430 H     1 <1>   0.0800 
 31 H       -4.3210    -0.6760     0.3650 H     1 <1>   0.0800 
 32 H       -4.2140    -1.4910    -1.1970 H     1 <1>   0.0800 
 33 H        0.1500     5.0930     1.5480 H     1 <1>   0.1500 
 34 H       -2.6870     5.5110    -0.8230 H     1 <1>   0.0800 
 35 H       -1.1420     6.3280    -0.8440 H     1 <1>   0.0800 
 36 H       -2.0100     6.1260     0.6620 H     1 <1>   0.0800 
 37 H       -7.6460     1.3630    -0.5900 H     1 <1>   0.1500 
 38 H       -8.2510    -3.1470     1.2520 H     1 <1>   0.1500 
 39 H       -9.7100     0.7810     0.6170 H     1 <1>   0.1500 
 40 H       -5.3190    -4.7100    -0.1790 H     1 <1>   0.0800 
 41 H       -7.0490    -4.4690    -0.3910 H     1 <1>   0.0800 
 42 H       -6.3170    -4.3330     1.2190 H     1 <1>   0.0800 
 43 H       -9.9900    -1.4820     1.5390 H     1 <1>   0.1500 
@<TRIPOS>BOND
  1   1   2  1   
  2   1   3  1   
  3   2   4  ar  
  4   2   5  ar  
  5   3   6  1   
  6   3  22  1   
  7   3  23  1   
  8   4   7  ar  
  9   4   8  1   
 10   5   9  ar  
 11   5  24  1   
 12   6  10  1   
 13   6  25  1   
 14   6  26  1   
 15   7  11  ar  
 16   7  27  1   
 17   8  28  1   
 18   8  29  1   
 19   8  30  1   
 20   9  11  ar  
 21   9  12  1   
 22  10  13  1   
 23  10  31  1   
 24  10  32  1   
 25  11  33  1   
 26  12  34  1   
 27  12  35  1   
 28  12  36  1   
 29  13  14  1   
 30  14  15  ar  
 31  14  16  ar  
 32  15  17  1   
 33  15  18  ar  
 34  16  19  ar  
 35  16  37  1   
 36  17  20  1   
 37  18  21  ar  
 38  18  38  1   
 39  19  21  ar  
 40  19  39  1   
 41  20  40  1   
 42  20  41  1   
 43  20  42  1   
 44  21  43  1   
@<TRIPOS>SUBSTRUCTURE
  1 ****   6 GROUP 4 **** **** 0

# MOE 2024.06 (io_trps.svl 2023.06)
