@<TRIPOS>MOLECULE
NONAME
36 37 1 0 0 
SMALL
USER_CHARGES


@<TRIPOS>ATOM
  1 O       -0.2160     1.7600    -1.7570 O.2   1 <1>  -0.5700 
  2 C       -0.2290     1.7250    -0.5440 C.2   1 <1>   0.6340 
  3 O        0.9090     1.4440     0.1000 O.3   1 <1>  -0.4300 
  4 C       -1.4060     1.9930     0.2670 C.ar  1 <1>   0.0860 
  5 C        2.1140     1.1790    -0.5920 C.3   1 <1>   0.0400 
  6 C       -2.7000     1.5440    -0.0500 C.ar  1 <1>  -0.1440 
  7 C       -1.2440     2.7510     1.4290 C.ar  1 <1>  -0.1500 
  8 C       -3.7910     1.8910     0.7550 C.ar  1 <1>   0.1170 
  9 C       -2.9160     0.6560    -1.2830 C.3   1 <1>  -0.0970 
 10 C       -2.3110     3.0780     2.2380 C.ar  1 <1>  -0.1500 
 11 N       -5.0900     1.4940     0.3990 N.am  1 <1>  -0.5470 
 12 C       -3.5770     2.6550     1.8960 C.ar  1 <1>  -0.1500 
 13 C       -6.2350     1.2910     1.1200 C.2   1 <1>   0.5690 
 14 O       -6.3170     1.4400     2.3170 O.2   1 <1>  -0.5700 
 15 C       -7.4740     0.8350     0.3380 C.3   1 <1>   0.2610 
 16 O       -7.1720     0.5240    -0.9990 O.3   1 <1>  -0.5600 
 17 C       -8.5610     1.8990     0.2270 C.3   1 <1>  -0.1600 
 18 C       -8.3340     0.5600    -1.7640 C.3   1 <1>   0.1200 
 19 C       -9.2700     1.5490    -1.0740 C.3   1 <1>  -0.1600 
 20 H        2.8850     0.9790     0.1300 H     1 <1>   0.0800 
 21 H        2.3710     2.0410    -1.1830 H     1 <1>   0.0800 
 22 H        1.9680     0.3230    -1.2280 H     1 <1>   0.0800 
 23 H       -0.2600     3.0940     1.7020 H     1 <1>   0.1500 
 24 H       -2.0770     0.0010    -1.4350 H     1 <1>   0.0800 
 25 H       -3.0310     1.2700    -2.1590 H     1 <1>   0.0800 
 26 H       -3.7780     0.0220    -1.1850 H     1 <1>   0.0800 
 27 H       -2.1620     3.6630     3.1290 H     1 <1>   0.1500 
 28 H       -5.2200     1.2470    -0.5850 H     1 <1>   0.3700 
 29 H       -4.4050     2.9280     2.5250 H     1 <1>   0.1500 
 30 H       -7.8710    -0.0540     0.7950 H     1 <1>   0.0800 
 31 H       -8.1060     2.8720     0.1550 H     1 <1>   0.0800 
 32 H       -9.2170     1.8810     1.0800 H     1 <1>   0.0800 
 33 H       -8.7560    -0.4310    -1.7790 H     1 <1>   0.0800 
 34 H       -8.0800     0.8670    -2.7650 H     1 <1>   0.0800 
 35 H       -9.4230     2.4230    -1.6830 H     1 <1>   0.0800 
 36 H      -10.2220     1.0830    -0.8880 H     1 <1>   0.0800 
@<TRIPOS>BOND
  1   1   2  2   
  2   2   3  1   
  3   2   4  1   
  4   3   5  1   
  5   4   6  ar  
  6   4   7  ar  
  7   5  20  1   
  8   5  21  1   
  9   5  22  1   
 10   6   8  ar  
 11   6   9  1   
 12   7  10  ar  
 13   7  23  1   
 14   8  11  1   
 15   8  12  ar  
 16   9  24  1   
 17   9  25  1   
 18   9  26  1   
 19  10  12  ar  
 20  10  27  1   
 21  11  13  am  
 22  11  28  1   
 23  12  29  1   
 24  13  14  2   
 25  13  15  1   
 26  15  16  1   
 27  15  17  1   
 28  15  30  1   
 29  16  18  1   
 30  17  19  1   
 31  17  31  1   
 32  17  32  1   
 33  18  19  1   
 34  18  33  1   
 35  18  34  1   
 36  19  35  1   
 37  19  36  1   
@<TRIPOS>SUBSTRUCTURE
  1 ****   8 GROUP 4 **** **** 0

# MOE 2024.06 (io_trps.svl 2023.06)
