@<TRIPOS>MOLECULE
NONAME
31 31 1 0 0 
SMALL
USER_CHARGES


@<TRIPOS>ATOM
  1 BR      -0.5350    -0.0890    -1.0720 Br    1 <1>  -0.1110 
  2 C       -0.3110     1.7260    -0.4570 C.ar  1 <1>   0.1110 
  3 C       -1.4330     2.4840    -0.1330 C.ar  1 <1>   0.0820 
  4 C        0.9750     2.2180    -0.3570 C.ar  1 <1>  -0.1500 
  5 O       -2.6570     1.9070    -0.2650 O.3   1 <1>  -0.3630 
  6 C       -1.2410     3.7930     0.3090 C.ar  1 <1>  -0.1500 
  7 C        1.1340     3.5180     0.0840 C.ar  1 <1>   0.1770 
  8 C       -3.8410     2.5910     0.0540 C.3   1 <1>   0.1200 
  9 C        0.0440     4.3060     0.4160 C.ar  1 <1>  -0.1500 
 10 CL       2.7420     4.1820     0.2250 Cl    1 <1>  -0.1770 
 11 C       -4.9950     1.6230    -0.2100 C.3   1 <1>  -0.1600 
 12 C       -6.3400     2.2670     0.1240 C.3   1 <1>   0.3430 
 13 N       -7.4600     1.3490    -0.2380 N.4   1 <1>  -0.9590 
 14 C       -8.7640     2.0820    -0.2300 C.3   1 <1>   0.2630 
 15 C       -7.5330     0.1530     0.6620 C.3   1 <1>   0.2630 
 16 H        1.8250     1.6140    -0.6130 H     1 <1>   0.1500 
 17 H       -2.0670     4.4260     0.5730 H     1 <1>   0.1500 
 18 H       -3.9080     3.4630    -0.5750 H     1 <1>   0.0800 
 19 H       -3.7970     2.8750     1.0920 H     1 <1>   0.0800 
 20 H        0.2060     5.3140     0.7560 H     1 <1>   0.1500 
 21 H       -4.8400     0.7490     0.3960 H     1 <1>   0.0800 
 22 H       -4.9730     1.3470    -1.2500 H     1 <1>   0.0800 
 23 H       -6.4330     3.1840    -0.4350 H     1 <1>   0.0800 
 24 H       -6.3830     2.5070     1.1750 H     1 <1>   0.0800 
 25 H       -7.2880     1.0150    -1.2000 H     1 <1>   0.4500 
 26 H       -8.9810     2.4510     0.7590 H     1 <1>   0.0800 
 27 H       -9.5640     1.4250    -0.5350 H     1 <1>   0.0800 
 28 H       -8.7300     2.9170    -0.9110 H     1 <1>   0.0800 
 29 H       -7.6760     0.4600     1.6850 H     1 <1>   0.0800 
 30 H       -6.6240    -0.4240     0.5990 H     1 <1>   0.0800 
 31 H       -8.3560    -0.4820     0.3740 H     1 <1>   0.0800 
@<TRIPOS>BOND
  1   1   2  1   
  2   2   3  ar  
  3   2   4  ar  
  4   3   5  1   
  5   3   6  ar  
  6   4   7  ar  
  7   4  16  1   
  8   5   8  1   
  9   6   9  ar  
 10   6  17  1   
 11   7   9  ar  
 12   7  10  1   
 13   8  11  1   
 14   8  18  1   
 15   8  19  1   
 16   9  20  1   
 17  11  12  1   
 18  11  21  1   
 19  11  22  1   
 20  12  13  1   
 21  12  23  1   
 22  12  24  1   
 23  13  14  1   
 24  13  15  1   
 25  13  25  1   
 26  14  26  1   
 27  14  27  1   
 28  14  28  1   
 29  15  29  1   
 30  15  30  1   
 31  15  31  1   
@<TRIPOS>SUBSTRUCTURE
  1 ****   5 GROUP 4 **** **** 0

# MOE 2024.06 (io_trps.svl 2023.06)
