@<TRIPOS>MOLECULE
NONAME
50 53 1 0 0 
SMALL
USER_CHARGES


@<TRIPOS>ATOM
  1 CL       2.3650     1.1230    -2.9310 Cl    1 <1>  -0.1770 
  2 C        2.8530     0.0280    -1.6640 C.ar  1 <1>   0.1770 
  3 C        2.1140    -0.0290    -0.4970 C.ar  1 <1>  -0.1500 
  4 C        3.9680    -0.7680    -1.8460 C.ar  1 <1>  -0.1500 
  5 C        2.5010    -0.9020     0.5060 C.ar  1 <1>  -0.1500 
  6 C        4.3500    -1.6370    -0.8380 C.ar  1 <1>  -0.1500 
  7 C        3.6200    -1.7090     0.3430 C.ar  1 <1>  -0.1430 
  8 C        4.0330    -2.6700     1.4540 C.3   1 <1>   0.3530 
  9 N        4.2400    -4.0330     0.9220 N.pl3 1 <1>  -0.8690 
 10 C        3.2280    -4.8980     0.6860 C.ar  1 <1>   0.7200 
 11 N        3.5810    -6.1460     0.6710 N.ar  1 <1>  -0.6200 
 12 N        2.0320    -4.4200     0.5070 N.ar  1 <1>  -0.6200 
 13 C        2.5900    -6.9670     0.4350 C.ar  1 <1>   0.7200 
 14 C        1.1330    -5.3300     0.2540 C.ar  1 <1>   0.7200 
 15 N        1.3460    -6.6200     0.2210 N.ar  1 <1>  -0.6200 
 16 N        2.8890    -8.3130     0.4010 N.pl3 1 <1>  -0.8380 
 17 N       -0.1460    -4.8860    -0.0010 N.pl3 1 <1>  -0.8380 
 18 C        1.8420    -9.3780     0.3460 C.3   1 <1>   0.2090 
 19 C        4.2150    -8.8090    -0.0800 C.3   1 <1>   0.2090 
 20 C       -1.3040    -5.8200    -0.1310 C.3   1 <1>   0.2090 
 21 C       -0.4010    -3.5410    -0.6050 C.3   1 <1>   0.2090 
 22 C        1.8090   -10.0200    -1.0520 C.3   1 <1>   0.1200 
 23 C        4.0640    -9.4970    -1.4500 C.3   1 <1>   0.1200 
 24 C       -2.6180    -5.1290     0.2760 C.3   1 <1>   0.1200 
 25 C       -1.7700    -2.9910    -0.1700 C.3   1 <1>   0.1200 
 26 O        3.0790   -10.4950    -1.4130 O.3   1 <1>  -0.5600 
 27 O       -2.7900    -3.9210    -0.4130 O.3   1 <1>  -0.5600 
 28 H        1.2510     0.6000    -0.3810 H     1 <1>   0.1500 
 29 H        4.5250    -0.7090    -2.7630 H     1 <1>   0.1500 
 30 H        1.9230    -0.9550     1.4130 H     1 <1>   0.1500 
 31 H        5.2110    -2.2680    -0.9740 H     1 <1>   0.1500 
 32 H        3.2740    -2.7000     2.2180 H     1 <1>   0.0800 
 33 H        4.9460    -2.3210     1.9020 H     1 <1>   0.0800 
 34 H        5.0900    -4.5060     1.2180 H     1 <1>   0.4000 
 35 H        0.8700    -8.9850     0.5870 H     1 <1>   0.0800 
 36 H        2.0730   -10.1350     1.0740 H     1 <1>   0.0800 
 37 H        4.6070    -9.5150     0.6310 H     1 <1>   0.0800 
 38 H        4.9260    -8.0080    -0.1690 H     1 <1>   0.0800 
 39 H       -1.1590    -6.6830     0.4960 H     1 <1>   0.0800 
 40 H       -1.3760    -6.1550    -1.1510 H     1 <1>   0.0800 
 41 H       -0.3800    -3.6270    -1.6770 H     1 <1>   0.0800 
 42 H        0.3600    -2.8360    -0.3180 H     1 <1>   0.0800 
 43 H        1.4880    -9.3000    -1.7850 H     1 <1>   0.0800 
 44 H        1.1310   -10.8530    -1.0620 H     1 <1>   0.0800 
 45 H        4.9910    -9.9610    -1.7350 H     1 <1>   0.0800 
 46 H        3.7930    -8.7740    -2.2000 H     1 <1>   0.0800 
 47 H       -2.6200    -4.9260     1.3320 H     1 <1>   0.0800 
 48 H       -3.4550    -5.7620     0.0440 H     1 <1>   0.0800 
 49 H       -2.0010    -2.0980    -0.7210 H     1 <1>   0.0800 
 50 H       -1.7600    -2.7570     0.8800 H     1 <1>   0.0800 
@<TRIPOS>BOND
  1   1   2  1   
  2   2   3  ar  
  3   2   4  ar  
  4   3   5  ar  
  5   3  28  1   
  6   4   6  ar  
  7   4  29  1   
  8   5   7  ar  
  9   5  30  1   
 10   6   7  ar  
 11   6  31  1   
 12   7   8  1   
 13   8   9  1   
 14   8  32  1   
 15   8  33  1   
 16   9  10  1   
 17   9  34  1   
 18  10  11  ar  
 19  10  12  ar  
 20  11  13  ar  
 21  12  14  ar  
 22  13  15  ar  
 23  13  16  1   
 24  14  15  ar  
 25  14  17  1   
 26  16  18  1   
 27  16  19  1   
 28  17  20  1   
 29  17  21  1   
 30  18  22  1   
 31  18  35  1   
 32  18  36  1   
 33  19  23  1   
 34  19  37  1   
 35  19  38  1   
 36  20  24  1   
 37  20  39  1   
 38  20  40  1   
 39  21  25  1   
 40  21  41  1   
 41  21  42  1   
 42  22  26  1   
 43  22  43  1   
 44  22  44  1   
 45  23  26  1   
 46  23  45  1   
 47  23  46  1   
 48  24  27  1   
 49  24  47  1   
 50  24  48  1   
 51  25  27  1   
 52  25  49  1   
 53  25  50  1   
@<TRIPOS>SUBSTRUCTURE
  1 ****  12 GROUP 4 **** **** 0

# MOE 2024.06 (io_trps.svl 2023.06)
