@<TRIPOS>MOLECULE
NONAME
41 43 1 0 0 
SMALL
USER_CHARGES


@<TRIPOS>ATOM
  1 O       -0.0390     0.0130    -1.1530 O.2   1 <1>  -0.5700 
  2 C       -0.0640     1.0600    -0.5320 C.2   1 <1>   0.7150 
  3 N        1.1170     1.6560    -0.2120 N.am  1 <1>  -0.7300 
  4 C       -1.3100     1.6750    -0.1400 C.2   1 <1>   0.0550 
  5 C        2.4470     1.2160    -0.6530 C.3   1 <1>   0.2840 
  6 O       -1.3220     2.8270     0.5270 O.3   1 <1>  -0.2800 
  7 C       -2.5980     1.2810    -0.3370 C.2   1 <1>  -0.1500 
  8 C        3.3310     2.4440    -0.7720 C.ar  1 <1>  -0.1440 
  9 C       -2.5680     3.1760     0.7540 C.2   1 <1>  -0.0400 
 10 C       -3.4120     2.2540     0.2440 C.2   1 <1>  -0.1500 
 11 C        4.2240     2.7630     0.2460 C.ar  1 <1>  -0.1500 
 12 C        3.2410     3.2580    -1.9020 C.ar  1 <1>  -0.1500 
 13 C       -2.8530     4.4670     1.5020 C.3   1 <1>   0.0200 
 14 C        5.0060     3.8920     0.0980 C.ar  1 <1>   0.0830 
 15 C        4.0350     4.3900    -2.0330 C.ar  1 <1>  -0.1500 
 16 C       -2.3540     5.7090     0.7400 C.3   1 <1>  -0.0800 
 17 O        5.9220     4.3820     0.9390 O.3   1 <1>  -0.3630 
 18 C        4.9150     4.6820    -1.0100 C.ar  1 <1>   0.0830 
 19 C       -2.5750     6.9750     1.5770 C.3   1 <1>  -0.2400 
 20 C       -3.0480     5.8600    -0.6210 C.3   1 <1>  -0.2400 
 21 C        6.4500     5.5570     0.3280 C.3   1 <1>   0.4000 
 22 O        5.7700     5.7060    -0.9170 O.3   1 <1>  -0.3630 
 23 H        1.0810     2.5630     0.2570 H     1 <1>   0.3700 
 24 H        2.3750     0.7140    -1.6030 H     1 <1>   0.0800 
 25 H        2.8520     0.5260     0.0670 H     1 <1>   0.0800 
 26 H       -2.9360     0.3930    -0.8420 H     1 <1>   0.1500 
 27 H       -4.4870     2.2440     0.2620 H     1 <1>   0.1500 
 28 H        4.3180     2.1620     1.1330 H     1 <1>   0.1500 
 29 H        2.5440     3.0100    -2.6850 H     1 <1>   0.1500 
 30 H       -2.3680     4.4130     2.4600 H     1 <1>   0.0800 
 31 H       -3.9120     4.5490     1.6720 H     1 <1>   0.0800 
 32 H        3.9760     5.0260    -2.8980 H     1 <1>   0.1500 
 33 H       -1.2950     5.5980     0.5700 H     1 <1>   0.0800 
 34 H       -3.6230     7.1270     1.7670 H     1 <1>   0.0800 
 35 H       -2.1930     7.8360     1.0580 H     1 <1>   0.0800 
 36 H       -2.0620     6.8960     2.5190 H     1 <1>   0.0800 
 37 H       -4.1130     5.9470    -0.4970 H     1 <1>   0.0800 
 38 H       -2.8440     5.0080    -1.2450 H     1 <1>   0.0800 
 39 H       -2.6870     6.7370    -1.1280 H     1 <1>   0.0800 
 40 H        7.5030     5.4300     0.1500 H     1 <1>   0.0800 
 41 H        6.2510     6.4100     0.9520 H     1 <1>   0.0800 
@<TRIPOS>BOND
  1   1   2  2   
  2   2   3  am  
  3   2   4  1   
  4   3   5  1   
  5   3  23  1   
  6   4   6  1   
  7   4   7  2   
  8   5   8  1   
  9   5  24  1   
 10   5  25  1   
 11   6   9  1   
 12   7  10  1   
 13   7  26  1   
 14   8  11  ar  
 15   8  12  ar  
 16   9  10  2   
 17   9  13  1   
 18  10  27  1   
 19  11  14  ar  
 20  11  28  1   
 21  12  15  ar  
 22  12  29  1   
 23  13  16  1   
 24  13  30  1   
 25  13  31  1   
 26  14  17  1   
 27  14  18  ar  
 28  15  18  ar  
 29  15  32  1   
 30  16  19  1   
 31  16  20  1   
 32  16  33  1   
 33  17  21  1   
 34  18  22  1   
 35  19  34  1   
 36  19  35  1   
 37  19  36  1   
 38  20  37  1   
 39  20  38  1   
 40  20  39  1   
 41  21  22  1   
 42  21  40  1   
 43  21  41  1   
@<TRIPOS>SUBSTRUCTURE
  1 ****   3 GROUP 4 **** **** 0

# MOE 2024.06 (io_trps.svl 2023.06)
