@<TRIPOS>MOLECULE
NONAME
57 60 1 0 0 
SMALL
USER_CHARGES


@<TRIPOS>ATOM
  1 F       -2.3000    -1.6200    -2.9210 F     1 <1>  -0.3400 
  2 C       -3.3480    -2.0230    -2.2130 C.3   1 <1>   1.1580 
  3 F       -4.2130    -2.5080    -3.0950 F     1 <1>  -0.3400 
  4 F       -3.8850    -0.9230    -1.7030 F     1 <1>  -0.3400 
  5 C       -2.9480    -3.0320    -1.1620 C.2   1 <1>  -0.1690 
  6 N       -3.9720    -3.5180    -0.3850 N.pl3 1 <1>   0.6010 
  7 C       -1.6900    -3.4940    -0.9140 C.2   1 <1>  -0.1360 
  8 N       -5.2910    -3.2400    -0.4170 N.2   1 <1>  -0.7070 
  9 C       -3.6810    -4.4360     0.5930 C.2   1 <1>  -0.0260 
 10 C       -1.4420    -4.4610     0.1140 C.2   1 <1>   0.3490 
 11 C       -5.8270    -3.9770     0.5460 C.2   1 <1>   0.2030 
 12 N       -2.4200    -4.9100     0.8490 N.2   1 <1>  -0.5760 
 13 C       -4.8560    -4.7340     1.1940 C.2   1 <1>  -0.1500 
 14 C       -0.0880    -4.9280     0.3360 C.ar  1 <1>   0.0860 
 15 C       -7.2460    -3.9910     0.8630 C.2   1 <1>   0.7160 
 16 C        0.7640    -5.2530    -0.7220 C.ar  1 <1>  -0.1500 
 17 C        0.4170    -5.0680     1.6280 C.ar  1 <1>  -0.1500 
 18 O       -7.7500    -4.8330     1.5890 O.2   1 <1>  -0.5700 
 19 N       -8.0830    -3.0910     0.2680 N.am  1 <1>  -0.7300 
 20 C        2.0610    -5.6780    -0.4980 C.ar  1 <1>  -0.1500 
 21 C        1.7120    -5.4940     1.8560 C.ar  1 <1>  -0.1500 
 22 C       -9.4250    -2.6790     0.7480 C.3   1 <1>   0.1400 
 23 C        2.5450    -5.7980     0.7930 C.ar  1 <1>  -0.1430 
 24 C      -10.5280    -3.1740    -0.1990 C.3   1 <1>  -0.1600 
 25 C        3.9670    -6.2660     1.0420 C.3   1 <1>  -0.0970 
 26 C      -10.9940    -4.6160     0.0510 C.3   1 <1>   0.3430 
 27 N       -9.8840    -5.5900    -0.0730 N.4   1 <1>  -0.9590 
 28 C       -9.3310    -5.7060    -1.4660 C.3   1 <1>   0.3430 
 29 C      -10.2330    -6.9390     0.4790 C.3   1 <1>   0.3430 
 30 C       -8.2080    -6.7590    -1.5380 C.3   1 <1>   0.1200 
 31 C       -9.0590    -7.9240     0.3210 C.3   1 <1>   0.1200 
 32 O       -8.6510    -7.9790    -1.0170 O.3   1 <1>  -0.5600 
 33 H       -0.8390    -3.1470    -1.4750 H     1 <1>   0.1500 
 34 H       -5.0110    -5.4180     2.0090 H     1 <1>   0.1500 
 35 H        0.4100    -5.1820    -1.7340 H     1 <1>   0.1500 
 36 H       -0.2210    -4.8410     2.4650 H     1 <1>   0.1500 
 37 H       -7.5970    -2.4050    -0.3260 H     1 <1>   0.3700 
 38 H        2.6940    -5.9210    -1.3340 H     1 <1>   0.1500 
 39 H        2.0690    -5.5910     2.8670 H     1 <1>   0.1500 
 40 H       -9.4490    -1.6020     0.7880 H     1 <1>   0.0800 
 41 H       -9.5930    -3.0430     1.7490 H     1 <1>   0.0800 
 42 H      -10.2370    -3.0310    -1.2240 H     1 <1>   0.0800 
 43 H      -11.3880    -2.5470    -0.0390 H     1 <1>   0.0800 
 44 H        4.6070    -5.9800     0.2260 H     1 <1>   0.0800 
 45 H        3.9860    -7.3370     1.1380 H     1 <1>   0.0800 
 46 H        4.3550    -5.8290     1.9440 H     1 <1>   0.0800 
 47 H      -11.7780    -4.8690    -0.6450 H     1 <1>   0.0800 
 48 H      -11.4040    -4.6740     1.0460 H     1 <1>   0.0800 
 49 H       -9.1110    -5.2350     0.5260 H     1 <1>   0.4500 
 50 H       -8.9410    -4.7550    -1.7870 H     1 <1>   0.0800 
 51 H      -10.1140    -5.9950    -2.1480 H     1 <1>   0.0800 
 52 H      -11.0880    -7.3390    -0.0410 H     1 <1>   0.0800 
 53 H      -10.4830    -6.8540     1.5240 H     1 <1>   0.0800 
 54 H       -7.3410    -6.4400    -0.9850 H     1 <1>   0.0800 
 55 H       -7.9200    -6.9250    -2.5610 H     1 <1>   0.0800 
 56 H       -9.3610    -8.9140     0.6130 H     1 <1>   0.0800 
 57 H       -8.2210    -7.6270     0.9290 H     1 <1>   0.0800 
@<TRIPOS>BOND
  1   1   2  1   
  2   2   3  1   
  3   2   4  1   
  4   2   5  1   
  5   5   6  1   
  6   5   7  2   
  7   6   8  1   
  8   6   9  1   
  9   7  10  1   
 10   7  33  1   
 11   8  11  2   
 12   9  12  1   
 13   9  13  2   
 14  10  12  2   
 15  10  14  1   
 16  11  13  1   
 17  11  15  1   
 18  13  34  1   
 19  14  16  ar  
 20  14  17  ar  
 21  15  18  2   
 22  15  19  am  
 23  16  20  ar  
 24  16  35  1   
 25  17  21  ar  
 26  17  36  1   
 27  19  22  1   
 28  19  37  1   
 29  20  23  ar  
 30  20  38  1   
 31  21  23  ar  
 32  21  39  1   
 33  22  24  1   
 34  22  40  1   
 35  22  41  1   
 36  23  25  1   
 37  24  26  1   
 38  24  42  1   
 39  24  43  1   
 40  25  44  1   
 41  25  45  1   
 42  25  46  1   
 43  26  27  1   
 44  26  47  1   
 45  26  48  1   
 46  27  28  1   
 47  27  29  1   
 48  27  49  1   
 49  28  30  1   
 50  28  50  1   
 51  28  51  1   
 52  29  31  1   
 53  29  52  1   
 54  29  53  1   
 55  30  32  1   
 56  30  54  1   
 57  30  55  1   
 58  31  32  1   
 59  31  56  1   
 60  31  57  1   
@<TRIPOS>SUBSTRUCTURE
  1 ****   9 GROUP 4 **** **** 0

# MOE 2024.06 (io_trps.svl 2023.06)
