@<TRIPOS>MOLECULE
NONAME
44 45 1 0 0 
SMALL
USER_CHARGES


@<TRIPOS>ATOM
  1 O        0.8230    -1.5770    -1.9370 O.2   1 <1>  -0.5700 
  2 C        0.5130    -1.9450    -0.8350 C.2   1 <1>   0.6590 
  3 O       -0.6780    -1.7080    -0.3080 O.3   1 <1>  -0.4300 
  4 C        1.4920    -2.7190     0.0440 C.3   1 <1>  -0.0190 
  5 C       -1.6680    -1.0010    -1.0200 C.3   1 <1>   0.1200 
  6 C        2.7120    -1.8510     0.4030 C.3   1 <1>  -0.1600 
  7 C        1.9480    -4.0180    -0.6470 C.3   1 <1>  -0.1600 
  8 C       -2.9080    -0.9040    -0.1360 C.3   1 <1>  -0.2400 
  9 C        3.7630    -2.6330     1.1890 C.3   1 <1>   0.3430 
 10 C        3.0130    -4.7550     0.1620 C.3   1 <1>   0.3430 
 11 N        4.1630    -3.8450     0.4180 N.4   1 <1>  -0.9590 
 12 C        5.2880    -4.5690     1.0510 C.3   1 <1>   0.4810 
 13 C        6.5320    -3.7460     0.8230 C.2   1 <1>  -0.2880 
 14 C        7.4800    -4.0310    -0.0860 C.2   1 <1>  -0.1780 
 15 C        8.6920    -3.2890    -0.3620 C.ar  1 <1>   0.0280 
 16 C        9.3860    -3.5090    -1.5490 C.ar  1 <1>  -0.1500 
 17 C        9.2100    -2.3460     0.5240 C.ar  1 <1>  -0.1500 
 18 C       10.5430    -2.8130    -1.8470 C.ar  1 <1>  -0.1500 
 19 C       10.3670    -1.6460     0.2320 C.ar  1 <1>  -0.1500 
 20 C       11.0360    -1.8770    -0.9560 C.ar  1 <1>  -0.1500 
 21 H        0.9780    -2.9790     0.9540 H     1 <1>   0.0800 
 22 H       -1.2860    -0.0230    -1.2580 H     1 <1>   0.0800 
 23 H       -1.8840    -1.5360    -1.9300 H     1 <1>   0.0800 
 24 H        2.3900    -1.0080     0.9910 H     1 <1>   0.0800 
 25 H        3.1620    -1.4590    -0.4940 H     1 <1>   0.0800 
 26 H        2.3390    -3.7970    -1.6260 H     1 <1>   0.0800 
 27 H        1.0980    -4.6650    -0.7830 H     1 <1>   0.0800 
 28 H       -2.6770    -0.3750     0.7720 H     1 <1>   0.0800 
 29 H       -3.2740    -1.8870     0.1010 H     1 <1>   0.0800 
 30 H       -3.6810    -0.3680    -0.6560 H     1 <1>   0.0800 
 31 H        3.3600    -2.9230     2.1460 H     1 <1>   0.0800 
 32 H        4.6200    -2.0000     1.3590 H     1 <1>   0.0800 
 33 H        3.3410    -5.6230    -0.3880 H     1 <1>   0.0800 
 34 H        2.5910    -5.0850     1.0990 H     1 <1>   0.0800 
 35 H        4.5210    -3.5200    -0.4920 H     1 <1>   0.4500 
 36 H        5.1130    -4.7210     2.1050 H     1 <1>   0.0800 
 37 H        5.4140    -5.5310     0.5790 H     1 <1>   0.0800 
 38 H        6.5930    -2.8900     1.4700 H     1 <1>   0.1500 
 39 H        7.3750    -4.9000    -0.7140 H     1 <1>   0.1500 
 40 H        9.0200    -4.2320    -2.2560 H     1 <1>   0.1500 
 41 H        8.7180    -2.1540     1.4580 H     1 <1>   0.1500 
 42 H       11.0630    -2.9970    -2.7710 H     1 <1>   0.1500 
 43 H       10.7510    -0.9210     0.9290 H     1 <1>   0.1500 
 44 H       11.9360    -1.3330    -1.1850 H     1 <1>   0.1500 
@<TRIPOS>BOND
  1   1   2  2   
  2   2   3  1   
  3   2   4  1   
  4   3   5  1   
  5   4   6  1   
  6   4   7  1   
  7   4  21  1   
  8   5   8  1   
  9   5  22  1   
 10   5  23  1   
 11   6   9  1   
 12   6  24  1   
 13   6  25  1   
 14   7  10  1   
 15   7  26  1   
 16   7  27  1   
 17   8  28  1   
 18   8  29  1   
 19   8  30  1   
 20   9  11  1   
 21   9  31  1   
 22   9  32  1   
 23  10  11  1   
 24  10  33  1   
 25  10  34  1   
 26  11  12  1   
 27  11  35  1   
 28  12  13  1   
 29  12  36  1   
 30  12  37  1   
 31  13  14  2   
 32  13  38  1   
 33  14  15  1   
 34  14  39  1   
 35  15  16  ar  
 36  15  17  ar  
 37  16  18  ar  
 38  16  40  1   
 39  17  19  ar  
 40  17  41  1   
 41  18  20  ar  
 42  18  42  1   
 43  19  20  ar  
 44  19  43  1   
 45  20  44  1   
@<TRIPOS>SUBSTRUCTURE
  1 ****  11 GROUP 4 **** **** 0

# MOE 2024.06 (io_trps.svl 2023.06)
