@<TRIPOS>MOLECULE
NONAME
50 52 1 0 0 
SMALL
USER_CHARGES


@<TRIPOS>ATOM
  1 S        0.1280    -0.5580     0.7020 S.3   1 <1>  -0.0800 
  2 C       -0.2520     0.9990     0.0070 C.2   1 <1>   0.1040 
  3 C        1.8360    -0.4000     0.3200 C.2   1 <1>  -0.1400 
  4 N       -1.5520     1.4790     0.0020 N.am  1 <1>  -0.4940 
  5 C        0.8810     1.5900    -0.4720 C.2   1 <1>  -0.0860 
  6 C        2.0730     0.7850    -0.2940 C.2   1 <1>  -0.1810 
  7 C        2.6320    -1.6170     0.7600 C.3   1 <1>  -0.0600 
  8 C       -2.7550     1.0340     0.4990 C.2   1 <1>   0.7160 
  9 C        0.8560     2.8930    -1.0850 C.2   1 <1>   0.7160 
 10 C        3.3890     1.3800    -0.8140 C.3   1 <1>   0.0210 
 11 O       -2.8650    -0.0630     1.0170 O.2   1 <1>  -0.5700 
 12 C       -3.8720     1.9530     0.3950 C.2   1 <1>   0.2030 
 13 O        1.2520     3.0460    -2.2280 O.2   1 <1>  -0.5700 
 14 N        0.3550     3.9900    -0.4140 N.am  1 <1>  -0.6600 
 15 C        4.6790     0.6330    -0.4730 C.3   1 <1>  -0.2400 
 16 N       -3.8020     3.1610    -0.1430 N.2   1 <1>  -0.7070 
 17 C       -5.1680     1.7080     0.8620 C.2   1 <1>  -0.1500 
 18 C        0.2810     4.0990     1.0760 C.3   1 <1>   0.1400 
 19 C        0.0250     5.2630    -1.1190 C.3   1 <1>   0.1400 
 20 N       -5.0290     3.6840    -0.0110 N.pl3 1 <1>   0.3140 
 21 C       -5.8720     2.8230     0.5900 C.2   1 <1>  -0.3020 
 22 C       -1.0190     4.7960     1.5150 C.3   1 <1>   0.1200 
 23 C       -1.2710     5.8700    -0.5570 C.3   1 <1>   0.1200 
 24 C       -5.3570     5.0490    -0.4710 C.3   1 <1>   0.0960 
 25 O       -1.1890     6.0080     0.8340 O.3   1 <1>  -0.5600 
 26 C       -5.0910     6.0810     0.6320 C.3   1 <1>  -0.2400 
 27 H       -1.6830     2.4000    -0.4270 H     1 <1>   0.3700 
 28 H        2.2170    -2.4980     0.3040 H     1 <1>   0.0800 
 29 H        2.5630    -1.7230     1.8280 H     1 <1>   0.0800 
 30 H        3.6660    -1.5640     0.4940 H     1 <1>   0.0800 
 31 H        3.4840     2.3780    -0.4220 H     1 <1>   0.0800 
 32 H        3.3250     1.4630    -1.8850 H     1 <1>   0.0800 
 33 H        4.7580     0.4860     0.5890 H     1 <1>   0.0800 
 34 H        5.5260     1.2100    -0.8000 H     1 <1>   0.0800 
 35 H        4.7060    -0.3120    -0.9820 H     1 <1>   0.0800 
 36 H       -5.4900     0.7970     1.3380 H     1 <1>   0.1500 
 37 H        1.1180     4.6790     1.4230 H     1 <1>   0.0800 
 38 H        0.3410     3.1310     1.5390 H     1 <1>   0.0800 
 39 H       -0.0970     5.0860    -2.1740 H     1 <1>   0.0800 
 40 H        0.8330     5.9610    -0.9890 H     1 <1>   0.0800 
 41 H       -6.9030     3.0510     0.7890 H     1 <1>   0.1500 
 42 H       -0.9830     5.0150     2.5670 H     1 <1>   0.0800 
 43 H       -1.8720     4.1710     1.3260 H     1 <1>   0.0800 
 44 H       -2.1150     5.2460    -0.7940 H     1 <1>   0.0800 
 45 H       -1.4340     6.8470    -0.9750 H     1 <1>   0.0800 
 46 H       -6.3900     5.0740    -0.7640 H     1 <1>   0.0800 
 47 H       -4.7510     5.2680    -1.3320 H     1 <1>   0.0800 
 48 H       -5.7020     5.8760     1.4940 H     1 <1>   0.0800 
 49 H       -5.3240     7.0680     0.2750 H     1 <1>   0.0800 
 50 H       -4.0540     6.0600     0.9210 H     1 <1>   0.0800 
@<TRIPOS>BOND
  1   1   2  1   
  2   1   3  1   
  3   2   4  1   
  4   2   5  2   
  5   3   6  2   
  6   3   7  1   
  7   4   8  am  
  8   4  27  1   
  9   5   6  1   
 10   5   9  1   
 11   6  10  1   
 12   7  28  1   
 13   7  29  1   
 14   7  30  1   
 15   8  11  2   
 16   8  12  1   
 17   9  13  2   
 18   9  14  am  
 19  10  15  1   
 20  10  31  1   
 21  10  32  1   
 22  12  16  2   
 23  12  17  1   
 24  14  18  1   
 25  14  19  1   
 26  15  33  1   
 27  15  34  1   
 28  15  35  1   
 29  16  20  1   
 30  17  21  2   
 31  17  36  1   
 32  18  22  1   
 33  18  37  1   
 34  18  38  1   
 35  19  23  1   
 36  19  39  1   
 37  19  40  1   
 38  20  21  1   
 39  20  24  1   
 40  21  41  1   
 41  22  25  1   
 42  22  42  1   
 43  22  43  1   
 44  23  25  1   
 45  23  44  1   
 46  23  45  1   
 47  24  26  1   
 48  24  46  1   
 49  24  47  1   
 50  26  48  1   
 51  26  49  1   
 52  26  50  1   
@<TRIPOS>SUBSTRUCTURE
  1 ****   4 GROUP 4 **** **** 0

# MOE 2024.06 (io_trps.svl 2023.06)
