@<TRIPOS>MOLECULE
NONAME
54 56 1 0 0 
SMALL
USER_CHARGES


@<TRIPOS>ATOM
  1 O        1.3070    -3.4970    -0.2490 O.3   1 <1>  -0.3630 
  2 C        0.0390    -3.0080    -0.1910 C.ar  1 <1>   0.0830 
  3 C        1.8930    -4.1680     0.8450 C.3   1 <1>   0.1200 
  4 C       -0.4420    -2.3280    -1.3060 C.ar  1 <1>  -0.1440 
  5 C       -0.7800    -3.1620     0.9260 C.ar  1 <1>  -0.1500 
  6 C        3.3160    -4.5780     0.4480 C.3   1 <1>   0.2000 
  7 C       -1.7290    -1.8130    -1.2910 C.ar  1 <1>  -0.1500 
  8 C        0.4250    -2.1420    -2.5430 C.3   1 <1>  -0.0960 
  9 C       -2.0610    -2.6430     0.9260 C.ar  1 <1>  -0.1500 
 10 O        3.2710    -5.2400    -0.7810 O.3   1 <1>  -0.6800 
 11 C        3.9860    -5.4990     1.4910 C.3   1 <1>   0.3430 
 12 C       -2.5420    -1.9650    -0.1810 C.ar  1 <1>  -0.1440 
 13 N        5.0580    -6.3190     0.8480 N.4   1 <1>  -0.9590 
 14 C       -3.9490    -1.3960    -0.1820 C.3   1 <1>  -0.0970 
 15 C        5.3240    -7.6190     1.5640 C.3   1 <1>   0.3430 
 16 C        6.3290    -5.5410     0.6090 C.3   1 <1>   0.3430 
 17 C        6.4110    -8.4660     0.8700 C.3   1 <1>   0.2090 
 18 C        7.4150    -6.3850    -0.0910 C.3   1 <1>   0.2090 
 19 N        7.6460    -7.6610     0.6440 N.pl3 1 <1>  -0.8380 
 20 C        8.7810    -8.3780     0.2830 C.ar  1 <1>   0.1000 
 21 C        9.8230    -8.5150     1.1890 C.ar  1 <1>  -0.1500 
 22 C        8.9010    -8.9690    -0.9700 C.ar  1 <1>  -0.1500 
 23 C       10.9630    -9.2240     0.8550 C.ar  1 <1>  -0.1500 
 24 C       10.0380    -9.6790    -1.3090 C.ar  1 <1>  -0.1500 
 25 C       11.0720    -9.8070    -0.3960 C.ar  1 <1>  -0.1500 
 26 H        1.2940    -5.0330     1.0710 H     1 <1>   0.0800 
 27 H        1.9070    -3.4970     1.6870 H     1 <1>   0.0800 
 28 H       -0.4490    -3.6790     1.8040 H     1 <1>   0.1500 
 29 H        3.9090    -3.6880     0.3180 H     1 <1>   0.0800 
 30 H       -2.1050    -1.2890    -2.1510 H     1 <1>   0.1500 
 31 H        1.3330    -1.6300    -2.2790 H     1 <1>   0.0800 
 32 H       -0.0860    -1.5630    -3.2910 H     1 <1>   0.0800 
 33 H        0.6720    -3.1000    -2.9630 H     1 <1>   0.0800 
 34 H       -2.6860    -2.7690     1.7930 H     1 <1>   0.1500 
 35 H        2.6130    -4.7750    -1.3530 H     1 <1>   0.4000 
 36 H        3.2290    -6.1560     1.8860 H     1 <1>   0.0800 
 37 H        4.3810    -4.9200     2.3080 H     1 <1>   0.0800 
 38 H        4.6660    -6.5280    -0.0910 H     1 <1>   0.4500 
 39 H       -4.6260    -2.1030    -0.6280 H     1 <1>   0.0800 
 40 H       -3.9820    -0.4800    -0.7450 H     1 <1>   0.0800 
 41 H       -4.2750    -1.1890     0.8210 H     1 <1>   0.0800 
 42 H        4.4170    -8.1970     1.6260 H     1 <1>   0.0800 
 43 H        5.6560    -7.4140     2.5680 H     1 <1>   0.0800 
 44 H        6.7280    -5.2040     1.5520 H     1 <1>   0.0800 
 45 H        6.1200    -4.6740     0.0050 H     1 <1>   0.0800 
 46 H        6.0420    -8.8360    -0.0710 H     1 <1>   0.0800 
 47 H        6.6520    -9.3160     1.4870 H     1 <1>   0.0800 
 48 H        8.3350    -5.8270    -0.1270 H     1 <1>   0.0800 
 49 H        7.1160    -6.5960    -1.1030 H     1 <1>   0.0800 
 50 H        9.7360    -8.0600     2.1580 H     1 <1>   0.1500 
 51 H        8.1040    -8.8740    -1.6820 H     1 <1>   0.1500 
 52 H       11.7650    -9.3230     1.5660 H     1 <1>   0.1500 
 53 H       10.1230   -10.1330    -2.2810 H     1 <1>   0.1500 
 54 H       11.9580   -10.3600    -0.6570 H     1 <1>   0.1500 
@<TRIPOS>BOND
  1   1   2  1   
  2   1   3  1   
  3   2   4  ar  
  4   2   5  ar  
  5   3   6  1   
  6   3  26  1   
  7   3  27  1   
  8   4   7  ar  
  9   4   8  1   
 10   5   9  ar  
 11   5  28  1   
 12   6  10  1   
 13   6  11  1   
 14   6  29  1   
 15   7  12  ar  
 16   7  30  1   
 17   8  31  1   
 18   8  32  1   
 19   8  33  1   
 20   9  12  ar  
 21   9  34  1   
 22  10  35  1   
 23  11  13  1   
 24  11  36  1   
 25  11  37  1   
 26  12  14  1   
 27  13  15  1   
 28  13  16  1   
 29  13  38  1   
 30  14  39  1   
 31  14  40  1   
 32  14  41  1   
 33  15  17  1   
 34  15  42  1   
 35  15  43  1   
 36  16  18  1   
 37  16  44  1   
 38  16  45  1   
 39  17  19  1   
 40  17  46  1   
 41  17  47  1   
 42  18  19  1   
 43  18  48  1   
 44  18  49  1   
 45  19  20  1   
 46  20  21  ar  
 47  20  22  ar  
 48  21  23  ar  
 49  21  50  1   
 50  22  24  ar  
 51  22  51  1   
 52  23  25  ar  
 53  23  52  1   
 54  24  25  ar  
 55  24  53  1   
 56  25  54  1   
@<TRIPOS>SUBSTRUCTURE
  1 ****  10 GROUP 4 **** **** 0

# MOE 2024.06 (io_trps.svl 2023.06)
