@<TRIPOS>MOLECULE
NONAME
33 34 1 0 0 
SMALL
USER_CHARGES


@<TRIPOS>ATOM
  1 CL       0.4370     0.3060     1.6560 Cl    1 <1>  -0.1770 
  2 C        1.7840     1.0690     0.8470 C.ar  1 <1>   0.1770 
  3 C        2.7040     0.2850     0.1750 C.ar  1 <1>  -0.1500 
  4 C        1.9100     2.4450     0.8880 C.ar  1 <1>  -0.1500 
  5 C        3.7720     0.8930    -0.4620 C.ar  1 <1>  -0.1500 
  6 C        2.9800     3.0440     0.2480 C.ar  1 <1>  -0.1500 
  7 C        3.9270     2.2750    -0.4240 C.ar  1 <1>   0.1000 
  8 N        5.0110     2.8640    -1.0600 N.pl3 1 <1>  -0.8690 
  9 C        5.9200     3.7020    -0.2700 C.3   1 <1>   0.2890 
 10 C        6.0320     5.0600    -0.9530 C.3   1 <1>  -0.1600 
 11 C        7.2800     3.0170    -0.1850 C.3   1 <1>  -0.1600 
 12 C        7.0570     5.9360    -0.2410 C.3   1 <1>   0.3430 
 13 C        8.2850     3.9200     0.5220 C.3   1 <1>   0.3430 
 14 N        8.3740     5.2330    -0.1850 N.4   1 <1>  -0.9590 
 15 C        9.4130     6.1060     0.4440 C.3   1 <1>   0.2630 
 16 H        2.5790    -0.7820     0.1530 H     1 <1>   0.1500 
 17 H        1.1750     3.0320     1.4100 H     1 <1>   0.1500 
 18 H        4.4880     0.2900    -0.9900 H     1 <1>   0.1500 
 19 H        3.0780     4.1130     0.2590 H     1 <1>   0.1500 
 20 H        5.5030     2.2300    -1.6980 H     1 <1>   0.4000 
 21 H        5.5230     3.8300     0.7250 H     1 <1>   0.0800 
 22 H        5.0740     5.5470    -0.9270 H     1 <1>   0.0800 
 23 H        6.3150     4.9380    -1.9840 H     1 <1>   0.0800 
 24 H        7.6450     2.7780    -1.1680 H     1 <1>   0.0800 
 25 H        7.1800     2.1020     0.3710 H     1 <1>   0.0800 
 26 H        6.7140     6.1500     0.7580 H     1 <1>   0.0800 
 27 H        7.1580     6.8710    -0.7710 H     1 <1>   0.0800 
 28 H        9.2520     3.4410     0.5350 H     1 <1>   0.0800 
 29 H        7.9730     4.0760     1.5430 H     1 <1>   0.0800 
 30 H        8.6610     5.0430    -1.1570 H     1 <1>   0.4500 
 31 H        9.1480     6.3300     1.4650 H     1 <1>   0.0800 
 32 H        9.5030     7.0330    -0.1000 H     1 <1>   0.0800 
 33 H       10.3710     5.6120     0.4380 H     1 <1>   0.0800 
@<TRIPOS>BOND
  1   1   2  1   
  2   2   3  ar  
  3   2   4  ar  
  4   3   5  ar  
  5   3  16  1   
  6   4   6  ar  
  7   4  17  1   
  8   5   7  ar  
  9   5  18  1   
 10   6   7  ar  
 11   6  19  1   
 12   7   8  1   
 13   8   9  1   
 14   8  20  1   
 15   9  10  1   
 16   9  11  1   
 17   9  21  1   
 18  10  12  1   
 19  10  22  1   
 20  10  23  1   
 21  11  13  1   
 22  11  24  1   
 23  11  25  1   
 24  12  14  1   
 25  12  26  1   
 26  12  27  1   
 27  13  14  1   
 28  13  28  1   
 29  13  29  1   
 30  14  15  1   
 31  14  30  1   
 32  15  31  1   
 33  15  32  1   
 34  15  33  1   
@<TRIPOS>SUBSTRUCTURE
  1 ****   8 GROUP 4 **** **** 0

# MOE 2024.06 (io_trps.svl 2023.06)
