@<TRIPOS>MOLECULE
NONAME
56 59 1 0 0 
SMALL
USER_CHARGES


@<TRIPOS>ATOM
  1 S       -0.0410    -0.4620     0.8570 S.3   1 <1>  -0.0800 
  2 C        1.2700     0.4490     0.1260 C.2   1 <1>   0.1040 
  3 C       -1.1630     0.8590     0.6040 C.2   1 <1>  -0.1400 
  4 N        2.4960    -0.1890     0.0920 N.am  1 <1>  -0.4940 
  5 C        0.8330     1.6740    -0.3010 C.2   1 <1>  -0.0860 
  6 C       -0.5640     1.8850    -0.0150 C.2   1 <1>  -0.1810 
  7 C       -2.6040     0.7410     1.0500 C.3   1 <1>   0.0200 
  8 C        3.7660     0.3340     0.0720 C.2   1 <1>   0.5440 
  9 C        1.6420     2.6450    -0.9810 C.2   1 <1>   0.7160 
 10 C       -1.3420     3.1410    -0.3850 C.3   1 <1>   0.0210 
 11 C       -3.2690     2.1270     0.9720 C.3   1 <1>  -0.1600 
 12 O        3.9670     1.4520     0.5140 O.2   1 <1>  -0.5700 
 13 C        4.8560    -0.4720    -0.4330 C.ar  1 <1>   0.0860 
 14 O        2.1800     2.3730    -2.0410 O.2   1 <1>  -0.5700 
 15 N        1.8680     3.8960    -0.4400 N.am  1 <1>  -0.6600 
 16 C       -2.8630     2.8920    -0.3050 C.3   1 <1>  -0.1600 
 17 C        6.0620    -0.5700     0.2610 C.ar  1 <1>  -0.1500 
 18 C        4.7360    -1.1770    -1.6300 C.ar  1 <1>  -0.1500 
 19 C        2.6590     4.9010    -1.2120 C.3   1 <1>   0.1400 
 20 C        1.9790     4.0630     1.0480 C.3   1 <1>   0.1400 
 21 C        7.1080    -1.3450    -0.2100 C.ar  1 <1>  -0.1430 
 22 C        5.7750    -1.9530    -2.1090 C.ar  1 <1>  -0.1500 
 23 C        4.1650     4.7480    -0.9060 C.3   1 <1>   0.3430 
 24 C        3.3760     4.5840     1.4710 C.3   1 <1>   0.3430 
 25 C        6.9590    -2.0370    -1.3990 C.ar  1 <1>  -0.1500 
 26 C        8.4140    -1.4470     0.5590 C.3   1 <1>  -0.0970 
 27 N        4.4270     4.1940     0.4730 N.4   1 <1>  -0.9590 
 28 C        5.8190     4.4280     0.9430 C.3   1 <1>   0.2630 
 29 H        2.4540    -1.2090     0.1120 H     1 <1>   0.3700 
 30 H       -2.6530     0.3650     2.0560 H     1 <1>   0.0800 
 31 H       -3.1110     0.0500     0.4000 H     1 <1>   0.0800 
 32 H       -1.0890     3.4500    -1.3840 H     1 <1>   0.0800 
 33 H       -1.0710     3.9310     0.2920 H     1 <1>   0.0800 
 34 H       -2.9710     2.7050     1.8300 H     1 <1>   0.0800 
 35 H       -4.3380     2.0130     1.0070 H     1 <1>   0.0800 
 36 H       -3.1630     2.3150    -1.1630 H     1 <1>   0.0800 
 37 H       -3.3810     3.8340    -0.3470 H     1 <1>   0.0800 
 38 H        6.1700    -0.0300     1.1850 H     1 <1>   0.1500 
 39 H        3.8240    -1.1100    -2.1980 H     1 <1>   0.1500 
 40 H        2.3320     5.8890    -0.9410 H     1 <1>   0.0800 
 41 H        2.4890     4.7880    -2.2700 H     1 <1>   0.0800 
 42 H        1.8130     3.1190     1.5390 H     1 <1>   0.0800 
 43 H        1.2190     4.7420     1.3940 H     1 <1>   0.0800 
 44 H        5.6670    -2.4900    -3.0360 H     1 <1>   0.1500 
 45 H        4.6400     5.7080    -1.0190 H     1 <1>   0.0800 
 46 H        4.5940     4.0820    -1.6370 H     1 <1>   0.0800 
 47 H        3.6180     4.1830     2.4420 H     1 <1>   0.0800 
 48 H        3.3410     5.6570     1.5560 H     1 <1>   0.0800 
 49 H        7.7650    -2.6430    -1.7770 H     1 <1>   0.1500 
 50 H        8.3480    -0.9380     1.5040 H     1 <1>   0.0800 
 51 H        9.2110    -1.0070    -0.0130 H     1 <1>   0.0800 
 52 H        8.6500    -2.4790     0.7450 H     1 <1>   0.0800 
 53 H        4.2960     3.1590     0.3700 H     1 <1>   0.4500 
 54 H        5.9990     5.4830     1.0740 H     1 <1>   0.0800 
 55 H        6.5220     4.0410     0.2240 H     1 <1>   0.0800 
 56 H        5.9810     3.9270     1.8830 H     1 <1>   0.0800 
@<TRIPOS>BOND
  1   1   2  1   
  2   1   3  1   
  3   2   4  1   
  4   2   5  2   
  5   3   6  2   
  6   3   7  1   
  7   4   8  am  
  8   4  29  1   
  9   5   6  1   
 10   5   9  1   
 11   6  10  1   
 12   7  11  1   
 13   7  30  1   
 14   7  31  1   
 15   8  12  2   
 16   8  13  1   
 17   9  14  2   
 18   9  15  am  
 19  10  16  1   
 20  10  32  1   
 21  10  33  1   
 22  11  16  1   
 23  11  34  1   
 24  11  35  1   
 25  13  17  ar  
 26  13  18  ar  
 27  15  19  1   
 28  15  20  1   
 29  16  36  1   
 30  16  37  1   
 31  17  21  ar  
 32  17  38  1   
 33  18  22  ar  
 34  18  39  1   
 35  19  23  1   
 36  19  40  1   
 37  19  41  1   
 38  20  24  1   
 39  20  42  1   
 40  20  43  1   
 41  21  25  ar  
 42  21  26  1   
 43  22  25  ar  
 44  22  44  1   
 45  23  27  1   
 46  23  45  1   
 47  23  46  1   
 48  24  27  1   
 49  24  47  1   
 50  24  48  1   
 51  25  49  1   
 52  26  50  1   
 53  26  51  1   
 54  26  52  1   
 55  27  28  1   
 56  27  53  1   
 57  28  54  1   
 58  28  55  1   
 59  28  56  1   
@<TRIPOS>SUBSTRUCTURE
  1 ****  12 GROUP 4 **** **** 0

# MOE 2024.06 (io_trps.svl 2023.06)
