@<TRIPOS>MOLECULE
NONAME
44 46 1 0 0 
SMALL
USER_CHARGES


@<TRIPOS>ATOM
  1 O       -1.1920    -3.8270    -0.0040 O.2   1 <1>  -0.5700 
  2 C       -0.1290    -4.4050    -0.1430 C.2   1 <1>   0.8060 
  3 O        1.0010    -3.7970     0.2100 O.3   1 <1>  -0.4300 
  4 C       -0.0700    -5.7420    -0.6700 C.2   1 <1>  -0.0860 
  5 C        1.0220    -2.4900     0.7390 C.3   1 <1>   0.1200 
  6 C        1.0500    -6.6190    -0.6360 C.ar  1 <1>   0.0000 
  7 C       -1.0550    -6.4540    -1.2840 C.2   1 <1>  -0.0400 
  8 C        2.4730    -2.1310     1.0380 C.3   1 <1>  -0.2400 
  9 C        0.6170    -7.7890    -1.2310 C.ar  1 <1>   0.1400 
 10 C        2.3630    -6.5530    -0.1670 C.ar  1 <1>  -0.1500 
 11 O       -0.6540    -7.6650    -1.6090 O.3   1 <1>  -0.2800 
 12 C       -2.4870    -6.0760    -1.6340 C.3   1 <1>   0.5230 
 13 C        1.4380    -8.8980    -1.3810 C.ar  1 <1>  -0.1500 
 14 C        3.1990    -7.6440    -0.3040 C.ar  1 <1>   0.0830 
 15 N       -3.2300    -5.6880    -0.4050 N.4   1 <1>  -0.9590 
 16 C        2.7340    -8.8220    -0.9140 C.ar  1 <1>  -0.1500 
 17 O        4.4620    -7.5040     0.1780 O.3   1 <1>  -0.3620 
 18 C       -3.2720    -6.7470     0.6290 C.3   1 <1>   0.3430 
 19 C       -4.6260    -5.2670    -0.6430 C.3   1 <1>   0.3430 
 20 C        5.4110    -8.5410     0.0640 C.3   1 <1>   0.0400 
 21 C       -4.4170    -6.3320     1.5430 C.3   1 <1>  -0.1600 
 22 C       -5.2790    -5.3600     0.7290 C.3   1 <1>  -0.1600 
 23 H        0.4290    -2.4710     1.6380 H     1 <1>   0.0800 
 24 H        0.6020    -1.8170     0.0100 H     1 <1>   0.0800 
 25 H        2.8860    -2.8140     1.7600 H     1 <1>   0.0800 
 26 H        2.5250    -1.1360     1.4430 H     1 <1>   0.0800 
 27 H        3.0590    -2.1630     0.1370 H     1 <1>   0.0800 
 28 H        2.7360    -5.6600     0.3010 H     1 <1>   0.1500 
 29 H       -2.9680    -6.9180    -2.1060 H     1 <1>   0.0800 
 30 H       -2.4750    -5.2550    -2.3320 H     1 <1>   0.0800 
 31 H        1.0580    -9.7870    -1.8520 H     1 <1>   0.1500 
 32 H       -2.7220    -4.8760    -0.0030 H     1 <1>   0.4500 
 33 H        3.3750    -9.6760    -1.0260 H     1 <1>   0.1500 
 34 H       -2.3380    -6.8200     1.1640 H     1 <1>   0.0800 
 35 H       -3.4980    -7.6980     0.1730 H     1 <1>   0.0800 
 36 H       -5.1080    -5.9560    -1.3190 H     1 <1>   0.0800 
 37 H       -4.6800    -4.2670    -1.0440 H     1 <1>   0.0800 
 38 H        6.3320    -8.1980     0.5000 H     1 <1>   0.0800 
 39 H        5.5620    -8.7650    -0.9770 H     1 <1>   0.0800 
 40 H        5.0540    -9.4030     0.5980 H     1 <1>   0.0800 
 41 H       -4.0250    -5.8440     2.4190 H     1 <1>   0.0800 
 42 H       -4.9770    -7.1970     1.8560 H     1 <1>   0.0800 
 43 H       -6.2960    -5.7020     0.6410 H     1 <1>   0.0800 
 44 H       -5.2850    -4.3890     1.1930 H     1 <1>   0.0800 
@<TRIPOS>BOND
  1   1   2  2   
  2   2   3  1   
  3   2   4  1   
  4   3   5  1   
  5   4   6  1   
  6   4   7  2   
  7   5   8  1   
  8   5  23  1   
  9   5  24  1   
 10   6   9  ar  
 11   6  10  ar  
 12   7  11  1   
 13   7  12  1   
 14   8  25  1   
 15   8  26  1   
 16   8  27  1   
 17   9  11  1   
 18   9  13  ar  
 19  10  14  ar  
 20  10  28  1   
 21  12  15  1   
 22  12  29  1   
 23  12  30  1   
 24  13  16  ar  
 25  13  31  1   
 26  14  16  ar  
 27  14  17  1   
 28  15  18  1   
 29  15  19  1   
 30  15  32  1   
 31  16  33  1   
 32  17  20  1   
 33  18  21  1   
 34  18  34  1   
 35  18  35  1   
 36  19  22  1   
 37  19  36  1   
 38  19  37  1   
 39  20  38  1   
 40  20  39  1   
 41  20  40  1   
 42  21  22  1   
 43  21  41  1   
 44  21  42  1   
 45  22  43  1   
 46  22  44  1   
@<TRIPOS>SUBSTRUCTURE
  1 ****   4 GROUP 4 **** **** 0

# MOE 2024.06 (io_trps.svl 2023.06)
