@<TRIPOS>MOLECULE
NONAME
40 41 1 0 0 
SMALL
USER_CHARGES


@<TRIPOS>ATOM
  1 F        1.5380     0.5870     2.4160 F     1 <1>  -0.1900 
  2 C        2.1210     1.0060     1.3260 C.ar  1 <1>   0.1900 
  3 C        3.2940     0.3960     0.9250 C.ar  1 <1>  -0.1500 
  4 C        1.5460     2.0430     0.6180 C.ar  1 <1>  -0.1500 
  5 C        3.9220     0.8420    -0.2300 C.ar  1 <1>  -0.1440 
  6 C        2.1720     2.4800    -0.5360 C.ar  1 <1>  -0.1500 
  7 C        3.3510     1.8810    -0.9570 C.ar  1 <1>  -0.1500 
  8 C        5.2200     0.2050    -0.6900 C.3   1 <1>  -0.0160 
  9 C        6.3850     0.9470    -0.0340 C.3   1 <1>   0.3430 
 10 N        7.6980     0.3680    -0.4600 N.4   1 <1>  -0.9060 
 11 C        8.8800     1.0020     0.1770 C.3   1 <1>   0.4230 
 12 C        9.0880     2.4240    -0.3570 C.3   1 <1>  -0.1600 
 13 C       10.1150     0.1440    -0.1080 C.3   1 <1>  -0.1600 
 14 C       10.3640     3.0490     0.2140 C.3   1 <1>   0.3430 
 15 C       11.3800     0.7860     0.4670 C.3   1 <1>   0.3430 
 16 N       11.5370     2.1700    -0.0670 N.4   1 <1>  -0.9590 
 17 C       12.7890     2.7930     0.4800 C.3   1 <1>   0.2630 
 18 H        3.6870    -0.4110     1.5170 H     1 <1>   0.1500 
 19 H        0.6310     2.4910     0.9630 H     1 <1>   0.1500 
 20 H        1.7390     3.2830    -1.1080 H     1 <1>   0.1500 
 21 H        3.8110     2.2380    -1.8630 H     1 <1>   0.1500 
 22 H        5.2850     0.2690    -1.7620 H     1 <1>   0.0800 
 23 H        5.2240    -0.8330    -0.4050 H     1 <1>   0.0800 
 24 H        6.2800     0.8790     1.0380 H     1 <1>   0.0800 
 25 H        6.3290     1.9880    -0.3090 H     1 <1>   0.0800 
 26 H        7.7710     0.4220    -1.4850 H     1 <1>   0.4500 
 27 H        7.6860    -0.6360    -0.2300 H     1 <1>   0.4500 
 28 H        8.7280     1.0450     1.2450 H     1 <1>   0.0800 
 29 H        8.2620     3.0510    -0.0730 H     1 <1>   0.0800 
 30 H        9.1550     2.4230    -1.4310 H     1 <1>   0.0800 
 31 H       10.2490     0.0040    -1.1660 H     1 <1>   0.0800 
 32 H        9.9970    -0.8240     0.3470 H     1 <1>   0.0800 
 33 H       10.2580     3.1820     1.2800 H     1 <1>   0.0800 
 34 H       10.5200     4.0210    -0.2280 H     1 <1>   0.0800 
 35 H       12.2400     0.1900     0.2020 H     1 <1>   0.0800 
 36 H       11.3170     0.8170     1.5440 H     1 <1>   0.0800 
 37 H       11.6670     2.1140    -1.0910 H     1 <1>   0.4500 
 38 H       12.7290     2.8860     1.5530 H     1 <1>   0.0800 
 39 H       12.9360     3.7750     0.0590 H     1 <1>   0.0800 
 40 H       13.6480     2.1880     0.2370 H     1 <1>   0.0800 
@<TRIPOS>BOND
  1   1   2  1   
  2   2   3  ar  
  3   2   4  ar  
  4   3   5  ar  
  5   3  18  1   
  6   4   6  ar  
  7   4  19  1   
  8   5   7  ar  
  9   5   8  1   
 10   6   7  ar  
 11   6  20  1   
 12   7  21  1   
 13   8   9  1   
 14   8  22  1   
 15   8  23  1   
 16   9  10  1   
 17   9  24  1   
 18   9  25  1   
 19  10  11  1   
 20  10  26  1   
 21  10  27  1   
 22  11  12  1   
 23  11  13  1   
 24  11  28  1   
 25  12  14  1   
 26  12  29  1   
 27  12  30  1   
 28  13  15  1   
 29  13  31  1   
 30  13  32  1   
 31  14  16  1   
 32  14  33  1   
 33  14  34  1   
 34  15  16  1   
 35  15  35  1   
 36  15  36  1   
 37  16  17  1   
 38  16  37  1   
 39  17  38  1   
 40  17  39  1   
 41  17  40  1   
@<TRIPOS>SUBSTRUCTURE
  1 ****   9 GROUP 4 **** **** 0

# MOE 2024.06 (io_trps.svl 2023.06)
