@<TRIPOS>MOLECULE
NONAME
42 44 1 0 0 
SMALL
USER_CHARGES


@<TRIPOS>ATOM
  1 S       -0.7430     0.7110     1.3950 S.o2  1 <1>   1.5010 
  2 O       -1.6190     1.2570     2.4100 O.2   1 <1>  -0.6500 
  3 O        0.0790    -0.4370     1.7100 O.2   1 <1>  -0.6500 
  4 N       -1.7430     0.2500     0.1080 N.am  1 <1>  -0.8490 
  5 C        0.2680     2.0200     0.6810 C.2   1 <1>  -0.0630 
  6 C       -2.4810    -0.9850     0.4330 C.3   1 <1>   0.1960 
  7 C       -2.6920     1.3170    -0.2700 C.3   1 <1>   0.1960 
  8 C        1.1160     1.8900    -0.4150 C.2   1 <1>   0.1080 
  9 C        0.3940     3.3260     1.0270 C.2   1 <1>  -0.3020 
 10 C       -3.3850    -1.4640    -0.7200 C.3   1 <1>   0.2090 
 11 C       -3.5860     0.9190    -1.4610 C.3   1 <1>   0.2090 
 12 N        1.7040     3.0030    -0.7260 N.2   1 <1>  -0.7070 
 13 C        1.3610     0.6150    -1.1950 C.3   1 <1>  -0.0590 
 14 N        1.2620     3.8920     0.1720 N.pl3 1 <1>   0.3140 
 15 N       -4.2810    -0.3840    -1.2350 N.pl3 1 <1>  -0.8380 
 16 C        1.7210     5.2850     0.1600 C.3   1 <1>   0.0160 
 17 C       -5.5990    -0.3540    -0.7920 C.ar  1 <1>   0.1000 
 18 C       -5.9220    -0.0130     0.5200 C.ar  1 <1>  -0.1500 
 19 C       -6.6180    -0.6710    -1.6840 C.ar  1 <1>  -0.1500 
 20 C       -7.2420     0.0100     0.9380 C.ar  1 <1>  -0.1500 
 21 C       -7.9420    -0.6530    -1.2840 C.ar  1 <1>  -0.1500 
 22 C       -8.2280    -0.3110     0.0250 C.ar  1 <1>   0.1900 
 23 F       -9.4780    -0.2910     0.4140 F     1 <1>  -0.1900 
 24 H       -3.0850    -0.8290     1.3100 H     1 <1>   0.0800 
 25 H       -1.7810    -1.7720     0.6580 H     1 <1>   0.0800 
 26 H       -2.1470     2.2040    -0.5420 H     1 <1>   0.0800 
 27 H       -3.3240     1.5640     0.5650 H     1 <1>   0.0800 
 28 H       -0.0840     3.8610     1.8280 H     1 <1>   0.1500 
 29 H       -3.9830    -2.2940    -0.3840 H     1 <1>   0.0800 
 30 H       -2.7660    -1.8130    -1.5280 H     1 <1>   0.0800 
 31 H       -2.9790     0.8400    -2.3460 H     1 <1>   0.0800 
 32 H       -4.3180     1.6890    -1.6310 H     1 <1>   0.0800 
 33 H        1.6720    -0.1710    -0.5320 H     1 <1>   0.0800 
 34 H        2.1340     0.7760    -1.9250 H     1 <1>   0.0800 
 35 H        0.4630     0.3160    -1.7030 H     1 <1>   0.0800 
 36 H        1.1730     5.8540     0.8870 H     1 <1>   0.0800 
 37 H        1.5620     5.6940    -0.8210 H     1 <1>   0.0800 
 38 H        2.7690     5.3070     0.3910 H     1 <1>   0.0800 
 39 H       -5.1410     0.2340     1.2130 H     1 <1>   0.1500 
 40 H       -6.3560    -0.9320    -2.6940 H     1 <1>   0.1500 
 41 H       -7.5050     0.2700     1.9470 H     1 <1>   0.1500 
 42 H       -8.7360    -0.8960    -1.9650 H     1 <1>   0.1500 
@<TRIPOS>BOND
  1   1   2  2   
  2   1   3  2   
  3   1   4  am  
  4   1   5  1   
  5   4   6  1   
  6   4   7  1   
  7   5   8  1   
  8   5   9  2   
  9   6  10  1   
 10   6  24  1   
 11   6  25  1   
 12   7  11  1   
 13   7  26  1   
 14   7  27  1   
 15   8  12  2   
 16   8  13  1   
 17   9  14  1   
 18   9  28  1   
 19  10  15  1   
 20  10  29  1   
 21  10  30  1   
 22  11  15  1   
 23  11  31  1   
 24  11  32  1   
 25  12  14  1   
 26  13  33  1   
 27  13  34  1   
 28  13  35  1   
 29  14  16  1   
 30  15  17  1   
 31  16  36  1   
 32  16  37  1   
 33  16  38  1   
 34  17  18  ar  
 35  17  19  ar  
 36  18  20  ar  
 37  18  39  1   
 38  19  21  ar  
 39  19  40  1   
 40  20  22  ar  
 41  20  41  1   
 42  21  22  ar  
 43  21  42  1   
 44  22  23  1   
@<TRIPOS>SUBSTRUCTURE
  1 ****   7 GROUP 4 **** **** 0

# MOE 2024.06 (io_trps.svl 2023.06)
