@<TRIPOS>MOLECULE
NONAME
29 30 1 0 0 
SMALL
USER_CHARGES


@<TRIPOS>ATOM
  1 BR      -0.1920    -0.1890    -1.6050 Br    1 <1>  -0.1110 
  2 C       -1.7730    -0.9440    -0.8120 C.ar  1 <1>   0.1110 
  3 C       -2.2260    -0.4330     0.3890 C.ar  1 <1>  -0.1500 
  4 C       -2.4150    -1.9800    -1.4620 C.ar  1 <1>  -0.1500 
  5 C       -3.3660    -0.9790     0.9540 C.ar  1 <1>  -0.1500 
  6 C       -3.5540    -2.5190    -0.8880 C.ar  1 <1>  -0.1500 
  7 C       -4.0370    -2.0180     0.3170 C.ar  1 <1>  -0.1430 
  8 C       -5.2960    -2.5980     0.9350 C.3   1 <1>   0.4870 
  9 N       -6.4720    -2.1750     0.1260 N.4   1 <1>  -0.9590 
 10 C       -6.5900    -0.6740     0.0220 C.3   1 <1>   0.3430 
 11 C       -7.7470    -2.8340     0.5550 C.3   1 <1>   0.3430 
 12 C       -7.8820    -0.2080    -0.6760 C.3   1 <1>   0.0700 
 13 C       -8.7580    -2.9060    -0.6060 C.3   1 <1>   0.0700 
 14 S       -8.5100    -1.5210    -1.7650 S.3   1 <1>  -0.4600 
 15 H       -1.6920     0.3700     0.8660 H     1 <1>   0.1500 
 16 H       -2.0260    -2.3530    -2.3930 H     1 <1>   0.1500 
 17 H       -3.7150    -0.5840     1.8940 H     1 <1>   0.1500 
 18 H       -4.0490    -3.3320    -1.3930 H     1 <1>   0.1500 
 19 H       -5.3980    -2.2510     1.9510 H     1 <1>   0.0800 
 20 H       -5.2210    -3.6730     0.9480 H     1 <1>   0.0800 
 21 H       -6.3010    -2.4840    -0.8430 H     1 <1>   0.4500 
 22 H       -5.7480    -0.2980    -0.5390 H     1 <1>   0.0800 
 23 H       -6.5460    -0.2300     1.0030 H     1 <1>   0.0800 
 24 H       -8.1810    -2.2790     1.3710 H     1 <1>   0.0800 
 25 H       -7.5530    -3.8360     0.9030 H     1 <1>   0.0800 
 26 H       -7.7070     0.6650    -1.2810 H     1 <1>   0.0800 
 27 H       -8.6560     0.0080     0.0390 H     1 <1>   0.0800 
 28 H       -9.7700    -2.8540    -0.2440 H     1 <1>   0.0800 
 29 H       -8.6350    -3.8110    -1.1750 H     1 <1>   0.0800 
@<TRIPOS>BOND
  1   1   2  1   
  2   2   3  ar  
  3   2   4  ar  
  4   3   5  ar  
  5   3  15  1   
  6   4   6  ar  
  7   4  16  1   
  8   5   7  ar  
  9   5  17  1   
 10   6   7  ar  
 11   6  18  1   
 12   7   8  1   
 13   8   9  1   
 14   8  19  1   
 15   8  20  1   
 16   9  10  1   
 17   9  11  1   
 18   9  21  1   
 19  10  12  1   
 20  10  22  1   
 21  10  23  1   
 22  11  13  1   
 23  11  24  1   
 24  11  25  1   
 25  12  14  1   
 26  12  26  1   
 27  12  27  1   
 28  13  14  1   
 29  13  28  1   
 30  13  29  1   
@<TRIPOS>SUBSTRUCTURE
  1 ****   7 GROUP 4 **** **** 0

# MOE 2024.06 (io_trps.svl 2023.06)
