@<TRIPOS>MOLECULE
NONAME
51 52 1 0 0 
SMALL
USER_CHARGES


@<TRIPOS>ATOM
  1 S       -0.4400     0.4310     0.1130 S.3   1 <1>  -0.0800 
  2 C        0.3300    -1.1270    -0.0550 C.2   1 <1>   0.1040 
  3 C        1.0800     1.2460     0.4760 C.2   1 <1>  -0.0450 
  4 N       -0.4230    -2.2500    -0.3480 N.am  1 <1>  -0.4940 
  5 C        1.6810    -1.0330     0.1640 C.2   1 <1>  -0.0860 
  6 C        2.0830     0.3230     0.4590 C.2   1 <1>  -0.1810 
  7 C        1.0280     2.6600     0.7580 C.2   1 <1>   0.7150 
  8 C       -1.7500    -2.4240    -0.6600 C.2   1 <1>   0.5690 
  9 C        2.5320    -2.2010     0.1000 C.2   1 <1>   0.8060 
 10 C        3.5320     0.7120     0.7430 C.3   1 <1>  -0.0590 
 11 O        1.6080     3.0920     1.7400 O.2   1 <1>  -0.5700 
 12 N        0.3520     3.5570    -0.0540 N.am  1 <1>  -0.6600 
 13 O       -2.5250    -1.5220    -0.8650 O.2   1 <1>  -0.5700 
 14 C       -2.3120    -3.8520    -0.7400 C.3   1 <1>   0.4040 
 15 O        2.0800    -3.3240    -0.0650 O.2   1 <1>  -0.5700 
 16 O        3.8580    -2.0750     0.2170 O.3   1 <1>  -0.4300 
 17 C        0.0630     4.9480     0.3920 C.3   1 <1>   0.0600 
 18 C       -0.0310     3.2650    -1.4620 C.3   1 <1>   0.0600 
 19 N       -3.7920    -3.9230    -0.4380 N.4   1 <1>  -0.9590 
 20 C        4.7340    -3.1850     0.1610 C.3   1 <1>   0.0400 
 21 C       -4.0840    -3.5610     0.9810 C.3   1 <1>   0.3430 
 22 C       -4.4010    -5.2210    -0.8430 C.3   1 <1>   0.3430 
 23 C       -5.5970    -3.4730     1.1870 C.3   1 <1>  -0.1600 
 24 C       -5.9190    -5.1550    -0.6620 C.3   1 <1>  -0.1600 
 25 C       -6.3070    -4.7680     0.7710 C.3   1 <1>  -0.1600 
 26 H        0.1590    -3.0990    -0.3330 H     1 <1>   0.3700 
 27 H        3.6300     1.7650     0.9330 H     1 <1>   0.0800 
 28 H        4.1540     0.4750    -0.1010 H     1 <1>   0.0800 
 29 H        3.8940     0.1870     1.6090 H     1 <1>   0.0800 
 30 H       -1.7720    -4.4810    -0.0530 H     1 <1>   0.0800 
 31 H       -2.1350    -4.2140    -1.7380 H     1 <1>   0.0800 
 32 H        0.1680     5.0350     1.4600 H     1 <1>   0.0800 
 33 H       -0.9450     5.2160     0.1260 H     1 <1>   0.0800 
 34 H        0.7490     5.6300    -0.0800 H     1 <1>   0.0800 
 35 H        0.4990     2.4050    -1.8320 H     1 <1>   0.0800 
 36 H        0.2110     4.1060    -2.0890 H     1 <1>   0.0800 
 37 H       -1.0890     3.0770    -1.5180 H     1 <1>   0.0800 
 38 H       -4.2190    -3.1680    -1.0010 H     1 <1>   0.4500 
 39 H        5.7420    -2.8290     0.2800 H     1 <1>   0.0800 
 40 H        4.6250    -3.6710    -0.7940 H     1 <1>   0.0800 
 41 H        4.4870    -3.8670     0.9570 H     1 <1>   0.0800 
 42 H       -3.6400    -2.6060     1.2200 H     1 <1>   0.0800 
 43 H       -3.6740    -4.3060     1.6440 H     1 <1>   0.0800 
 44 H       -4.0030    -6.0170    -0.2350 H     1 <1>   0.0800 
 45 H       -4.1740    -5.4330    -1.8760 H     1 <1>   0.0800 
 46 H       -5.9850    -2.6430     0.6220 H     1 <1>   0.0800 
 47 H       -5.8000    -3.2740     2.2260 H     1 <1>   0.0800 
 48 H       -6.3440    -6.1150    -0.8990 H     1 <1>   0.0800 
 49 H       -6.3300    -4.4420    -1.3570 H     1 <1>   0.0800 
 50 H       -7.3750    -4.6380     0.8380 H     1 <1>   0.0800 
 51 H       -6.0320    -5.5630     1.4450 H     1 <1>   0.0800 
@<TRIPOS>BOND
  1   1   2  1   
  2   1   3  1   
  3   2   4  1   
  4   2   5  2   
  5   3   6  2   
  6   3   7  1   
  7   4   8  am  
  8   4  26  1   
  9   5   6  1   
 10   5   9  1   
 11   6  10  1   
 12   7  11  2   
 13   7  12  am  
 14   8  13  2   
 15   8  14  1   
 16   9  15  2   
 17   9  16  1   
 18  10  27  1   
 19  10  28  1   
 20  10  29  1   
 21  12  17  1   
 22  12  18  1   
 23  14  19  1   
 24  14  30  1   
 25  14  31  1   
 26  16  20  1   
 27  17  32  1   
 28  17  33  1   
 29  17  34  1   
 30  18  35  1   
 31  18  36  1   
 32  18  37  1   
 33  19  21  1   
 34  19  22  1   
 35  19  38  1   
 36  20  39  1   
 37  20  40  1   
 38  20  41  1   
 39  21  23  1   
 40  21  42  1   
 41  21  43  1   
 42  22  24  1   
 43  22  44  1   
 44  22  45  1   
 45  23  25  1   
 46  23  46  1   
 47  23  47  1   
 48  24  25  1   
 49  24  48  1   
 50  24  49  1   
 51  25  50  1   
 52  25  51  1   
@<TRIPOS>SUBSTRUCTURE
  1 ****   2 GROUP 4 **** **** 0

# MOE 2024.06 (io_trps.svl 2023.06)
