@<TRIPOS>MOLECULE
NONAME
40 41 1 0 0 
SMALL
USER_CHARGES


@<TRIPOS>ATOM
  1 BR      -0.7530    -0.0750     1.2620 Br    1 <1>  -0.1110 
  2 C       -0.3870     1.6540     0.4860 C.ar  1 <1>   0.1110 
  3 C       -1.4440     2.4670     0.0870 C.ar  1 <1>   0.0830 
  4 C        0.9350     2.0310     0.3520 C.ar  1 <1>  -0.1500 
  5 O       -2.7110     2.0050     0.2620 O.3   1 <1>  -0.3630 
  6 C       -1.1460     3.7110    -0.4700 C.ar  1 <1>  -0.1500 
  7 C        1.1980     3.2680    -0.2020 C.ar  1 <1>   0.1770 
  8 C       -3.8360     2.7630    -0.1090 C.3   1 <1>   0.1200 
  9 C        0.1760     4.1080    -0.6130 C.ar  1 <1>  -0.1500 
 10 CL       2.8550     3.7850    -0.3900 Cl    1 <1>  -0.1770 
 11 C       -5.0740     1.9310     0.2330 C.3   1 <1>  -0.1600 
 12 C       -6.3780     2.6580    -0.1240 C.3   1 <1>  -0.1600 
 13 C       -7.5850     1.7840     0.2280 C.3   1 <1>   0.3430 
 14 N       -8.8520     2.4350    -0.2030 N.4   1 <1>  -0.9590 
 15 C       -9.2010     3.6350     0.6420 C.3   1 <1>   0.3430 
 16 C       -9.9860     1.4430    -0.1830 C.3   1 <1>   0.3430 
 17 C      -10.5500     4.2600     0.2250 C.3   1 <1>   0.1100 
 18 C      -11.3250     2.0920    -0.5940 C.3   1 <1>   0.1100 
 19 N      -11.6290     3.2610     0.2450 N.3   1 <1>  -0.9000 
 20 H        1.7330     1.3850     0.6680 H     1 <1>   0.1500 
 21 H       -1.9200     4.3800    -0.7960 H     1 <1>   0.1500 
 22 H       -3.7800     2.9590    -1.1660 H     1 <1>   0.0800 
 23 H       -3.8220     3.6850     0.4480 H     1 <1>   0.0800 
 24 H        0.4190     5.0650    -1.0410 H     1 <1>   0.1500 
 25 H       -5.0560     1.7130     1.2880 H     1 <1>   0.0800 
 26 H       -5.0170     1.0000    -0.3070 H     1 <1>   0.0800 
 27 H       -6.3810     2.8720    -1.1790 H     1 <1>   0.0800 
 28 H       -6.4160     3.5840     0.4230 H     1 <1>   0.0800 
 29 H       -7.6070     1.5980     1.2900 H     1 <1>   0.0800 
 30 H       -7.4790     0.8350    -0.2740 H     1 <1>   0.0800 
 31 H       -8.7470     2.7560    -1.1730 H     1 <1>   0.4500 
 32 H       -8.4300     4.3830     0.5620 H     1 <1>   0.0800 
 33 H       -9.2720     3.3410     1.6770 H     1 <1>   0.0800 
 34 H      -10.0980     1.0420     0.8110 H     1 <1>   0.0800 
 35 H       -9.7710     0.6240    -0.8500 H     1 <1>   0.0800 
 36 H      -10.4650     4.6890    -0.7590 H     1 <1>   0.0800 
 37 H      -10.7970     5.0530     0.9110 H     1 <1>   0.0800 
 38 H      -12.1150     1.3680    -0.4830 H     1 <1>   0.0800 
 39 H      -11.2890     2.3830    -1.6300 H     1 <1>   0.0800 
 40 H      -12.5160     3.6940    -0.0630 H     1 <1>   0.3600 
@<TRIPOS>BOND
  1   1   2  1   
  2   2   3  ar  
  3   2   4  ar  
  4   3   5  1   
  5   3   6  ar  
  6   4   7  ar  
  7   4  20  1   
  8   5   8  1   
  9   6   9  ar  
 10   6  21  1   
 11   7   9  ar  
 12   7  10  1   
 13   8  11  1   
 14   8  22  1   
 15   8  23  1   
 16   9  24  1   
 17  11  12  1   
 18  11  25  1   
 19  11  26  1   
 20  12  13  1   
 21  12  27  1   
 22  12  28  1   
 23  13  14  1   
 24  13  29  1   
 25  13  30  1   
 26  14  15  1   
 27  14  16  1   
 28  14  31  1   
 29  15  17  1   
 30  15  32  1   
 31  15  33  1   
 32  16  18  1   
 33  16  34  1   
 34  16  35  1   
 35  17  19  1   
 36  17  36  1   
 37  17  37  1   
 38  18  19  1   
 39  18  38  1   
 40  18  39  1   
 41  19  40  1   
@<TRIPOS>SUBSTRUCTURE
  1 ****   8 GROUP 4 **** **** 0

# MOE 2024.06 (io_trps.svl 2023.06)
