@<TRIPOS>MOLECULE
NONAME
43 45 1 0 0 
SMALL
USER_CHARGES


@<TRIPOS>ATOM
  1 O        0.5910     0.0310     0.2500 O.3   1 <1>  -0.3630 
  2 C        1.6600     0.8750     0.1590 C.ar  1 <1>   0.0820 
  3 C       -0.7220     0.4570     0.5360 C.3   1 <1>   0.0400 
  4 C        1.6710     2.2630     0.3810 C.ar  1 <1>   0.0820 
  5 C        2.8360     0.2370    -0.1950 C.ar  1 <1>  -0.1500 
  6 O        0.5250     2.9160     0.7350 O.3   1 <1>  -0.3630 
  7 C        2.8730     2.9540     0.2370 C.ar  1 <1>  -0.1500 
  8 C        4.0260     0.9300    -0.3370 C.ar  1 <1>  -0.1430 
  9 C        0.4710     4.3080     0.9580 C.3   1 <1>   0.0400 
 10 C        4.0420     2.3010    -0.1180 C.ar  1 <1>  -0.1430 
 11 C        5.2740     0.1620    -0.7390 C.3   1 <1>   0.4860 
 12 C        5.3320     3.1020    -0.2450 C.3   1 <1>  -0.0160 
 13 N        6.4880     0.9120    -0.3240 N.4   1 <1>  -0.9590 
 14 C        6.4660     2.2970    -0.8840 C.3   1 <1>   0.3430 
 15 C        7.7370     0.1770    -0.6490 C.3   1 <1>   0.4860 
 16 C        8.9050     0.9140    -0.0260 C.ar  1 <1>  -0.1430 
 17 C        9.7860     1.6290    -0.8260 C.ar  1 <1>  -0.1500 
 18 C        9.0990     0.8880     1.3490 C.ar  1 <1>  -0.1500 
 19 C       10.8410     2.3200    -0.2550 C.ar  1 <1>  -0.1500 
 20 C       10.1540     1.5800     1.9170 C.ar  1 <1>  -0.1500 
 21 C       11.0230     2.2980     1.1150 C.ar  1 <1>  -0.1500 
 22 H       -1.3670    -0.4030     0.5110 H     1 <1>   0.0800 
 23 H       -1.0300     1.1660    -0.2120 H     1 <1>   0.0800 
 24 H       -0.7400     0.8980     1.5160 H     1 <1>   0.0800 
 25 H        2.7930    -0.8250    -0.3600 H     1 <1>   0.1500 
 26 H        2.9150     4.0130     0.4030 H     1 <1>   0.1500 
 27 H       -0.5410     4.5650     1.2140 H     1 <1>   0.0800 
 28 H        0.7580     4.8190     0.0560 H     1 <1>   0.0800 
 29 H        1.1260     4.5590     1.7730 H     1 <1>   0.0800 
 30 H        5.2710     0.0220    -1.8070 H     1 <1>   0.0800 
 31 H        5.2590    -0.8070    -0.2670 H     1 <1>   0.0800 
 32 H        5.6410     3.4250     0.7340 H     1 <1>   0.0800 
 33 H        5.1570     3.9840    -0.8350 H     1 <1>   0.0800 
 34 H        6.4440     1.0100     0.6980 H     1 <1>   0.4500 
 35 H        7.4020     2.7980    -0.6940 H     1 <1>   0.0800 
 36 H        6.3150     2.2530    -1.9510 H     1 <1>   0.0800 
 37 H        7.8700     0.1150    -1.7170 H     1 <1>   0.0800 
 38 H        7.6970    -0.8230    -0.2490 H     1 <1>   0.0800 
 39 H        9.6700     1.6570    -1.8960 H     1 <1>   0.1500 
 40 H        8.4420     0.3310     1.9950 H     1 <1>   0.1500 
 41 H       11.5250     2.8740    -0.8750 H     1 <1>   0.1500 
 42 H       10.3060     1.5600     2.9830 H     1 <1>   0.1500 
 43 H       11.8450     2.8350     1.5580 H     1 <1>   0.1500 
@<TRIPOS>BOND
  1   1   2  1   
  2   1   3  1   
  3   2   4  ar  
  4   2   5  ar  
  5   3  22  1   
  6   3  23  1   
  7   3  24  1   
  8   4   6  1   
  9   4   7  ar  
 10   5   8  ar  
 11   5  25  1   
 12   6   9  1   
 13   7  10  ar  
 14   7  26  1   
 15   8  10  ar  
 16   8  11  1   
 17   9  27  1   
 18   9  28  1   
 19   9  29  1   
 20  10  12  1   
 21  11  13  1   
 22  11  30  1   
 23  11  31  1   
 24  12  14  1   
 25  12  32  1   
 26  12  33  1   
 27  13  14  1   
 28  13  15  1   
 29  13  34  1   
 30  14  35  1   
 31  14  36  1   
 32  15  16  1   
 33  15  37  1   
 34  15  38  1   
 35  16  17  ar  
 36  16  18  ar  
 37  17  19  ar  
 38  17  39  1   
 39  18  20  ar  
 40  18  40  1   
 41  19  21  ar  
 42  19  41  1   
 43  20  21  ar  
 44  20  42  1   
 45  21  43  1   
@<TRIPOS>SUBSTRUCTURE
  1 ****  10 GROUP 4 **** **** 0

# MOE 2024.06 (io_trps.svl 2023.06)
