@<TRIPOS>MOLECULE
NONAME
52 54 1 0 0 
SMALL
USER_CHARGES


@<TRIPOS>ATOM
  1 O        0.4100     0.2230     1.9020 O.2   1 <1>  -0.5700 
  2 C       -0.2950     1.1360     1.5120 C.2   1 <1>   0.5440 
  3 N       -1.6330     0.9280     1.3130 N.am  1 <1>  -0.5470 
  4 C        0.2670     2.4550     1.2810 C.ar  1 <1>   0.0860 
  5 C       -2.5330    -0.1350     1.4760 C.ar  1 <1>   0.1170 
  6 C       -0.2430     3.3660     0.3370 C.ar  1 <1>   0.0830 
  7 C        1.3580     2.8770     2.0440 C.ar  1 <1>  -0.1500 
  8 C       -3.8660     0.1230     1.1210 C.ar  1 <1>   0.1000 
  9 C       -2.1790    -1.3900     1.9510 C.ar  1 <1>  -0.1500 
 10 O       -1.2570     3.0230    -0.4870 O.3   1 <1>  -0.3630 
 11 C        0.2760     4.6530     0.2190 C.ar  1 <1>  -0.1440 
 12 C        1.8930     4.1420     1.9120 C.ar  1 <1>  -0.1500 
 13 N       -4.2280     1.3990     0.6490 N.pl3 1 <1>  -0.8380 
 14 C       -4.8090    -0.8880     1.2540 C.ar  1 <1>  -0.1500 
 15 C       -3.1310    -2.3890     2.0750 C.ar  1 <1>  -0.1500 
 16 C       -0.9330     2.1970    -1.5870 C.3   1 <1>   0.0400 
 17 C        1.3480     5.0330     1.0060 C.ar  1 <1>  -0.1500 
 18 C       -0.3170     5.6480    -0.7700 C.3   1 <1>  -0.0970 
 19 C       -5.0480     1.5120    -0.5910 C.3   1 <1>   0.2090 
 20 C       -4.5950     2.4160     1.6810 C.3   1 <1>   0.2090 
 21 C       -4.4460    -2.1380     1.7260 C.ar  1 <1>  -0.1500 
 22 C       -4.9400     2.9310    -1.1820 C.3   1 <1>   0.1400 
 23 C       -4.4820     3.8370     1.1040 C.3   1 <1>   0.1400 
 24 N       -5.2750     3.9760    -0.1610 N.am  1 <1>  -0.6600 
 25 C       -6.2210     4.9560    -0.3000 C.2   1 <1>   0.5690 
 26 O       -6.4770     5.7330     0.5870 O.2   1 <1>  -0.5700 
 27 C       -6.9930     5.1020    -1.5910 C.3   1 <1>  -0.1790 
 28 H       -2.1200     1.7180     0.8710 H     1 <1>   0.3700 
 29 H        1.7860     2.1940     2.7590 H     1 <1>   0.1500 
 30 H       -1.1610    -1.5940     2.2250 H     1 <1>   0.1500 
 31 H        2.7330     4.4380     2.5180 H     1 <1>   0.1500 
 32 H       -5.8320    -0.6960     0.9940 H     1 <1>   0.1500 
 33 H       -2.8430    -3.3580     2.4430 H     1 <1>   0.1500 
 34 H       -0.5300     1.2660    -1.2300 H     1 <1>   0.0800 
 35 H       -0.2100     2.7050    -2.2000 H     1 <1>   0.0800 
 36 H       -1.8310     2.0130    -2.1470 H     1 <1>   0.0800 
 37 H        1.7670     6.0210     0.9210 H     1 <1>   0.1500 
 38 H       -0.1220     5.3240    -1.7760 H     1 <1>   0.0800 
 39 H        0.1050     6.6270    -0.6360 H     1 <1>   0.0800 
 40 H       -1.3810     5.7150    -0.6280 H     1 <1>   0.0800 
 41 H       -6.0780     1.3000    -0.3630 H     1 <1>   0.0800 
 42 H       -4.7050     0.7920    -1.3120 H     1 <1>   0.0800 
 43 H       -3.9410     2.3200     2.5310 H     1 <1>   0.0800 
 44 H       -5.6040     2.2450     2.0130 H     1 <1>   0.0800 
 45 H       -5.1850    -2.9130     1.8250 H     1 <1>   0.1500 
 46 H       -5.5860     3.0010    -2.0370 H     1 <1>   0.0800 
 47 H       -3.9300     3.0880    -1.5180 H     1 <1>   0.0800 
 48 H       -3.4480     4.0500     0.8950 H     1 <1>   0.0800 
 49 H       -4.8180     4.5430     1.8430 H     1 <1>   0.0800 
 50 H       -7.5970     4.2300    -1.7550 H     1 <1>   0.0800 
 51 H       -6.3140     5.2400    -2.4100 H     1 <1>   0.0800 
 52 H       -7.6370     5.9600    -1.5310 H     1 <1>   0.0800 
@<TRIPOS>BOND
  1   1   2  2   
  2   2   3  am  
  3   2   4  1   
  4   3   5  1   
  5   3  28  1   
  6   4   6  ar  
  7   4   7  ar  
  8   5   8  ar  
  9   5   9  ar  
 10   6  10  1   
 11   6  11  ar  
 12   7  12  ar  
 13   7  29  1   
 14   8  13  1   
 15   8  14  ar  
 16   9  15  ar  
 17   9  30  1   
 18  10  16  1   
 19  11  17  ar  
 20  11  18  1   
 21  12  17  ar  
 22  12  31  1   
 23  13  19  1   
 24  13  20  1   
 25  14  21  ar  
 26  14  32  1   
 27  15  21  ar  
 28  15  33  1   
 29  16  34  1   
 30  16  35  1   
 31  16  36  1   
 32  17  37  1   
 33  18  38  1   
 34  18  39  1   
 35  18  40  1   
 36  19  22  1   
 37  19  41  1   
 38  19  42  1   
 39  20  23  1   
 40  20  43  1   
 41  20  44  1   
 42  21  45  1   
 43  22  24  1   
 44  22  46  1   
 45  22  47  1   
 46  23  24  1   
 47  23  48  1   
 48  23  49  1   
 49  24  25  am  
 50  25  26  2   
 51  25  27  1   
 52  27  50  1   
 53  27  51  1   
 54  27  52  1   
@<TRIPOS>SUBSTRUCTURE
  1 ****   3 GROUP 4 **** **** 0

# MOE 2024.06 (io_trps.svl 2023.06)
