@<TRIPOS>MOLECULE
NONAME
41 42 1 0 0 
SMALL
USER_CHARGES


@<TRIPOS>ATOM
  1 O        0.2600     0.1660     0.7640 O.3   1 <1>  -0.6800 
  2 C        1.3520    -0.6740     0.8170 C.3   1 <1>   0.2000 
  3 C        2.6210     0.1930     0.7190 C.3   1 <1>   0.3430 
  4 C        1.2460    -1.6640    -0.3460 C.3   1 <1>  -0.1600 
  5 N        3.8680    -0.6340     0.5500 N.4   1 <1>  -0.9590 
  6 C        2.5560    -2.4520    -0.5100 C.3   1 <1>  -0.1600 
  7 C        5.0830     0.2310     0.5750 C.3   1 <1>   0.4230 
  8 C        3.7680    -1.5270    -0.6480 C.3   1 <1>   0.3430 
  9 C        5.2370     1.0830    -0.6950 C.3   1 <1>  -0.1600 
 10 C        6.3320    -0.6250     0.8090 C.3   1 <1>  -0.1600 
 11 C        6.4840     1.9740    -0.5950 C.3   1 <1>  -0.1600 
 12 C        7.5870     0.2560     0.9060 C.3   1 <1>  -0.1600 
 13 C        7.7590     1.1480    -0.3390 C.3   1 <1>  -0.0800 
 14 C        8.9660     2.0960    -0.2090 C.3   1 <1>  -0.1600 
 15 C       10.3120     1.3630    -0.1250 C.3   1 <1>  -0.2400 
 16 H       -0.5790    -0.3360     0.8300 H     1 <1>   0.4000 
 17 H        1.3290    -1.1880     1.7640 H     1 <1>   0.0800 
 18 H        2.6970     0.7970     1.6080 H     1 <1>   0.0800 
 19 H        2.5110     0.8490    -0.1290 H     1 <1>   0.0800 
 20 H        1.0480    -1.1260    -1.2590 H     1 <1>   0.0800 
 21 H        0.4340    -2.3500    -0.1730 H     1 <1>   0.0800 
 22 H        3.9360    -1.2450     1.3720 H     1 <1>   0.4500 
 23 H        2.4880    -3.0680    -1.3910 H     1 <1>   0.0800 
 24 H        2.7000    -3.1120     0.3290 H     1 <1>   0.0800 
 25 H        5.0010     0.9080     1.4110 H     1 <1>   0.0800 
 26 H        4.6620    -2.1220    -0.7450 H     1 <1>   0.0800 
 27 H        3.6600    -0.9310    -1.5390 H     1 <1>   0.0800 
 28 H        4.3790     1.7170    -0.8310 H     1 <1>   0.0800 
 29 H        5.3460     0.4570    -1.5630 H     1 <1>   0.0800 
 30 H        6.4730    -1.3170    -0.0020 H     1 <1>   0.0800 
 31 H        6.2310    -1.1800     1.7240 H     1 <1>   0.0800 
 32 H        6.3530     2.6870     0.2020 H     1 <1>   0.0800 
 33 H        6.5960     2.5300    -1.5110 H     1 <1>   0.0800 
 34 H        8.4450    -0.3840     1.0180 H     1 <1>   0.0800 
 35 H        7.5270     0.8760     1.7850 H     1 <1>   0.0800 
 36 H        7.9250     0.5140    -1.1950 H     1 <1>   0.0800 
 37 H        8.8510     2.7220     0.6590 H     1 <1>   0.0800 
 38 H        8.9960     2.7420    -1.0710 H     1 <1>   0.0800 
 39 H       10.3940     0.8040     0.7890 H     1 <1>   0.0800 
 40 H       11.1160     2.0780    -0.1490 H     1 <1>   0.0800 
 41 H       10.4310     0.6930    -0.9580 H     1 <1>   0.0800 
@<TRIPOS>BOND
  1   1   2  1   
  2   1  16  1   
  3   2   3  1   
  4   2   4  1   
  5   2  17  1   
  6   3   5  1   
  7   3  18  1   
  8   3  19  1   
  9   4   6  1   
 10   4  20  1   
 11   4  21  1   
 12   5   7  1   
 13   5   8  1   
 14   5  22  1   
 15   6   8  1   
 16   6  23  1   
 17   6  24  1   
 18   7   9  1   
 19   7  10  1   
 20   7  25  1   
 21   8  26  1   
 22   8  27  1   
 23   9  11  1   
 24   9  28  1   
 25   9  29  1   
 26  10  12  1   
 27  10  30  1   
 28  10  31  1   
 29  11  13  1   
 30  11  32  1   
 31  11  33  1   
 32  12  13  1   
 33  12  34  1   
 34  12  35  1   
 35  13  14  1   
 36  13  36  1   
 37  14  15  1   
 38  14  37  1   
 39  14  38  1   
 40  15  39  1   
 41  15  40  1   
 42  15  41  1   
@<TRIPOS>SUBSTRUCTURE
  1 ****   7 GROUP 4 **** **** 0

# MOE 2024.06 (io_trps.svl 2023.06)
