@<TRIPOS>MOLECULE
NONAME
43 45 1 0 0 
SMALL
USER_CHARGES


@<TRIPOS>ATOM
  1 O       -1.4290     4.9780    -0.4310 O.2   1 <1>  -0.5700 
  2 C       -2.0030     3.9350    -0.2980 C.2   1 <1>   0.4480 
  3 C       -3.5310     3.8090    -0.1710 C.3   1 <1>   0.0610 
  4 C       -1.1730     2.6490    -0.2450 C.3   1 <1>   0.4040 
  5 C       -3.9180     3.1150     1.1610 C.3   1 <1>  -0.1600 
  6 C       -4.1120     2.9830    -1.3480 C.3   1 <1>  -0.1600 
  7 C       -4.2010     5.2090    -0.1940 C.3   1 <1>  -0.1600 
  8 N        0.2810     2.9220    -0.5250 N.4   1 <1>  -0.9060 
  9 C       -5.4480     2.9890     1.2880 C.3   1 <1>  -0.0800 
 10 C       -5.6420     2.8560    -1.2250 C.3   1 <1>  -0.0800 
 11 C       -5.7310     5.0950    -0.0690 C.3   1 <1>  -0.0800 
 12 C        1.1910     1.7880    -0.2570 C.3   1 <1>   0.3430 
 13 C       -5.9890     2.1640     0.1060 C.3   1 <1>  -0.1600 
 14 C       -6.0770     4.3930     1.2560 C.3   1 <1>  -0.1600 
 15 C       -6.2710     4.2610    -1.2440 C.3   1 <1>  -0.1600 
 16 C        2.6220     2.2210    -0.5680 C.3   1 <1>  -0.1600 
 17 C        3.6120     1.0800    -0.3060 C.3   1 <1>  -0.2400 
 18 H       -1.5570     1.9480    -0.9650 H     1 <1>   0.0800 
 19 H       -1.2770     2.2210     0.7380 H     1 <1>   0.0800 
 20 H       -3.5430     3.6880     1.9930 H     1 <1>   0.0800 
 21 H       -3.4930     2.1300     1.2200 H     1 <1>   0.0800 
 22 H       -3.6920     1.9930    -1.3680 H     1 <1>   0.0800 
 23 H       -3.8740     3.4620    -2.2830 H     1 <1>   0.0800 
 24 H       -3.9570     5.7180    -1.1100 H     1 <1>   0.0800 
 25 H       -3.8230     5.8100     0.6160 H     1 <1>   0.0800 
 26 H        0.5450     3.7480     0.0350 H     1 <1>   0.4500 
 27 H        0.3770     3.2480    -1.4960 H     1 <1>   0.4500 
 28 H       -5.7010     2.5030     2.2160 H     1 <1>   0.0800 
 29 H       -6.0300     2.2770    -2.0470 H     1 <1>   0.0800 
 30 H       -6.1730     6.0770    -0.0870 H     1 <1>   0.0800 
 31 H        0.9280     0.9440    -0.8750 H     1 <1>   0.0800 
 32 H        1.1220     1.4910     0.7780 H     1 <1>   0.0800 
 33 H       -7.0580     2.0670     0.1940 H     1 <1>   0.0800 
 34 H       -5.5740     1.1720     0.1270 H     1 <1>   0.0800 
 35 H       -7.1470     4.3150     1.3560 H     1 <1>   0.0800 
 36 H       -5.7170     4.9780     2.0850 H     1 <1>   0.0800 
 37 H       -7.3420     4.1810    -1.1690 H     1 <1>   0.0800 
 38 H       -6.0470     4.7520    -2.1750 H     1 <1>   0.0800 
 39 H        2.8950     3.0600     0.0500 H     1 <1>   0.0800 
 40 H        2.7020     2.5120    -1.6020 H     1 <1>   0.0800 
 41 H        3.5830     0.7750     0.7270 H     1 <1>   0.0800 
 42 H        4.6140     1.4050    -0.5310 H     1 <1>   0.0800 
 43 H        3.3900     0.2280    -0.9250 H     1 <1>   0.0800 
@<TRIPOS>BOND
  1   1   2  2   
  2   2   3  1   
  3   2   4  1   
  4   3   5  1   
  5   3   6  1   
  6   3   7  1   
  7   4   8  1   
  8   4  18  1   
  9   4  19  1   
 10   5   9  1   
 11   5  20  1   
 12   5  21  1   
 13   6  10  1   
 14   6  22  1   
 15   6  23  1   
 16   7  11  1   
 17   7  24  1   
 18   7  25  1   
 19   8  12  1   
 20   8  26  1   
 21   8  27  1   
 22   9  13  1   
 23   9  14  1   
 24   9  28  1   
 25  10  13  1   
 26  10  15  1   
 27  10  29  1   
 28  11  14  1   
 29  11  15  1   
 30  11  30  1   
 31  12  16  1   
 32  12  31  1   
 33  12  32  1   
 34  13  33  1   
 35  13  34  1   
 36  14  35  1   
 37  14  36  1   
 38  15  37  1   
 39  15  38  1   
 40  16  17  1   
 41  16  39  1   
 42  16  40  1   
 43  17  41  1   
 44  17  42  1   
 45  17  43  1   
@<TRIPOS>SUBSTRUCTURE
  1 ****   3 GROUP 4 **** **** 0

# MOE 2024.06 (io_trps.svl 2023.06)
