@<TRIPOS>MOLECULE
NONAME
44 45 1 0 0 
SMALL
USER_CHARGES


@<TRIPOS>ATOM
  1 O       -1.6410     1.8890    -2.0510 O.2   1 <1>  -0.5700 
  2 C       -1.5350     1.5280    -0.9030 C.2   1 <1>   0.5690 
  3 N       -2.1500     0.4070    -0.4520 N.am  1 <1>  -0.7300 
  4 C       -0.7270     2.3590     0.0930 C.3   1 <1>  -0.0190 
  5 C       -3.0870    -0.4060    -1.2480 C.3   1 <1>   0.2840 
  6 C       -1.4610     3.6120     0.5720 C.3   1 <1>  -0.1600 
  7 C        0.5960     2.9110    -0.4430 C.3   1 <1>  -0.1600 
  8 C       -4.4840    -0.1830    -0.6990 C.ar  1 <1>  -0.1440 
  9 C       -0.3690     4.5340     1.1210 C.3   1 <1>  -0.1600 
 10 C        0.9530     4.0590     0.5030 C.3   1 <1>  -0.1600 
 11 C       -5.1430    -1.1770     0.0080 C.ar  1 <1>  -0.1500 
 12 C       -5.1020     1.0410    -0.9040 C.ar  1 <1>  -0.1500 
 13 C       -6.4210    -0.9550     0.5160 C.ar  1 <1>   0.0820 
 14 C       -6.3770     1.2870    -0.4020 C.ar  1 <1>   0.0820 
 15 O       -7.1120    -1.9070     1.2090 O.3   1 <1>  -0.3630 
 16 C       -7.0320     0.2830     0.3100 C.ar  1 <1>   0.0820 
 17 O       -7.0150     2.4810    -0.5820 O.3   1 <1>  -0.3630 
 18 C       -6.5220    -3.1320     1.5800 C.3   1 <1>   0.0400 
 19 O       -8.2690     0.5150     0.8280 O.3   1 <1>  -0.3630 
 20 C       -6.3540     3.5880    -1.1530 C.3   1 <1>   0.0400 
 21 C       -9.3390     0.2720    -0.0520 C.3   1 <1>   0.0400 
 22 H       -2.1580     0.2070     0.5480 H     1 <1>   0.3700 
 23 H       -0.5040     1.7510     0.9520 H     1 <1>   0.0800 
 24 H       -2.8090    -1.4430    -1.1810 H     1 <1>   0.0800 
 25 H       -3.0510    -0.1140    -2.2850 H     1 <1>   0.0800 
 26 H       -2.2100     3.3840     1.3110 H     1 <1>   0.0800 
 27 H       -1.9350     4.0880    -0.2700 H     1 <1>   0.0800 
 28 H        0.4490     3.3050    -1.4350 H     1 <1>   0.0800 
 29 H        1.3640     2.1570    -0.4770 H     1 <1>   0.0800 
 30 H       -0.3170     4.4500     2.1930 H     1 <1>   0.0800 
 31 H       -0.5730     5.5590     0.8630 H     1 <1>   0.0800 
 32 H        1.4490     4.8540    -0.0280 H     1 <1>   0.0800 
 33 H        1.6060     3.7010     1.2800 H     1 <1>   0.0800 
 34 H       -4.6520    -2.1190     0.1540 H     1 <1>   0.1500 
 35 H       -4.5680     1.7910    -1.4570 H     1 <1>   0.1500 
 36 H       -7.2390    -3.6820     2.1620 H     1 <1>   0.0800 
 37 H       -5.6470    -2.9320     2.1730 H     1 <1>   0.0800 
 38 H       -6.2730    -3.6830     0.6910 H     1 <1>   0.0800 
 39 H       -7.0280     4.4260    -1.1290 H     1 <1>   0.0800 
 40 H       -6.0960     3.3560    -2.1710 H     1 <1>   0.0800 
 41 H       -5.4760     3.8080    -0.5720 H     1 <1>   0.0800 
 42 H      -10.2550     0.4810     0.4700 H     1 <1>   0.0800 
 43 H       -9.3100    -0.7600    -0.3540 H     1 <1>   0.0800 
 44 H       -9.2410     0.9200    -0.9040 H     1 <1>   0.0800 
@<TRIPOS>BOND
  1   1   2  2   
  2   2   3  am  
  3   2   4  1   
  4   3   5  1   
  5   3  22  1   
  6   4   6  1   
  7   4   7  1   
  8   4  23  1   
  9   5   8  1   
 10   5  24  1   
 11   5  25  1   
 12   6   9  1   
 13   6  26  1   
 14   6  27  1   
 15   7  10  1   
 16   7  28  1   
 17   7  29  1   
 18   8  11  ar  
 19   8  12  ar  
 20   9  10  1   
 21   9  30  1   
 22   9  31  1   
 23  10  32  1   
 24  10  33  1   
 25  11  13  ar  
 26  11  34  1   
 27  12  14  ar  
 28  12  35  1   
 29  13  15  1   
 30  13  16  ar  
 31  14  16  ar  
 32  14  17  1   
 33  15  18  1   
 34  16  19  1   
 35  17  20  1   
 36  18  36  1   
 37  18  37  1   
 38  18  38  1   
 39  19  21  1   
 40  20  39  1   
 41  20  40  1   
 42  20  41  1   
 43  21  42  1   
 44  21  43  1   
 45  21  44  1   
@<TRIPOS>SUBSTRUCTURE
  1 ****  12 GROUP 4 **** **** 0

# MOE 2024.06 (io_trps.svl 2023.06)
