@<TRIPOS>MOLECULE
NONAME
42 42 1 0 0 
SMALL
USER_CHARGES


@<TRIPOS>ATOM
  1 S       -0.0260     1.1010    -1.4910 S.o2  1 <1>   1.4470 
  2 O        0.2420    -0.2040    -2.0500 O.2   1 <1>  -0.6500 
  3 O       -0.6510     2.1390    -2.2760 O.2   1 <1>  -0.6500 
  4 N       -1.0010     0.9670    -0.1350 N.am  1 <1>  -0.9140 
  5 C        1.5130     1.7380    -0.7730 C.ar  1 <1>  -0.0090 
  6 C       -2.0660    -0.0030    -0.1340 C.3   1 <1>   0.5560 
  7 C        2.3780     0.8900    -0.0930 C.ar  1 <1>  -0.1500 
  8 C        1.8560     3.0800    -0.8620 C.ar  1 <1>  -0.1500 
  9 C       -2.8090    -0.0030    -1.4350 C.1   1 <1>  -0.2000 
 10 C       -1.5010    -1.4050     0.2070 C.3   1 <1>  -0.1600 
 11 C       -3.0410     0.4600     0.9750 C.3   1 <1>  -0.1600 
 12 C        3.5620     1.3440     0.4850 C.ar  1 <1>   0.0830 
 13 C        3.0210     3.5540    -0.2900 C.ar  1 <1>  -0.1500 
 14 C       -3.3920     0.0010    -2.4720 C.1   1 <1>  -0.1770 
 15 C       -2.5440    -2.5120     0.4650 C.3   1 <1>  -0.2400 
 16 C       -3.5450     1.9180     0.8850 C.3   1 <1>  -0.2400 
 17 O        4.3980     0.4780     1.1290 O.3   1 <1>  -0.3620 
 18 C        3.8830     2.7100     0.3890 C.ar  1 <1>   0.0830 
 19 C        4.2400    -0.9230     1.0540 C.3   1 <1>   0.0400 
 20 O        4.9830     3.3350     0.8990 O.3   1 <1>  -0.3630 
 21 C        5.8880     2.7180     1.7870 C.3   1 <1>   0.0400 
 22 H       -1.5060     1.8460    -0.1620 H     1 <1>   0.4200 
 23 H        2.0930    -0.1430    -0.0290 H     1 <1>   0.1500 
 24 H        1.2070     3.7630    -1.3850 H     1 <1>   0.1500 
 25 H       -0.8750    -1.3210     1.0770 H     1 <1>   0.0800 
 26 H       -0.8870    -1.7490    -0.6020 H     1 <1>   0.0800 
 27 H       -2.5680     0.3190     1.9320 H     1 <1>   0.0800 
 28 H       -3.9060    -0.1780     0.9560 H     1 <1>   0.0800 
 29 H        3.2730     4.5970    -0.3680 H     1 <1>   0.1500 
 30 H       -3.9010     0.0100    -3.4200 H     1 <1>   0.1770 
 31 H       -3.1110    -2.3160     1.3570 H     1 <1>   0.0800 
 32 H       -2.0430    -3.4560     0.5920 H     1 <1>   0.0800 
 33 H       -3.2180    -2.6010    -0.3690 H     1 <1>   0.0800 
 34 H       -2.7490     2.6210     1.0540 H     1 <1>   0.0800 
 35 H       -4.2940     2.0860     1.6400 H     1 <1>   0.0800 
 36 H       -3.9910     2.1140    -0.0750 H     1 <1>   0.0800 
 37 H        5.0780    -1.3800     1.5480 H     1 <1>   0.0800 
 38 H        4.2220    -1.2190     0.0190 H     1 <1>   0.0800 
 39 H        3.3290    -1.2010     1.5520 H     1 <1>   0.0800 
 40 H        6.5850     3.4620     2.1250 H     1 <1>   0.0800 
 41 H        6.4120     1.9380     1.2630 H     1 <1>   0.0800 
 42 H        5.3410     2.3200     2.6230 H     1 <1>   0.0800 
@<TRIPOS>BOND
  1   1   2  2   
  2   1   3  2   
  3   1   4  am  
  4   1   5  1   
  5   4   6  1   
  6   4  22  1   
  7   5   7  ar  
  8   5   8  ar  
  9   6   9  1   
 10   6  10  1   
 11   6  11  1   
 12   7  12  ar  
 13   7  23  1   
 14   8  13  ar  
 15   8  24  1   
 16   9  14  3   
 17  10  15  1   
 18  10  25  1   
 19  10  26  1   
 20  11  16  1   
 21  11  27  1   
 22  11  28  1   
 23  12  17  1   
 24  12  18  ar  
 25  13  18  ar  
 26  13  29  1   
 27  14  30  1   
 28  15  31  1   
 29  15  32  1   
 30  15  33  1   
 31  16  34  1   
 32  16  35  1   
 33  16  36  1   
 34  17  19  1   
 35  18  20  1   
 36  19  37  1   
 37  19  38  1   
 38  19  39  1   
 39  20  21  1   
 40  21  40  1   
 41  21  41  1   
 42  21  42  1   
@<TRIPOS>SUBSTRUCTURE
  1 ****   5 GROUP 4 **** **** 0

# MOE 2024.06 (io_trps.svl 2023.06)
