@<TRIPOS>MOLECULE
NONAME
47 50 1 0 0 
SMALL
USER_CHARGES


@<TRIPOS>ATOM
  1 O        0.4030     1.2230     3.2660 O.2   1 <1>  -0.5700 
  2 C        0.6570     2.1350     2.5210 C.2   1 <1>   0.5690 
  3 N        1.9290     2.2990     2.0870 N.am  1 <1>  -0.7300 
  4 C       -0.4610     3.0880     2.1250 C.3   1 <1>  -0.0990 
  5 C        2.5380     3.3120     1.1890 C.3   1 <1>   0.1400 
  6 C       -1.3240     2.6370     0.9210 C.3   1 <1>   0.0000 
  7 C        3.3800     2.6240     0.1050 C.3   1 <1>   0.2000 
  8 C       -0.4770     2.4510    -0.3620 C.3   1 <1>  -0.1600 
  9 C       -2.3950     3.7170     0.6400 C.3   1 <1>  -0.1600 
 10 C       -2.0490     1.3030     1.2230 C.3   1 <1>  -0.1600 
 11 O        4.3470     1.8120     0.6890 O.3   1 <1>  -0.5600 
 12 C        4.1750     3.5790    -0.7720 C.3   1 <1>  -0.1600 
 13 C       -1.3640     2.0360    -1.5500 C.3   1 <1>  -0.0800 
 14 C       -3.2930     3.3120    -0.5440 C.3   1 <1>  -0.0800 
 15 C       -2.9450     0.8840     0.0430 C.3   1 <1>  -0.0800 
 16 C        5.3880     1.5810    -0.2060 C.3   1 <1>   0.1200 
 17 C        5.3490     2.7240    -1.2200 C.3   1 <1>  -0.1600 
 18 C       -2.4210     3.1280    -1.8000 C.3   1 <1>  -0.1600 
 19 C       -2.0730     0.7110    -1.2150 C.3   1 <1>  -0.1600 
 20 C       -3.9940     1.9820    -0.2130 C.3   1 <1>  -0.1600 
 21 H        2.5950     1.5760     2.3800 H     1 <1>   0.3700 
 22 H       -0.0480     4.0580     1.9330 H     1 <1>   0.0800 
 23 H       -1.1010     3.1940     2.9820 H     1 <1>   0.0800 
 24 H        3.1720     3.9580     1.7720 H     1 <1>   0.0800 
 25 H        1.7820     3.9140     0.7250 H     1 <1>   0.0800 
 26 H        2.7550     1.9950    -0.5070 H     1 <1>   0.0800 
 27 H        0.2690     1.6930    -0.2030 H     1 <1>   0.0800 
 28 H        0.0260     3.3690    -0.6060 H     1 <1>   0.0800 
 29 H       -1.9210     4.6570     0.4200 H     1 <1>   0.0800 
 30 H       -3.0070     3.8590     1.5140 H     1 <1>   0.0800 
 31 H       -2.6470     1.4040     2.1110 H     1 <1>   0.0800 
 32 H       -1.3300     0.5230     1.4060 H     1 <1>   0.0800 
 33 H        4.5270     4.4090    -0.1850 H     1 <1>   0.0800 
 34 H        3.5910     3.9470    -1.5980 H     1 <1>   0.0800 
 35 H       -0.7580     1.9090    -2.4310 H     1 <1>   0.0800 
 36 H       -4.0290     4.0760    -0.7220 H     1 <1>   0.0800 
 37 H       -3.4380    -0.0440     0.2740 H     1 <1>   0.0800 
 38 H        5.2200     0.6290    -0.6800 H     1 <1>   0.0800 
 39 H        6.3110     1.5600     0.3470 H     1 <1>   0.0800 
 40 H        6.2710     3.2790    -1.2190 H     1 <1>   0.0800 
 41 H        5.1820     2.3240    -2.2040 H     1 <1>   0.0800 
 42 H       -1.9360     4.0560    -2.0470 H     1 <1>   0.0800 
 43 H       -3.0400     2.8500    -2.6350 H     1 <1>   0.0800 
 44 H       -1.3430    -0.0610    -1.0460 H     1 <1>   0.0800 
 45 H       -2.6870     0.4050    -2.0440 H     1 <1>   0.0800 
 46 H       -4.6320     1.6920    -1.0300 H     1 <1>   0.0800 
 47 H       -4.6140     2.1030     0.6580 H     1 <1>   0.0800 
@<TRIPOS>BOND
  1   1   2  2   
  2   2   3  am  
  3   2   4  1   
  4   3   5  1   
  5   3  21  1   
  6   4   6  1   
  7   4  22  1   
  8   4  23  1   
  9   5   7  1   
 10   5  24  1   
 11   5  25  1   
 12   6   8  1   
 13   6   9  1   
 14   6  10  1   
 15   7  11  1   
 16   7  12  1   
 17   7  26  1   
 18   8  13  1   
 19   8  27  1   
 20   8  28  1   
 21   9  14  1   
 22   9  29  1   
 23   9  30  1   
 24  10  15  1   
 25  10  31  1   
 26  10  32  1   
 27  11  16  1   
 28  12  17  1   
 29  12  33  1   
 30  12  34  1   
 31  13  18  1   
 32  13  19  1   
 33  13  35  1   
 34  14  18  1   
 35  14  20  1   
 36  14  36  1   
 37  15  19  1   
 38  15  20  1   
 39  15  37  1   
 40  16  17  1   
 41  16  38  1   
 42  16  39  1   
 43  17  40  1   
 44  17  41  1   
 45  18  42  1   
 46  18  43  1   
 47  19  44  1   
 48  19  45  1   
 49  20  46  1   
 50  20  47  1   
@<TRIPOS>SUBSTRUCTURE
  1 ****   8 GROUP 4 **** **** 0

# MOE 2024.06 (io_trps.svl 2023.06)
