@<TRIPOS>MOLECULE
NONAME
43 44 1 0 0 
SMALL
USER_CHARGES


@<TRIPOS>ATOM
  1 BR       0.3820     1.1070    -1.2140 Br    1 <1>  -0.1110 
  2 C       -1.4760     1.4630    -0.8490 C.ar  1 <1>   0.1110 
  3 C       -2.2880     0.4660    -0.3390 C.ar  1 <1>  -0.1440 
  4 C       -1.9520     2.7290    -1.1190 C.ar  1 <1>  -0.1500 
  5 C       -3.6140     0.7830    -0.0940 C.ar  1 <1>  -0.1500 
  6 C       -1.7550    -0.9310    -0.0580 C.3   1 <1>  -0.0960 
  7 C       -3.2830     3.0290    -0.8700 C.ar  1 <1>  -0.1430 
  8 C       -4.1350     2.0550    -0.3350 C.ar  1 <1>  -0.0090 
  9 C       -3.7650     4.4360    -1.2020 C.3   1 <1>  -0.0960 
 10 S       -5.8930     2.3680     0.0210 S.o2  1 <1>   1.4470 
 11 O       -6.1570     3.7040     0.5020 O.2   1 <1>  -0.6500 
 12 O       -6.7440     1.8570    -1.0290 O.2   1 <1>  -0.6500 
 13 N       -6.2340     1.4210     1.3700 N.am  1 <1>  -0.9140 
 14 C       -7.5880     1.5770     1.9220 C.3   1 <1>   0.1960 
 15 C       -8.7020     1.0290     0.9960 C.3   1 <1>   0.3430 
 16 N       -9.7470     2.0440     0.6150 N.4   1 <1>  -0.9590 
 17 C      -10.8360     1.4220    -0.2110 C.3   1 <1>   0.3430 
 18 C       -9.2220     3.2570    -0.1090 C.3   1 <1>   0.3430 
 19 C      -11.8880     2.4670    -0.6500 C.3   1 <1>   0.1200 
 20 C      -10.3610     4.2460    -0.4450 C.3   1 <1>   0.1200 
 21 O      -11.6150     3.7230    -0.0900 O.3   1 <1>  -0.5600 
 22 H       -1.2780     3.4640    -1.5220 H     1 <1>   0.1500 
 23 H       -4.2630     0.0160     0.2930 H     1 <1>   0.1500 
 24 H       -1.3790    -1.3700    -0.9650 H     1 <1>   0.0800 
 25 H       -2.5260    -1.5700     0.3340 H     1 <1>   0.0800 
 26 H       -0.9560    -0.8830     0.6610 H     1 <1>   0.0800 
 27 H       -3.0230     4.9750    -1.7640 H     1 <1>   0.0800 
 28 H       -3.9600     4.9860    -0.2980 H     1 <1>   0.0800 
 29 H       -4.6620     4.4020    -1.7940 H     1 <1>   0.0800 
 30 H       -5.5920     1.7790     2.0800 H     1 <1>   0.4200 
 31 H       -7.7680     2.6110     2.1650 H     1 <1>   0.0800 
 32 H       -7.6290     1.0210     2.8440 H     1 <1>   0.0800 
 33 H       -9.1850     0.2130     1.5070 H     1 <1>   0.0800 
 34 H       -8.2500     0.6240     0.1060 H     1 <1>   0.0800 
 35 H      -10.2220     2.4160     1.4510 H     1 <1>   0.4500 
 36 H      -11.3290     0.6460     0.3520 H     1 <1>   0.0800 
 37 H      -10.4130     0.9640    -1.0910 H     1 <1>   0.0800 
 38 H       -8.7440     2.9570    -1.0270 H     1 <1>   0.0800 
 39 H       -8.4850     3.7670     0.4880 H     1 <1>   0.0800 
 40 H      -12.8700     2.1670    -0.3250 H     1 <1>   0.0800 
 41 H      -11.9040     2.5650    -1.7230 H     1 <1>   0.0800 
 42 H      -10.3660     4.4760    -1.4970 H     1 <1>   0.0800 
 43 H      -10.2240     5.1650     0.0980 H     1 <1>   0.0800 
@<TRIPOS>BOND
  1   1   2  1   
  2   2   3  ar  
  3   2   4  ar  
  4   3   5  ar  
  5   3   6  1   
  6   4   7  ar  
  7   4  22  1   
  8   5   8  ar  
  9   5  23  1   
 10   6  24  1   
 11   6  25  1   
 12   6  26  1   
 13   7   8  ar  
 14   7   9  1   
 15   8  10  1   
 16   9  27  1   
 17   9  28  1   
 18   9  29  1   
 19  10  11  2   
 20  10  12  2   
 21  10  13  am  
 22  13  14  1   
 23  13  30  1   
 24  14  15  1   
 25  14  31  1   
 26  14  32  1   
 27  15  16  1   
 28  15  33  1   
 29  15  34  1   
 30  16  17  1   
 31  16  18  1   
 32  16  35  1   
 33  17  19  1   
 34  17  36  1   
 35  17  37  1   
 36  18  20  1   
 37  18  38  1   
 38  18  39  1   
 39  19  21  1   
 40  19  40  1   
 41  19  41  1   
 42  20  21  1   
 43  20  42  1   
 44  20  43  1   
@<TRIPOS>SUBSTRUCTURE
  1 ****  10 GROUP 4 **** **** 0

# MOE 2024.06 (io_trps.svl 2023.06)
