@<TRIPOS>MOLECULE
NONAME
49 50 1 0 0 
SMALL
USER_CHARGES


@<TRIPOS>ATOM
  1 O        0.0030     0.0420     1.0360 O.2   1 <1>  -0.5700 
  2 C       -0.0240    -0.9680     0.3620 C.2   1 <1>   0.6900 
  3 N        1.1020    -1.6280    -0.0250 N.am  1 <1>  -0.5470 
  4 N       -1.2200    -1.4760    -0.0300 N.am  1 <1>  -0.7300 
  5 C        2.4590    -1.2950     0.1060 C.ar  1 <1>   0.1170 
  6 C       -2.5040    -0.8790     0.3590 C.3   1 <1>   0.2200 
  7 C        3.4200    -2.3080     0.1410 C.ar  1 <1>  -0.1430 
  8 C        2.8830     0.0290     0.1790 C.ar  1 <1>  -0.1500 
  9 C       -3.5850    -1.9540     0.4080 C.3   1 <1>  -0.1600 
 10 C       -2.8760     0.2180    -0.6340 C.3   1 <1>  -0.1600 
 11 C        4.7620    -1.9810     0.2470 C.ar  1 <1>  -0.1500 
 12 C        3.0270    -3.7790     0.0710 C.3   1 <1>  -0.0970 
 13 C        4.2230     0.3540     0.2880 C.ar  1 <1>  -0.1430 
 14 C       -4.9340    -1.3250     0.7530 C.3   1 <1>   0.3430 
 15 C       -4.2280     0.8200    -0.2680 C.3   1 <1>   0.3430 
 16 C        5.1640    -0.6600     0.3200 C.ar  1 <1>  -0.1500 
 17 C        4.6590     1.8060     0.3700 C.3   1 <1>  -0.0970 
 18 N       -5.2690    -0.2510    -0.2340 N.4   1 <1>  -0.9590 
 19 C       -6.6070     0.3500     0.0290 C.3   1 <1>   0.3430 
 20 C       -7.7200    -0.6370    -0.3310 C.3   1 <1>  -0.1600 
 21 C       -9.0980     0.0150    -0.1770 C.3   1 <1>  -0.2400 
 22 H        0.9430    -2.5770    -0.3410 H     1 <1>   0.3700 
 23 H       -1.2310    -2.1740    -0.7700 H     1 <1>   0.3700 
 24 H       -2.3990    -0.4440     1.3420 H     1 <1>   0.0800 
 25 H        2.1550     0.8180     0.1460 H     1 <1>   0.1500 
 26 H       -3.3340    -2.6750     1.1660 H     1 <1>   0.0800 
 27 H       -3.6580    -2.4650    -0.5360 H     1 <1>   0.0800 
 28 H       -2.9070    -0.1680    -1.6370 H     1 <1>   0.0800 
 29 H       -2.1310     0.9950    -0.5950 H     1 <1>   0.0800 
 30 H        5.5110    -2.7530     0.2740 H     1 <1>   0.1500 
 31 H        2.3240    -4.0100     0.8520 H     1 <1>   0.0800 
 32 H        3.8860    -4.4130     0.1990 H     1 <1>   0.0800 
 33 H        2.5860    -3.9990    -0.8840 H     1 <1>   0.0800 
 34 H       -4.8900    -0.9060     1.7460 H     1 <1>   0.0800 
 35 H       -5.6940    -2.0900     0.7440 H     1 <1>   0.0800 
 36 H       -4.4920     1.5730    -0.9940 H     1 <1>   0.0800 
 37 H       -4.1570     1.2940     0.6990 H     1 <1>   0.0800 
 38 H        6.2100    -0.4240     0.4020 H     1 <1>   0.1500 
 39 H        3.8640     2.4160     0.7600 H     1 <1>   0.0800 
 40 H        4.9220     2.1620    -0.6090 H     1 <1>   0.0800 
 41 H        5.5100     1.9040     1.0190 H     1 <1>   0.0800 
 42 H       -5.3030    -0.6780    -1.1690 H     1 <1>   0.4500 
 43 H       -6.7290     1.2360    -0.5730 H     1 <1>   0.0800 
 44 H       -6.6910     0.6370     1.0660 H     1 <1>   0.0800 
 45 H       -7.6830    -1.4990     0.3100 H     1 <1>   0.0800 
 46 H       -7.6070    -0.9580    -1.3530 H     1 <1>   0.0800 
 47 H       -9.2620     0.3320     0.8390 H     1 <1>   0.0800 
 48 H       -9.8700    -0.6900    -0.4360 H     1 <1>   0.0800 
 49 H       -9.1950     0.8690    -0.8250 H     1 <1>   0.0800 
@<TRIPOS>BOND
  1   1   2  2   
  2   2   3  am  
  3   2   4  am  
  4   3   5  1   
  5   3  22  1   
  6   4   6  1   
  7   4  23  1   
  8   5   7  ar  
  9   5   8  ar  
 10   6   9  1   
 11   6  10  1   
 12   6  24  1   
 13   7  11  ar  
 14   7  12  1   
 15   8  13  ar  
 16   8  25  1   
 17   9  14  1   
 18   9  26  1   
 19   9  27  1   
 20  10  15  1   
 21  10  28  1   
 22  10  29  1   
 23  11  16  ar  
 24  11  30  1   
 25  12  31  1   
 26  12  32  1   
 27  12  33  1   
 28  13  16  ar  
 29  13  17  1   
 30  14  18  1   
 31  14  34  1   
 32  14  35  1   
 33  15  18  1   
 34  15  36  1   
 35  15  37  1   
 36  16  38  1   
 37  17  39  1   
 38  17  40  1   
 39  17  41  1   
 40  18  19  1   
 41  18  42  1   
 42  19  20  1   
 43  19  43  1   
 44  19  44  1   
 45  20  21  1   
 46  20  45  1   
 47  20  46  1   
 48  21  47  1   
 49  21  48  1   
 50  21  49  1   
@<TRIPOS>SUBSTRUCTURE
  1 ****   2 GROUP 4 **** **** 0

# MOE 2024.06 (io_trps.svl 2023.06)
