@<TRIPOS>MOLECULE
NONAME
40 42 1 0 0 
SMALL
USER_CHARGES


@<TRIPOS>ATOM
  1 BR      -0.5230    -0.9470     1.5520 Br    1 <1>  -0.0580 
  2 C       -2.0990    -0.3210     0.6420 C.2   1 <1>   0.1980 
  3 O       -3.1100    -1.1520     0.5270 O.3   1 <1>  -0.2800 
  4 C       -2.3360     0.8810     0.0860 C.2   1 <1>  -0.1500 
  5 C       -4.0540    -0.4940    -0.1240 C.2   1 <1>  -0.0400 
  6 C       -3.6370     0.7650    -0.4260 C.2   1 <1>  -0.1500 
  7 C       -5.3470    -1.2460    -0.3930 C.3   1 <1>   0.5230 
  8 N       -6.4670    -0.3040    -0.6780 N.4   1 <1>  -0.9590 
  9 C       -6.8180     0.5040     0.5540 C.3   1 <1>   0.3430 
 10 C       -7.6800    -1.0380    -1.2000 C.3   1 <1>   0.3430 
 11 C       -8.0130     1.4540     0.3240 C.3   1 <1>   0.2090 
 12 C       -8.8810    -0.1000    -1.4490 C.3   1 <1>   0.2090 
 13 N       -9.1790     0.7090    -0.2320 N.pl3 1 <1>  -0.8380 
 14 C      -10.3980     1.3740    -0.2120 C.ar  1 <1>   0.1000 
 15 C      -11.3700     0.9940     0.7030 C.ar  1 <1>  -0.1500 
 16 C      -10.6720     2.4180    -1.0870 C.ar  1 <1>  -0.1500 
 17 C      -12.6040     1.6340     0.7610 C.ar  1 <1>  -0.1430 
 18 C      -11.8920     3.0640    -1.0460 C.ar  1 <1>  -0.1500 
 19 C      -12.8520     2.6750    -0.1280 C.ar  1 <1>  -0.1500 
 20 C      -13.6840     1.2160     1.7710 C.3   1 <1>   1.1630 
 21 F      -14.1890     2.2550     2.4260 F     1 <1>  -0.3400 
 22 F      -13.2390     0.3740     2.6980 F     1 <1>  -0.3400 
 23 F      -14.7090     0.6140     1.1820 F     1 <1>  -0.3400 
 24 H       -1.6890     1.7390     0.0340 H     1 <1>   0.1500 
 25 H       -4.1420     1.5580    -0.9500 H     1 <1>   0.1500 
 26 H       -5.5880    -1.8440     0.4710 H     1 <1>   0.0800 
 27 H       -5.1930    -1.9110    -1.2270 H     1 <1>   0.0800 
 28 H       -6.1460     0.3450    -1.4050 H     1 <1>   0.4500 
 29 H       -5.9670     1.0830     0.8720 H     1 <1>   0.0800 
 30 H       -7.0780    -0.1630     1.3590 H     1 <1>   0.0800 
 31 H       -7.9880    -1.7810    -0.4820 H     1 <1>   0.0800 
 32 H       -7.4380    -1.5460    -2.1180 H     1 <1>   0.0800 
 33 H       -7.7320     2.2440    -0.3500 H     1 <1>   0.0800 
 34 H       -8.2960     1.9040     1.2610 H     1 <1>   0.0800 
 35 H       -9.7480    -0.6870    -1.7030 H     1 <1>   0.0800 
 36 H       -8.6720     0.5540    -2.2780 H     1 <1>   0.0800 
 37 H      -11.1390     0.1830     1.3710 H     1 <1>   0.1500 
 38 H       -9.9320     2.7260    -1.8000 H     1 <1>   0.1500 
 39 H      -12.0990     3.8720    -1.7280 H     1 <1>   0.1500 
 40 H      -13.8000     3.1900    -0.1100 H     1 <1>   0.1500 
@<TRIPOS>BOND
  1   1   2  1   
  2   2   3  1   
  3   2   4  2   
  4   3   5  1   
  5   4   6  1   
  6   4  24  1   
  7   5   6  2   
  8   5   7  1   
  9   6  25  1   
 10   7   8  1   
 11   7  26  1   
 12   7  27  1   
 13   8   9  1   
 14   8  10  1   
 15   8  28  1   
 16   9  11  1   
 17   9  29  1   
 18   9  30  1   
 19  10  12  1   
 20  10  31  1   
 21  10  32  1   
 22  11  13  1   
 23  11  33  1   
 24  11  34  1   
 25  12  13  1   
 26  12  35  1   
 27  12  36  1   
 28  13  14  1   
 29  14  15  ar  
 30  14  16  ar  
 31  15  17  ar  
 32  15  37  1   
 33  16  18  ar  
 34  16  38  1   
 35  17  19  ar  
 36  17  20  1   
 37  18  19  ar  
 38  18  39  1   
 39  19  40  1   
 40  20  21  1   
 41  20  22  1   
 42  20  23  1   
@<TRIPOS>SUBSTRUCTURE
  1 ****  11 GROUP 4 **** **** 0

# MOE 2024.06 (io_trps.svl 2023.06)
