@<TRIPOS>MOLECULE
NONAME
44 45 1 0 0 
SMALL
USER_CHARGES


@<TRIPOS>ATOM
  1 O       -0.7980    -5.1420    -1.0440 O.2   1 <1>  -0.5700 
  2 C       -0.5230    -4.3120    -0.2100 C.2   1 <1>   0.5690 
  3 N       -1.3280    -3.2320     0.0250 N.am  1 <1>  -0.5470 
  4 C        0.7530    -4.4710     0.6400 C.3   1 <1>  -0.0190 
  5 C       -2.5950    -2.8840    -0.4760 C.ar  1 <1>   0.1170 
  6 C        1.9310    -3.5520     0.2040 C.3   1 <1>  -0.0190 
  7 C        1.2550    -5.9360     0.6490 C.3   1 <1>  -0.0220 
  8 C       -2.9900    -1.5430    -0.5030 C.ar  1 <1>  -0.1440 
  9 C       -3.4900    -3.8490    -0.9300 C.ar  1 <1>  -0.1500 
 10 C        1.7440    -2.0610     0.5040 C.2   1 <1>   0.5690 
 11 C        2.3010    -3.8450    -1.2650 C.3   1 <1>  -0.0220 
 12 C        2.0770    -6.2610    -0.5930 C.2   1 <1>  -0.2880 
 13 C       -4.2460    -1.2000    -0.9790 C.ar  1 <1>  -0.1500 
 14 C       -2.0630    -0.4350    -0.0210 C.3   1 <1>  -0.0960 
 15 C       -4.7400    -3.5010    -1.4050 C.ar  1 <1>  -0.1500 
 16 O        0.7120    -1.6690     0.9870 O.2   1 <1>  -0.5700 
 17 N        2.7300    -1.1580     0.2970 N.am  1 <1>  -0.7300 
 18 C        2.5240    -5.3370    -1.4510 C.2   1 <1>  -0.2880 
 19 C       -5.1200    -2.1730    -1.4300 C.ar  1 <1>  -0.1500 
 20 C        4.1650    -1.3700     0.0530 C.3   1 <1>   0.2780 
 21 C        4.9170    -0.2900     0.7980 C.2   1 <1>  -0.2880 
 22 C        5.7490    -0.4950     1.8240 C.2   1 <1>  -0.3000 
 23 H       -0.8760    -2.4920     0.5770 H     1 <1>   0.3700 
 24 H        0.4830    -4.2280     1.6520 H     1 <1>   0.0800 
 25 H        2.7740    -3.8480     0.8020 H     1 <1>   0.0800 
 26 H        0.4150    -6.6070     0.7120 H     1 <1>   0.0800 
 27 H        1.8690    -6.1040     1.5160 H     1 <1>   0.0800 
 28 H       -3.2110    -4.8860    -0.9120 H     1 <1>   0.1500 
 29 H        3.2040    -3.3300    -1.5340 H     1 <1>   0.0800 
 30 H        1.5200    -3.5130    -1.9290 H     1 <1>   0.0800 
 31 H        2.2510    -7.3160    -0.7250 H     1 <1>   0.1500 
 32 H       -4.5550    -0.1700    -1.0040 H     1 <1>   0.1500 
 33 H       -1.1500    -0.4480    -0.5900 H     1 <1>   0.0800 
 34 H       -1.8310    -0.5730     1.0200 H     1 <1>   0.0800 
 35 H       -2.5180     0.5320    -0.1390 H     1 <1>   0.0800 
 36 H       -5.4130    -4.2640    -1.7540 H     1 <1>   0.1500 
 37 H        2.5020    -0.2020     0.5760 H     1 <1>   0.3700 
 38 H        3.0710    -5.5840    -2.3460 H     1 <1>   0.1500 
 39 H       -6.0920    -1.8970    -1.7990 H     1 <1>   0.1500 
 40 H        4.3700    -1.2970    -1.0010 H     1 <1>   0.0800 
 41 H        4.4670    -2.3410     0.4050 H     1 <1>   0.0800 
 42 H        4.7140     0.6940     0.4110 H     1 <1>   0.1500 
 43 H        6.2750     0.2930     2.3370 H     1 <1>   0.1500 
 44 H        5.9780    -1.4620     2.2410 H     1 <1>   0.1500 
@<TRIPOS>BOND
  1   1   2  2   
  2   2   3  am  
  3   2   4  1   
  4   3   5  1   
  5   3  23  1   
  6   4   6  1   
  7   4   7  1   
  8   4  24  1   
  9   5   8  ar  
 10   5   9  ar  
 11   6  10  1   
 12   6  11  1   
 13   6  25  1   
 14   7  12  1   
 15   7  26  1   
 16   7  27  1   
 17   8  13  ar  
 18   8  14  1   
 19   9  15  ar  
 20   9  28  1   
 21  10  16  2   
 22  10  17  am  
 23  11  18  1   
 24  11  29  1   
 25  11  30  1   
 26  12  18  2   
 27  12  31  1   
 28  13  19  ar  
 29  13  32  1   
 30  14  33  1   
 31  14  34  1   
 32  14  35  1   
 33  15  19  ar  
 34  15  36  1   
 35  17  20  1   
 36  17  37  1   
 37  18  38  1   
 38  19  39  1   
 39  20  21  1   
 40  20  40  1   
 41  20  41  1   
 42  21  22  2   
 43  21  42  1   
 44  22  43  1   
 45  22  44  1   
@<TRIPOS>SUBSTRUCTURE
  1 ****   3 GROUP 4 **** **** 0

# MOE 2024.06 (io_trps.svl 2023.06)
