@<TRIPOS>MOLECULE
NONAME
26 26 1 0 0 
SMALL
USER_CHARGES


@<TRIPOS>ATOM
  1 CL       0.1330    -1.7260    -0.7520 Cl    1 <1>  -0.1770 
  2 C       -1.6090    -1.6090    -0.6320 C.ar  1 <1>   0.1770 
  3 C       -2.3180    -2.4990     0.1630 C.ar  1 <1>  -0.1440 
  4 C       -2.2480    -0.6130    -1.3480 C.ar  1 <1>  -0.1500 
  5 C       -3.6980    -2.3750     0.2340 C.ar  1 <1>  -0.1500 
  6 C       -1.6040    -3.5930     0.9450 C.3   1 <1>  -0.0960 
  7 C       -3.6240    -0.4990    -1.2710 C.ar  1 <1>  -0.1500 
  8 C       -4.3560    -1.3760    -0.4840 C.ar  1 <1>   0.0830 
  9 O       -5.7010    -1.1900    -0.4720 O.3   1 <1>  -0.3630 
 10 C       -6.5710    -1.9870     0.3210 C.3   1 <1>   0.2610 
 11 C       -6.6950    -3.4120    -0.2430 C.2   1 <1>   0.5690 
 12 C       -7.9220    -1.2660     0.3600 C.3   1 <1>  -0.2400 
 13 O       -6.8380    -4.3400     0.5130 O.2   1 <1>  -0.5700 
 14 N       -6.6370    -3.6360    -1.5730 N.am  1 <1>  -0.8000 
 15 H       -1.6710     0.0620    -1.9540 H     1 <1>   0.1500 
 16 H       -4.2410    -3.0660     0.8500 H     1 <1>   0.1500 
 17 H       -0.9110    -3.1540     1.6410 H     1 <1>   0.0800 
 18 H       -1.0610    -4.2300     0.2710 H     1 <1>   0.0800 
 19 H       -2.3040    -4.1970     1.4940 H     1 <1>   0.0800 
 20 H       -4.1370     0.2700    -1.8190 H     1 <1>   0.1500 
 21 H       -6.1700    -2.0290     1.3180 H     1 <1>   0.0800 
 22 H       -8.3340    -1.1900    -0.6300 H     1 <1>   0.0800 
 23 H       -7.8040    -0.2820     0.7780 H     1 <1>   0.0800 
 24 H       -8.6090    -1.8200     0.9750 H     1 <1>   0.0800 
 25 H       -6.6870    -4.5880    -1.9360 H     1 <1>   0.3700 
 26 H       -6.4100    -2.8930    -2.2370 H     1 <1>   0.3700 
@<TRIPOS>BOND
  1   1   2  1   
  2   2   3  ar  
  3   2   4  ar  
  4   3   5  ar  
  5   3   6  1   
  6   4   7  ar  
  7   4  15  1   
  8   5   8  ar  
  9   5  16  1   
 10   6  17  1   
 11   6  18  1   
 12   6  19  1   
 13   7   8  ar  
 14   7  20  1   
 15   8   9  1   
 16   9  10  1   
 17  10  11  1   
 18  10  12  1   
 19  10  21  1   
 20  11  13  2   
 21  11  14  am  
 22  12  22  1   
 23  12  23  1   
 24  12  24  1   
 25  14  25  1   
 26  14  26  1   
@<TRIPOS>SUBSTRUCTURE
  1 ****   8 GROUP 4 **** **** 0

# MOE 2024.06 (io_trps.svl 2023.06)
