@<TRIPOS>MOLECULE
NONAME
44 48 1 0 0 
SMALL
USER_CHARGES


@<TRIPOS>ATOM
  1 O        1.1680    -0.4250     2.0780 O.3   1 <1>   0.2420 
  2 N        2.0450    -1.3430     1.7620 N.2   1 <1>  -0.4100 
  3 N        1.6070     0.7710     1.7800 N.2   1 <1>  -0.4100 
  4 C        3.0530    -0.7310     1.2610 C.ar  1 <1>   0.5450 
  5 C        2.7720     0.6200     1.2700 C.ar  1 <1>   0.5450 
  6 N        4.2220    -1.2640     0.7950 N.ar  1 <1>  -0.5660 
  7 N        3.6230     1.5770     0.7930 N.ar  1 <1>  -0.5660 
  8 C        5.0460    -0.3580     0.3650 C.ar  1 <1>   0.4100 
  9 C        4.7250     1.0760     0.3250 C.ar  1 <1>   0.4100 
 10 N        6.3060    -0.7850    -0.0600 N.pl3 1 <1>  -0.8380 
 11 N        5.6730     1.9030    -0.2630 N.pl3 1 <1>  -0.6000 
 12 C        6.4220    -2.0240    -0.8890 C.3   1 <1>   0.2090 
 13 C        7.4740    -0.5170     0.8270 C.3   1 <1>   0.2090 
 14 C        5.8220     3.2920    -0.3850 C.ar  1 <1>   0.1000 
 15 C        6.7530    -3.2560    -0.0270 C.3   1 <1>  -0.0800 
 16 C        7.7650    -1.7350     1.7070 C.3   1 <1>  -0.1600 
 17 C        7.1160     3.8000    -0.4980 C.ar  1 <1>  -0.1500 
 18 C        4.7400     4.1800    -0.4160 C.ar  1 <1>  -0.1500 
 19 C        7.9760    -3.0020     0.8680 C.3   1 <1>  -0.1600 
 20 C        6.9860    -4.4910    -0.9080 C.3   1 <1>  -0.2400 
 21 C        7.2850     5.1620    -0.6280 C.ar  1 <1>   0.0830 
 22 C        4.9280     5.5500    -0.5460 C.ar  1 <1>  -0.1500 
 23 O        8.4280     5.8470    -0.7470 O.3   1 <1>  -0.3630 
 24 C        6.2220     6.0160    -0.6500 C.ar  1 <1>   0.0830 
 25 C        8.0690     7.2240    -0.8510 C.3   1 <1>   0.4000 
 26 O        6.6460     7.2800    -0.7840 O.3   1 <1>  -0.3630 
 27 H        6.4500     1.3400    -0.6240 H     1 <1>   0.4000 
 28 H        7.1980    -1.8770    -1.6200 H     1 <1>   0.0800 
 29 H        5.4990    -2.1930    -1.4170 H     1 <1>   0.0800 
 30 H        7.2750     0.3360     1.4540 H     1 <1>   0.0800 
 31 H        8.3340    -0.2950     0.2190 H     1 <1>   0.0800 
 32 H        5.9020    -3.4550     0.6030 H     1 <1>   0.0800 
 33 H        6.9390    -1.8800     2.3820 H     1 <1>   0.0800 
 34 H        8.6420    -1.5440     2.2980 H     1 <1>   0.0800 
 35 H        7.9730     3.1560    -0.4840 H     1 <1>   0.1500 
 36 H        3.7370     3.8020    -0.3460 H     1 <1>   0.1500 
 37 H        8.8550    -2.8840     0.2590 H     1 <1>   0.0800 
 38 H        8.1300    -3.8430     1.5220 H     1 <1>   0.0800 
 39 H        7.8280    -4.3420    -1.5610 H     1 <1>   0.0800 
 40 H        6.1150    -4.6900    -1.5070 H     1 <1>   0.0800 
 41 H        7.1750    -5.3550    -0.2940 H     1 <1>   0.0800 
 42 H        4.0990     6.2340    -0.5670 H     1 <1>   0.1500 
 43 H        8.4010     7.6120    -1.7980 H     1 <1>   0.0800 
 44 H        8.4910     7.7700    -0.0260 H     1 <1>   0.0800 
@<TRIPOS>BOND
  1   1   2  1   
  2   1   3  1   
  3   2   4  2   
  4   3   5  2   
  5   4   5  ar  
  6   4   6  ar  
  7   5   7  ar  
  8   6   8  ar  
  9   7   9  ar  
 10   8   9  ar  
 11   8  10  1   
 12   9  11  1   
 13  10  12  1   
 14  10  13  1   
 15  11  14  1   
 16  11  27  1   
 17  12  15  1   
 18  12  28  1   
 19  12  29  1   
 20  13  16  1   
 21  13  30  1   
 22  13  31  1   
 23  14  17  ar  
 24  14  18  ar  
 25  15  19  1   
 26  15  20  1   
 27  15  32  1   
 28  16  19  1   
 29  16  33  1   
 30  16  34  1   
 31  17  21  ar  
 32  17  35  1   
 33  18  22  ar  
 34  18  36  1   
 35  19  37  1   
 36  19  38  1   
 37  20  39  1   
 38  20  40  1   
 39  20  41  1   
 40  21  23  1   
 41  21  24  ar  
 42  22  24  ar  
 43  22  42  1   
 44  23  25  1   
 45  24  26  1   
 46  25  26  1   
 47  25  43  1   
 48  25  44  1   
@<TRIPOS>SUBSTRUCTURE
  1 ****  11 GROUP 4 **** **** 0

# MOE 2024.06 (io_trps.svl 2023.06)
