@<TRIPOS>MOLECULE
NONAME
41 41 1 0 0 
SMALL
USER_CHARGES


@<TRIPOS>ATOM
  1 I        1.0310     0.4750    -2.3570 I     1 <1>  -0.0810 
  2 C        0.7410    -1.0360    -0.8700 C.ar  1 <1>   0.0810 
  3 C        1.8370    -1.6550    -0.2750 C.ar  1 <1>   0.0830 
  4 C       -0.5640    -1.3540    -0.5430 C.ar  1 <1>  -0.1500 
  5 O        3.0910    -1.2850    -0.6530 O.3   1 <1>  -0.3630 
  6 C        1.5860    -2.6320     0.6860 C.ar  1 <1>  -0.1500 
  7 C       -0.7900    -2.3280     0.4150 C.ar  1 <1>  -0.1500 
  8 C        4.2400    -1.8740    -0.0870 C.3   1 <1>   0.1200 
  9 C        0.2820    -2.9610     1.0250 C.ar  1 <1>  -0.1500 
 10 C        5.4610    -1.2290    -0.7340 C.3   1 <1>   0.1200 
 11 O        6.6160    -1.7970    -0.1890 O.3   1 <1>  -0.5600 
 12 C        7.7980    -1.2860    -0.7040 C.3   1 <1>   0.1200 
 13 C        8.9510    -2.0130    -0.0040 C.3   1 <1>   0.3430 
 14 N       10.2860    -1.5350    -0.4880 N.4   1 <1>  -0.9060 
 15 C       11.4590    -2.1670     0.1200 C.3   1 <1>   0.5030 
 16 C       11.4720    -1.9000     1.6250 C.3   1 <1>  -0.2400 
 17 C       12.6770    -1.5190    -0.5300 C.3   1 <1>  -0.2400 
 18 C       11.4520    -3.6670    -0.1740 C.3   1 <1>  -0.2400 
 19 H       -1.3870    -0.8550    -1.0240 H     1 <1>   0.1500 
 20 H        2.3860    -3.1470     1.1830 H     1 <1>   0.1500 
 21 H       -1.7980    -2.5930     0.6860 H     1 <1>   0.1500 
 22 H        4.2160    -2.9300    -0.2940 H     1 <1>   0.0800 
 23 H        4.2310    -1.6870     0.9720 H     1 <1>   0.0800 
 24 H        0.0990    -3.7180     1.7690 H     1 <1>   0.1500 
 25 H        5.4640    -0.1710    -0.5330 H     1 <1>   0.0800 
 26 H        5.4500    -1.4100    -1.7960 H     1 <1>   0.0800 
 27 H        7.8280    -0.2290    -0.5000 H     1 <1>   0.0800 
 28 H        7.8140    -1.4710    -1.7650 H     1 <1>   0.0800 
 29 H        8.8500    -3.0690    -0.1910 H     1 <1>   0.0800 
 30 H        8.8640    -1.8440     1.0570 H     1 <1>   0.0800 
 31 H       10.3700    -0.5270    -0.3230 H     1 <1>   0.4500 
 32 H       10.3570    -1.6820    -1.4990 H     1 <1>   0.4500 
 33 H       10.6610    -2.3990     2.1240 H     1 <1>   0.0800 
 34 H       11.4260    -0.8460     1.8340 H     1 <1>   0.0800 
 35 H       12.3850    -2.2780     2.0510 H     1 <1>   0.0800 
 36 H       12.7040    -0.4600    -0.3410 H     1 <1>   0.0800 
 37 H       12.6900    -1.6900    -1.5920 H     1 <1>   0.0800 
 38 H       13.5780    -1.9440    -0.1230 H     1 <1>   0.0800 
 39 H       10.6400    -4.1660     0.3250 H     1 <1>   0.0800 
 40 H       12.3640    -4.1100     0.1860 H     1 <1>   0.0800 
 41 H       11.3910    -3.8560    -1.2310 H     1 <1>   0.0800 
@<TRIPOS>BOND
  1   1   2  1   
  2   2   3  ar  
  3   2   4  ar  
  4   3   5  1   
  5   3   6  ar  
  6   4   7  ar  
  7   4  19  1   
  8   5   8  1   
  9   6   9  ar  
 10   6  20  1   
 11   7   9  ar  
 12   7  21  1   
 13   8  10  1   
 14   8  22  1   
 15   8  23  1   
 16   9  24  1   
 17  10  11  1   
 18  10  25  1   
 19  10  26  1   
 20  11  12  1   
 21  12  13  1   
 22  12  27  1   
 23  12  28  1   
 24  13  14  1   
 25  13  29  1   
 26  13  30  1   
 27  14  15  1   
 28  14  31  1   
 29  14  32  1   
 30  15  16  1   
 31  15  17  1   
 32  15  18  1   
 33  16  33  1   
 34  16  34  1   
 35  16  35  1   
 36  17  36  1   
 37  17  37  1   
 38  17  38  1   
 39  18  39  1   
 40  18  40  1   
 41  18  41  1   
@<TRIPOS>SUBSTRUCTURE
  1 ****  10 GROUP 4 **** **** 0

# MOE 2024.06 (io_trps.svl 2023.06)
