@<TRIPOS>MOLECULE
NONAME
50 52 1 0 0 
SMALL
USER_CHARGES


@<TRIPOS>ATOM
  1 S       -0.3030     0.0040    -1.3790 S.o2  1 <1>   1.4470 
  2 O        0.2540    -1.2070    -1.9430 O.2   1 <1>  -0.6500 
  3 O       -1.0720     0.8900    -2.2240 O.2   1 <1>  -0.6500 
  4 N        1.0060     0.8960    -0.7690 N.am  1 <1>  -0.8490 
  5 C       -1.2710    -0.3840     0.1090 C.ar  1 <1>  -0.0090 
  6 C        1.6750     1.6530    -1.8300 C.3   1 <1>   0.1960 
  7 C        1.9480     0.0500    -0.0290 C.3   1 <1>   0.1960 
  8 C       -1.7250    -1.6790     0.3530 C.ar  1 <1>  -0.1500 
  9 C       -1.5830     0.6120     1.0330 C.ar  1 <1>  -0.1500 
 10 C        2.7550     2.5610    -1.2350 C.3   1 <1>  -0.1600 
 11 C        3.0240     0.9120     0.6330 C.3   1 <1>  -0.1600 
 12 C       -2.4640    -1.9790     1.4860 C.ar  1 <1>  -0.1500 
 13 C       -2.3200     0.3320     2.1720 C.ar  1 <1>  -0.1500 
 14 C        3.7730     1.7610    -0.4080 C.3   1 <1>  -0.0190 
 15 C       -2.7470    -0.9640     2.3780 C.ar  1 <1>   0.1900 
 16 C        4.8090     2.6790     0.2430 C.2   1 <1>   0.5690 
 17 F       -3.4410    -1.2380     3.4480 F     1 <1>  -0.1900 
 18 O        4.4500     3.4310     1.1150 O.2   1 <1>  -0.5700 
 19 N        6.1010     2.5890    -0.2020 N.am  1 <1>  -0.5470 
 20 C        7.2620     3.2880     0.1650 C.ar  1 <1>   0.1170 
 21 C        7.2420     4.5150     0.8200 C.ar  1 <1>  -0.1500 
 22 C        8.4960     2.7350    -0.1590 C.ar  1 <1>  -0.1500 
 23 C        8.4160     5.1690     1.1500 C.ar  1 <1>  -0.1430 
 24 C        9.6780     3.3790     0.1600 C.ar  1 <1>  -0.1430 
 25 C        9.6320     4.5970     0.8170 C.ar  1 <1>  -0.1500 
 26 C        8.3760     6.5050     1.8690 C.3   1 <1>  -0.0970 
 27 C       11.0210     2.7660    -0.1950 C.3   1 <1>  -0.0970 
 28 H        0.9580     2.2700    -2.3460 H     1 <1>   0.0800 
 29 H        2.1090     0.9730    -2.5460 H     1 <1>   0.0800 
 30 H        2.4080    -0.6620    -0.6960 H     1 <1>   0.0800 
 31 H        1.4220    -0.4980     0.7350 H     1 <1>   0.0800 
 32 H       -1.4980    -2.4610    -0.3530 H     1 <1>   0.1500 
 33 H       -1.2420     1.6190     0.8540 H     1 <1>   0.1500 
 34 H        2.2790     3.2990    -0.6120 H     1 <1>   0.0800 
 35 H        3.2590     3.0830    -2.0300 H     1 <1>   0.0800 
 36 H        3.7190     0.2800     1.1560 H     1 <1>   0.0800 
 37 H        2.5550     1.5530     1.3610 H     1 <1>   0.0800 
 38 H       -2.8150    -2.9780     1.6770 H     1 <1>   0.1500 
 39 H       -2.5600     1.1010     2.8850 H     1 <1>   0.1500 
 40 H        4.2850     1.0890    -1.0730 H     1 <1>   0.0800 
 41 H        6.2640     1.8700    -0.9010 H     1 <1>   0.3700 
 42 H        6.3020     4.9680     1.0730 H     1 <1>   0.1500 
 43 H        8.5310     1.7870    -0.6630 H     1 <1>   0.1500 
 44 H       10.5470     5.1030     1.0710 H     1 <1>   0.1500 
 45 H        7.4240     6.6500     2.3480 H     1 <1>   0.0800 
 46 H        8.5340     7.3020     1.1650 H     1 <1>   0.0800 
 47 H        9.1430     6.5460     2.6210 H     1 <1>   0.0800 
 48 H       10.9040     1.9730    -0.9120 H     1 <1>   0.0800 
 49 H       11.4830     2.3660     0.6900 H     1 <1>   0.0800 
 50 H       11.6680     3.5130    -0.6170 H     1 <1>   0.0800 
@<TRIPOS>BOND
  1   1   2  2   
  2   1   3  2   
  3   1   4  am  
  4   1   5  1   
  5   4   6  1   
  6   4   7  1   
  7   5   8  ar  
  8   5   9  ar  
  9   6  10  1   
 10   6  28  1   
 11   6  29  1   
 12   7  11  1   
 13   7  30  1   
 14   7  31  1   
 15   8  12  ar  
 16   8  32  1   
 17   9  13  ar  
 18   9  33  1   
 19  10  14  1   
 20  10  34  1   
 21  10  35  1   
 22  11  14  1   
 23  11  36  1   
 24  11  37  1   
 25  12  15  ar  
 26  12  38  1   
 27  13  15  ar  
 28  13  39  1   
 29  14  16  1   
 30  14  40  1   
 31  15  17  1   
 32  16  18  2   
 33  16  19  am  
 34  19  20  1   
 35  19  41  1   
 36  20  21  ar  
 37  20  22  ar  
 38  21  23  ar  
 39  21  42  1   
 40  22  24  ar  
 41  22  43  1   
 42  23  25  ar  
 43  23  26  1   
 44  24  25  ar  
 45  24  27  1   
 46  25  44  1   
 47  26  45  1   
 48  26  46  1   
 49  26  47  1   
 50  27  48  1   
 51  27  49  1   
 52  27  50  1   
@<TRIPOS>SUBSTRUCTURE
  1 ****  11 GROUP 4 **** **** 0

# MOE 2024.06 (io_trps.svl 2023.06)
