@<TRIPOS>MOLECULE
NONAME
45 47 1 0 0 
SMALL
USER_CHARGES


@<TRIPOS>ATOM
  1 S        0.3990    -0.5410    -0.2960 S.o2  1 <1>   1.2040 
  2 O        0.9420    -1.3440    -1.3710 O.2   1 <1>  -0.6500 
  3 O        0.6880     0.8770    -0.2350 O.2   1 <1>  -0.6500 
  4 C       -1.3930    -0.7740    -0.2410 C.ar  1 <1>  -0.0090 
  5 C        0.8740    -1.2820     1.2700 C.3   1 <1>   0.0890 
  6 C       -1.9800    -1.9350    -0.7290 C.ar  1 <1>  -0.1500 
  7 C       -2.2260     0.1840     0.3250 C.ar  1 <1>  -0.1500 
  8 C        2.3780    -1.2940     1.5080 C.ar  1 <1>  -0.1440 
  9 C       -3.3470    -2.1370    -0.6500 C.ar  1 <1>  -0.1500 
 10 C       -3.5940    -0.0120     0.4080 C.ar  1 <1>  -0.1500 
 11 C        3.1060    -2.4560     1.3170 C.ar  1 <1>  -0.1500 
 12 C        3.0320    -0.1390     1.9060 C.ar  1 <1>  -0.1500 
 13 C       -4.1620    -1.1770    -0.0760 C.ar  1 <1>  -0.1430 
 14 C        4.4850    -2.4950     1.5120 C.ar  1 <1>   0.0860 
 15 C        4.3990    -0.1560     2.1190 C.ar  1 <1>  -0.1500 
 16 C       -5.6620    -1.3940     0.0100 C.3   1 <1>  -0.0970 
 17 C        5.2270    -3.7190     1.2810 C.2   1 <1>   0.5440 
 18 C        5.1140    -1.3230     1.9260 C.ar  1 <1>  -0.1500 
 19 O        4.9020    -4.7410     1.8560 O.2   1 <1>  -0.5700 
 20 N        6.2870    -3.7550     0.4050 N.am  1 <1>  -0.6600 
 21 C        6.5620    -2.7250    -0.6220 C.3   1 <1>   0.1400 
 22 C        7.0350    -4.9990     0.1210 C.3   1 <1>   0.1400 
 23 C        7.2800    -3.4750    -1.7370 C.3   1 <1>  -0.1600 
 24 C        7.9650    -4.6440    -1.0340 C.3   1 <1>  -0.1600 
 25 H        0.5110    -2.2910     1.3070 H     1 <1>   0.0800 
 26 H        0.4070    -0.7450     2.0730 H     1 <1>   0.0800 
 27 H       -1.3630    -2.6920    -1.1850 H     1 <1>   0.1500 
 28 H       -1.8030     1.1010     0.7020 H     1 <1>   0.1500 
 29 H       -3.7750    -3.0450    -1.0400 H     1 <1>   0.1500 
 30 H       -4.2140     0.7490     0.8490 H     1 <1>   0.1500 
 31 H        2.6170    -3.3630     1.0040 H     1 <1>   0.1500 
 32 H        2.4860     0.7790     2.0470 H     1 <1>   0.1500 
 33 H        4.9040     0.7420     2.4330 H     1 <1>   0.1500 
 34 H       -5.8870    -2.4410     0.0980 H     1 <1>   0.0800 
 35 H       -6.1360    -1.0100    -0.8760 H     1 <1>   0.0800 
 36 H       -6.0680    -0.8870     0.8670 H     1 <1>   0.0800 
 37 H        6.1760    -1.3350     2.0970 H     1 <1>   0.1500 
 38 H        7.2070    -1.9730    -0.2010 H     1 <1>   0.0800 
 39 H        5.6520    -2.2700    -0.9770 H     1 <1>   0.0800 
 40 H        6.3390    -5.7680    -0.1720 H     1 <1>   0.0800 
 41 H        7.5800    -5.3210     0.9920 H     1 <1>   0.0800 
 42 H        7.9760    -2.8440    -2.2600 H     1 <1>   0.0800 
 43 H        6.5490    -3.8460    -2.4340 H     1 <1>   0.0800 
 44 H        8.1230    -5.4820    -1.6890 H     1 <1>   0.0800 
 45 H        8.9120    -4.3280    -0.6330 H     1 <1>   0.0800 
@<TRIPOS>BOND
  1   1   2  2   
  2   1   3  2   
  3   1   4  1   
  4   1   5  1   
  5   4   6  ar  
  6   4   7  ar  
  7   5   8  1   
  8   5  25  1   
  9   5  26  1   
 10   6   9  ar  
 11   6  27  1   
 12   7  10  ar  
 13   7  28  1   
 14   8  11  ar  
 15   8  12  ar  
 16   9  13  ar  
 17   9  29  1   
 18  10  13  ar  
 19  10  30  1   
 20  11  14  ar  
 21  11  31  1   
 22  12  15  ar  
 23  12  32  1   
 24  13  16  1   
 25  14  17  1   
 26  14  18  ar  
 27  15  18  ar  
 28  15  33  1   
 29  16  34  1   
 30  16  35  1   
 31  16  36  1   
 32  17  19  2   
 33  17  20  am  
 34  18  37  1   
 35  20  21  1   
 36  20  22  1   
 37  21  23  1   
 38  21  38  1   
 39  21  39  1   
 40  22  24  1   
 41  22  40  1   
 42  22  41  1   
 43  23  24  1   
 44  23  42  1   
 45  23  43  1   
 46  24  44  1   
 47  24  45  1   
@<TRIPOS>SUBSTRUCTURE
  1 ****   8 GROUP 4 **** **** 0

# MOE 2024.06 (io_trps.svl 2023.06)
