@<TRIPOS>MOLECULE
NONAME
55 56 1 0 0 
SMALL
USER_CHARGES


@<TRIPOS>ATOM
  1 N        0.3880    -0.2280     0.4450 N.4   1 <1>  -0.9590 
  2 C        1.6160     0.6270     0.5610 C.3   1 <1>   0.3430 
  3 C       -0.2880    -0.0730    -0.8860 C.3   1 <1>   0.2630 
  4 C       -0.5930     0.0760     1.5380 C.3   1 <1>   0.2630 
  5 C        2.9430    -0.1640     0.3680 C.3   1 <1>   0.0000 
  6 C        4.1080     0.8560     0.5020 C.3   1 <1>   0.3430 
  7 C        3.0680    -1.2560     1.4550 C.3   1 <1>  -0.2400 
  8 C        2.9890    -0.8370    -1.0230 C.3   1 <1>  -0.2400 
  9 N        5.4530     0.2200     0.3580 N.4   1 <1>  -0.9060 
 10 C        6.5890     1.1560     0.4960 C.3   1 <1>   0.4230 
 11 C        6.6640     2.0820    -0.7270 C.3   1 <1>  -0.1600 
 12 C        7.8720     0.3290     0.6370 C.3   1 <1>  -0.1600 
 13 C        7.9020     2.9910    -0.6580 C.3   1 <1>  -0.1600 
 14 C        9.1120     1.2350     0.7130 C.3   1 <1>  -0.1600 
 15 C        9.1980     2.1790    -0.4980 C.3   1 <1>   0.0630 
 16 C       10.4130     3.0970    -0.3950 C.ar  1 <1>  -0.1430 
 17 C       10.5550     4.0020     0.6490 C.ar  1 <1>  -0.1500 
 18 C       11.4060     3.0330    -1.3630 C.ar  1 <1>  -0.1500 
 19 C       11.6650     4.8250     0.7230 C.ar  1 <1>  -0.1500 
 20 C       12.5160     3.8560    -1.2910 C.ar  1 <1>  -0.1500 
 21 C       12.6470     4.7530    -0.2470 C.ar  1 <1>  -0.1500 
 22 H        0.6680    -1.2160     0.5470 H     1 <1>   0.4500 
 23 H        1.6330     1.0780     1.5400 H     1 <1>   0.0800 
 24 H        1.5610     1.4260    -0.1600 H     1 <1>   0.0800 
 25 H       -0.6230     0.9430    -1.0220 H     1 <1>   0.0800 
 26 H       -1.1450    -0.7260    -0.9480 H     1 <1>   0.0800 
 27 H        0.3870    -0.3240    -1.6870 H     1 <1>   0.0800 
 28 H       -0.9260     1.0990     1.4720 H     1 <1>   0.0800 
 29 H       -0.1410    -0.0790     2.5050 H     1 <1>   0.0800 
 30 H       -1.4530    -0.5690     1.4590 H     1 <1>   0.0800 
 31 H        4.0480     1.3360     1.4660 H     1 <1>   0.0800 
 32 H        3.9940     1.6180    -0.2530 H     1 <1>   0.0800 
 33 H        3.0630    -0.8220     2.4410 H     1 <1>   0.0800 
 34 H        3.9740    -1.8250     1.3430 H     1 <1>   0.0800 
 35 H        2.2560    -1.9600     1.4010 H     1 <1>   0.0800 
 36 H        2.8970    -0.1070    -1.8100 H     1 <1>   0.0800 
 37 H        2.1930    -1.5530    -1.1360 H     1 <1>   0.0800 
 38 H        3.9070    -1.3770    -1.1720 H     1 <1>   0.0800 
 39 H        5.5370    -0.2420    -0.5550 H     1 <1>   0.4500 
 40 H        5.5670    -0.5150     1.0660 H     1 <1>   0.4500 
 41 H        6.4680     1.7550     1.3860 H     1 <1>   0.0800 
 42 H        5.7940     2.7110    -0.7800 H     1 <1>   0.0800 
 43 H        6.7220     1.4980    -1.6290 H     1 <1>   0.0800 
 44 H        7.9840    -0.3290    -0.2080 H     1 <1>   0.0800 
 45 H        7.8320    -0.2660     1.5330 H     1 <1>   0.0800 
 46 H        7.8000     3.6740     0.1670 H     1 <1>   0.0800 
 47 H        7.9700     3.5820    -1.5570 H     1 <1>   0.0800 
 48 H       10.0020     0.6300     0.7500 H     1 <1>   0.0800 
 49 H        9.0780     1.8120     1.6220 H     1 <1>   0.0800 
 50 H        9.3130     1.5690    -1.3790 H     1 <1>   0.0800 
 51 H        9.8060     4.0770     1.4160 H     1 <1>   0.1500 
 52 H       11.3260     2.3430    -2.1850 H     1 <1>   0.1500 
 53 H       11.7650     5.5230     1.5360 H     1 <1>   0.1500 
 54 H       13.2790     3.7970    -2.0470 H     1 <1>   0.1500 
 55 H       13.5100     5.3930    -0.1900 H     1 <1>   0.1500 
@<TRIPOS>BOND
  1   1   2  1   
  2   1   3  1   
  3   1   4  1   
  4   1  22  1   
  5   2   5  1   
  6   2  23  1   
  7   2  24  1   
  8   3  25  1   
  9   3  26  1   
 10   3  27  1   
 11   4  28  1   
 12   4  29  1   
 13   4  30  1   
 14   5   6  1   
 15   5   7  1   
 16   5   8  1   
 17   6   9  1   
 18   6  31  1   
 19   6  32  1   
 20   7  33  1   
 21   7  34  1   
 22   7  35  1   
 23   8  36  1   
 24   8  37  1   
 25   8  38  1   
 26   9  10  1   
 27   9  39  1   
 28   9  40  1   
 29  10  11  1   
 30  10  12  1   
 31  10  41  1   
 32  11  13  1   
 33  11  42  1   
 34  11  43  1   
 35  12  14  1   
 36  12  44  1   
 37  12  45  1   
 38  13  15  1   
 39  13  46  1   
 40  13  47  1   
 41  14  15  1   
 42  14  48  1   
 43  14  49  1   
 44  15  16  1   
 45  15  50  1   
 46  16  17  ar  
 47  16  18  ar  
 48  17  19  ar  
 49  17  51  1   
 50  18  20  ar  
 51  18  52  1   
 52  19  21  ar  
 53  19  53  1   
 54  20  21  ar  
 55  20  54  1   
 56  21  55  1   
@<TRIPOS>SUBSTRUCTURE
  1 ****  10 GROUP 4 **** **** 0

# MOE 2024.06 (io_trps.svl 2023.06)
