@<TRIPOS>MOLECULE
NONAME
45 46 1 0 0 
SMALL
USER_CHARGES


@<TRIPOS>ATOM
  1 O       -0.1770     1.1610     1.8300 O.2   1 <1>  -0.5700 
  2 C        0.1490     1.3500     0.6750 C.2   1 <1>   0.6900 
  3 N       -0.7690     1.5160    -0.3000 N.am  1 <1>  -0.7300 
  4 N        1.4480     1.4020     0.3250 N.am  1 <1>  -0.7300 
  5 C       -2.2270     1.4780    -0.1070 C.3   1 <1>   0.2200 
  6 C        2.5610     1.3540     1.2840 C.3   1 <1>   0.2840 
  7 C       -2.7940     0.2640    -0.8500 C.3   1 <1>  -0.1600 
  8 C       -2.8300     2.7850    -0.6330 C.3   1 <1>  -0.1600 
  9 C        3.7020     2.1800     0.7190 C.ar  1 <1>  -0.1430 
 10 C       -4.3280     0.2340    -0.7730 C.3   1 <1>  -0.1600 
 11 C       -4.3630     2.7590    -0.5550 C.3   1 <1>  -0.1600 
 12 C        4.7310     1.5750     0.0170 C.ar  1 <1>  -0.1500 
 13 C        3.7230     3.5530     0.8950 C.ar  1 <1>  -0.1500 
 14 C       -4.9360     1.5420    -1.2960 C.3   1 <1>  -0.1600 
 15 C        5.7790     2.3150    -0.5060 C.ar  1 <1>   0.0830 
 16 C        4.7570     4.3110     0.3740 C.ar  1 <1>  -0.1500 
 17 O        6.7240     1.5800    -1.1600 O.3   1 <1>  -0.3620 
 18 C        5.7940     3.7110    -0.3380 C.ar  1 <1>   0.0830 
 19 C        8.0780     1.9730    -1.1770 C.3   1 <1>   0.0400 
 20 O        6.8010     4.4540    -0.8850 O.3   1 <1>  -0.3630 
 21 C        6.7790     5.8650    -0.8840 C.3   1 <1>   0.0400 
 22 H       -0.4540     1.5910    -1.2610 H     1 <1>   0.3700 
 23 H        1.7090     1.7080    -0.6090 H     1 <1>   0.3700 
 24 H       -2.4540     1.3850     0.9430 H     1 <1>   0.0800 
 25 H        2.8670     0.3310     1.4230 H     1 <1>   0.0800 
 26 H        2.2480     1.7490     2.2360 H     1 <1>   0.0800 
 27 H       -2.3980    -0.6350    -0.4110 H     1 <1>   0.0800 
 28 H       -2.4970     0.3020    -1.8830 H     1 <1>   0.0800 
 29 H       -2.5340     2.9330    -1.6570 H     1 <1>   0.0800 
 30 H       -2.4580     3.6070    -0.0460 H     1 <1>   0.0800 
 31 H       -4.6290     0.0850     0.2500 H     1 <1>   0.0800 
 32 H       -4.7020    -0.5950    -1.3500 H     1 <1>   0.0800 
 33 H       -4.7620     3.6630    -0.9820 H     1 <1>   0.0800 
 34 H       -4.6660     2.7210     0.4780 H     1 <1>   0.0800 
 35 H        4.7320     0.5110    -0.1340 H     1 <1>   0.1500 
 36 H        2.9280     4.0360     1.4380 H     1 <1>   0.1500 
 37 H       -6.0050     1.5170    -1.1720 H     1 <1>   0.0800 
 38 H       -4.7300     1.6360    -2.3480 H     1 <1>   0.0800 
 39 H        4.7290     5.3710     0.5360 H     1 <1>   0.1500 
 40 H        8.6740     1.1120    -1.4170 H     1 <1>   0.0800 
 41 H        8.3480     2.3500    -0.2060 H     1 <1>   0.0800 
 42 H        8.2120     2.7270    -1.9310 H     1 <1>   0.0800 
 43 H        7.6390     6.2120    -1.4290 H     1 <1>   0.0800 
 44 H        6.8260     6.2150     0.1310 H     1 <1>   0.0800 
 45 H        5.8800     6.2010    -1.3700 H     1 <1>   0.0800 
@<TRIPOS>BOND
  1   1   2  2   
  2   2   3  am  
  3   2   4  am  
  4   3   5  1   
  5   3  22  1   
  6   4   6  1   
  7   4  23  1   
  8   5   7  1   
  9   5   8  1   
 10   5  24  1   
 11   6   9  1   
 12   6  25  1   
 13   6  26  1   
 14   7  10  1   
 15   7  27  1   
 16   7  28  1   
 17   8  11  1   
 18   8  29  1   
 19   8  30  1   
 20   9  12  ar  
 21   9  13  ar  
 22  10  14  1   
 23  10  31  1   
 24  10  32  1   
 25  11  14  1   
 26  11  33  1   
 27  11  34  1   
 28  12  15  ar  
 29  12  35  1   
 30  13  16  ar  
 31  13  36  1   
 32  14  37  1   
 33  14  38  1   
 34  15  17  1   
 35  15  18  ar  
 36  16  18  ar  
 37  16  39  1   
 38  17  19  1   
 39  18  20  1   
 40  19  40  1   
 41  19  41  1   
 42  19  42  1   
 43  20  21  1   
 44  21  43  1   
 45  21  44  1   
 46  21  45  1   
@<TRIPOS>SUBSTRUCTURE
  1 ****   4 GROUP 4 **** **** 0

# MOE 2024.06 (io_trps.svl 2023.06)
