@<TRIPOS>MOLECULE
NONAME
36 37 1 0 0 
SMALL
USER_CHARGES


@<TRIPOS>ATOM
  1 O        1.2900    -0.6940     1.5760 O.3   1 <1>  -0.5600 
  2 C        0.6160    -1.4890     0.6380 C.3   1 <1>   0.1200 
  3 C        1.9270     0.4300     1.0270 C.3   1 <1>   0.1200 
  4 C        1.5950    -2.0490    -0.4200 C.3   1 <1>   0.3430 
  5 C        2.8960     0.0350    -0.1120 C.3   1 <1>   0.3430 
  6 N        2.9660    -1.4580    -0.2710 N.4   1 <1>  -0.9590 
  7 C        3.9300    -1.9050    -1.3110 C.3   1 <1>   0.4860 
  8 C        5.2990    -1.3440    -0.9800 C.ar  1 <1>  -0.1440 
  9 C        5.8170    -0.2920    -1.7240 C.ar  1 <1>  -0.1500 
 10 C        6.0400    -1.8650     0.0720 C.ar  1 <1>  -0.1500 
 11 C        7.0540     0.2380    -1.4070 C.ar  1 <1>  -0.1500 
 12 C        7.2790    -1.3330     0.3880 C.ar  1 <1>  -0.1500 
 13 C        7.7910    -0.2720    -0.3520 C.ar  1 <1>   0.0820 
 14 O        8.9890     0.3120    -0.1090 O.3   1 <1>  -0.3620 
 15 C        9.8510    -0.1600     0.9000 C.3   1 <1>   0.1200 
 16 C       11.1130     0.6970     0.8810 C.3   1 <1>  -0.2400 
 17 H       -0.1520    -0.8950     0.1730 H     1 <1>   0.0800 
 18 H        0.1410    -2.2950     1.1700 H     1 <1>   0.0800 
 19 H        2.4690     0.9170     1.8190 H     1 <1>   0.0800 
 20 H        1.1750     1.1130     0.6680 H     1 <1>   0.0800 
 21 H        1.2030    -1.8370    -1.4020 H     1 <1>   0.0800 
 22 H        1.6440    -3.1210    -0.3150 H     1 <1>   0.0800 
 23 H        3.8740     0.4330     0.1090 H     1 <1>   0.0800 
 24 H        2.5630     0.4890    -1.0300 H     1 <1>   0.0800 
 25 H        3.3140    -1.7860     0.6420 H     1 <1>   0.4500 
 26 H        3.6180    -1.5570    -2.2820 H     1 <1>   0.0800 
 27 H        3.9820    -2.9820    -1.3330 H     1 <1>   0.0800 
 28 H        5.2740     0.1250    -2.5540 H     1 <1>   0.1500 
 29 H        5.6690    -2.6890     0.6570 H     1 <1>   0.1500 
 30 H        7.4640     1.0540    -1.9770 H     1 <1>   0.1500 
 31 H        7.8310    -1.7540     1.2080 H     1 <1>   0.1500 
 32 H       10.0890    -1.1900     0.6910 H     1 <1>   0.0800 
 33 H        9.3490    -0.0750     1.8470 H     1 <1>   0.0800 
 34 H       11.5990     0.6180    -0.0750 H     1 <1>   0.0800 
 35 H       11.7940     0.3610     1.6410 H     1 <1>   0.0800 
 36 H       10.8640     1.7250     1.0720 H     1 <1>   0.0800 
@<TRIPOS>BOND
  1   1   2  1   
  2   1   3  1   
  3   2   4  1   
  4   2  17  1   
  5   2  18  1   
  6   3   5  1   
  7   3  19  1   
  8   3  20  1   
  9   4   6  1   
 10   4  21  1   
 11   4  22  1   
 12   5   6  1   
 13   5  23  1   
 14   5  24  1   
 15   6   7  1   
 16   6  25  1   
 17   7   8  1   
 18   7  26  1   
 19   7  27  1   
 20   8   9  ar  
 21   8  10  ar  
 22   9  11  ar  
 23   9  28  1   
 24  10  12  ar  
 25  10  29  1   
 26  11  13  ar  
 27  11  30  1   
 28  12  13  ar  
 29  12  31  1   
 30  13  14  1   
 31  14  15  1   
 32  15  16  1   
 33  15  32  1   
 34  15  33  1   
 35  16  34  1   
 36  16  35  1   
 37  16  36  1   
@<TRIPOS>SUBSTRUCTURE
  1 ****   8 GROUP 4 **** **** 0

# MOE 2024.06 (io_trps.svl 2023.06)
