@<TRIPOS>MOLECULE
NONAME
47 48 1 0 0 
SMALL
USER_CHARGES


@<TRIPOS>ATOM
  1 O        0.8090    -0.7200     2.8160 O.2   1 <1>  -0.5700 
  2 C        0.5000    -0.9900     1.6710 C.2   1 <1>   0.5440 
  3 N        1.0040    -0.2470     0.6400 N.am  1 <1>  -0.7300 
  4 C       -0.4080    -2.0950     1.4050 C.ar  1 <1>   0.0860 
  5 C        2.1530     0.6760     0.5760 C.3   1 <1>   0.3640 
  6 C       -0.3660    -2.8710     0.2320 C.ar  1 <1>   0.0830 
  7 C       -1.3740    -2.4290     2.3580 C.ar  1 <1>  -0.1500 
  8 C        3.3940    -0.1330     0.2160 C.ar  1 <1>  -0.1440 
  9 C        2.3480     1.5290     1.8290 C.3   1 <1>  -0.2400 
 10 O        0.5730    -2.5890    -0.7050 O.3   1 <1>  -0.3620 
 11 C       -1.2700    -3.9140     0.0420 C.ar  1 <1>  -0.1500 
 12 C       -2.2650    -3.4670     2.1680 C.ar  1 <1>  -0.1500 
 13 C        4.0470     0.0890    -0.9860 C.ar  1 <1>  -0.1500 
 14 C        3.8790    -1.1140     1.0670 C.ar  1 <1>  -0.1500 
 15 C        1.0120    -3.5320    -1.6550 C.3   1 <1>   0.1200 
 16 C       -2.2140    -4.2110     1.0040 C.ar  1 <1>  -0.1500 
 17 C        5.1650    -0.6450    -1.3480 C.ar  1 <1>   0.0830 
 18 C        4.9900    -1.8630     0.7210 C.ar  1 <1>  -0.1500 
 19 C        2.2890    -2.9900    -2.2900 C.3   1 <1>  -0.2400 
 20 O        5.7030    -0.3100    -2.5550 O.3   1 <1>  -0.3620 
 21 C        5.6440    -1.6500    -0.4910 C.ar  1 <1>   0.0830 
 22 C        7.0950    -0.3730    -2.7700 C.3   1 <1>   0.0400 
 23 O        6.7160    -2.4100    -0.8620 O.3   1 <1>  -0.3630 
 24 C        7.1480    -3.5160    -0.1010 C.3   1 <1>   0.0400 
 25 H        0.8510    -0.6910    -0.2710 H     1 <1>   0.3700 
 26 H        1.9520     1.3590    -0.2320 H     1 <1>   0.0800 
 27 H       -1.4210    -1.8560     3.2690 H     1 <1>   0.1500 
 28 H        2.6790     0.9320     2.6580 H     1 <1>   0.0800 
 29 H        1.4280     2.0200     2.0870 H     1 <1>   0.0800 
 30 H        3.0980     2.2750     1.6400 H     1 <1>   0.0800 
 31 H       -1.2550    -4.5030    -0.8560 H     1 <1>   0.1500 
 32 H       -2.9970    -3.6960     2.9230 H     1 <1>   0.1500 
 33 H        3.6940     0.8420    -1.6660 H     1 <1>   0.1500 
 34 H        3.3810    -1.3010     2.0040 H     1 <1>   0.1500 
 35 H        0.2400    -3.6580    -2.3940 H     1 <1>   0.0800 
 36 H        1.2060    -4.4630    -1.1510 H     1 <1>   0.0800 
 37 H       -2.9100    -5.0190     0.8520 H     1 <1>   0.1500 
 38 H        5.3200    -2.6100     1.4160 H     1 <1>   0.1500 
 39 H        2.1000    -2.0460    -2.7680 H     1 <1>   0.0800 
 40 H        2.6540    -3.6810    -3.0270 H     1 <1>   0.0800 
 41 H        3.0480    -2.8620    -1.5390 H     1 <1>   0.0800 
 42 H        7.3360     0.2670    -3.5980 H     1 <1>   0.0800 
 43 H        7.3640    -1.3870    -3.0050 H     1 <1>   0.0800 
 44 H        7.6040    -0.0390    -1.8830 H     1 <1>   0.0800 
 45 H        7.9650    -3.9810    -0.6230 H     1 <1>   0.0800 
 46 H        6.3340    -4.2120    -0.0030 H     1 <1>   0.0800 
 47 H        7.4810    -3.1700     0.8610 H     1 <1>   0.0800 
@<TRIPOS>BOND
  1   1   2  2   
  2   2   3  am  
  3   2   4  1   
  4   3   5  1   
  5   3  25  1   
  6   4   6  ar  
  7   4   7  ar  
  8   5   8  1   
  9   5   9  1   
 10   5  26  1   
 11   6  10  1   
 12   6  11  ar  
 13   7  12  ar  
 14   7  27  1   
 15   8  13  ar  
 16   8  14  ar  
 17   9  28  1   
 18   9  29  1   
 19   9  30  1   
 20  10  15  1   
 21  11  16  ar  
 22  11  31  1   
 23  12  16  ar  
 24  12  32  1   
 25  13  17  ar  
 26  13  33  1   
 27  14  18  ar  
 28  14  34  1   
 29  15  19  1   
 30  15  35  1   
 31  15  36  1   
 32  16  37  1   
 33  17  20  1   
 34  17  21  ar  
 35  18  21  ar  
 36  18  38  1   
 37  19  39  1   
 38  19  40  1   
 39  19  41  1   
 40  20  22  1   
 41  21  23  1   
 42  22  42  1   
 43  22  43  1   
 44  22  44  1   
 45  23  24  1   
 46  24  45  1   
 47  24  46  1   
 48  24  47  1   
@<TRIPOS>SUBSTRUCTURE
  1 ****   8 GROUP 4 **** **** 0

# MOE 2024.06 (io_trps.svl 2023.06)
