@<TRIPOS>MOLECULE
NONAME
36 37 1 0 0 
SMALL
USER_CHARGES


@<TRIPOS>ATOM
  1 CL       0.2750     0.6110     0.7570 Cl    1 <1>  -0.1770 
  2 C       -1.3210     1.2220     0.4240 C.ar  1 <1>   0.1770 
  3 C       -1.4700     2.4650    -0.1570 C.ar  1 <1>  -0.1500 
  4 C       -2.4250     0.4560     0.7450 C.ar  1 <1>  -0.1500 
  5 C       -2.7420     2.9420    -0.4180 C.ar  1 <1>  -0.1500 
  6 C       -3.6940     0.9430     0.4790 C.ar  1 <1>  -0.1500 
  7 C       -3.8890     2.2010    -0.1090 C.ar  1 <1>   0.0860 
  8 C       -5.2010     2.7470    -0.4010 C.2   1 <1>   0.4230 
  9 O       -5.3620     3.8070    -0.9490 O.2   1 <1>  -0.5700 
 10 C       -6.4630     1.9870    -0.0180 C.3   1 <1>  -0.0990 
 11 C       -7.7020     2.8310    -0.3380 C.3   1 <1>   0.3430 
 12 N       -8.9690     2.1570     0.0780 N.4   1 <1>  -0.9590 
 13 C       -9.3030     0.9850    -0.7890 C.3   1 <1>   0.3430 
 14 C      -10.0830     3.1510     0.0820 C.3   1 <1>   0.3430 
 15 C      -10.5530     0.2850    -0.2520 C.3   1 <1>  -0.1600 
 16 C      -11.3520     2.5030     0.6400 C.3   1 <1>  -0.1600 
 17 C      -11.7430     1.2480    -0.1510 C.3   1 <1>  -0.1600 
 18 H       -0.5990     3.0470    -0.4010 H     1 <1>   0.1500 
 19 H       -2.2820    -0.5100     1.1960 H     1 <1>   0.1500 
 20 H       -2.8490     3.9130    -0.8730 H     1 <1>   0.1500 
 21 H       -4.5300     0.3210     0.7390 H     1 <1>   0.1500 
 22 H       -6.4330     1.7790     1.0360 H     1 <1>   0.0800 
 23 H       -6.4840     1.0690    -0.5730 H     1 <1>   0.0800 
 24 H       -7.7260     3.0470    -1.3950 H     1 <1>   0.0800 
 25 H       -7.6090     3.7740     0.1800 H     1 <1>   0.0800 
 26 H       -8.8720     1.8190     1.0430 H     1 <1>   0.4500 
 27 H       -8.4840     0.2840    -0.8040 H     1 <1>   0.0800 
 28 H       -9.4830     1.3180    -1.7990 H     1 <1>   0.0800 
 29 H      -10.2680     3.4970    -0.9230 H     1 <1>   0.0800 
 30 H       -9.8190     4.0020     0.6900 H     1 <1>   0.0800 
 31 H      -10.3400    -0.1390     0.7130 H     1 <1>   0.0800 
 32 H      -10.8100    -0.5280    -0.9100 H     1 <1>   0.0800 
 33 H      -12.1590     3.2150     0.5950 H     1 <1>   0.0800 
 34 H      -11.2020     2.2540     1.6760 H     1 <1>   0.0800 
 35 H      -12.5730     0.7560     0.3290 H     1 <1>   0.0800 
 36 H      -12.0600     1.5320    -1.1410 H     1 <1>   0.0800 
@<TRIPOS>BOND
  1   1   2  1   
  2   2   3  ar  
  3   2   4  ar  
  4   3   5  ar  
  5   3  18  1   
  6   4   6  ar  
  7   4  19  1   
  8   5   7  ar  
  9   5  20  1   
 10   6   7  ar  
 11   6  21  1   
 12   7   8  1   
 13   8   9  2   
 14   8  10  1   
 15  10  11  1   
 16  10  22  1   
 17  10  23  1   
 18  11  12  1   
 19  11  24  1   
 20  11  25  1   
 21  12  13  1   
 22  12  14  1   
 23  12  26  1   
 24  13  15  1   
 25  13  27  1   
 26  13  28  1   
 27  14  16  1   
 28  14  29  1   
 29  14  30  1   
 30  15  17  1   
 31  15  31  1   
 32  15  32  1   
 33  16  17  1   
 34  16  33  1   
 35  16  34  1   
 36  17  35  1   
 37  17  36  1   
@<TRIPOS>SUBSTRUCTURE
  1 ****  10 GROUP 4 **** **** 0

# MOE 2024.06 (io_trps.svl 2023.06)
