@<TRIPOS>MOLECULE
NONAME
52 53 1 0 0 
SMALL
USER_CHARGES


@<TRIPOS>ATOM
  1 S       -0.2780    -0.1350    -0.5660 S.o2  1 <1>   1.4470 
  2 O       -0.2070    -0.5770    -1.9430 O.2   1 <1>  -0.6500 
  3 O       -0.1410    -1.1060     0.4970 O.2   1 <1>  -0.6500 
  4 N       -1.8060     0.5770    -0.3820 N.am  1 <1>  -0.8490 
  5 C        0.8610     1.2480    -0.2810 C.ar  1 <1>  -0.0090 
  6 C       -2.1490     1.4690    -1.4880 C.3   1 <1>   0.1960 
  7 C       -2.8400    -0.4410    -0.1580 C.3   1 <1>   0.1960 
  8 C        0.7290     2.0620     0.8370 C.ar  1 <1>  -0.1500 
  9 C        1.8910     1.5300    -1.1700 C.ar  1 <1>  -0.1500 
 10 C       -3.3610     2.3320    -1.1050 C.3   1 <1>  -0.1600 
 11 C       -4.2620     0.1460    -0.2230 C.3   1 <1>  -0.1600 
 12 C        1.5880     3.1250     1.0580 C.ar  1 <1>  -0.1500 
 13 C        2.7540     2.5910    -0.9560 C.ar  1 <1>  -0.1500 
 14 C       -4.2590     1.6750    -0.0340 C.3   1 <1>  -0.0190 
 15 C        2.6060     3.3960     0.1600 C.ar  1 <1>  -0.1430 
 16 C       -5.6570     2.2830     0.0010 C.2   1 <1>   0.5690 
 17 C        3.5520     4.5590     0.4000 C.3   1 <1>  -0.0970 
 18 O       -5.9780     2.9720     0.9390 O.2   1 <1>  -0.5700 
 19 N       -6.5360     2.0260    -1.0050 N.am  1 <1>  -0.7300 
 20 C       -7.8400     2.7210    -1.2390 C.3   1 <1>   0.1400 
 21 C       -8.9660     2.2220    -0.3070 C.3   1 <1>   0.3430 
 22 N       -8.6790     2.5260     1.1290 N.4   1 <1>  -0.9590 
 23 C       -9.3000     1.5420     2.0610 C.3   1 <1>   0.2630 
 24 C       -9.0220     3.9310     1.5010 C.3   1 <1>   0.2630 
 25 H       -2.3710     0.8810    -2.3650 H     1 <1>   0.0800 
 26 H       -1.3180     2.1140    -1.7240 H     1 <1>   0.0800 
 27 H       -2.6810    -0.8740     0.8170 H     1 <1>   0.0800 
 28 H       -2.7440    -1.2310    -0.8860 H     1 <1>   0.0800 
 29 H       -0.0590     1.8600     1.5430 H     1 <1>   0.1500 
 30 H        2.0200     0.9120    -2.0430 H     1 <1>   0.1500 
 31 H       -3.9210     2.5370    -2.0000 H     1 <1>   0.0800 
 32 H       -3.0110     3.2770    -0.7280 H     1 <1>   0.0800 
 33 H       -4.8660    -0.3220     0.5340 H     1 <1>   0.0800 
 34 H       -4.6880    -0.1050    -1.1770 H     1 <1>   0.0800 
 35 H        1.4610     3.7370     1.9340 H     1 <1>   0.1500 
 36 H        3.5440     2.7850    -1.6610 H     1 <1>   0.1500 
 37 H       -3.8090     1.8700     0.9250 H     1 <1>   0.0800 
 38 H        4.3950     4.2280     0.9790 H     1 <1>   0.0800 
 39 H        3.0520     5.3470     0.9340 H     1 <1>   0.0800 
 40 H        3.9060     4.9550    -0.5350 H     1 <1>   0.0800 
 41 H       -6.2010     1.4540    -1.7860 H     1 <1>   0.3700 
 42 H       -8.1380     2.5540    -2.2600 H     1 <1>   0.0800 
 43 H       -7.7070     3.7820    -1.1110 H     1 <1>   0.0800 
 44 H       -9.0640     1.1580    -0.4410 H     1 <1>   0.0800 
 45 H       -9.9000     2.6780    -0.5920 H     1 <1>   0.0800 
 46 H       -7.6380     2.4630     1.2230 H     1 <1>   0.4500 
 47 H      -10.3750     1.5890     1.9940 H     1 <1>   0.0800 
 48 H       -9.0070     1.7560     3.0760 H     1 <1>   0.0800 
 49 H       -8.9790     0.5430     1.8160 H     1 <1>   0.0800 
 50 H      -10.0810     4.1030     1.3960 H     1 <1>   0.0800 
 51 H       -8.4890     4.6230     0.8700 H     1 <1>   0.0800 
 52 H       -8.7380     4.1220     2.5230 H     1 <1>   0.0800 
@<TRIPOS>BOND
  1   1   2  2   
  2   1   3  2   
  3   1   4  am  
  4   1   5  1   
  5   4   6  1   
  6   4   7  1   
  7   5   8  ar  
  8   5   9  ar  
  9   6  10  1   
 10   6  25  1   
 11   6  26  1   
 12   7  11  1   
 13   7  27  1   
 14   7  28  1   
 15   8  12  ar  
 16   8  29  1   
 17   9  13  ar  
 18   9  30  1   
 19  10  14  1   
 20  10  31  1   
 21  10  32  1   
 22  11  14  1   
 23  11  33  1   
 24  11  34  1   
 25  12  15  ar  
 26  12  35  1   
 27  13  15  ar  
 28  13  36  1   
 29  14  16  1   
 30  14  37  1   
 31  15  17  1   
 32  16  18  2   
 33  16  19  am  
 34  17  38  1   
 35  17  39  1   
 36  17  40  1   
 37  19  20  1   
 38  19  41  1   
 39  20  21  1   
 40  20  42  1   
 41  20  43  1   
 42  21  22  1   
 43  21  44  1   
 44  21  45  1   
 45  22  23  1   
 46  22  24  1   
 47  22  46  1   
 48  23  47  1   
 49  23  48  1   
 50  23  49  1   
 51  24  50  1   
 52  24  51  1   
 53  24  52  1   
@<TRIPOS>SUBSTRUCTURE
  1 ****  10 GROUP 4 **** **** 0

# MOE 2024.06 (io_trps.svl 2023.06)
