@<TRIPOS>MOLECULE
NONAME
34 35 1 0 0 
SMALL
USER_CHARGES


@<TRIPOS>ATOM
  1 F        0.4620     0.6070     0.0500 F     1 <1>  -0.1900 
  2 C        1.7460     0.3610     0.0580 C.ar  1 <1>   0.1900 
  3 C        2.1850    -0.9150    -0.2340 C.ar  1 <1>  -0.1500 
  4 C        2.6200     1.3880     0.3600 C.ar  1 <1>  -0.1500 
  5 C        3.5460    -1.1670    -0.2210 C.ar  1 <1>  -0.1500 
  6 C        3.9780     1.1190     0.3660 C.ar  1 <1>  -0.1500 
  7 C        4.4610    -0.1550     0.0740 C.ar  1 <1>   0.1170 
  8 N        5.8490    -0.3610     0.1080 N.am  1 <1>  -0.5470 
  9 C        6.6580    -1.3160    -0.4450 C.2   1 <1>   0.6900 
 10 O        6.1940    -2.2410    -1.0830 O.2   1 <1>  -0.5700 
 11 N        8.0160    -1.2140    -0.2580 N.am  1 <1>  -0.6600 
 12 C        8.8530    -2.4360    -0.4470 C.3   1 <1>   0.1400 
 13 C        8.6750     0.1100    -0.0370 C.3   1 <1>   0.1400 
 14 C        9.9890    -2.5520     0.5760 C.3   1 <1>  -0.1600 
 15 C       10.0490     0.2570    -0.7030 C.3   1 <1>  -0.1600 
 16 C       11.2760    -1.8490     0.1250 C.3   1 <1>  -0.1600 
 17 C       11.1950    -0.3200     0.1410 C.3   1 <1>  -0.1600 
 18 H        1.4780    -1.6920    -0.4630 H     1 <1>   0.1500 
 19 H        2.2410     2.3690     0.5820 H     1 <1>   0.1500 
 20 H        3.8920    -2.1610    -0.4410 H     1 <1>   0.1500 
 21 H        4.6690     1.9100     0.5960 H     1 <1>   0.1500 
 22 H        6.3730     0.3110     0.6540 H     1 <1>   0.3700 
 23 H        9.2430    -2.4520    -1.4510 H     1 <1>   0.0800 
 24 H        8.2260    -3.3050    -0.3370 H     1 <1>   0.0800 
 25 H        8.7640     0.2850     1.0210 H     1 <1>   0.0800 
 26 H        8.0410     0.8780    -0.4460 H     1 <1>   0.0800 
 27 H       10.2170    -3.5970     0.6820 H     1 <1>   0.0800 
 28 H        9.6650    -2.1980     1.5390 H     1 <1>   0.0800 
 29 H       10.2370     1.3100    -0.8120 H     1 <1>   0.0800 
 30 H       10.0390    -0.1640    -1.6940 H     1 <1>   0.0800 
 31 H       11.5350    -2.1810    -0.8660 H     1 <1>   0.0800 
 32 H       12.0770    -2.1500     0.7790 H     1 <1>   0.0800 
 33 H       11.1030     0.0220     1.1580 H     1 <1>   0.0800 
 34 H       12.1260     0.0650    -0.2400 H     1 <1>   0.0800 
@<TRIPOS>BOND
  1   1   2  1   
  2   2   3  ar  
  3   2   4  ar  
  4   3   5  ar  
  5   3  18  1   
  6   4   6  ar  
  7   4  19  1   
  8   5   7  ar  
  9   5  20  1   
 10   6   7  ar  
 11   6  21  1   
 12   7   8  1   
 13   8   9  am  
 14   8  22  1   
 15   9  10  2   
 16   9  11  am  
 17  11  12  1   
 18  11  13  1   
 19  12  14  1   
 20  12  23  1   
 21  12  24  1   
 22  13  15  1   
 23  13  25  1   
 24  13  26  1   
 25  14  16  1   
 26  14  27  1   
 27  14  28  1   
 28  15  17  1   
 29  15  29  1   
 30  15  30  1   
 31  16  17  1   
 32  16  31  1   
 33  16  32  1   
 34  17  33  1   
 35  17  34  1   
@<TRIPOS>SUBSTRUCTURE
  1 ****   8 GROUP 4 **** **** 0

# MOE 2024.06 (io_trps.svl 2023.06)
