@<TRIPOS>MOLECULE
NONAME
52 53 1 0 0 
SMALL
USER_CHARGES


@<TRIPOS>ATOM
  1 S        0.5620     0.8970     1.9090 S.o2  1 <1>   1.3330 
  2 O        1.8240     0.9840     2.6070 O.2   1 <1>  -0.6500 
  3 O        0.3420    -0.1560     0.9520 O.2   1 <1>  -0.6500 
  4 N        0.3530     2.4140     1.1090 N.am  1 <1>  -0.6930 
  5 C       -0.7580     0.9190     3.1020 C.3   1 <1>  -0.1350 
  6 C       -0.6880     2.6150     0.2150 C.ar  1 <1>   0.1990 
  7 C        1.5450     3.3120     0.9950 C.3   1 <1>   0.2570 
  8 C       -1.7730     3.4030     0.5770 C.ar  1 <1>  -0.1500 
  9 C       -0.6640     2.0460    -1.0510 C.ar  1 <1>  -0.1500 
 10 C        2.6430     2.8170     0.0470 C.2   1 <1>   0.5690 
 11 C       -2.8210     3.6140    -0.3020 C.ar  1 <1>  -0.1440 
 12 C       -1.7050     2.2480    -1.9390 C.ar  1 <1>  -0.1440 
 13 O        2.7500     3.3510    -1.0320 O.2   1 <1>  -0.5700 
 14 N        3.4790     1.8190     0.4670 N.am  1 <1>  -0.5470 
 15 C       -2.7810     3.0330    -1.5590 C.ar  1 <1>  -0.1500 
 16 C       -4.0090     4.4750     0.0900 C.3   1 <1>  -0.0970 
 17 C       -1.6630     1.6200    -3.3200 C.3   1 <1>  -0.0970 
 18 C        4.5600     1.2340    -0.2110 C.ar  1 <1>   0.1170 
 19 C        5.7170     1.9620    -0.5060 C.ar  1 <1>  -0.1430 
 20 C        4.4930    -0.1130    -0.5720 C.ar  1 <1>  -0.1430 
 21 C        6.7720     1.3440    -1.1580 C.ar  1 <1>  -0.1500 
 22 C        5.8640     3.4300    -0.1240 C.3   1 <1>  -0.0970 
 23 C        5.5600    -0.7110    -1.2190 C.ar  1 <1>  -0.1500 
 24 C        3.2510    -0.9450    -0.2780 C.3   1 <1>  -0.0970 
 25 C        6.7020     0.0100    -1.5180 C.ar  1 <1>  -0.1430 
 26 C        7.8660    -0.6550    -2.2300 C.3   1 <1>  -0.0970 
 27 H       -0.7300     0.0280     3.6970 H     1 <1>   0.0800 
 28 H       -1.7050     0.9690     2.6010 H     1 <1>   0.0800 
 29 H       -0.6610     1.7690     3.7470 H     1 <1>   0.0800 
 30 H        1.9730     3.4610     1.9690 H     1 <1>   0.0800 
 31 H        1.2170     4.2720     0.6390 H     1 <1>   0.0800 
 32 H       -1.7860     3.8500     1.5530 H     1 <1>   0.1500 
 33 H        0.1810     1.4420    -1.3320 H     1 <1>   0.1500 
 34 H        3.1930     1.3300     1.3250 H     1 <1>   0.3700 
 35 H       -3.5920     3.1960    -2.2480 H     1 <1>   0.1500 
 36 H       -3.9080     4.8380     1.0970 H     1 <1>   0.0800 
 37 H       -4.9150     3.8990     0.0230 H     1 <1>   0.0800 
 38 H       -4.0830     5.3180    -0.5730 H     1 <1>   0.0800 
 39 H       -1.0290     0.7520    -3.3210 H     1 <1>   0.0800 
 40 H       -1.2780     2.3300    -4.0300 H     1 <1>   0.0800 
 41 H       -2.6500     1.3200    -3.6250 H     1 <1>   0.0800 
 42 H        7.6590     1.9050    -1.3880 H     1 <1>   0.1500 
 43 H        5.3010     4.0380    -0.8080 H     1 <1>   0.0800 
 44 H        6.8930     3.7360    -0.1620 H     1 <1>   0.0800 
 45 H        5.5010     3.5960     0.8740 H     1 <1>   0.0800 
 46 H        5.5050    -1.7480    -1.4970 H     1 <1>   0.1500 
 47 H        3.3570    -1.9480    -0.6480 H     1 <1>   0.0800 
 48 H        3.0770    -0.9920     0.7810 H     1 <1>   0.0800 
 49 H        2.3950    -0.5010    -0.7540 H     1 <1>   0.0800 
 50 H        8.4010     0.0630    -2.8250 H     1 <1>   0.0800 
 51 H        7.5120    -1.4360    -2.8780 H     1 <1>   0.0800 
 52 H        8.5380    -1.0800    -1.5070 H     1 <1>   0.0800 
@<TRIPOS>BOND
  1   1   2  2   
  2   1   3  2   
  3   1   4  am  
  4   1   5  1   
  5   4   6  1   
  6   4   7  1   
  7   5  27  1   
  8   5  28  1   
  9   5  29  1   
 10   6   8  ar  
 11   6   9  ar  
 12   7  10  1   
 13   7  30  1   
 14   7  31  1   
 15   8  11  ar  
 16   8  32  1   
 17   9  12  ar  
 18   9  33  1   
 19  10  13  2   
 20  10  14  am  
 21  11  15  ar  
 22  11  16  1   
 23  12  15  ar  
 24  12  17  1   
 25  14  18  1   
 26  14  34  1   
 27  15  35  1   
 28  16  36  1   
 29  16  37  1   
 30  16  38  1   
 31  17  39  1   
 32  17  40  1   
 33  17  41  1   
 34  18  19  ar  
 35  18  20  ar  
 36  19  21  ar  
 37  19  22  1   
 38  20  23  ar  
 39  20  24  1   
 40  21  25  ar  
 41  21  42  1   
 42  22  43  1   
 43  22  44  1   
 44  22  45  1   
 45  23  25  ar  
 46  23  46  1   
 47  24  47  1   
 48  24  48  1   
 49  24  49  1   
 50  25  26  1   
 51  26  50  1   
 52  26  51  1   
 53  26  52  1   
@<TRIPOS>SUBSTRUCTURE
  1 ****  10 GROUP 4 **** **** 0

# MOE 2024.06 (io_trps.svl 2023.06)
