@<TRIPOS>MOLECULE
NONAME
50 51 1 0 0 
SMALL
USER_CHARGES


@<TRIPOS>ATOM
  1 S       -2.6590    -1.3280     1.2550 S.o2  1 <1>   1.3330 
  2 O       -1.8830    -0.2680     1.8510 O.2   1 <1>  -0.6500 
  3 O       -4.0040    -1.5770     1.7150 O.2   1 <1>  -0.6500 
  4 N       -1.7660    -2.8070     1.4130 N.am  1 <1>  -0.6930 
  5 C       -2.6870    -1.0930    -0.5100 C.3   1 <1>  -0.1350 
  6 C       -0.4100    -2.8390     1.0970 C.ar  1 <1>   0.1990 
  7 C       -2.4760    -4.1200     1.5680 C.3   1 <1>   0.3370 
  8 C        0.5160    -2.1580     1.8760 C.ar  1 <1>  -0.1500 
  9 C        0.0500    -3.5520    -0.0050 C.ar  1 <1>  -0.1500 
 10 C       -3.4160    -4.4940     0.4010 C.2   1 <1>   0.5690 
 11 C       -3.1130    -4.2400     2.9600 C.3   1 <1>  -0.2400 
 12 C        1.8630    -2.1860     1.5660 C.ar  1 <1>  -0.1500 
 13 C        1.3970    -3.5840    -0.3170 C.ar  1 <1>  -0.1500 
 14 O       -3.0370    -5.3480    -0.3670 O.2   1 <1>  -0.5700 
 15 N       -4.6170    -3.8570     0.2430 N.am  1 <1>  -0.5470 
 16 C        2.3120    -2.8990     0.4660 C.ar  1 <1>  -0.1430 
 17 C       -5.5740    -3.9730    -0.7830 C.ar  1 <1>   0.1170 
 18 C        3.7910    -2.9320     0.1260 C.3   1 <1>  -0.0970 
 19 C       -6.2740    -2.8380    -1.2060 C.ar  1 <1>   0.0820 
 20 C       -5.8610    -5.1970    -1.3770 C.ar  1 <1>  -0.1500 
 21 O       -5.9660    -1.6500    -0.6130 O.3   1 <1>  -0.3620 
 22 C       -7.2380    -2.9440    -2.2040 C.ar  1 <1>  -0.1500 
 23 C       -6.8200    -5.2980    -2.3690 C.ar  1 <1>  -0.1500 
 24 C       -6.8860    -0.5830    -0.6150 C.3   1 <1>   0.1200 
 25 C       -7.5100    -4.1720    -2.7820 C.ar  1 <1>  -0.1500 
 26 C       -6.3640     0.4910     0.3350 C.3   1 <1>  -0.2400 
 27 H       -3.2360    -0.2040    -0.7520 H     1 <1>   0.0800 
 28 H       -3.1570    -1.9240    -0.9980 H     1 <1>   0.0800 
 29 H       -1.6880    -0.9920    -0.8850 H     1 <1>   0.0800 
 30 H       -1.7120    -4.8780     1.5550 H     1 <1>   0.0800 
 31 H        0.1750    -1.6020     2.7310 H     1 <1>   0.1500 
 32 H       -0.6460    -4.0860    -0.6270 H     1 <1>   0.1500 
 33 H       -3.9810    -3.6170     3.0650 H     1 <1>   0.0800 
 34 H       -2.3950    -3.9770     3.7160 H     1 <1>   0.0800 
 35 H       -3.4200    -5.2570     3.1230 H     1 <1>   0.0800 
 36 H        2.5610    -1.6500     2.1860 H     1 <1>   0.1500 
 37 H        1.7310    -4.1440    -1.1730 H     1 <1>   0.1500 
 38 H       -4.7720    -3.0360     0.8500 H     1 <1>   0.3700 
 39 H        4.2650    -2.0140     0.4230 H     1 <1>   0.0800 
 40 H        3.9320    -3.0600    -0.9320 H     1 <1>   0.0800 
 41 H        4.2640    -3.7490     0.6410 H     1 <1>   0.0800 
 42 H       -5.3340    -6.0780    -1.0620 H     1 <1>   0.1500 
 43 H       -7.7810    -2.0850    -2.5490 H     1 <1>   0.1500 
 44 H       -7.0290    -6.2540    -2.8180 H     1 <1>   0.1500 
 45 H       -7.8400    -0.9540    -0.2810 H     1 <1>   0.0800 
 46 H       -6.9630    -0.1980    -1.6170 H     1 <1>   0.0800 
 47 H       -8.2550    -4.2520    -3.5550 H     1 <1>   0.1500 
 48 H       -6.2600     0.0860     1.3270 H     1 <1>   0.0800 
 49 H       -7.0550     1.3130     0.3720 H     1 <1>   0.0800 
 50 H       -5.4120     0.8570    -0.0020 H     1 <1>   0.0800 
@<TRIPOS>BOND
  1   1   2  2   
  2   1   3  2   
  3   1   4  am  
  4   1   5  1   
  5   4   6  1   
  6   4   7  1   
  7   5  27  1   
  8   5  28  1   
  9   5  29  1   
 10   6   8  ar  
 11   6   9  ar  
 12   7  10  1   
 13   7  11  1   
 14   7  30  1   
 15   8  12  ar  
 16   8  31  1   
 17   9  13  ar  
 18   9  32  1   
 19  10  14  2   
 20  10  15  am  
 21  11  33  1   
 22  11  34  1   
 23  11  35  1   
 24  12  16  ar  
 25  12  36  1   
 26  13  16  ar  
 27  13  37  1   
 28  15  17  1   
 29  15  38  1   
 30  16  18  1   
 31  17  19  ar  
 32  17  20  ar  
 33  18  39  1   
 34  18  40  1   
 35  18  41  1   
 36  19  21  1   
 37  19  22  ar  
 38  20  23  ar  
 39  20  42  1   
 40  21  24  1   
 41  22  25  ar  
 42  22  43  1   
 43  23  25  ar  
 44  23  44  1   
 45  24  26  1   
 46  24  45  1   
 47  24  46  1   
 48  25  47  1   
 49  26  48  1   
 50  26  49  1   
 51  26  50  1   
@<TRIPOS>SUBSTRUCTURE
  1 ****  10 GROUP 4 **** **** 0

# MOE 2024.06 (io_trps.svl 2023.06)
