@<TRIPOS>MOLECULE
NONAME
54 56 1 0 0 
SMALL
USER_CHARGES


@<TRIPOS>ATOM
  1 S        1.4680     1.2250     0.9030 S.o2  1 <1>   1.4470 
  2 O        1.4710     2.0110     2.1190 O.2   1 <1>  -0.6500 
  3 O        0.2700     0.5080     0.5220 O.2   1 <1>  -0.6500 
  4 N        1.8500     2.2840    -0.3650 N.am  1 <1>  -0.8490 
  5 C        2.8740     0.0780     0.8920 C.ar  1 <1>  -0.0090 
  6 C        0.6750     3.0440    -0.8040 C.3   1 <1>   0.1960 
  7 C        2.9550     3.1850    -0.0180 C.3   1 <1>   0.1960 
  8 C        3.7520    -0.0060     1.9680 C.ar  1 <1>  -0.1500 
  9 C        3.1210    -0.7310    -0.2110 C.ar  1 <1>  -0.1500 
 10 C        1.0110     3.8660    -2.0540 C.3   1 <1>  -0.1600 
 11 C        3.3820     3.9940    -1.2460 C.3   1 <1>  -0.1600 
 12 C        4.8480    -0.8510     1.9400 C.ar  1 <1>  -0.1500 
 13 C        4.2120    -1.5800    -0.2490 C.ar  1 <1>  -0.1500 
 14 C        2.2060     4.7960    -1.8160 C.3   1 <1>  -0.1600 
 15 C        5.0920    -1.6360     0.8180 C.ar  1 <1>   0.0830 
 16 O        6.1710    -2.4450     0.6820 O.3   1 <1>  -0.3630 
 17 C        7.3190    -2.3150     1.5190 C.3   1 <1>   0.1810 
 18 C        7.9670    -0.9340     1.4170 C.2   1 <1>   0.5690 
 19 O        8.6350    -0.5410     2.3430 O.2   1 <1>  -0.5700 
 20 N        7.7460    -0.1750     0.3130 N.am  1 <1>  -0.7300 
 21 C        8.0730     1.2490     0.1770 C.3   1 <1>   0.2200 
 22 C        6.8160     2.0630     0.5040 C.3   1 <1>  -0.1600 
 23 C        8.5500     1.5170    -1.2540 C.3   1 <1>  -0.1600 
 24 C        7.0470     3.5620     0.2730 C.3   1 <1>  -0.1600 
 25 C        8.7760     3.0170    -1.4960 C.3   1 <1>  -0.1600 
 26 C        7.5170     3.8300    -1.1630 C.3   1 <1>  -0.1600 
 27 H        0.3410     3.6920    -0.0090 H     1 <1>   0.0800 
 28 H       -0.1290     2.3670    -1.0450 H     1 <1>   0.0800 
 29 H        3.7960     2.6120     0.3320 H     1 <1>   0.0800 
 30 H        2.6510     3.8530     0.7720 H     1 <1>   0.0800 
 31 H        3.5770     0.6030     2.8400 H     1 <1>   0.1500 
 32 H        2.4470    -0.6880    -1.0510 H     1 <1>   0.1500 
 33 H        0.1510     4.4450    -2.3400 H     1 <1>   0.0800 
 34 H        1.2330     3.1880    -2.8600 H     1 <1>   0.0800 
 35 H        3.7600     3.3180    -1.9930 H     1 <1>   0.0800 
 36 H        4.1770     4.6650    -0.9750 H     1 <1>   0.0800 
 37 H        5.4980    -0.8790     2.7950 H     1 <1>   0.1500 
 38 H        4.3890    -2.1990    -1.1110 H     1 <1>   0.1500 
 39 H        1.9260     5.5650    -1.1160 H     1 <1>   0.0800 
 40 H        2.4940     5.2700    -2.7380 H     1 <1>   0.0800 
 41 H        8.0300    -3.0580     1.2110 H     1 <1>   0.0800 
 42 H        7.0280    -2.5160     2.5330 H     1 <1>   0.0800 
 43 H        7.0910    -0.5380    -0.3830 H     1 <1>   0.3700 
 44 H        8.8570     1.5090     0.8700 H     1 <1>   0.0800 
 45 H        6.5480     1.9000     1.5340 H     1 <1>   0.0800 
 46 H        6.0030     1.7310    -0.1180 H     1 <1>   0.0800 
 47 H        7.8140     1.1590    -1.9530 H     1 <1>   0.0800 
 48 H        9.4710     0.9870    -1.4260 H     1 <1>   0.0800 
 49 H        7.7950     3.9160     0.9630 H     1 <1>   0.0800 
 50 H        6.1400     4.1050     0.4670 H     1 <1>   0.0800 
 51 H        9.0510     3.1800    -2.5240 H     1 <1>   0.0800 
 52 H        9.5920     3.3570    -0.8800 H     1 <1>   0.0800 
 53 H        7.7250     4.8800    -1.2850 H     1 <1>   0.0800 
 54 H        6.7310     3.5690    -1.8520 H     1 <1>   0.0800 
@<TRIPOS>BOND
  1   1   2  2   
  2   1   3  2   
  3   1   4  am  
  4   1   5  1   
  5   4   6  1   
  6   4   7  1   
  7   5   8  ar  
  8   5   9  ar  
  9   6  10  1   
 10   6  27  1   
 11   6  28  1   
 12   7  11  1   
 13   7  29  1   
 14   7  30  1   
 15   8  12  ar  
 16   8  31  1   
 17   9  13  ar  
 18   9  32  1   
 19  10  14  1   
 20  10  33  1   
 21  10  34  1   
 22  11  14  1   
 23  11  35  1   
 24  11  36  1   
 25  12  15  ar  
 26  12  37  1   
 27  13  15  ar  
 28  13  38  1   
 29  14  39  1   
 30  14  40  1   
 31  15  16  1   
 32  16  17  1   
 33  17  18  1   
 34  17  41  1   
 35  17  42  1   
 36  18  19  2   
 37  18  20  am  
 38  20  21  1   
 39  20  43  1   
 40  21  22  1   
 41  21  23  1   
 42  21  44  1   
 43  22  24  1   
 44  22  45  1   
 45  22  46  1   
 46  23  25  1   
 47  23  47  1   
 48  23  48  1   
 49  24  26  1   
 50  24  49  1   
 51  24  50  1   
 52  25  26  1   
 53  25  51  1   
 54  25  52  1   
 55  26  53  1   
 56  26  54  1   
@<TRIPOS>SUBSTRUCTURE
  1 ****   5 GROUP 4 **** **** 0

# MOE 2024.06 (io_trps.svl 2023.06)
