@<TRIPOS>MOLECULE
NONAME
41 43 1 0 0 
SMALL
USER_CHARGES


@<TRIPOS>ATOM
  1 O       -0.0240     0.6390     1.1990 O.2   1 <1>  -0.5700 
  2 C        0.1450     1.2690     0.1690 C.2   1 <1>   0.6300 
  3 N        1.4060     1.2540    -0.3800 N.am  1 <1>  -0.7300 
  4 C       -0.9300     2.0370    -0.4740 C.2   1 <1>   0.6560 
  5 C        2.5900     0.5550     0.1470 C.3   1 <1>   0.2200 
  6 O       -0.6390     2.8570    -1.3350 O.2   1 <1>  -0.5700 
  7 C       -2.3190     1.8540    -0.1260 C.2   1 <1>  -0.0860 
  8 C        3.6590     1.5920     0.5030 C.3   1 <1>  -0.1600 
  9 C        3.0970    -0.4250    -0.9160 C.3   1 <1>  -0.1600 
 10 C       -2.9610     0.5930     0.0590 C.ar  1 <1>   0.0000 
 11 C       -3.2980     2.8020     0.0600 C.2   1 <1>  -0.3320 
 12 C        4.9610     0.9140     0.9560 C.3   1 <1>  -0.1600 
 13 C        4.3980    -1.1080    -0.4660 C.3   1 <1>  -0.1600 
 14 C       -4.2950     0.8520     0.3520 C.ar  1 <1>  -0.1520 
 15 C       -2.5370    -0.7400    -0.0130 C.ar  1 <1>  -0.1500 
 16 N       -4.4790     2.2070     0.3500 N.pl3 1 <1>   0.0330 
 17 C       -3.1830     4.3160    -0.0220 C.3   1 <1>  -0.0600 
 18 C        5.4710    -0.0720    -0.1040 C.3   1 <1>  -0.1600 
 19 C       -5.2080    -0.1780     0.5840 C.ar  1 <1>  -0.1500 
 20 C       -3.4340    -1.7600     0.2140 C.ar  1 <1>  -0.1500 
 21 C       -4.7710    -1.4800     0.5130 C.ar  1 <1>  -0.1500 
 22 H        1.5650     1.8350    -1.2070 H     1 <1>   0.3700 
 23 H        2.3260     0.0030     1.0350 H     1 <1>   0.0800 
 24 H        3.2930     2.2210     1.2950 H     1 <1>   0.0800 
 25 H        3.8660     2.2070    -0.3550 H     1 <1>   0.0800 
 26 H        3.2800     0.1020    -1.8360 H     1 <1>   0.0800 
 27 H        2.3470    -1.1750    -1.0950 H     1 <1>   0.0800 
 28 H        4.7840     0.3860     1.8780 H     1 <1>   0.0800 
 29 H        5.7110     1.6630     1.1440 H     1 <1>   0.0800 
 30 H        4.7620    -1.7460    -1.2530 H     1 <1>   0.0800 
 31 H        4.1960    -1.7260     0.3930 H     1 <1>   0.0800 
 32 H       -1.5120    -0.9660    -0.2410 H     1 <1>   0.1500 
 33 H       -5.3730     2.6730     0.5340 H     1 <1>   0.2700 
 34 H       -2.1660     4.6190    -0.1920 H     1 <1>   0.0800 
 35 H       -3.5180     4.7640     0.8970 H     1 <1>   0.0800 
 36 H       -3.7850     4.6870    -0.8320 H     1 <1>   0.0800 
 37 H        6.3470    -0.5760     0.2660 H     1 <1>   0.0800 
 38 H        5.7540     0.4720    -0.9890 H     1 <1>   0.0800 
 39 H       -6.2340     0.0500     0.8120 H     1 <1>   0.1500 
 40 H       -3.1110    -2.7850     0.1640 H     1 <1>   0.1500 
 41 H       -5.4520    -2.2940     0.6880 H     1 <1>   0.1500 
@<TRIPOS>BOND
  1   1   2  2   
  2   2   3  am  
  3   2   4  1   
  4   3   5  1   
  5   3  22  1   
  6   4   6  2   
  7   4   7  1   
  8   5   8  1   
  9   5   9  1   
 10   5  23  1   
 11   7  10  1   
 12   7  11  2   
 13   8  12  1   
 14   8  24  1   
 15   8  25  1   
 16   9  13  1   
 17   9  26  1   
 18   9  27  1   
 19  10  14  ar  
 20  10  15  ar  
 21  11  16  1   
 22  11  17  1   
 23  12  18  1   
 24  12  28  1   
 25  12  29  1   
 26  13  18  1   
 27  13  30  1   
 28  13  31  1   
 29  14  16  1   
 30  14  19  ar  
 31  15  20  ar  
 32  15  32  1   
 33  16  33  1   
 34  17  34  1   
 35  17  35  1   
 36  17  36  1   
 37  18  37  1   
 38  18  38  1   
 39  19  21  ar  
 40  19  39  1   
 41  20  21  ar  
 42  20  40  1   
 43  21  41  1   
@<TRIPOS>SUBSTRUCTURE
  1 ****   2 GROUP 4 **** **** 0

# MOE 2024.06 (io_trps.svl 2023.06)
