@<TRIPOS>MOLECULE
NONAME
32 33 1 0 0 
SMALL
USER_CHARGES


@<TRIPOS>ATOM
  1 F       -1.5920     1.3130     1.4700 F     1 <1>  -0.1900 
  2 C       -0.8770     2.1800     0.8020 C.ar  1 <1>   0.1900 
  3 C       -1.2450     2.4810    -0.5040 C.ar  1 <1>  -0.1440 
  4 C        0.2060     2.7650     1.4370 C.ar  1 <1>  -0.1500 
  5 C       -0.4840     3.4140    -1.1970 C.ar  1 <1>  -0.1500 
  6 C       -2.4390     1.8020    -1.1460 C.3   1 <1>   0.4870 
  7 C        0.9590     3.6970     0.7410 C.ar  1 <1>  -0.1500 
  8 C        0.5970     4.0020    -0.5600 C.ar  1 <1>   0.1900 
  9 N       -3.6800     2.2010    -0.4270 N.4   1 <1>  -0.9590 
 10 F        1.3000     4.8810    -1.2180 F     1 <1>  -0.1900 
 11 C       -4.8520     1.3780    -0.8840 C.3   1 <1>   0.3430 
 12 C       -3.9460     3.6670    -0.5330 C.3   1 <1>   0.3430 
 13 C       -6.1440     1.7330    -0.1230 C.3   1 <1>   0.2000 
 14 C       -5.1810     4.0310     0.2960 C.3   1 <1>  -0.1600 
 15 O       -7.1900     1.0970    -0.7540 O.3   1 <1>  -0.6800 
 16 C       -6.4240     3.2390    -0.1430 C.3   1 <1>  -0.1600 
 17 H        0.4540     2.4980     2.4500 H     1 <1>   0.1500 
 18 H       -0.7040     3.6940    -2.2130 H     1 <1>   0.1500 
 19 H       -2.3080     0.7330    -1.0860 H     1 <1>   0.0800 
 20 H       -2.5070     2.0780    -2.1860 H     1 <1>   0.0800 
 21 H        1.8100     4.1790     1.1920 H     1 <1>   0.1500 
 22 H       -3.5060     1.9880     0.5670 H     1 <1>   0.4500 
 23 H       -4.6450     0.3300    -0.7420 H     1 <1>   0.0800 
 24 H       -5.0230     1.5540    -1.9330 H     1 <1>   0.0800 
 25 H       -4.1160     3.9350    -1.5640 H     1 <1>   0.0800 
 26 H       -3.0970     4.2270    -0.1730 H     1 <1>   0.0800 
 27 H       -6.0900     1.3640     0.8870 H     1 <1>   0.0800 
 28 H       -5.3770     5.0840     0.1840 H     1 <1>   0.0800 
 29 H       -4.9770     3.8540     1.3380 H     1 <1>   0.0800 
 30 H       -8.0400     1.2720    -0.2980 H     1 <1>   0.4000 
 31 H       -7.2450     3.4670     0.5160 H     1 <1>   0.0800 
 32 H       -6.6950     3.5420    -1.1410 H     1 <1>   0.0800 
@<TRIPOS>BOND
  1   1   2  1   
  2   2   3  ar  
  3   2   4  ar  
  4   3   5  ar  
  5   3   6  1   
  6   4   7  ar  
  7   4  17  1   
  8   5   8  ar  
  9   5  18  1   
 10   6   9  1   
 11   6  19  1   
 12   6  20  1   
 13   7   8  ar  
 14   7  21  1   
 15   8  10  1   
 16   9  11  1   
 17   9  12  1   
 18   9  22  1   
 19  11  13  1   
 20  11  23  1   
 21  11  24  1   
 22  12  14  1   
 23  12  25  1   
 24  12  26  1   
 25  13  15  1   
 26  13  16  1   
 27  13  27  1   
 28  14  16  1   
 29  14  28  1   
 30  14  29  1   
 31  15  30  1   
 32  16  31  1   
 33  16  32  1   
@<TRIPOS>SUBSTRUCTURE
  1 ****   9 GROUP 4 **** **** 0

# MOE 2024.06 (io_trps.svl 2023.06)
