@<TRIPOS>MOLECULE
NONAME
46 48 1 0 0 
SMALL
USER_CHARGES


@<TRIPOS>ATOM
  1 BR      -1.7050     0.4250    -1.2380 Br    1 <1>  -0.1110 
  2 C       -2.9400     0.6980     0.2190 C.ar  1 <1>   0.1110 
  3 C       -3.3940    -0.3780     0.9710 C.ar  1 <1>  -0.1440 
  4 C       -3.3490     1.9970     0.4590 C.ar  1 <1>  -0.1500 
  5 C       -4.2950    -0.1150     1.9930 C.ar  1 <1>  -0.1500 
  6 C       -2.9460    -1.8120     0.7200 C.3   1 <1>   0.2540 
  7 C       -4.2460     2.2370     1.4840 C.ar  1 <1>  -0.1500 
  8 C       -4.7170     1.1810     2.2480 C.ar  1 <1>  -0.1500 
  9 N       -4.0250    -2.5900     0.0780 N.3   1 <1>  -0.8100 
 10 C       -4.3880    -2.0500    -1.2570 C.3   1 <1>   0.1100 
 11 C       -3.6650    -4.0250    -0.0240 C.3   1 <1>   0.1100 
 12 C       -5.5220    -2.8570    -1.9350 C.3   1 <1>   0.3430 
 13 C       -4.7740    -4.8670    -0.7030 C.3   1 <1>   0.3430 
 14 N       -5.9470    -4.0110    -1.0810 N.4   1 <1>  -0.9590 
 15 C       -7.1090    -4.7680    -1.6120 C.3   1 <1>   0.4860 
 16 C       -7.5030    -5.8310    -0.6060 C.ar  1 <1>  -0.1430 
 17 C       -8.0920    -5.4730     0.5990 C.ar  1 <1>  -0.1500 
 18 C       -7.2660    -7.1700    -0.8800 C.ar  1 <1>  -0.1500 
 19 C       -8.4310    -6.4400     1.5310 C.ar  1 <1>  -0.1430 
 20 C       -7.6070    -8.1380     0.0470 C.ar  1 <1>  -0.1500 
 21 C       -8.1860    -7.7730     1.2490 C.ar  1 <1>  -0.1500 
 22 C       -9.0760    -6.0500     2.8490 C.3   1 <1>  -0.0970 
 23 H       -2.9730     2.8040    -0.1440 H     1 <1>   0.1500 
 24 H       -4.6730    -0.9230     2.5960 H     1 <1>   0.1500 
 25 H       -2.7060    -2.2580     1.6700 H     1 <1>   0.0800 
 26 H       -2.0550    -1.8440     0.1180 H     1 <1>   0.0800 
 27 H       -4.5770     3.2410     1.6890 H     1 <1>   0.1500 
 28 H       -5.4150     1.3690     3.0460 H     1 <1>   0.1500 
 29 H       -3.5230    -2.0460    -1.8990 H     1 <1>   0.0800 
 30 H       -4.7190    -1.0290    -1.1590 H     1 <1>   0.0800 
 31 H       -3.4910    -4.4190     0.9640 H     1 <1>   0.0800 
 32 H       -2.7500    -4.1350    -0.5810 H     1 <1>   0.0800 
 33 H       -5.1790    -3.2100    -2.8930 H     1 <1>   0.0800 
 34 H       -6.3580    -2.1990    -2.1060 H     1 <1>   0.0800 
 35 H       -5.0870    -5.6400    -0.0180 H     1 <1>   0.0800 
 36 H       -4.3700    -5.3500    -1.5770 H     1 <1>   0.0800 
 37 H       -6.2160    -3.5820    -0.1830 H     1 <1>   0.4500 
 38 H       -6.8530    -5.2320    -2.5500 H     1 <1>   0.0800 
 39 H       -7.9430    -4.1040    -1.7730 H     1 <1>   0.0800 
 40 H       -8.2950    -4.4410     0.8240 H     1 <1>   0.1500 
 41 H       -6.8210    -7.4780    -1.8110 H     1 <1>   0.1500 
 42 H       -7.4270    -9.1790    -0.1630 H     1 <1>   0.1500 
 43 H       -8.4500    -8.5350     1.9640 H     1 <1>   0.1500 
 44 H       -8.7950    -5.0520     3.1320 H     1 <1>   0.0800 
 45 H       -8.7680    -6.7210     3.6310 H     1 <1>   0.0800 
 46 H      -10.1470    -6.0960     2.7570 H     1 <1>   0.0800 
@<TRIPOS>BOND
  1   1   2  1   
  2   2   3  ar  
  3   2   4  ar  
  4   3   5  ar  
  5   3   6  1   
  6   4   7  ar  
  7   4  23  1   
  8   5   8  ar  
  9   5  24  1   
 10   6   9  1   
 11   6  25  1   
 12   6  26  1   
 13   7   8  ar  
 14   7  27  1   
 15   8  28  1   
 16   9  10  1   
 17   9  11  1   
 18  10  12  1   
 19  10  29  1   
 20  10  30  1   
 21  11  13  1   
 22  11  31  1   
 23  11  32  1   
 24  12  14  1   
 25  12  33  1   
 26  12  34  1   
 27  13  14  1   
 28  13  35  1   
 29  13  36  1   
 30  14  15  1   
 31  14  37  1   
 32  15  16  1   
 33  15  38  1   
 34  15  39  1   
 35  16  17  ar  
 36  16  18  ar  
 37  17  19  ar  
 38  17  40  1   
 39  18  20  ar  
 40  18  41  1   
 41  19  21  ar  
 42  19  22  1   
 43  20  21  ar  
 44  20  42  1   
 45  21  43  1   
 46  22  44  1   
 47  22  45  1   
 48  22  46  1   
@<TRIPOS>SUBSTRUCTURE
  1 ****   9 GROUP 4 **** **** 0

# MOE 2024.06 (io_trps.svl 2023.06)
