@<TRIPOS>MOLECULE
NONAME
23 23 1 0 0 
SMALL
USER_CHARGES


@<TRIPOS>ATOM
  1 O       -1.4700     1.7350     0.5060 O.3   1 <1>  -0.6800 
  2 C       -2.2420     2.1660    -0.5670 C.3   1 <1>   0.1200 
  3 C       -3.6380     1.5120    -0.5200 C.3   1 <1>  -0.0800 
  4 C       -3.5860    -0.0320    -0.5130 C.3   1 <1>   0.4230 
  5 C       -4.4940     2.0690     0.6420 C.3   1 <1>  -0.0220 
  6 N       -3.0640    -0.4780     0.7900 N.4   1 <1>  -0.8530 
  7 C       -4.9970    -0.6170    -0.6830 C.3   1 <1>  -0.0220 
  8 C       -5.7210     1.2030     0.8960 C.2   1 <1>  -0.2880 
  9 C       -5.9540     0.0250     0.3090 C.2   1 <1>  -0.2880 
 10 H       -0.6500     2.2770     0.5690 H     1 <1>   0.4000 
 11 H       -2.3290     3.2400    -0.5130 H     1 <1>   0.0800 
 12 H       -1.7260     1.9060    -1.4770 H     1 <1>   0.0800 
 13 H       -4.1350     1.7990    -1.4310 H     1 <1>   0.0800 
 14 H       -2.9440    -0.3790    -1.3070 H     1 <1>   0.0800 
 15 H       -3.9190     2.1290     1.5510 H     1 <1>   0.0800 
 16 H       -4.8120     3.0690     0.3990 H     1 <1>   0.0800 
 17 H       -3.7960    -0.3030     1.4880 H     1 <1>   0.4500 
 18 H       -2.2620     0.1400     1.0130 H     1 <1>   0.4500 
 19 H       -2.7790    -1.4580     0.8070 H     1 <1>   0.4500 
 20 H       -5.3530    -0.4280    -1.6810 H     1 <1>   0.0800 
 21 H       -4.9710    -1.6840    -0.5440 H     1 <1>   0.0800 
 22 H       -6.4110     1.6470     1.6000 H     1 <1>   0.1500 
 23 H       -6.8520    -0.5500     0.4830 H     1 <1>   0.1500 
@<TRIPOS>BOND
  1   1   2  1   
  2   1  10  1   
  3   2   3  1   
  4   2  11  1   
  5   2  12  1   
  6   3   4  1   
  7   3   5  1   
  8   3  13  1   
  9   4   6  1   
 10   4   7  1   
 11   4  14  1   
 12   5   8  1   
 13   5  15  1   
 14   5  16  1   
 15   6  17  1   
 16   6  18  1   
 17   6  19  1   
 18   7   9  1   
 19   7  20  1   
 20   7  21  1   
 21   8   9  2   
 22   8  22  1   
 23   9  23  1   
@<TRIPOS>SUBSTRUCTURE
  1 ****   3 GROUP 4 **** **** 0

# MOE 2024.06 (io_trps.svl 2023.06)
