@<TRIPOS>MOLECULE
NONAME
48 50 1 0 0 
SMALL
USER_CHARGES


@<TRIPOS>ATOM
  1 O       -1.6870     0.1790     1.5380 O.3   1 <1>  -0.3630 
  2 C       -2.2590     0.9560     0.5870 C.ar  1 <1>   0.0830 
  3 C       -2.0720    -1.1630     1.7410 C.3   1 <1>   0.0400 
  4 C       -3.3980     0.5950    -0.1260 C.ar  1 <1>  -0.1500 
  5 C       -1.6510     2.1730     0.3310 C.ar  1 <1>  -0.1500 
  6 C       -3.9230     1.4530    -1.0830 C.ar  1 <1>  -0.1430 
  7 C       -2.1620     3.0240    -0.6300 C.ar  1 <1>  -0.1500 
  8 C       -3.2950     2.6650    -1.3380 C.ar  1 <1>  -0.1500 
  9 C       -5.1820     1.0790    -1.8400 C.3   1 <1>   0.4860 
 10 N       -6.3480     1.2440    -0.9310 N.4   1 <1>  -0.9590 
 11 C       -7.5890     0.6790    -1.5300 C.3   1 <1>   0.3430 
 12 C       -6.5230     2.6660    -0.5090 C.3   1 <1>   0.3430 
 13 C       -8.7260     0.7410    -0.5120 C.3   1 <1>  -0.1600 
 14 C       -7.6450     2.7640     0.5260 C.3   1 <1>  -0.1600 
 15 C       -8.9620     2.1760    -0.0050 C.3   1 <1>  -0.0800 
 16 C      -10.0620     2.2320     1.0730 C.3   1 <1>  -0.0170 
 17 C      -11.3820     1.6840     0.5510 C.ar  1 <1>  -0.1430 
 18 C      -12.1470     2.4330    -0.3290 C.ar  1 <1>  -0.1500 
 19 C      -11.8290     0.4310     0.9430 C.ar  1 <1>  -0.1500 
 20 C      -13.3400     1.9320    -0.8210 C.ar  1 <1>  -0.1500 
 21 C      -13.0220    -0.0710     0.4520 C.ar  1 <1>  -0.1500 
 22 C      -13.7770     0.6780    -0.4320 C.ar  1 <1>  -0.1500 
 23 H       -1.4180    -1.5870     2.4820 H     1 <1>   0.0800 
 24 H       -1.9690    -1.7000     0.8150 H     1 <1>   0.0800 
 25 H       -3.0860    -1.1880     2.0950 H     1 <1>   0.0800 
 26 H       -3.8710    -0.3490     0.0660 H     1 <1>   0.1500 
 27 H       -0.7710     2.4450     0.8880 H     1 <1>   0.1500 
 28 H       -1.6730     3.9640    -0.8240 H     1 <1>   0.1500 
 29 H       -3.6720     3.3420    -2.0860 H     1 <1>   0.1500 
 30 H       -5.1070     0.0540    -2.1670 H     1 <1>   0.0800 
 31 H       -5.2920     1.7080    -2.7090 H     1 <1>   0.0800 
 32 H       -6.1320     0.7150    -0.0780 H     1 <1>   0.4500 
 33 H       -7.4290    -0.3460    -1.8240 H     1 <1>   0.0800 
 34 H       -7.8640     1.2450    -2.4060 H     1 <1>   0.0800 
 35 H       -6.7670     3.2750    -1.3640 H     1 <1>   0.0800 
 36 H       -5.6080     3.0400    -0.0750 H     1 <1>   0.0800 
 37 H       -8.5080     0.0840     0.3120 H     1 <1>   0.0800 
 38 H       -9.6190     0.3740    -0.9880 H     1 <1>   0.0800 
 39 H       -7.7900     3.8000     0.7780 H     1 <1>   0.0800 
 40 H       -7.3420     2.2540     1.4240 H     1 <1>   0.0800 
 41 H       -9.2890     2.7770    -0.8380 H     1 <1>   0.0800 
 42 H      -10.2130     3.2510     1.3850 H     1 <1>   0.0800 
 43 H       -9.7570     1.6740     1.9410 H     1 <1>   0.0800 
 44 H      -11.8230     3.4120    -0.6370 H     1 <1>   0.1500 
 45 H      -11.2560    -0.1620     1.6330 H     1 <1>   0.1500 
 46 H      -13.9310     2.5170    -1.5040 H     1 <1>   0.1500 
 47 H      -13.3650    -1.0440     0.7600 H     1 <1>   0.1500 
 48 H      -14.7040     0.2880    -0.8130 H     1 <1>   0.1500 
@<TRIPOS>BOND
  1   1   2  1   
  2   1   3  1   
  3   2   4  ar  
  4   2   5  ar  
  5   3  23  1   
  6   3  24  1   
  7   3  25  1   
  8   4   6  ar  
  9   4  26  1   
 10   5   7  ar  
 11   5  27  1   
 12   6   8  ar  
 13   6   9  1   
 14   7   8  ar  
 15   7  28  1   
 16   8  29  1   
 17   9  10  1   
 18   9  30  1   
 19   9  31  1   
 20  10  11  1   
 21  10  12  1   
 22  10  32  1   
 23  11  13  1   
 24  11  33  1   
 25  11  34  1   
 26  12  14  1   
 27  12  35  1   
 28  12  36  1   
 29  13  15  1   
 30  13  37  1   
 31  13  38  1   
 32  14  15  1   
 33  14  39  1   
 34  14  40  1   
 35  15  16  1   
 36  15  41  1   
 37  16  17  1   
 38  16  42  1   
 39  16  43  1   
 40  17  18  ar  
 41  17  19  ar  
 42  18  20  ar  
 43  18  44  1   
 44  19  21  ar  
 45  19  45  1   
 46  20  22  ar  
 47  20  46  1   
 48  21  22  ar  
 49  21  47  1   
 50  22  48  1   
@<TRIPOS>SUBSTRUCTURE
  1 ****  10 GROUP 4 **** **** 0

# MOE 2024.06 (io_trps.svl 2023.06)
