@<TRIPOS>MOLECULE
NONAME
57 59 1 0 0 
SMALL
USER_CHARGES


@<TRIPOS>ATOM
  1 O       -0.4980    -0.4960     0.0610 O.co2 1 <1>  -0.9000 
  2 C        0.4410    -1.0150    -0.5720 C.2   1 <1>   0.9790 
  3 O        1.1220    -0.2910    -1.3210 O.co2 1 <1>  -0.9000 
  4 C        0.7420    -2.4360    -0.4350 C.ar  1 <1>  -0.1790 
  5 C       -0.0170    -3.2710     0.3860 C.ar  1 <1>  -0.1500 
  6 C        1.8060    -3.0250    -1.1190 C.ar  1 <1>  -0.1500 
  7 C        0.2730    -4.6170     0.5230 C.ar  1 <1>  -0.1500 
  8 C        2.1030    -4.3690    -0.9870 C.ar  1 <1>  -0.1500 
  9 C        1.3410    -5.1790    -0.1590 C.ar  1 <1>  -0.1430 
 10 C        1.6960    -6.6500     0.0040 C.3   1 <1>   0.2640 
 11 O        0.5280    -7.4440    -0.0010 O.3   1 <1>  -0.3630 
 12 C        0.5730    -8.7970     0.1350 C.ar  1 <1>   0.0830 
 13 C       -0.6320    -9.5050     0.1270 C.ar  1 <1>   0.0830 
 14 C        1.7660    -9.4990     0.2820 C.ar  1 <1>  -0.1500 
 15 O       -1.7880    -8.7930    -0.0070 O.3   1 <1>  -0.3620 
 16 C       -0.6180   -10.8890     0.2530 C.ar  1 <1>  -0.1500 
 17 C        1.7590   -10.8740     0.4100 C.ar  1 <1>  -0.1500 
 18 C       -3.0470    -9.4200    -0.1030 C.3   1 <1>   0.0400 
 19 C        0.5710   -11.6040     0.3870 C.ar  1 <1>   0.0280 
 20 C        0.5200   -13.0370     0.5100 C.2   1 <1>  -0.1780 
 21 C        1.3530   -13.9990     0.0220 C.2   1 <1>   0.0790 
 22 C        2.4920   -13.6910    -0.7820 C.1   1 <1>   0.4920 
 23 C        1.1550   -15.4130     0.2520 C.2   1 <1>   0.6160 
 24 N        3.4250   -13.4930    -1.4080 N.1   1 <1>  -0.5570 
 25 O        0.1900   -15.7920     0.8880 O.2   1 <1>  -0.5700 
 26 N        2.0220   -16.3640    -0.2220 N.am  1 <1>  -0.7300 
 27 C        1.8970   -17.8200    -0.0330 C.3   1 <1>   0.2200 
 28 C        3.1280   -18.3260     0.7250 C.3   1 <1>  -0.1600 
 29 C        1.7780   -18.4860    -1.4080 C.3   1 <1>  -0.1600 
 30 C        3.1110   -19.8560     0.8550 C.3   1 <1>  -0.1600 
 31 C        1.7580   -20.0170    -1.2830 C.3   1 <1>  -0.1600 
 32 C        2.9880   -20.5270    -0.5200 C.3   1 <1>  -0.1600 
 33 H       -0.8490    -2.8440     0.9210 H     1 <1>   0.1500 
 34 H        2.4030    -2.4010    -1.7640 H     1 <1>   0.1500 
 35 H       -0.3380    -5.2280     1.1640 H     1 <1>   0.1500 
 36 H        2.9340    -4.7740    -1.5330 H     1 <1>   0.1500 
 37 H        2.1990    -6.7970     0.9430 H     1 <1>   0.0800 
 38 H        2.3220    -6.9750    -0.8080 H     1 <1>   0.0800 
 39 H        2.7130    -8.9940     0.3010 H     1 <1>   0.1500 
 40 H       -1.5350   -11.4460     0.2470 H     1 <1>   0.1500 
 41 H        2.7000   -11.3780     0.5400 H     1 <1>   0.1500 
 42 H       -3.7900    -8.6540    -0.2310 H     1 <1>   0.0800 
 43 H       -3.2370    -9.9650     0.8040 H     1 <1>   0.0800 
 44 H       -3.0470   -10.0740    -0.9570 H     1 <1>   0.0800 
 45 H       -0.3370   -13.3680     1.0750 H     1 <1>   0.1500 
 46 H        2.8420   -16.0860    -0.7670 H     1 <1>   0.3700 
 47 H        1.0140   -18.0450     0.5430 H     1 <1>   0.0800 
 48 H        4.0220   -18.0300     0.2030 H     1 <1>   0.0800 
 49 H        3.1450   -17.8870     1.7080 H     1 <1>   0.0800 
 50 H        0.8710   -18.1580    -1.8840 H     1 <1>   0.0800 
 51 H        2.6130   -18.1980    -2.0230 H     1 <1>   0.0800 
 52 H        4.0130   -20.1880     1.3400 H     1 <1>   0.0800 
 53 H        2.2780   -20.1510     1.4700 H     1 <1>   0.0800 
 54 H        0.8650   -20.3190    -0.7620 H     1 <1>   0.0800 
 55 H        1.7320   -20.4590    -2.2640 H     1 <1>   0.0800 
 56 H        2.9160   -21.5940    -0.3940 H     1 <1>   0.0800 
 57 H        3.8750   -20.3240    -1.0970 H     1 <1>   0.0800 
@<TRIPOS>BOND
  1   1   2  ar  
  2   2   3  ar  
  3   2   4  1   
  4   4   5  ar  
  5   4   6  ar  
  6   5   7  ar  
  7   5  33  1   
  8   6   8  ar  
  9   6  34  1   
 10   7   9  ar  
 11   7  35  1   
 12   8   9  ar  
 13   8  36  1   
 14   9  10  1   
 15  10  11  1   
 16  10  37  1   
 17  10  38  1   
 18  11  12  1   
 19  12  13  ar  
 20  12  14  ar  
 21  13  15  1   
 22  13  16  ar  
 23  14  17  ar  
 24  14  39  1   
 25  15  18  1   
 26  16  19  ar  
 27  16  40  1   
 28  17  19  ar  
 29  17  41  1   
 30  18  42  1   
 31  18  43  1   
 32  18  44  1   
 33  19  20  1   
 34  20  21  2   
 35  20  45  1   
 36  21  22  1   
 37  21  23  1   
 38  22  24  3   
 39  23  25  2   
 40  23  26  am  
 41  26  27  1   
 42  26  46  1   
 43  27  28  1   
 44  27  29  1   
 45  27  47  1   
 46  28  30  1   
 47  28  48  1   
 48  28  49  1   
 49  29  31  1   
 50  29  50  1   
 51  29  51  1   
 52  30  32  1   
 53  30  52  1   
 54  30  53  1   
 55  31  32  1   
 56  31  54  1   
 57  31  55  1   
 58  32  56  1   
 59  32  57  1   
@<TRIPOS>SUBSTRUCTURE
  1 ****  17 GROUP 4 **** **** 0

# MOE 2024.06 (io_trps.svl 2023.06)
