@<TRIPOS>MOLECULE
NONAME
51 54 1 0 0 
SMALL
USER_CHARGES


@<TRIPOS>ATOM
  1 S       -0.2980     0.0390    -1.3620 S.o2  1 <1>   1.4470 
  2 O       -1.0630     1.0240    -2.0960 O.2   1 <1>  -0.6500 
  3 O        0.2530    -1.0980    -2.0710 O.2   1 <1>  -0.6500 
  4 N        1.0200     0.8440    -0.6590 N.am  1 <1>  -0.8490 
  5 C       -1.2570    -0.5190     0.0740 C.ar  1 <1>  -0.0090 
  6 C        1.7090     1.6900    -1.6380 C.3   1 <1>   0.1960 
  7 C        1.9420    -0.0860    -0.0020 C.3   1 <1>   0.1960 
  8 C       -1.6250     0.3730     1.0750 C.ar  1 <1>  -0.1500 
  9 C       -1.6460    -1.8470     0.2120 C.ar  1 <1>  -0.1500 
 10 C        2.8050     2.5100    -0.9530 C.3   1 <1>  -0.1600 
 11 C        3.0390     0.6840     0.7380 C.3   1 <1>  -0.1600 
 12 C       -2.3490    -0.0430     2.1780 C.ar  1 <1>  -0.1500 
 13 C       -2.3710    -2.2720     1.3120 C.ar  1 <1>  -0.1500 
 14 C        3.8130     1.6050    -0.2200 C.3   1 <1>  -0.0190 
 15 C       -2.7220    -1.3690     2.2980 C.ar  1 <1>  -0.1500 
 16 C        4.8990     2.3970     0.5210 C.2   1 <1>   0.5690 
 17 O        4.5990     3.4730     0.9840 O.2   1 <1>  -0.5700 
 18 N        6.1710     1.9000     0.6650 N.am  1 <1>  -0.6600 
 19 C        7.2510     2.7700     1.2200 C.3   1 <1>   0.2840 
 20 C        6.6250     0.5190     0.3480 C.3   1 <1>   0.1400 
 21 C        8.5990     2.5500     0.5300 C.ar  1 <1>  -0.1430 
 22 C        7.6770     0.5770    -0.7580 C.3   1 <1>  -0.0170 
 23 C        8.8070     1.5250    -0.3880 C.ar  1 <1>  -0.1430 
 24 C        9.6460     3.4030     0.8440 C.ar  1 <1>  -0.1500 
 25 C       10.0520     1.3700    -0.9790 C.ar  1 <1>  -0.1500 
 26 C       10.8870     3.2430     0.2530 C.ar  1 <1>  -0.1500 
 27 C       11.0900     2.2250    -0.6590 C.ar  1 <1>  -0.1500 
 28 H        1.0060     2.3710    -2.0890 H     1 <1>   0.0800 
 29 H        2.1310     1.0780    -2.4180 H     1 <1>   0.0800 
 30 H        2.3860    -0.7420    -0.7330 H     1 <1>   0.0800 
 31 H        1.4030    -0.6910     0.7090 H     1 <1>   0.0800 
 32 H       -1.3360     1.4080     0.9860 H     1 <1>   0.1500 
 33 H       -1.3780    -2.5580    -0.5520 H     1 <1>   0.1500 
 34 H        2.3400     3.1870    -0.2560 H     1 <1>   0.0800 
 35 H        3.3200     3.1040    -1.6870 H     1 <1>   0.0800 
 36 H        3.7110    -0.0140     1.2030 H     1 <1>   0.0800 
 37 H        2.5870     1.2720     1.5190 H     1 <1>   0.0800 
 38 H       -2.6230     0.6660     2.9420 H     1 <1>   0.1500 
 39 H       -2.6620    -3.3050     1.4000 H     1 <1>   0.1500 
 40 H        4.2870     1.0060    -0.9740 H     1 <1>   0.0800 
 41 H       -3.2860    -1.6960     3.1540 H     1 <1>   0.1500 
 42 H        7.3540     2.5620     2.2700 H     1 <1>   0.0800 
 43 H        6.9790     3.8060     1.1120 H     1 <1>   0.0800 
 44 H        5.8100    -0.1120     0.0490 H     1 <1>   0.0800 
 45 H        7.0650     0.0900     1.2320 H     1 <1>   0.0800 
 46 H        7.2190     0.9110    -1.6720 H     1 <1>   0.0800 
 47 H        8.0690    -0.4110    -0.9220 H     1 <1>   0.0800 
 48 H        9.5010     4.2010     1.5510 H     1 <1>   0.1500 
 49 H       10.2190     0.5820    -1.6930 H     1 <1>   0.1500 
 50 H       11.6930     3.9110     0.5030 H     1 <1>   0.1500 
 51 H       12.0540     2.0990    -1.1210 H     1 <1>   0.1500 
@<TRIPOS>BOND
  1   1   2  2   
  2   1   3  2   
  3   1   4  am  
  4   1   5  1   
  5   4   6  1   
  6   4   7  1   
  7   5   8  ar  
  8   5   9  ar  
  9   6  10  1   
 10   6  28  1   
 11   6  29  1   
 12   7  11  1   
 13   7  30  1   
 14   7  31  1   
 15   8  12  ar  
 16   8  32  1   
 17   9  13  ar  
 18   9  33  1   
 19  10  14  1   
 20  10  34  1   
 21  10  35  1   
 22  11  14  1   
 23  11  36  1   
 24  11  37  1   
 25  12  15  ar  
 26  12  38  1   
 27  13  15  ar  
 28  13  39  1   
 29  14  16  1   
 30  14  40  1   
 31  15  41  1   
 32  16  17  2   
 33  16  18  am  
 34  18  19  1   
 35  18  20  1   
 36  19  21  1   
 37  19  42  1   
 38  19  43  1   
 39  20  22  1   
 40  20  44  1   
 41  20  45  1   
 42  21  23  ar  
 43  21  24  ar  
 44  22  23  1   
 45  22  46  1   
 46  22  47  1   
 47  23  25  ar  
 48  24  26  ar  
 49  24  48  1   
 50  25  27  ar  
 51  25  49  1   
 52  26  27  ar  
 53  26  50  1   
 54  27  51  1   
@<TRIPOS>SUBSTRUCTURE
  1 ****  14 GROUP 4 **** **** 0

# MOE 2024.06 (io_trps.svl 2023.06)
