@<TRIPOS>MOLECULE
NONAME
39 40 1 0 0 
SMALL
USER_CHARGES


@<TRIPOS>ATOM
  1 S       -0.0440     0.3950    -0.5740 S.3   1 <1>  -0.0800 
  2 C        0.2350    -1.1120     0.2460 C.2   1 <1>   0.4420 
  3 C       -1.7090     0.2380    -0.1360 C.2   1 <1>   0.1980 
  4 N       -0.8360    -1.5950     0.7510 N.2   1 <1>  -0.3380 
  5 N        1.4800    -1.7010     0.3310 N.am  1 <1>  -0.4940 
  6 N       -1.9400    -0.8220     0.5310 N.2   1 <1>  -0.3380 
  7 C       -2.6530     1.3430    -0.5850 C.3   1 <1>   0.0200 
  8 C        2.7000    -1.3050    -0.1510 C.2   1 <1>   0.5690 
  9 C       -4.1040     1.1090    -0.1430 C.3   1 <1>  -0.2400 
 10 O        2.8700    -0.2940    -0.7860 O.2   1 <1>  -0.5700 
 11 C        3.9440    -2.1720     0.1210 C.3   1 <1>   0.4040 
 12 N        5.2490    -1.4330    -0.0800 N.4   1 <1>  -0.9590 
 13 C        6.4270    -2.3450    -0.2370 C.3   1 <1>   0.3430 
 14 C        5.4780    -0.3740     0.9420 C.3   1 <1>   0.3430 
 15 C        7.7700    -1.5900    -0.1520 C.3   1 <1>  -0.0800 
 16 C        6.5840     0.5700     0.4540 C.3   1 <1>  -0.1600 
 17 C        7.6170    -0.0950    -0.4760 C.3   1 <1>  -0.1600 
 18 C        8.8080    -2.2330    -1.0810 C.3   1 <1>  -0.2400 
 19 H        1.4200    -2.5800     0.8430 H     1 <1>   0.3700 
 20 H       -2.6160     1.4110    -1.6570 H     1 <1>   0.0800 
 21 H       -2.3060     2.2770    -0.1790 H     1 <1>   0.0800 
 22 H       -4.4720     0.1850    -0.5540 H     1 <1>   0.0800 
 23 H       -4.7310     1.9130    -0.4830 H     1 <1>   0.0800 
 24 H       -4.1610     1.0540     0.9300 H     1 <1>   0.0800 
 25 H        3.9070    -3.0100    -0.5530 H     1 <1>   0.0800 
 26 H        3.8970    -2.5490     1.1280 H     1 <1>   0.0800 
 27 H        5.1350    -0.9060    -0.9640 H     1 <1>   0.4500 
 28 H        6.3630    -2.8360    -1.1950 H     1 <1>   0.0800 
 29 H        6.4120    -3.1070     0.5260 H     1 <1>   0.0800 
 30 H        5.7760    -0.8290     1.8720 H     1 <1>   0.0800 
 31 H        4.5760     0.1950     1.1110 H     1 <1>   0.0800 
 32 H        8.1380    -1.6800     0.8570 H     1 <1>   0.0800 
 33 H        7.0850     0.9660     1.3200 H     1 <1>   0.0800 
 34 H        6.1370     1.4070    -0.0550 H     1 <1>   0.0800 
 35 H        7.2980     0.0160    -1.5000 H     1 <1>   0.0800 
 36 H        8.5650     0.4100    -0.3800 H     1 <1>   0.0800 
 37 H        8.5010    -2.1660    -2.1110 H     1 <1>   0.0800 
 38 H        8.9520    -3.2700    -0.8320 H     1 <1>   0.0800 
 39 H        9.7570    -1.7350    -0.9810 H     1 <1>   0.0800 
@<TRIPOS>BOND
  1   1   2  1   
  2   1   3  1   
  3   2   4  2   
  4   2   5  1   
  5   3   6  2   
  6   3   7  1   
  7   4   6  1   
  8   5   8  am  
  9   5  19  1   
 10   7   9  1   
 11   7  20  1   
 12   7  21  1   
 13   8  10  2   
 14   8  11  1   
 15   9  22  1   
 16   9  23  1   
 17   9  24  1   
 18  11  12  1   
 19  11  25  1   
 20  11  26  1   
 21  12  13  1   
 22  12  14  1   
 23  12  27  1   
 24  13  15  1   
 25  13  28  1   
 26  13  29  1   
 27  14  16  1   
 28  14  30  1   
 29  14  31  1   
 30  15  17  1   
 31  15  18  1   
 32  15  32  1   
 33  16  17  1   
 34  16  33  1   
 35  16  34  1   
 36  17  35  1   
 37  17  36  1   
 38  18  37  1   
 39  18  38  1   
 40  18  39  1   
@<TRIPOS>SUBSTRUCTURE
  1 ****   8 GROUP 4 **** **** 0

# MOE 2024.06 (io_trps.svl 2023.06)
