@<TRIPOS>MOLECULE
NONAME
40 42 1 0 0 
SMALL
USER_CHARGES


@<TRIPOS>ATOM
  1 BR      -2.1590     1.1900     3.6640 Br    1 <1>  -0.0580 
  2 C       -2.7780     0.6020     1.9440 C.2   1 <1>   0.0980 
  3 S       -4.2770    -0.2970     1.9360 S.3   1 <1>  -0.0800 
  4 C       -2.2550     0.7630     0.7180 C.2   1 <1>  -0.1500 
  5 C       -4.1760    -0.4520     0.1810 C.2   1 <1>  -0.1400 
  6 C       -3.0650     0.1530    -0.2950 C.2   1 <1>  -0.1500 
  7 C       -5.3010    -1.2030    -0.5000 C.3   1 <1>   0.5230 
  8 N       -6.5800    -0.5120    -0.2010 N.4   1 <1>  -0.9590 
  9 C       -7.7610    -1.2990    -0.6440 C.3   1 <1>   0.4860 
 10 C       -6.6340     0.8760    -0.7500 C.3   1 <1>   0.3430 
 11 C       -9.0420    -0.5680    -0.2820 C.ar  1 <1>  -0.1430 
 12 C       -7.8040     1.6390    -0.1230 C.3   1 <1>  -0.0170 
 13 C       -9.0740     0.8000    -0.0500 C.ar  1 <1>  -0.1430 
 14 C      -10.2170    -1.2950    -0.1900 C.ar  1 <1>  -0.1500 
 15 C      -10.2740     1.4160     0.2680 C.ar  1 <1>  -0.1500 
 16 C      -11.4230    -0.6950     0.1250 C.ar  1 <1>   0.0830 
 17 C      -11.4600     0.6910     0.3610 C.ar  1 <1>   0.0830 
 18 O      -12.4710    -1.5700     0.1680 O.3   1 <1>  -0.3630 
 19 O      -12.6360     1.3070     0.6780 O.3   1 <1>  -0.3630 
 20 C      -13.8050    -1.1840     0.4110 C.3   1 <1>   0.0400 
 21 C      -12.7340     2.6920     0.9340 C.3   1 <1>   0.0400 
 22 H       -1.3390     1.2800     0.4880 H     1 <1>   0.1500 
 23 H       -2.7580     0.2030    -1.3280 H     1 <1>   0.1500 
 24 H       -5.3270    -2.2130    -0.1230 H     1 <1>   0.0800 
 25 H       -5.1300    -1.2360    -1.5640 H     1 <1>   0.0800 
 26 H       -6.6460    -0.4300     0.8220 H     1 <1>   0.4500 
 27 H       -7.7590    -2.2660    -0.1690 H     1 <1>   0.0800 
 28 H       -7.7310    -1.4430    -1.7120 H     1 <1>   0.0800 
 29 H       -6.7660     0.8380    -1.8200 H     1 <1>   0.0800 
 30 H       -5.7170     1.4040    -0.5390 H     1 <1>   0.0800 
 31 H       -7.9880     2.5280    -0.7000 H     1 <1>   0.0800 
 32 H       -7.5300     1.9480     0.8700 H     1 <1>   0.0800 
 33 H      -10.2240    -2.3570    -0.3660 H     1 <1>   0.1500 
 34 H      -10.2680     2.4750     0.4440 H     1 <1>   0.1500 
 35 H      -14.4230    -2.0610     0.3550 H     1 <1>   0.0800 
 36 H      -14.1060    -0.4750    -0.3400 H     1 <1>   0.0800 
 37 H      -13.8700    -0.7530     1.3940 H     1 <1>   0.0800 
 38 H      -13.7600     2.9170     1.1600 H     1 <1>   0.0800 
 39 H      -12.4290     3.2330     0.0560 H     1 <1>   0.0800 
 40 H      -12.1140     2.9370     1.7780 H     1 <1>   0.0800 
@<TRIPOS>BOND
  1   1   2  1   
  2   2   3  1   
  3   2   4  2   
  4   3   5  1   
  5   4   6  1   
  6   4  22  1   
  7   5   6  2   
  8   5   7  1   
  9   6  23  1   
 10   7   8  1   
 11   7  24  1   
 12   7  25  1   
 13   8   9  1   
 14   8  10  1   
 15   8  26  1   
 16   9  11  1   
 17   9  27  1   
 18   9  28  1   
 19  10  12  1   
 20  10  29  1   
 21  10  30  1   
 22  11  13  ar  
 23  11  14  ar  
 24  12  13  1   
 25  12  31  1   
 26  12  32  1   
 27  13  15  ar  
 28  14  16  ar  
 29  14  33  1   
 30  15  17  ar  
 31  15  34  1   
 32  16  17  ar  
 33  16  18  1   
 34  17  19  1   
 35  18  20  1   
 36  19  21  1   
 37  20  35  1   
 38  20  36  1   
 39  20  37  1   
 40  21  38  1   
 41  21  39  1   
 42  21  40  1   
@<TRIPOS>SUBSTRUCTURE
  1 ****  13 GROUP 4 **** **** 0

# MOE 2024.06 (io_trps.svl 2023.06)
