@<TRIPOS>MOLECULE
NONAME
33 35 1 0 0 
SMALL
USER_CHARGES


@<TRIPOS>ATOM
  1 S        0.4000    -0.2490    -0.9970 S.o2  1 <1>   1.4470 
  2 O       -0.6360     0.7360    -1.2130 O.2   1 <1>  -0.6500 
  3 O        0.7940    -1.1160    -2.0860 O.2   1 <1>  -0.6500 
  4 N       -0.1290    -1.2440     0.2670 N.am  1 <1>  -0.8490 
  5 C        1.8610     0.5640    -0.2910 C.ar  1 <1>  -0.0090 
  6 C       -1.4680    -1.7630     0.0530 C.3   1 <1>   0.1960 
  7 C        0.7030    -2.4090     0.5170 C.3   1 <1>   0.1960 
  8 C        3.0820     0.5530    -0.9560 C.ar  1 <1>  -0.1500 
  9 C        1.7850     1.2220     0.9420 C.ar  1 <1>  -0.1500 
 10 C       -1.6020    -2.9080     1.0510 C.3   1 <1>  -0.1600 
 11 C       -0.1650    -3.3050     1.3920 C.3   1 <1>  -0.1600 
 12 C        4.1640     1.1860    -0.3720 C.ar  1 <1>   0.0400 
 13 C        2.8830     1.8500     1.5100 C.ar  1 <1>  -0.1500 
 14 S        5.8010     1.3230    -0.9820 S.3   1 <1>  -0.0800 
 15 C        4.1000     1.8360     0.8480 C.ar  1 <1>   0.2270 
 16 C        6.2160     2.2340     0.4650 C.2   1 <1>   0.4340 
 17 N        5.2770     2.4210     1.3010 N.2   1 <1>  -0.5650 
 18 S        7.9030     2.8060     0.6250 S.3   1 <1>  -0.2860 
 19 C        8.7920     2.2390    -0.8940 C.3   1 <1>  -0.0100 
 20 H       -1.5570    -2.1420    -0.9540 H     1 <1>   0.0800 
 21 H       -2.2090    -0.9970     0.2130 H     1 <1>   0.0800 
 22 H        1.6220    -2.1360     1.0080 H     1 <1>   0.0800 
 23 H        0.9240    -2.9200    -0.4070 H     1 <1>   0.0800 
 24 H        3.1890     0.0630    -1.9090 H     1 <1>   0.1500 
 25 H        0.8400     1.2370     1.4610 H     1 <1>   0.1500 
 26 H       -2.1550    -3.7230     0.6190 H     1 <1>   0.0800 
 27 H       -2.1140    -2.5640     1.9320 H     1 <1>   0.0800 
 28 H        0.0400    -3.1030     2.4280 H     1 <1>   0.0800 
 29 H        0.0290    -4.3440     1.1910 H     1 <1>   0.0800 
 30 H        2.8120     2.3530     2.4590 H     1 <1>   0.1500 
 31 H        9.8090     2.5770    -0.8180 H     1 <1>   0.0800 
 32 H        8.3080     2.6770    -1.7480 H     1 <1>   0.0800 
 33 H        8.7490     1.1650    -0.9250 H     1 <1>   0.0800 
@<TRIPOS>BOND
  1   1   2  2   
  2   1   3  2   
  3   1   4  am  
  4   1   5  1   
  5   4   6  1   
  6   4   7  1   
  7   5   8  ar  
  8   5   9  ar  
  9   6  10  1   
 10   6  20  1   
 11   6  21  1   
 12   7  11  1   
 13   7  22  1   
 14   7  23  1   
 15   8  12  ar  
 16   8  24  1   
 17   9  13  ar  
 18   9  25  1   
 19  10  11  1   
 20  10  26  1   
 21  10  27  1   
 22  11  28  1   
 23  11  29  1   
 24  12  14  1   
 25  12  15  ar  
 26  13  15  ar  
 27  13  30  1   
 28  14  16  1   
 29  15  17  1   
 30  16  17  2   
 31  16  18  1   
 32  18  19  1   
 33  19  31  1   
 34  19  32  1   
 35  19  33  1   
@<TRIPOS>SUBSTRUCTURE
  1 ****   5 GROUP 4 **** **** 0

# MOE 2024.06 (io_trps.svl 2023.06)
