@<TRIPOS>MOLECULE
NONAME
60 63 1 0 0 
SMALL
USER_CHARGES


@<TRIPOS>ATOM
  1 O       -3.1620   -12.3030     0.9340 O.3   1 <1>  -0.3630 
  2 C       -3.4050   -11.3340     0.0180 C.ar  1 <1>   0.0820 
  3 C       -2.4160   -13.4160     0.4890 C.3   1 <1>   0.0400 
  4 C       -4.2010   -11.5400    -1.1140 C.ar  1 <1>   0.0820 
  5 C       -2.8260   -10.0980     0.2360 C.ar  1 <1>  -0.1500 
  6 O       -4.8370   -12.7090    -1.3730 O.3   1 <1>  -0.3630 
  7 C       -4.3580   -10.5110    -2.0260 C.ar  1 <1>  -0.1500 
  8 C       -2.9880    -9.0410    -0.6620 C.ar  1 <1>   0.0860 
  9 C       -5.8520   -13.0920    -0.4710 C.3   1 <1>   0.0400 
 10 C       -3.7610    -9.2850    -1.8010 C.ar  1 <1>  -0.1500 
 11 C       -2.3720    -7.7530    -0.4290 C.2   1 <1>   0.3030 
 12 N       -2.9220    -6.5920    -0.4870 N.2   1 <1>  -0.5030 
 13 C       -0.8920    -7.7850    -0.0910 C.3   1 <1>  -0.1790 
 14 N       -4.2510    -6.4550    -0.7370 N.pl3 1 <1>  -0.4870 
 15 C       -5.2050    -6.8630     0.3300 C.3   1 <1>   0.1100 
 16 C       -4.6360    -5.2070    -1.4410 C.3   1 <1>   0.1100 
 17 C       -5.3870    -5.7150     1.3380 C.3   1 <1>   0.3430 
 18 C       -4.8150    -4.0670    -0.4290 C.3   1 <1>   0.3430 
 19 N       -5.7880    -4.4280     0.6680 N.4   1 <1>  -0.9590 
 20 C       -5.9460    -3.3230     1.6530 C.3   1 <1>   0.4860 
 21 C       -6.5460    -2.1240     0.9440 C.ar  1 <1>  -0.1430 
 22 C       -5.7180    -1.0720     0.4720 C.ar  1 <1>   0.0000 
 23 C       -7.9040    -2.0890     0.7560 C.ar  1 <1>  -0.1500 
 24 C       -6.3270    -0.0130    -0.2410 C.ar  1 <1>   0.0000 
 25 C       -4.3150    -1.0110     0.6630 C.ar  1 <1>  -0.1500 
 26 C       -8.4990    -1.0260     0.0710 C.ar  1 <1>  -0.1500 
 27 C       -7.7240    -0.0160    -0.4190 C.ar  1 <1>  -0.1500 
 28 C       -5.5250     1.0240    -0.7570 C.ar  1 <1>  -0.1500 
 29 C       -3.5630     0.0110     0.1530 C.ar  1 <1>  -0.1500 
 30 C       -4.1730     1.0390    -0.5690 C.ar  1 <1>  -0.1500 
 31 H       -2.2110   -14.0440     1.3360 H     1 <1>   0.0800 
 32 H       -1.4950   -13.0670     0.0560 H     1 <1>   0.0800 
 33 H       -2.9870   -13.9620    -0.2410 H     1 <1>   0.0800 
 34 H       -2.2360    -9.9630     1.1230 H     1 <1>   0.1500 
 35 H       -4.9510   -10.6790    -2.9070 H     1 <1>   0.1500 
 36 H       -6.3240   -13.9790    -0.8540 H     1 <1>   0.0800 
 37 H       -6.5700   -12.2950    -0.3960 H     1 <1>   0.0800 
 38 H       -5.4180   -13.2960     0.4910 H     1 <1>   0.0800 
 39 H       -3.8890    -8.4920    -2.5180 H     1 <1>   0.1500 
 40 H       -0.3870    -8.5030    -0.7100 H     1 <1>   0.0800 
 41 H       -0.7540    -8.0480     0.9410 H     1 <1>   0.0800 
 42 H       -0.4490    -6.8200    -0.2600 H     1 <1>   0.0800 
 43 H       -6.1480    -7.1290    -0.1140 H     1 <1>   0.0800 
 44 H       -4.8280    -7.7290     0.8450 H     1 <1>   0.0800 
 45 H       -3.8620    -4.9450    -2.1410 H     1 <1>   0.0800 
 46 H       -5.5440    -5.3690    -1.9940 H     1 <1>   0.0800 
 47 H       -4.4490    -5.5770     1.8510 H     1 <1>   0.0800 
 48 H       -6.1280    -6.0000     2.0660 H     1 <1>   0.0800 
 49 H       -5.1530    -3.1860    -0.9500 H     1 <1>   0.0800 
 50 H       -3.8500    -3.8500    -0.0020 H     1 <1>   0.0800 
 51 H       -6.7000    -4.5610     0.2160 H     1 <1>   0.4500 
 52 H       -6.6150    -3.6300     2.4400 H     1 <1>   0.0800 
 53 H       -5.0000    -3.0730     2.1000 H     1 <1>   0.0800 
 54 H       -8.5520    -2.8680     1.1220 H     1 <1>   0.1500 
 55 H       -3.8080    -1.7710     1.2230 H     1 <1>   0.1500 
 56 H       -9.5680    -1.0150    -0.0640 H     1 <1>   0.1500 
 57 H       -8.1750     0.8040    -0.9510 H     1 <1>   0.1500 
 58 H       -6.0020     1.8170    -1.3070 H     1 <1>   0.1500 
 59 H       -2.4970     0.0470     0.3020 H     1 <1>   0.1500 
 60 H       -3.5660     1.8350    -0.9660 H     1 <1>   0.1500 
@<TRIPOS>BOND
  1   1   2  1   
  2   1   3  1   
  3   2   4  ar  
  4   2   5  ar  
  5   3  31  1   
  6   3  32  1   
  7   3  33  1   
  8   4   6  1   
  9   4   7  ar  
 10   5   8  ar  
 11   5  34  1   
 12   6   9  1   
 13   7  10  ar  
 14   7  35  1   
 15   8  10  ar  
 16   8  11  1   
 17   9  36  1   
 18   9  37  1   
 19   9  38  1   
 20  10  39  1   
 21  11  12  2   
 22  11  13  1   
 23  12  14  1   
 24  13  40  1   
 25  13  41  1   
 26  13  42  1   
 27  14  15  1   
 28  14  16  1   
 29  15  17  1   
 30  15  43  1   
 31  15  44  1   
 32  16  18  1   
 33  16  45  1   
 34  16  46  1   
 35  17  19  1   
 36  17  47  1   
 37  17  48  1   
 38  18  19  1   
 39  18  49  1   
 40  18  50  1   
 41  19  20  1   
 42  19  51  1   
 43  20  21  1   
 44  20  52  1   
 45  20  53  1   
 46  21  22  ar  
 47  21  23  ar  
 48  22  24  ar  
 49  22  25  ar  
 50  23  26  ar  
 51  23  54  1   
 52  24  27  ar  
 53  24  28  ar  
 54  25  29  ar  
 55  25  55  1   
 56  26  27  ar  
 57  26  56  1   
 58  27  57  1   
 59  28  30  ar  
 60  28  58  1   
 61  29  30  ar  
 62  29  59  1   
 63  30  60  1   
@<TRIPOS>SUBSTRUCTURE
  1 ****  14 GROUP 4 **** **** 0

# MOE 2024.06 (io_trps.svl 2023.06)
