@<TRIPOS>MOLECULE
NONAME
41 42 1 0 0 
SMALL
USER_CHARGES


@<TRIPOS>ATOM
  1 S        0.1670    -0.0450     0.0650 S.o2  1 <1>   1.3330 
  2 O        0.3090    -0.5110    -1.2960 O.2   1 <1>  -0.6500 
  3 O        0.7010    -0.8310     1.1550 O.2   1 <1>  -0.6500 
  4 N       -1.4840     0.1930     0.3580 N.am  1 <1>  -0.8490 
  5 C        0.8330     1.6170     0.1990 C.3   1 <1>  -0.0550 
  6 C       -2.1150    -1.0140     0.9320 C.3   1 <1>   0.1960 
  7 C       -2.2280     0.5920    -0.8570 C.3   1 <1>   0.1960 
  8 C        2.3530     1.6940    -0.0210 C.3   1 <1>  -0.1600 
  9 C       -3.6070    -0.8020     1.2600 C.3   1 <1>   0.2090 
 10 C       -3.7170     0.8670    -0.5660 C.3   1 <1>   0.2090 
 11 C        2.8620     3.1350     0.1030 C.3   1 <1>  -0.1600 
 12 N       -4.3690    -0.3150     0.0700 N.pl3 1 <1>  -0.8380 
 13 C        4.3750     3.2010    -0.1180 C.3   1 <1>  -0.2400 
 14 C       -5.7510    -0.2600     0.2000 C.ar  1 <1>   0.1000 
 15 C       -6.3660     0.6260     1.0840 C.ar  1 <1>  -0.1500 
 16 C       -6.5390    -1.1080    -0.5720 C.ar  1 <1>  -0.1500 
 17 C       -7.7450     0.6670     1.1960 C.ar  1 <1>  -0.1500 
 18 C       -7.9190    -1.0800    -0.4720 C.ar  1 <1>  -0.1500 
 19 C       -8.4970    -0.1900     0.4130 C.ar  1 <1>   0.1900 
 20 F       -9.8010    -0.1570     0.5150 F     1 <1>  -0.1900 
 21 H        0.6050     2.0010     1.1740 H     1 <1>   0.0800 
 22 H        0.3490     2.2470    -0.5220 H     1 <1>   0.0800 
 23 H       -1.6100    -1.2890     1.8420 H     1 <1>   0.0800 
 24 H       -2.0210    -1.8370     0.2420 H     1 <1>   0.0800 
 25 H       -2.1670    -0.1870    -1.5980 H     1 <1>   0.0800 
 26 H       -1.7890     1.4800    -1.2750 H     1 <1>   0.0800 
 27 H        2.5880     1.3090    -1.0000 H     1 <1>   0.0800 
 28 H        2.8460     1.0710     0.7070 H     1 <1>   0.0800 
 29 H       -3.6910    -0.0880     2.0600 H     1 <1>   0.0800 
 30 H       -4.0330    -1.7320     1.5950 H     1 <1>   0.0800 
 31 H       -4.2240     1.0950    -1.4880 H     1 <1>   0.0800 
 32 H       -3.8010     1.7200     0.0840 H     1 <1>   0.0800 
 33 H        2.6310     3.5190     1.0820 H     1 <1>   0.0800 
 34 H        2.3720     3.7590    -0.6260 H     1 <1>   0.0800 
 35 H        4.8890     2.6020     0.6140 H     1 <1>   0.0800 
 36 H        4.7170     4.2170    -0.0270 H     1 <1>   0.0800 
 37 H        4.6300     2.8420    -1.0990 H     1 <1>   0.0800 
 38 H       -5.7580     1.2810     1.6800 H     1 <1>   0.1500 
 39 H       -6.0530    -1.7860    -1.2500 H     1 <1>   0.1500 
 40 H       -8.2330     1.3440     1.8730 H     1 <1>   0.1500 
 41 H       -8.5350    -1.7310    -1.0650 H     1 <1>   0.1500 
@<TRIPOS>BOND
  1   1   2  2   
  2   1   3  2   
  3   1   4  am  
  4   1   5  1   
  5   4   6  1   
  6   4   7  1   
  7   5   8  1   
  8   5  21  1   
  9   5  22  1   
 10   6   9  1   
 11   6  23  1   
 12   6  24  1   
 13   7  10  1   
 14   7  25  1   
 15   7  26  1   
 16   8  11  1   
 17   8  27  1   
 18   8  28  1   
 19   9  12  1   
 20   9  29  1   
 21   9  30  1   
 22  10  12  1   
 23  10  31  1   
 24  10  32  1   
 25  11  13  1   
 26  11  33  1   
 27  11  34  1   
 28  12  14  1   
 29  13  35  1   
 30  13  36  1   
 31  13  37  1   
 32  14  15  ar  
 33  14  16  ar  
 34  15  17  ar  
 35  15  38  1   
 36  16  18  ar  
 37  16  39  1   
 38  17  19  ar  
 39  17  40  1   
 40  18  19  ar  
 41  18  41  1   
 42  19  20  1   
@<TRIPOS>SUBSTRUCTURE
  1 ****  10 GROUP 4 **** **** 0

# MOE 2024.06 (io_trps.svl 2023.06)
