@<TRIPOS>MOLECULE
NONAME
33 34 1 0 0 
SMALL
USER_CHARGES


@<TRIPOS>ATOM
  1 O       -0.3730     0.3140     0.0120 O.co2 1 <1>  -0.9000 
  2 C       -1.4580    -0.2990     0.1140 C.2   1 <1>   0.9790 
  3 O       -1.4110    -1.5400     0.1380 O.co2 1 <1>  -0.9000 
  4 C       -2.7370     0.4010     0.1940 C.ar  1 <1>  -0.1790 
  5 C       -2.8770     1.7920     0.0210 C.ar  1 <1>   0.1170 
  6 C       -3.9000    -0.3330     0.4490 C.ar  1 <1>  -0.1500 
  7 N       -1.7330     2.5610    -0.2290 N.am  1 <1>  -0.5470 
  8 C       -4.1350     2.3830     0.1010 C.ar  1 <1>  -0.1500 
  9 C       -5.1450     0.2590     0.5190 C.ar  1 <1>   0.0820 
 10 C       -1.4540     3.8810    -0.4140 C.2   1 <1>   0.6300 
 11 C       -5.2780     1.6370     0.3500 C.ar  1 <1>   0.0820 
 12 O       -6.2210    -0.5340     0.7630 O.3   1 <1>  -0.3630 
 13 O       -2.2800     4.7630    -0.4220 O.2   1 <1>  -0.5700 
 14 C        0.0040     4.2560    -0.6370 C.3   1 <1>  -0.1000 
 15 O       -6.5210     2.1920     0.4370 O.3   1 <1>  -0.3620 
 16 C       -7.0080    -0.8340    -0.3650 C.3   1 <1>   0.0400 
 17 C        1.1390     3.5020     0.0000 C.3   1 <1>  -0.2000 
 18 C        0.8040     4.8830     0.4690 C.3   1 <1>  -0.2000 
 19 C       -6.6990     3.5910     0.4200 C.3   1 <1>   0.0400 
 20 H       -3.8250    -1.3970     0.5930 H     1 <1>   0.1500 
 21 H       -0.8920     1.9510    -0.2310 H     1 <1>   0.3700 
 22 H       -4.2070     3.4390    -0.0380 H     1 <1>   0.1500 
 23 H        0.1580     4.6320    -1.6310 H     1 <1>   0.1000 
 24 H       -7.7940    -1.4990    -0.0580 H     1 <1>   0.0800 
 25 H       -6.3860    -1.3070    -1.1040 H     1 <1>   0.0800 
 26 H       -7.4250     0.0780    -0.7530 H     1 <1>   0.0800 
 27 H        2.0310     3.3410    -0.5810 H     1 <1>   0.1000 
 28 H        0.9210     2.6660     0.6450 H     1 <1>   0.1000 
 29 H        0.3370     5.0020     1.4320 H     1 <1>   0.1000 
 30 H        1.4660     5.6950     0.2270 H     1 <1>   0.1000 
 31 H       -7.7440     3.7970     0.5650 H     1 <1>   0.0800 
 32 H       -6.3790     3.9720    -0.5340 H     1 <1>   0.0800 
 33 H       -6.1250     4.0250     1.2190 H     1 <1>   0.0800 
@<TRIPOS>BOND
  1   1   2  ar  
  2   2   3  ar  
  3   2   4  1   
  4   4   5  ar  
  5   4   6  ar  
  6   5   7  1   
  7   5   8  ar  
  8   6   9  ar  
  9   6  20  1   
 10   7  10  am  
 11   7  21  1   
 12   8  11  ar  
 13   8  22  1   
 14   9  11  ar  
 15   9  12  1   
 16  10  13  2   
 17  10  14  1   
 18  11  15  1   
 19  12  16  1   
 20  14  17  1   
 21  14  18  1   
 22  14  23  1   
 23  15  19  1   
 24  16  24  1   
 25  16  25  1   
 26  16  26  1   
 27  17  18  1   
 28  17  27  1   
 29  17  28  1   
 30  18  29  1   
 31  18  30  1   
 32  19  31  1   
 33  19  32  1   
 34  19  33  1   
@<TRIPOS>SUBSTRUCTURE
  1 ****   5 GROUP 4 **** **** 0

# MOE 2024.06 (io_trps.svl 2023.06)
