@<TRIPOS>MOLECULE
NONAME
44 45 1 0 0 
SMALL
USER_CHARGES


@<TRIPOS>ATOM
  1 O        3.6530     7.3520     0.3520 O.2   1 <1>  -0.5700 
  2 C        3.0910     6.2930     0.1550 C.2   1 <1>   0.6340 
  3 O        3.8330     5.2110    -0.1000 O.3   1 <1>  -0.4300 
  4 C        1.6500     6.1420     0.1830 C.ar  1 <1>   0.0860 
  5 C        5.2410     5.2740    -0.1460 C.3   1 <1>   0.1200 
  6 C        0.8140     7.2300     0.4440 C.ar  1 <1>  -0.1500 
  7 C        1.0220     4.9140    -0.0460 C.ar  1 <1>  -0.1500 
  8 C        5.7670     3.8770    -0.4580 C.3   1 <1>  -0.2400 
  9 C       -0.5610     7.1020     0.4730 C.ar  1 <1>  -0.1500 
 10 C       -0.3530     4.7830    -0.0160 C.ar  1 <1>  -0.1500 
 11 C       -1.1750     5.8770     0.2400 C.ar  1 <1>   0.1170 
 12 N       -2.5740     5.8090     0.2930 N.am  1 <1>  -0.5470 
 13 C       -3.4400     4.8690    -0.2140 C.2   1 <1>   0.5690 
 14 O       -3.0860     3.9070    -0.8520 O.2   1 <1>  -0.5700 
 15 C       -4.9540     5.0210     0.0240 C.3   1 <1>   0.4040 
 16 N       -5.7280     3.7360    -0.1760 N.4   1 <1>  -0.9590 
 17 C       -7.1900     3.9630    -0.3500 C.3   1 <1>   0.3430 
 18 C       -5.4190     2.7310     0.8850 C.3   1 <1>   0.3430 
 19 C       -7.8750     2.6450    -0.7180 C.3   1 <1>  -0.1600 
 20 C       -6.0790     1.3960     0.5340 C.3   1 <1>  -0.1600 
 21 C       -7.5900     1.5460     0.3140 C.3   1 <1>  -0.1600 
 22 H        5.5980     5.6190     0.8100 H     1 <1>   0.0800 
 23 H        5.5250     5.9750    -0.9130 H     1 <1>   0.0800 
 24 H        1.2610     8.1930     0.6260 H     1 <1>   0.1500 
 25 H        1.6240     4.0450    -0.2510 H     1 <1>   0.1500 
 26 H        5.4650     3.1880     0.3110 H     1 <1>   0.0800 
 27 H        6.8410     3.8950    -0.4990 H     1 <1>   0.0800 
 28 H        5.3930     3.5440    -1.4090 H     1 <1>   0.0800 
 29 H       -1.1570     7.9730     0.6760 H     1 <1>   0.1500 
 30 H       -0.7770     3.8120    -0.1940 H     1 <1>   0.1500 
 31 H       -2.9880     6.6260     0.7400 H     1 <1>   0.3700 
 32 H       -5.3160     5.7610    -0.6690 H     1 <1>   0.0800 
 33 H       -5.1170     5.3880     1.0220 H     1 <1>   0.0800 
 34 H       -5.3550     3.3260    -1.0500 H     1 <1>   0.4500 
 35 H       -7.3650     4.6850    -1.1300 H     1 <1>   0.0800 
 36 H       -7.6130     4.3410     0.5680 H     1 <1>   0.0800 
 37 H       -5.7890     3.0750     1.8370 H     1 <1>   0.0800 
 38 H       -4.3520     2.5880     0.9610 H     1 <1>   0.0800 
 39 H       -7.5400     2.3290    -1.6910 H     1 <1>   0.0800 
 40 H       -8.9370     2.8060    -0.7820 H     1 <1>   0.0800 
 41 H       -5.9030     0.6970     1.3330 H     1 <1>   0.0800 
 42 H       -5.6160     0.9940    -0.3500 H     1 <1>   0.0800 
 43 H       -8.0040     0.6100    -0.0250 H     1 <1>   0.0800 
 44 H       -8.0670     1.7950     1.2470 H     1 <1>   0.0800 
@<TRIPOS>BOND
  1   1   2  2   
  2   2   3  1   
  3   2   4  1   
  4   3   5  1   
  5   4   6  ar  
  6   4   7  ar  
  7   5   8  1   
  8   5  22  1   
  9   5  23  1   
 10   6   9  ar  
 11   6  24  1   
 12   7  10  ar  
 13   7  25  1   
 14   8  26  1   
 15   8  27  1   
 16   8  28  1   
 17   9  11  ar  
 18   9  29  1   
 19  10  11  ar  
 20  10  30  1   
 21  11  12  1   
 22  12  13  am  
 23  12  31  1   
 24  13  14  2   
 25  13  15  1   
 26  15  16  1   
 27  15  32  1   
 28  15  33  1   
 29  16  17  1   
 30  16  18  1   
 31  16  34  1   
 32  17  19  1   
 33  17  35  1   
 34  17  36  1   
 35  18  20  1   
 36  18  37  1   
 37  18  38  1   
 38  19  21  1   
 39  19  39  1   
 40  19  40  1   
 41  20  21  1   
 42  20  41  1   
 43  20  42  1   
 44  21  43  1   
 45  21  44  1   
@<TRIPOS>SUBSTRUCTURE
  1 ****  10 GROUP 4 **** **** 0

# MOE 2024.06 (io_trps.svl 2023.06)
