@<TRIPOS>MOLECULE
NONAME
34 35 1 0 0 
SMALL
USER_CHARGES


@<TRIPOS>ATOM
  1 CL      -0.1580    -0.3790     0.7870 Cl    1 <1>  -0.1770 
  2 C       -1.8770    -0.2300     0.5450 C.ar  1 <1>   0.1770 
  3 C       -2.6060    -1.3300     0.1360 C.ar  1 <1>  -0.1500 
  4 C       -2.4940     0.9870     0.7630 C.ar  1 <1>  -0.1500 
  5 C       -3.9710    -1.2080    -0.0540 C.ar  1 <1>  -0.1500 
  6 C       -3.8600     1.0970     0.5700 C.ar  1 <1>  -0.1500 
  7 C       -4.6350     0.0060     0.1620 C.ar  1 <1>   0.0860 
  8 C       -6.0700     0.1460    -0.0280 C.2   1 <1>   0.5440 
  9 O       -6.5840     1.2390    -0.1670 O.2   1 <1>  -0.5700 
 10 N       -6.8910    -0.9420    -0.0460 N.am  1 <1>  -0.7300 
 11 C       -8.3680    -0.8930    -0.2320 C.3   1 <1>   0.2010 
 12 C       -9.0260    -2.2790    -0.1900 C.2   1 <1>   0.5690 
 13 O       -8.3190    -3.2360     0.0490 O.2   1 <1>  -0.5700 
 14 N      -10.3730    -2.4230    -0.4170 N.am  1 <1>  -0.6600 
 15 C      -11.0310    -3.7650    -0.4010 C.3   1 <1>   0.1400 
 16 C      -11.3340    -1.3080    -0.6840 C.3   1 <1>   0.1400 
 17 C      -12.2870    -3.7460     0.4840 C.3   1 <1>   0.1200 
 18 C      -12.5710    -1.4310     0.2220 C.3   1 <1>   0.1200 
 19 O      -13.1420    -2.7030     0.1060 O.3   1 <1>  -0.5600 
 20 H       -2.1050    -2.2670    -0.0310 H     1 <1>   0.1500 
 21 H       -1.9100     1.8330     1.0780 H     1 <1>   0.1500 
 22 H       -4.5260    -2.0690    -0.3820 H     1 <1>   0.1500 
 23 H       -4.3430     2.0450     0.7370 H     1 <1>   0.1500 
 24 H       -6.5460    -1.8870     0.1530 H     1 <1>   0.3700 
 25 H       -8.5790    -0.4330    -1.1800 H     1 <1>   0.0800 
 26 H       -8.7910    -0.2820     0.5450 H     1 <1>   0.0800 
 27 H      -10.3540    -4.5170    -0.0340 H     1 <1>   0.0800 
 28 H      -11.3090    -4.0350    -1.4050 H     1 <1>   0.0800 
 29 H      -11.6490    -1.3540    -1.7120 H     1 <1>   0.0800 
 30 H      -10.8760    -0.3500    -0.5200 H     1 <1>   0.0800 
 31 H      -12.0190    -3.6170     1.5180 H     1 <1>   0.0800 
 32 H      -12.8290    -4.6690     0.3790 H     1 <1>   0.0800 
 33 H      -13.3170    -0.7110    -0.0670 H     1 <1>   0.0800 
 34 H      -12.3090    -1.2630     1.2520 H     1 <1>   0.0800 
@<TRIPOS>BOND
  1   1   2  1   
  2   2   3  ar  
  3   2   4  ar  
  4   3   5  ar  
  5   3  20  1   
  6   4   6  ar  
  7   4  21  1   
  8   5   7  ar  
  9   5  22  1   
 10   6   7  ar  
 11   6  23  1   
 12   7   8  1   
 13   8   9  2   
 14   8  10  am  
 15  10  11  1   
 16  10  24  1   
 17  11  12  1   
 18  11  25  1   
 19  11  26  1   
 20  12  13  2   
 21  12  14  am  
 22  14  15  1   
 23  14  16  1   
 24  15  17  1   
 25  15  27  1   
 26  15  28  1   
 27  16  18  1   
 28  16  29  1   
 29  16  30  1   
 30  17  19  1   
 31  17  31  1   
 32  17  32  1   
 33  18  19  1   
 34  18  33  1   
 35  18  34  1   
@<TRIPOS>SUBSTRUCTURE
  1 ****  10 GROUP 4 **** **** 0

# MOE 2024.06 (io_trps.svl 2023.06)
