@<TRIPOS>MOLECULE
NONAME
46 47 1 0 0 
SMALL
USER_CHARGES


@<TRIPOS>ATOM
  1 O       -1.1530    -0.4030    -0.8760 O.2   1 <1>  -0.5700 
  2 C       -1.8090    -1.2470    -0.3200 C.2   1 <1>   0.5690 
  3 N       -1.3580    -2.4280     0.1560 N.am  1 <1>  -0.6600 
  4 C       -3.2850    -1.1010    -0.0870 C.3   1 <1>  -0.0990 
  5 C        0.0340    -2.9280    -0.0060 C.3   1 <1>   0.2200 
  6 C       -2.4440    -3.2420     0.7400 C.3   1 <1>   0.1400 
  7 C       -3.6040    -2.2430     0.8980 C.3   1 <1>  -0.0190 
  8 C        0.0660    -4.0620    -1.0440 C.3   1 <1>   0.1200 
  9 C        0.5870    -3.3490     1.3590 C.3   1 <1>  -0.2400 
 10 C       -4.9820    -2.8620     0.7110 C.2   1 <1>   0.5690 
 11 O        1.3680    -4.5460    -1.1890 O.3   1 <1>  -0.5600 
 12 O       -5.0780    -4.0630     0.6460 O.2   1 <1>  -0.5700 
 13 N       -6.0540    -2.0130     0.6540 N.am  1 <1>  -0.5470 
 14 C        1.4930    -5.5450    -2.1470 C.3   1 <1>   0.0400 
 15 C       -7.4240    -2.2620     0.4710 C.ar  1 <1>   0.1170 
 16 C       -8.3350    -1.2880     0.8600 C.ar  1 <1>  -0.1500 
 17 C       -7.9180    -3.4320    -0.0990 C.ar  1 <1>  -0.1500 
 18 C       -9.6960    -1.4750     0.6920 C.ar  1 <1>  -0.1500 
 19 C       -9.2770    -3.6210    -0.2670 C.ar  1 <1>  -0.1500 
 20 C      -10.1770    -2.6450     0.1280 C.ar  1 <1>  -0.1440 
 21 C      -11.6710    -2.8550    -0.0570 C.3   1 <1>  -0.0170 
 22 C      -12.1230    -2.3270    -1.4210 C.3   1 <1>  -0.2400 
 23 H       -3.7900    -1.2350    -1.0270 H     1 <1>   0.0800 
 24 H       -3.5100    -0.1340     0.3230 H     1 <1>   0.0800 
 25 H        0.6390    -2.1210    -0.3850 H     1 <1>   0.0800 
 26 H       -2.1630    -3.6580     1.6920 H     1 <1>   0.0800 
 27 H       -2.6950    -4.0350     0.0550 H     1 <1>   0.0800 
 28 H       -3.5510    -1.8560     1.9000 H     1 <1>   0.0800 
 29 H       -0.2670    -3.6870    -1.9960 H     1 <1>   0.0800 
 30 H       -0.5610    -4.8770    -0.7260 H     1 <1>   0.0800 
 31 H        0.0840    -4.2230     1.7280 H     1 <1>   0.0800 
 32 H        0.4870    -2.5430     2.0630 H     1 <1>   0.0800 
 33 H        1.6320    -3.5820     1.2630 H     1 <1>   0.0800 
 34 H       -5.8340    -1.0300     0.7980 H     1 <1>   0.3700 
 35 H        2.5250    -5.8500    -2.1790 H     1 <1>   0.0800 
 36 H        1.2000    -5.1560    -3.1070 H     1 <1>   0.0800 
 37 H        0.8760    -6.3830    -1.8710 H     1 <1>   0.0800 
 38 H       -7.9850    -0.3740     1.3020 H     1 <1>   0.1500 
 39 H       -7.2440    -4.2040    -0.4200 H     1 <1>   0.1500 
 40 H      -10.3830    -0.7060     1.0010 H     1 <1>   0.1500 
 41 H       -9.6330    -4.5350    -0.7100 H     1 <1>   0.1500 
 42 H      -12.2090    -2.3460     0.7240 H     1 <1>   0.0800 
 43 H      -11.9020    -3.9030     0.0180 H     1 <1>   0.0800 
 44 H      -11.9120    -1.2750    -1.5000 H     1 <1>   0.0800 
 45 H      -13.1800    -2.4800    -1.5460 H     1 <1>   0.0800 
 46 H      -11.6010    -2.8420    -2.2080 H     1 <1>   0.0800 
@<TRIPOS>BOND
  1   1   2  2   
  2   2   3  am  
  3   2   4  1   
  4   3   5  1   
  5   3   6  1   
  6   4   7  1   
  7   4  23  1   
  8   4  24  1   
  9   5   8  1   
 10   5   9  1   
 11   5  25  1   
 12   6   7  1   
 13   6  26  1   
 14   6  27  1   
 15   7  10  1   
 16   7  28  1   
 17   8  11  1   
 18   8  29  1   
 19   8  30  1   
 20   9  31  1   
 21   9  32  1   
 22   9  33  1   
 23  10  12  2   
 24  10  13  am  
 25  11  14  1   
 26  13  15  1   
 27  13  34  1   
 28  14  35  1   
 29  14  36  1   
 30  14  37  1   
 31  15  16  ar  
 32  15  17  ar  
 33  16  18  ar  
 34  16  38  1   
 35  17  19  ar  
 36  17  39  1   
 37  18  20  ar  
 38  18  40  1   
 39  19  20  ar  
 40  19  41  1   
 41  20  21  1   
 42  21  22  1   
 43  21  42  1   
 44  21  43  1   
 45  22  44  1   
 46  22  45  1   
 47  22  46  1   
@<TRIPOS>SUBSTRUCTURE
  1 ****  10 GROUP 4 **** **** 0

# MOE 2024.06 (io_trps.svl 2023.06)
