@<TRIPOS>MOLECULE
NONAME
30 32 1 0 0 
SMALL
USER_CHARGES


@<TRIPOS>ATOM
  1 S        0.0960    -1.5460    -0.3710 S.3   1 <1>  -0.2860 
  2 C       -1.4330    -0.7120    -0.8260 C.2   1 <1>   0.2420 
  3 C        1.3990    -0.5330    -1.2220 C.3   1 <1>   0.1310 
  4 N       -1.4620     0.3450    -1.5370 N.2   1 <1>  -0.3380 
  5 N       -2.6500    -1.1210    -0.4770 N.pl3 1 <1>   0.5930 
  6 C        2.7820    -1.0530    -0.8790 C.2   1 <1>   0.5090 
  7 N       -2.7560     0.6270    -1.6540 N.2   1 <1>   0.0000 
  8 N       -3.4770    -0.2390    -1.0320 N.2   1 <1>  -0.4180 
  9 C       -3.0740    -2.2420     0.2940 C.ar  1 <1>  -0.0230 
 10 O        3.5230    -1.4530    -1.7270 O.2   1 <1>  -0.5700 
 11 C        3.1860    -1.0170     0.5900 C.3   1 <1>  -0.1000 
 12 C       -4.0690    -3.0880    -0.1880 C.ar  1 <1>  -0.1500 
 13 C       -2.5160    -2.5130     1.5410 C.ar  1 <1>  -0.1500 
 14 C        3.5000     0.2810     1.2750 C.3   1 <1>  -0.2000 
 15 C        4.5950    -0.7050     1.0000 C.3   1 <1>  -0.2000 
 16 C       -4.4890    -4.1790     0.5510 C.ar  1 <1>  -0.1500 
 17 C       -2.9350    -3.6050     2.2790 C.ar  1 <1>  -0.1500 
 18 C       -3.9210    -4.4400     1.7850 C.ar  1 <1>  -0.1500 
 19 H        1.2830     0.4840    -0.8970 H     1 <1>   0.0800 
 20 H        1.2190    -0.6050    -2.2790 H     1 <1>   0.0800 
 21 H        2.6810    -1.7770     1.1600 H     1 <1>   0.1000 
 22 H       -4.5230    -2.8920    -1.1460 H     1 <1>   0.1500 
 23 H       -1.7510    -1.8720     1.9460 H     1 <1>   0.1500 
 24 H        3.1770     0.4220     2.2920 H     1 <1>   0.1000 
 25 H        3.4970     1.1970     0.7100 H     1 <1>   0.1000 
 26 H        5.3150    -0.4890     0.2290 H     1 <1>   0.1000 
 27 H        5.0250    -1.2520     1.8210 H     1 <1>   0.1000 
 28 H       -5.2600    -4.8260     0.1670 H     1 <1>   0.1500 
 29 H       -2.4960    -3.8080     3.2410 H     1 <1>   0.1500 
 30 H       -4.2480    -5.2890     2.3600 H     1 <1>   0.1500 
@<TRIPOS>BOND
  1   1   2  1   
  2   1   3  1   
  3   2   4  2   
  4   2   5  1   
  5   3   6  1   
  6   3  19  1   
  7   3  20  1   
  8   4   7  1   
  9   5   8  1   
 10   5   9  1   
 11   6  10  2   
 12   6  11  1   
 13   7   8  2   
 14   9  12  ar  
 15   9  13  ar  
 16  11  14  1   
 17  11  15  1   
 18  11  21  1   
 19  12  16  ar  
 20  12  22  1   
 21  13  17  ar  
 22  13  23  1   
 23  14  15  1   
 24  14  24  1   
 25  14  25  1   
 26  15  26  1   
 27  15  27  1   
 28  16  18  ar  
 29  16  28  1   
 30  17  18  ar  
 31  17  29  1   
 32  18  30  1   
@<TRIPOS>SUBSTRUCTURE
  1 ****   1 GROUP 4 **** **** 0

# MOE 2024.06 (io_trps.svl 2023.06)
