@<TRIPOS>MOLECULE
NONAME
31 31 1 0 0 
SMALL
USER_CHARGES


@<TRIPOS>ATOM
  1 CL       1.8600    -0.0470     3.3240 Cl    1 <1>  -0.1770 
  2 C        2.5120     0.4880     1.7940 C.ar  1 <1>   0.1770 
  3 C        1.7190     1.1710     0.8880 C.ar  1 <1>   0.1770 
  4 C        3.8350     0.2180     1.5040 C.ar  1 <1>  -0.1500 
  5 CL       0.0460     1.5230     1.2390 Cl    1 <1>  -0.1770 
  6 C        2.2530     1.5840    -0.3190 C.ar  1 <1>  -0.1500 
  7 C        4.4060     0.6290     0.2960 C.ar  1 <1>   0.0860 
  8 C        3.5800     1.3110    -0.6070 C.ar  1 <1>  -0.1500 
  9 C        5.8020     0.3470     0.0050 C.2   1 <1>   0.5440 
 10 O        6.3790    -0.5780     0.5420 O.2   1 <1>  -0.5700 
 11 N        6.5300     1.1280    -0.8520 N.am  1 <1>  -0.7300 
 12 C        7.8160     0.7490    -1.5180 C.3   1 <1>   0.1400 
 13 C        9.0510     0.9950    -0.6240 C.3   1 <1>   0.3430 
 14 N        9.0390     0.1220     0.5880 N.4   1 <1>  -0.9590 
 15 C        9.7130     0.7550     1.7580 C.3   1 <1>   0.2630 
 16 C        9.5700    -1.2470     0.3180 C.3   1 <1>   0.2630 
 17 H        4.4270    -0.3200     2.2240 H     1 <1>   0.1500 
 18 H        1.6280     2.1090    -1.0210 H     1 <1>   0.1500 
 19 H        3.9720     1.6280    -1.5580 H     1 <1>   0.1500 
 20 H        6.0710     1.9580    -1.2400 H     1 <1>   0.3700 
 21 H        7.9180     1.3300    -2.4180 H     1 <1>   0.0800 
 22 H        7.7780    -0.2880    -1.8050 H     1 <1>   0.0800 
 23 H        9.0480     2.0310    -0.3280 H     1 <1>   0.0800 
 24 H        9.9500     0.8160    -1.1910 H     1 <1>   0.0800 
 25 H        8.0260    -0.0110     0.8180 H     1 <1>   0.4500 
 26 H       10.7600     0.9070     1.5520 H     1 <1>   0.0800 
 27 H        9.6180     0.1250     2.6270 H     1 <1>   0.0800 
 28 H        9.2600     1.7090     1.9780 H     1 <1>   0.0800 
 29 H       10.6070    -1.2000     0.0300 H     1 <1>   0.0800 
 30 H        9.0060    -1.7150    -0.4720 H     1 <1>   0.0800 
 31 H        9.4820    -1.8590     1.2020 H     1 <1>   0.0800 
@<TRIPOS>BOND
  1   1   2  1   
  2   2   3  ar  
  3   2   4  ar  
  4   3   5  1   
  5   3   6  ar  
  6   4   7  ar  
  7   4  17  1   
  8   6   8  ar  
  9   6  18  1   
 10   7   8  ar  
 11   7   9  1   
 12   8  19  1   
 13   9  10  2   
 14   9  11  am  
 15  11  12  1   
 16  11  20  1   
 17  12  13  1   
 18  12  21  1   
 19  12  22  1   
 20  13  14  1   
 21  13  23  1   
 22  13  24  1   
 23  14  15  1   
 24  14  16  1   
 25  14  25  1   
 26  15  26  1   
 27  15  27  1   
 28  15  28  1   
 29  16  29  1   
 30  16  30  1   
 31  16  31  1   
@<TRIPOS>SUBSTRUCTURE
  1 ****   9 GROUP 4 **** **** 0

# MOE 2024.06 (io_trps.svl 2023.06)
