@<TRIPOS>MOLECULE
NONAME
42 43 1 0 0 
SMALL
USER_CHARGES


@<TRIPOS>ATOM
  1 S       -0.3270     0.4070    -1.3240 S.o2  1 <1>   1.4470 
  2 O       -0.6050     1.1060    -2.5610 O.2   1 <1>  -0.6500 
  3 O       -0.4530    -1.0320    -1.2780 O.2   1 <1>  -0.6500 
  4 N       -1.3590     1.0790    -0.1560 N.am  1 <1>  -0.8490 
  5 C        1.3280     0.8610    -0.7290 C.ar  1 <1>  -0.0090 
  6 C       -2.6710     0.4080    -0.0940 C.3   1 <1>   0.2760 
  7 C       -1.3610     2.5710    -0.2600 C.3   1 <1>   0.2570 
  8 C        1.6400     0.8340     0.6260 C.ar  1 <1>  -0.1500 
  9 C        2.3280     1.2370    -1.6180 C.ar  1 <1>  -0.1500 
 10 C       -3.6940     0.9270    -1.1210 C.3   1 <1>  -0.1600 
 11 C       -3.2460     0.4400     1.3290 C.3   1 <1>  -0.1600 
 12 C       -1.9070     3.3630     0.9310 C.2   1 <1>   0.6590 
 13 C        2.9000     1.1820     1.0800 C.ar  1 <1>  -0.1500 
 14 C        3.5920     1.5850    -1.1730 C.ar  1 <1>  -0.1500 
 15 C       -4.9960     0.1160    -1.0420 C.3   1 <1>  -0.1600 
 16 C       -4.5470    -0.3730     1.4080 C.3   1 <1>  -0.1600 
 17 O       -1.2760     3.5080     1.9470 O.2   1 <1>  -0.5700 
 18 O       -3.1110     3.9050     0.7700 O.3   1 <1>  -0.4300 
 19 C        3.8780     1.5590     0.1790 C.ar  1 <1>  -0.1500 
 20 C       -5.5730     0.1260     0.3810 C.3   1 <1>  -0.1600 
 21 C       -3.7280     4.6600     1.7940 C.3   1 <1>   0.0400 
 22 H       -2.5280    -0.6380    -0.3060 H     1 <1>   0.0800 
 23 H       -1.8850     2.8780    -1.1470 H     1 <1>   0.0800 
 24 H       -0.3460     2.9070    -0.3770 H     1 <1>   0.0800 
 25 H        0.8850     0.5400     1.3370 H     1 <1>   0.1500 
 26 H        2.1150     1.2600    -2.6740 H     1 <1>   0.1500 
 27 H       -3.2910     0.8440    -2.1140 H     1 <1>   0.0800 
 28 H       -3.9340     1.9560    -0.9270 H     1 <1>   0.0800 
 29 H       -3.4670     1.4430     1.6340 H     1 <1>   0.0800 
 30 H       -2.5250     0.0270     2.0130 H     1 <1>   0.0800 
 31 H        3.1180     1.1580     2.1350 H     1 <1>   0.1500 
 32 H        4.3520     1.8750    -1.8780 H     1 <1>   0.1500 
 33 H       -4.8020    -0.9000    -1.3420 H     1 <1>   0.0800 
 34 H       -5.7190     0.5270    -1.7270 H     1 <1>   0.0800 
 35 H       -4.9600    -0.2960     2.3990 H     1 <1>   0.0800 
 36 H       -4.3310    -1.4120     1.2210 H     1 <1>   0.0800 
 37 H        4.8600     1.8290     0.5300 H     1 <1>   0.1500 
 38 H       -6.4500    -0.4970     0.4170 H     1 <1>   0.0800 
 39 H       -5.8720     1.1290     0.6360 H     1 <1>   0.0800 
 40 H       -3.1060     5.5070     2.0240 H     1 <1>   0.0800 
 41 H       -3.8420     4.0370     2.6640 H     1 <1>   0.0800 
 42 H       -4.6900     4.9890     1.4440 H     1 <1>   0.0800 
@<TRIPOS>BOND
  1   1   2  2   
  2   1   3  2   
  3   1   4  am  
  4   1   5  1   
  5   4   6  1   
  6   4   7  1   
  7   5   8  ar  
  8   5   9  ar  
  9   6  10  1   
 10   6  11  1   
 11   6  22  1   
 12   7  12  1   
 13   7  23  1   
 14   7  24  1   
 15   8  13  ar  
 16   8  25  1   
 17   9  14  ar  
 18   9  26  1   
 19  10  15  1   
 20  10  27  1   
 21  10  28  1   
 22  11  16  1   
 23  11  29  1   
 24  11  30  1   
 25  12  17  2   
 26  12  18  1   
 27  13  19  ar  
 28  13  31  1   
 29  14  19  ar  
 30  14  32  1   
 31  15  20  1   
 32  15  33  1   
 33  15  34  1   
 34  16  20  1   
 35  16  35  1   
 36  16  36  1   
 37  18  21  1   
 38  19  37  1   
 39  20  38  1   
 40  20  39  1   
 41  21  40  1   
 42  21  41  1   
 43  21  42  1   
@<TRIPOS>SUBSTRUCTURE
  1 ****   4 GROUP 4 **** **** 0

# MOE 2024.06 (io_trps.svl 2023.06)
