@<TRIPOS>MOLECULE
NONAME
57 59 1 0 0 
SMALL
USER_CHARGES


@<TRIPOS>ATOM
  1 S        0.2410    -1.2240    -1.3820 S.3   1 <1>  -0.2860 
  2 C       -1.1140    -0.3410    -0.6140 C.2   1 <1>   0.5340 
  3 C       -0.5800    -2.5580    -2.3840 C.3   1 <1>   0.1310 
  4 O       -2.3220    -0.6100    -0.9700 O.3   1 <1>  -0.2800 
  5 N       -1.0220     0.5560     0.2870 N.2   1 <1>  -0.3380 
  6 C       -1.5080    -3.4200    -1.5340 C.2   1 <1>   0.5690 
  7 C       -3.0250     0.1720    -0.2120 C.2   1 <1>   0.2980 
  8 N       -2.2890     0.8940     0.5540 N.2   1 <1>  -0.3380 
  9 O       -2.6800    -3.4480    -1.8140 O.2   1 <1>  -0.5700 
 10 N       -1.0630    -4.1600    -0.4900 N.am  1 <1>  -0.7300 
 11 C       -4.5410     0.1130    -0.3320 C.3   1 <1>   0.3000 
 12 C        0.3070    -4.3190     0.0370 C.3   1 <1>   0.2200 
 13 O       -5.1600     1.0970     0.4740 O.3   1 <1>  -0.3630 
 14 C        0.7040    -5.8090     0.0490 C.3   1 <1>  -0.0800 
 15 C        0.3480    -3.7140     1.4450 C.3   1 <1>  -0.1600 
 16 C       -6.5090     1.2350     0.5010 C.ar  1 <1>   0.0830 
 17 C        2.0870    -5.9890     0.7010 C.3   1 <1>  -0.1600 
 18 C        0.7180    -6.4170    -1.3640 C.3   1 <1>  -0.2400 
 19 C        1.7290    -3.8990     2.0880 C.3   1 <1>  -0.1600 
 20 C       -7.3910     0.4220    -0.2050 C.ar  1 <1>  -0.1500 
 21 C       -7.0120     2.2570     1.2880 C.ar  1 <1>  -0.1500 
 22 C        2.1330    -5.3780     2.1080 C.3   1 <1>  -0.1600 
 23 C       -8.7540     0.6420    -0.1160 C.ar  1 <1>  -0.1500 
 24 C       -8.3760     2.4720     1.3740 C.ar  1 <1>  -0.1500 
 25 C       -9.2610     1.6670     0.6720 C.ar  1 <1>  -0.1430 
 26 C      -10.7640     1.9180     0.7770 C.3   1 <1>   0.0630 
 27 C      -11.4810     0.7040     1.3770 C.3   1 <1>  -0.2400 
 28 C      -11.3550     2.2780    -0.5900 C.3   1 <1>  -0.2400 
 29 H        0.1980    -3.1580    -2.8160 H     1 <1>   0.0800 
 30 H       -1.1370    -2.0690    -3.1620 H     1 <1>   0.0800 
 31 H       -1.7770    -4.6970     0.0050 H     1 <1>   0.3700 
 32 H       -4.8870    -0.8530    -0.0110 H     1 <1>   0.0800 
 33 H       -4.8270     0.2870    -1.3530 H     1 <1>   0.0800 
 34 H        1.0060    -3.7890    -0.5850 H     1 <1>   0.0800 
 35 H       -0.0140    -6.3470     0.6460 H     1 <1>   0.0800 
 36 H       -0.3920    -4.1900     2.0640 H     1 <1>   0.0800 
 37 H        0.1210    -2.6640     1.3930 H     1 <1>   0.0800 
 38 H        2.8390    -5.5200     0.0890 H     1 <1>   0.0800 
 39 H        2.3240    -7.0370     0.7660 H     1 <1>   0.0800 
 40 H        1.4110    -5.8910    -1.9970 H     1 <1>   0.0800 
 41 H       -0.2600    -6.3680    -1.8090 H     1 <1>   0.0800 
 42 H        1.0110    -7.4510    -1.3210 H     1 <1>   0.0800 
 43 H        1.7120    -3.5140     3.0940 H     1 <1>   0.0800 
 44 H        2.4600    -3.3340     1.5340 H     1 <1>   0.0800 
 45 H       -7.0450    -0.3820    -0.8250 H     1 <1>   0.1500 
 46 H       -6.3280     2.8820     1.8330 H     1 <1>   0.1500 
 47 H        3.1280    -5.4730     2.5090 H     1 <1>   0.0800 
 48 H        1.4660    -5.9210     2.7560 H     1 <1>   0.0800 
 49 H       -9.4250     0.0070    -0.6670 H     1 <1>   0.1500 
 50 H       -8.7420     3.2730     1.9920 H     1 <1>   0.1500 
 51 H      -10.9300     2.7540     1.4350 H     1 <1>   0.0800 
 52 H      -11.3930    -0.1520     0.7330 H     1 <1>   0.0800 
 53 H      -12.5250     0.9210     1.5200 H     1 <1>   0.0800 
 54 H      -11.0490     0.4610     2.3320 H     1 <1>   0.0800 
 55 H      -11.2640     1.4570    -1.2770 H     1 <1>   0.0800 
 56 H      -10.8360     3.1260    -0.9990 H     1 <1>   0.0800 
 57 H      -12.3960     2.5300    -0.4900 H     1 <1>   0.0800 
@<TRIPOS>BOND
  1   1   2  1   
  2   1   3  1   
  3   2   4  1   
  4   2   5  2   
  5   3   6  1   
  6   3  29  1   
  7   3  30  1   
  8   4   7  1   
  9   5   8  1   
 10   6   9  2   
 11   6  10  am  
 12   7   8  2   
 13   7  11  1   
 14  10  12  1   
 15  10  31  1   
 16  11  13  1   
 17  11  32  1   
 18  11  33  1   
 19  12  14  1   
 20  12  15  1   
 21  12  34  1   
 22  13  16  1   
 23  14  17  1   
 24  14  18  1   
 25  14  35  1   
 26  15  19  1   
 27  15  36  1   
 28  15  37  1   
 29  16  20  ar  
 30  16  21  ar  
 31  17  22  1   
 32  17  38  1   
 33  17  39  1   
 34  18  40  1   
 35  18  41  1   
 36  18  42  1   
 37  19  22  1   
 38  19  43  1   
 39  19  44  1   
 40  20  23  ar  
 41  20  45  1   
 42  21  24  ar  
 43  21  46  1   
 44  22  47  1   
 45  22  48  1   
 46  23  25  ar  
 47  23  49  1   
 48  24  25  ar  
 49  24  50  1   
 50  25  26  1   
 51  26  27  1   
 52  26  28  1   
 53  26  51  1   
 54  27  52  1   
 55  27  53  1   
 56  27  54  1   
 57  28  55  1   
 58  28  56  1   
 59  28  57  1   
@<TRIPOS>SUBSTRUCTURE
  1 ****   7 GROUP 4 **** **** 0

# MOE 2024.06 (io_trps.svl 2023.06)
