@<TRIPOS>MOLECULE
NONAME
48 50 1 0 0 
SMALL
USER_CHARGES


@<TRIPOS>ATOM
  1 O        0.2440    -0.8390    -0.0420 O.3   1 <1>  -0.3630 
  2 C        1.5200    -0.4980     0.2430 C.ar  1 <1>   0.0820 
  3 C       -0.1210    -0.7620    -1.4040 C.3   1 <1>   0.1200 
  4 C        2.5160    -1.4730     0.2200 C.ar  1 <1>  -0.1440 
  5 C        1.8220     0.8220     0.5700 C.ar  1 <1>  -0.1440 
  6 C       -1.6020    -1.1190    -1.5400 C.3   1 <1>   0.2000 
  7 C        3.8230    -1.1060     0.4940 C.ar  1 <1>  -0.1500 
  8 C        2.2000    -2.9290    -0.0940 C.3   1 <1>  -0.0960 
  9 C        3.1360     1.1660     0.8400 C.ar  1 <1>  -0.1500 
 10 C        0.7400     1.8910     0.6400 C.3   1 <1>  -0.0960 
 11 O       -1.9670    -0.9500    -2.8700 O.3   1 <1>  -0.6800 
 12 C       -2.4890    -0.2420    -0.6450 C.3   1 <1>   0.0960 
 13 C        4.1330     0.2070     0.7990 C.ar  1 <1>  -0.1500 
 14 N       -3.9140    -0.5570    -0.8530 N.pl3 1 <1>   0.0480 
 15 C       -4.5690    -1.6670    -0.4250 C.ar  1 <1>  -0.1520 
 16 C       -4.7980     0.1010    -1.6460 C.2   1 <1>   0.0360 
 17 C       -5.8240    -1.5990    -0.9950 C.ar  1 <1>   0.2270 
 18 C       -4.2120    -2.7370     0.3990 C.ar  1 <1>  -0.1500 
 19 N       -5.9420    -0.4780    -1.7600 N.2   1 <1>  -0.5650 
 20 C       -6.7510    -2.6080    -0.7510 C.ar  1 <1>  -0.1500 
 21 C       -5.1310    -3.7370     0.6380 C.ar  1 <1>  -0.1430 
 22 C       -6.4130    -3.6730     0.0580 C.ar  1 <1>  -0.1430 
 23 C       -4.7400    -4.9020     1.5370 C.3   1 <1>  -0.0970 
 24 C       -7.4430    -4.7650     0.3100 C.3   1 <1>  -0.0970 
 25 H        0.4870    -1.4540    -1.9590 H     1 <1>   0.0800 
 26 H        0.0610     0.2410    -1.7470 H     1 <1>   0.0800 
 27 H       -1.7340    -2.1590    -1.2930 H     1 <1>   0.0800 
 28 H        4.6090    -1.8400     0.4740 H     1 <1>   0.1500 
 29 H        2.1010    -3.0610    -1.1560 H     1 <1>   0.0800 
 30 H        1.2830    -3.2220     0.3830 H     1 <1>   0.0800 
 31 H        2.9830    -3.5730     0.2620 H     1 <1>   0.0800 
 32 H        3.3930     2.1810     1.0870 H     1 <1>   0.1500 
 33 H        0.4500     2.1850    -0.3520 H     1 <1>   0.0800 
 34 H        1.0940     2.7590     1.1660 H     1 <1>   0.0800 
 35 H       -0.1210     1.5110     1.1600 H     1 <1>   0.0800 
 36 H       -2.8830    -1.2730    -3.0140 H     1 <1>   0.4000 
 37 H       -2.3170     0.7960    -0.8630 H     1 <1>   0.0800 
 38 H       -2.2500    -0.4130     0.3890 H     1 <1>   0.0800 
 39 H        5.1510     0.4830     1.0100 H     1 <1>   0.1500 
 40 H       -4.5370     1.0230    -2.1360 H     1 <1>   0.1500 
 41 H       -3.2300    -2.7660     0.8360 H     1 <1>   0.1500 
 42 H       -7.7170    -2.5220    -1.2120 H     1 <1>   0.1500 
 43 H       -3.7320    -4.7920     1.8950 H     1 <1>   0.0800 
 44 H       -4.8050    -5.8260     0.9920 H     1 <1>   0.0800 
 45 H       -5.3950    -4.9480     2.3870 H     1 <1>   0.0800 
 46 H       -8.3600    -4.5540    -0.2100 H     1 <1>   0.0800 
 47 H       -7.6600    -4.8330     1.3610 H     1 <1>   0.0800 
 48 H       -7.0700    -5.7120    -0.0360 H     1 <1>   0.0800 
@<TRIPOS>BOND
  1   1   2  1   
  2   1   3  1   
  3   2   4  ar  
  4   2   5  ar  
  5   3   6  1   
  6   3  25  1   
  7   3  26  1   
  8   4   7  ar  
  9   4   8  1   
 10   5   9  ar  
 11   5  10  1   
 12   6  11  1   
 13   6  12  1   
 14   6  27  1   
 15   7  13  ar  
 16   7  28  1   
 17   8  29  1   
 18   8  30  1   
 19   8  31  1   
 20   9  13  ar  
 21   9  32  1   
 22  10  33  1   
 23  10  34  1   
 24  10  35  1   
 25  11  36  1   
 26  12  14  1   
 27  12  37  1   
 28  12  38  1   
 29  13  39  1   
 30  14  15  1   
 31  14  16  1   
 32  15  17  ar  
 33  15  18  ar  
 34  16  19  2   
 35  16  40  1   
 36  17  19  1   
 37  17  20  ar  
 38  18  21  ar  
 39  18  41  1   
 40  20  22  ar  
 41  20  42  1   
 42  21  22  ar  
 43  21  23  1   
 44  22  24  1   
 45  23  43  1   
 46  23  44  1   
 47  23  45  1   
 48  24  46  1   
 49  24  47  1   
 50  24  48  1   
@<TRIPOS>SUBSTRUCTURE
  1 ****  12 GROUP 4 **** **** 0

# MOE 2024.06 (io_trps.svl 2023.06)
