@<TRIPOS>MOLECULE
NONAME
29 29 1 0 0 
SMALL
USER_CHARGES


@<TRIPOS>ATOM
  1 BR       0.2770     0.0460    -0.1110 Br    1 <1>  -0.1110 
  2 C       -1.2230     1.2620    -0.1290 C.ar  1 <1>   0.1110 
  3 C       -2.5160     0.7870    -0.2920 C.ar  1 <1>  -0.1440 
  4 C       -0.9330     2.6030     0.0280 C.ar  1 <1>  -0.1500 
  5 C       -3.5470     1.7160    -0.2950 C.ar  1 <1>  -0.1500 
  6 C       -2.8420    -0.6890    -0.4710 C.3   1 <1>   0.2640 
  7 C       -1.9740     3.5260     0.0230 C.ar  1 <1>   0.0830 
  8 C       -3.2890     3.0780    -0.1380 C.ar  1 <1>   0.0830 
  9 O       -3.6810    -1.0730     0.5590 O.3   1 <1>  -0.6800 
 10 O       -1.7670     4.8660     0.1730 O.3   1 <1>  -0.3630 
 11 O       -4.2830     4.0130    -0.1330 O.3   1 <1>  -0.3630 
 12 C       -0.4730     5.4060     0.3130 C.3   1 <1>   0.3200 
 13 C       -5.6420     3.6560    -0.2170 C.3   1 <1>   0.1200 
 14 C       -0.5840     6.8870     0.4430 C.1   1 <1>  -0.2000 
 15 C       -6.4690     4.9350    -0.1390 C.3   1 <1>  -0.2400 
 16 C       -0.6740     8.0690     0.5460 C.1   1 <1>  -0.1770 
 17 H        0.0930     2.8910     0.1480 H     1 <1>   0.1500 
 18 H       -4.5500     1.3550    -0.4200 H     1 <1>   0.1500 
 19 H       -1.9720    -1.3180    -0.4390 H     1 <1>   0.0800 
 20 H       -3.3590    -0.8550    -1.4000 H     1 <1>   0.0800 
 21 H       -3.3070    -0.7710     1.4090 H     1 <1>   0.4000 
 22 H        0.0990     5.1510    -0.5610 H     1 <1>   0.0800 
 23 H       -0.0230     4.9890     1.1960 H     1 <1>   0.0800 
 24 H       -5.8750     3.0010     0.6050 H     1 <1>   0.0800 
 25 H       -5.8060     3.1550    -1.1560 H     1 <1>   0.0800 
 26 H       -6.2820     5.4370     0.7940 H     1 <1>   0.0800 
 27 H       -7.5150     4.6990    -0.2000 H     1 <1>   0.0800 
 28 H       -6.2140     5.5880    -0.9540 H     1 <1>   0.0800 
 29 H       -0.7690     9.1360     0.6390 H     1 <1>   0.1770 
@<TRIPOS>BOND
  1   1   2  1   
  2   2   3  ar  
  3   2   4  ar  
  4   3   5  ar  
  5   3   6  1   
  6   4   7  ar  
  7   4  17  1   
  8   5   8  ar  
  9   5  18  1   
 10   6   9  1   
 11   6  19  1   
 12   6  20  1   
 13   7   8  ar  
 14   7  10  1   
 15   8  11  1   
 16   9  21  1   
 17  10  12  1   
 18  11  13  1   
 19  12  14  1   
 20  12  22  1   
 21  12  23  1   
 22  13  15  1   
 23  13  24  1   
 24  13  25  1   
 25  14  16  3   
 26  15  26  1   
 27  15  27  1   
 28  15  28  1   
 29  16  29  1   
@<TRIPOS>SUBSTRUCTURE
  1 ****   7 GROUP 4 **** **** 0

# MOE 2024.06 (io_trps.svl 2023.06)
