@<TRIPOS>MOLECULE
NONAME
44 47 1 0 0 
SMALL
USER_CHARGES


@<TRIPOS>ATOM
  1 S        0.3590    -0.0450    -0.1530 S.3   1 <1>  -0.3710 
  2 C       -1.1730    -0.9410     0.0470 C.2   1 <1>   0.6510 
  3 C       -0.1500     1.7300    -0.1350 C.3   1 <1>   0.2140 
  4 N       -2.2240    -0.2170     0.1500 N.2   1 <1>  -0.6290 
  5 N       -1.1300    -2.3250     0.0600 N.am  1 <1>  -0.4200 
  6 C        1.0990     2.5810    -0.2910 C.ar  1 <1>  -0.1440 
  7 C       -3.4430    -0.8390     0.2700 C.ar  1 <1>   0.1790 
  8 C       -2.3440    -2.9920     0.0820 C.2   1 <1>   0.5440 
  9 C        0.1780    -3.0750     0.0370 C.3   1 <1>   0.2200 
 10 C        1.5470     2.9400    -1.5530 C.ar  1 <1>  -0.1500 
 11 C        1.8010     3.0050     0.8270 C.ar  1 <1>  -0.1500 
 12 C       -3.5530    -2.2320     0.2350 C.ar  1 <1>   0.0860 
 13 C       -4.5870    -0.0620     0.4210 C.ar  1 <1>  -0.1500 
 14 O       -2.4010    -4.2060    -0.0340 O.2   1 <1>  -0.5700 
 15 C        0.4200    -3.7790    -1.3040 C.3   1 <1>  -0.1600 
 16 C        0.3170    -4.1480     1.1310 C.3   1 <1>  -0.1600 
 17 C        2.6820     3.7190    -1.6960 C.ar  1 <1>  -0.1500 
 18 C        2.9360     3.7840     0.6860 C.ar  1 <1>  -0.1500 
 19 C       -4.8230    -2.8080     0.3500 C.ar  1 <1>  -0.1500 
 20 C       -5.8310    -0.6440     0.5360 C.ar  1 <1>  -0.1500 
 21 C        1.1460    -5.0750    -0.9500 C.3   1 <1>  -0.1600 
 22 C        0.5660    -5.4720     0.4040 C.3   1 <1>  -0.1600 
 23 C        3.3760     4.1430    -0.5760 C.ar  1 <1>  -0.1500 
 24 C       -5.9500    -2.0260     0.5000 C.ar  1 <1>  -0.1500 
 25 H       -0.6440     1.9160     0.8020 H     1 <1>   0.0800 
 26 H       -0.8370     1.8780    -0.9490 H     1 <1>   0.0800 
 27 H        1.0060    -2.4120     0.1960 H     1 <1>   0.0800 
 28 H        1.0160     2.6110    -2.4290 H     1 <1>   0.1500 
 29 H        1.4670     2.7270     1.8120 H     1 <1>   0.1500 
 30 H       -4.4840     1.0080     0.4460 H     1 <1>   0.1500 
 31 H        1.0070    -3.1700    -1.9680 H     1 <1>   0.0800 
 32 H       -0.5130    -4.0250    -1.7800 H     1 <1>   0.0800 
 33 H       -0.5420    -4.2120     1.7760 H     1 <1>   0.0800 
 34 H        1.1770    -3.9160     1.7340 H     1 <1>   0.0800 
 35 H        3.0250     3.9950    -2.6770 H     1 <1>   0.1500 
 36 H        3.4760     4.1100     1.5570 H     1 <1>   0.1500 
 37 H       -4.9130    -3.8810     0.3220 H     1 <1>   0.1500 
 38 H       -6.7100    -0.0330     0.6530 H     1 <1>   0.1500 
 39 H        2.2010    -4.8840    -0.8480 H     1 <1>   0.0800 
 40 H        0.9920    -5.8400    -1.6920 H     1 <1>   0.0800 
 41 H       -0.3750    -5.9740     0.2520 H     1 <1>   0.0800 
 42 H        1.2250    -6.1210     0.9550 H     1 <1>   0.0800 
 43 H        4.2580     4.7490    -0.6860 H     1 <1>   0.1500 
 44 H       -6.9210    -2.4830     0.5880 H     1 <1>   0.1500 
@<TRIPOS>BOND
  1   1   2  1   
  2   1   3  1   
  3   2   4  2   
  4   2   5  1   
  5   3   6  1   
  6   3  25  1   
  7   3  26  1   
  8   4   7  1   
  9   5   8  am  
 10   5   9  1   
 11   6  10  ar  
 12   6  11  ar  
 13   7  12  ar  
 14   7  13  ar  
 15   8  12  1   
 16   8  14  2   
 17   9  15  1   
 18   9  16  1   
 19   9  27  1   
 20  10  17  ar  
 21  10  28  1   
 22  11  18  ar  
 23  11  29  1   
 24  12  19  ar  
 25  13  20  ar  
 26  13  30  1   
 27  15  21  1   
 28  15  31  1   
 29  15  32  1   
 30  16  22  1   
 31  16  33  1   
 32  16  34  1   
 33  17  23  ar  
 34  17  35  1   
 35  18  23  ar  
 36  18  36  1   
 37  19  24  ar  
 38  19  37  1   
 39  20  24  ar  
 40  20  38  1   
 41  21  22  1   
 42  21  39  1   
 43  21  40  1   
 44  22  41  1   
 45  22  42  1   
 46  23  43  1   
 47  24  44  1   
@<TRIPOS>SUBSTRUCTURE
  1 ****   2 GROUP 4 **** **** 0

# MOE 2024.06 (io_trps.svl 2023.06)
