@<TRIPOS>MOLECULE
NONAME
28 28 1 0 0 
SMALL
USER_CHARGES


@<TRIPOS>ATOM
  1 O       -0.5780     0.0920    -0.0270 O.2   1 <1>  -0.5700 
  2 C       -1.5610     0.8050    -0.0130 C.2   1 <1>   0.7800 
  3 O       -1.4370     2.1330    -0.0070 O.3   1 <1>  -0.4300 
  4 N       -2.8200     0.2570     0.0010 N.am  1 <1>  -0.3680 
  5 C       -0.1670     2.7410    -0.0210 C.3   1 <1>   0.1200 
  6 N       -4.0510     0.8920     0.0060 N.2   1 <1>  -0.5120 
  7 C       -0.3660     4.2530    -0.0090 C.3   1 <1>  -0.2400 
  8 C       -5.1610     0.2400     0.0450 C.2   1 <1>   0.3030 
  9 C       -6.4540     0.9100     0.0000 C.ar  1 <1>   0.3960 
 10 C       -5.1630    -1.2940     0.1300 C.3   1 <1>  -0.1790 
 11 N       -7.5720     0.1860    -0.1950 N.ar  1 <1>  -0.6200 
 12 C       -6.5260     2.3010     0.1510 C.ar  1 <1>  -0.1500 
 13 C       -8.7210     0.8360    -0.2350 C.ar  1 <1>   0.1600 
 14 C       -7.7290     2.9680     0.1080 C.ar  1 <1>  -0.1500 
 15 C       -8.8560     2.2040    -0.0910 C.ar  1 <1>  -0.1500 
 16 H       -2.7890    -0.7620    -0.0120 H     1 <1>   0.3700 
 17 H        0.3760     2.4160     0.8500 H     1 <1>   0.0800 
 18 H        0.3510     2.4260    -0.9110 H     1 <1>   0.0800 
 19 H       -0.8970     4.5490     0.8780 H     1 <1>   0.0800 
 20 H       -0.9210     4.5590    -0.8780 H     1 <1>   0.0800 
 21 H        0.5890     4.7460    -0.0200 H     1 <1>   0.0800 
 22 H       -6.0410    -1.6480     0.6390 H     1 <1>   0.0800 
 23 H       -4.3230    -1.6690     0.6810 H     1 <1>   0.0800 
 24 H       -5.1540    -1.7060    -0.8620 H     1 <1>   0.0800 
 25 H       -5.6200     2.8610     0.3040 H     1 <1>   0.1500 
 26 H       -9.6080     0.2460    -0.3920 H     1 <1>   0.1500 
 27 H       -7.7850     4.0370     0.2250 H     1 <1>   0.1500 
 28 H       -9.8280     2.6610    -0.1360 H     1 <1>   0.1500 
@<TRIPOS>BOND
  1   1   2  2   
  2   2   3  1   
  3   2   4  am  
  4   3   5  1   
  5   4   6  1   
  6   4  16  1   
  7   5   7  1   
  8   5  17  1   
  9   5  18  1   
 10   6   8  2   
 11   7  19  1   
 12   7  20  1   
 13   7  21  1   
 14   8   9  1   
 15   8  10  1   
 16   9  11  ar  
 17   9  12  ar  
 18  10  22  1   
 19  10  23  1   
 20  10  24  1   
 21  11  13  ar  
 22  12  14  ar  
 23  12  25  1   
 24  13  15  ar  
 25  13  26  1   
 26  14  15  ar  
 27  14  27  1   
 28  15  28  1   
@<TRIPOS>SUBSTRUCTURE
  1 ****   6 GROUP 4 **** **** 0

# MOE 2024.06 (io_trps.svl 2023.06)
