@<TRIPOS>MOLECULE
NONAME
55 57 1 0 0 
SMALL
USER_CHARGES


@<TRIPOS>ATOM
  1 O       -9.5000     2.8560    -0.1200 O.3   1 <1>  -0.5600 
  2 C      -10.3510     3.5170    -1.0090 C.3   1 <1>   0.2640 
  3 C       -8.3810     2.2620    -0.7010 C.3   1 <1>   0.1200 
  4 C      -11.4490     4.1980    -0.2100 C.ar  1 <1>  -0.1440 
  5 C       -7.6150     1.5060     0.3970 C.3   1 <1>   0.2000 
  6 C      -11.6290     5.5710    -0.2860 C.ar  1 <1>  -0.1500 
  7 C      -12.2890     3.4480     0.6010 C.ar  1 <1>  -0.1500 
  8 O       -7.5630     2.3130     1.5350 O.3   1 <1>  -0.6800 
  9 C       -6.1810     1.0870    -0.0050 C.3   1 <1>   0.3430 
 10 C      -12.6370     6.1860     0.4370 C.ar  1 <1>  -0.1500 
 11 C      -13.2970     4.0620     1.3250 C.ar  1 <1>  -0.1500 
 12 N       -5.1680     2.0710     0.4940 N.4   1 <1>  -0.9590 
 13 C      -13.4710     5.4320     1.2430 C.ar  1 <1>  -0.1500 
 14 C       -4.9220     3.2020    -0.4410 C.3   1 <1>   0.3430 
 15 C       -3.9150     1.4140     0.9550 C.3   1 <1>   0.3430 
 16 C       -4.0400     4.2480     0.2370 C.3   1 <1>  -0.1600 
 17 C       -3.0200     2.4390     1.6530 C.3   1 <1>  -0.1600 
 18 C       -2.7200     3.6440     0.7470 C.3   1 <1>  -0.0800 
 19 C       -1.8590     4.6850     1.4880 C.3   1 <1>  -0.0170 
 20 C       -1.5120     5.8640     0.5920 C.ar  1 <1>  -0.1430 
 21 C       -0.5520     5.7280    -0.3990 C.ar  1 <1>  -0.1500 
 22 C       -2.1540     7.0830     0.7520 C.ar  1 <1>  -0.1500 
 23 C       -0.2440     6.7930    -1.2270 C.ar  1 <1>  -0.1500 
 24 C       -1.8470     8.1500    -0.0760 C.ar  1 <1>  -0.1500 
 25 C       -0.8920     8.0050    -1.0670 C.ar  1 <1>  -0.1500 
 26 H      -10.7780     2.7950    -1.6830 H     1 <1>   0.0800 
 27 H       -9.7810     4.2430    -1.5630 H     1 <1>   0.0800 
 28 H       -7.7740     3.0360    -1.1360 H     1 <1>   0.0800 
 29 H       -8.7050     1.5820    -1.4710 H     1 <1>   0.0800 
 30 H       -8.1810     0.6250     0.6490 H     1 <1>   0.0800 
 31 H      -10.9890     6.1730    -0.9070 H     1 <1>   0.1500 
 32 H      -12.1570     2.3830     0.6720 H     1 <1>   0.1500 
 33 H       -8.4520     2.7420     1.6220 H     1 <1>   0.4000 
 34 H       -6.1060     0.9610    -1.0720 H     1 <1>   0.0800 
 35 H       -5.9910     0.1280     0.4480 H     1 <1>   0.0800 
 36 H      -12.7730     7.2520     0.3740 H     1 <1>   0.1500 
 37 H      -13.9440     3.4740     1.9520 H     1 <1>   0.1500 
 38 H       -5.6440     2.4760     1.3270 H     1 <1>   0.4500 
 39 H      -14.2540     5.9090     1.8050 H     1 <1>   0.1500 
 40 H       -5.8550     3.6600    -0.7230 H     1 <1>   0.0800 
 41 H       -4.4320     2.8410    -1.3310 H     1 <1>   0.0800 
 42 H       -3.3920     0.9940     0.1110 H     1 <1>   0.0800 
 43 H       -4.1490     0.6170     1.6430 H     1 <1>   0.0800 
 44 H       -4.5840     4.6980     1.0490 H     1 <1>   0.0800 
 45 H       -3.8320     5.0250    -0.4790 H     1 <1>   0.0800 
 46 H       -2.0980     1.9580     1.9300 H     1 <1>   0.0800 
 47 H       -3.4990     2.7640     2.5600 H     1 <1>   0.0800 
 48 H       -2.1560     3.2970    -0.1030 H     1 <1>   0.0800 
 49 H       -0.9430     4.2280     1.8220 H     1 <1>   0.0800 
 50 H       -2.3770     5.0370     2.3640 H     1 <1>   0.0800 
 51 H       -0.0360     4.7930    -0.5320 H     1 <1>   0.1500 
 52 H       -2.8950     7.2120     1.5200 H     1 <1>   0.1500 
 53 H        0.5020     6.6820    -1.9950 H     1 <1>   0.1500 
 54 H       -2.3480     9.0930     0.0530 H     1 <1>   0.1500 
 55 H       -0.6530     8.8340    -1.7100 H     1 <1>   0.1500 
@<TRIPOS>BOND
  1   1   2  1   
  2   1   3  1   
  3   2   4  1   
  4   2  26  1   
  5   2  27  1   
  6   3   5  1   
  7   3  28  1   
  8   3  29  1   
  9   4   6  ar  
 10   4   7  ar  
 11   5   8  1   
 12   5   9  1   
 13   5  30  1   
 14   6  10  ar  
 15   6  31  1   
 16   7  11  ar  
 17   7  32  1   
 18   8  33  1   
 19   9  12  1   
 20   9  34  1   
 21   9  35  1   
 22  10  13  ar  
 23  10  36  1   
 24  11  13  ar  
 25  11  37  1   
 26  12  14  1   
 27  12  15  1   
 28  12  38  1   
 29  13  39  1   
 30  14  16  1   
 31  14  40  1   
 32  14  41  1   
 33  15  17  1   
 34  15  42  1   
 35  15  43  1   
 36  16  18  1   
 37  16  44  1   
 38  16  45  1   
 39  17  18  1   
 40  17  46  1   
 41  17  47  1   
 42  18  19  1   
 43  18  48  1   
 44  19  20  1   
 45  19  49  1   
 46  19  50  1   
 47  20  21  ar  
 48  20  22  ar  
 49  21  23  ar  
 50  21  51  1   
 51  22  24  ar  
 52  22  52  1   
 53  23  25  ar  
 54  23  53  1   
 55  24  25  ar  
 56  24  54  1   
 57  25  55  1   
@<TRIPOS>SUBSTRUCTURE
  1 ****  14 GROUP 4 **** **** 0

# MOE 2024.06 (io_trps.svl 2023.06)
