@<TRIPOS>MOLECULE
NONAME
43 45 1 0 0 
SMALL
USER_CHARGES


@<TRIPOS>ATOM
  1 S        0.1790    -0.0670    -0.9400 S.3   1 <1>  -0.0800 
  2 C        1.1440     1.1920    -0.1920 C.2   1 <1>   0.1040 
  3 C       -1.3160     0.7800    -0.5900 C.2   1 <1>  -0.1400 
  4 N        2.5220     1.0380    -0.0950 N.am  1 <1>  -0.4940 
  5 C        0.3420     2.1970     0.2740 C.2   1 <1>  -0.0860 
  6 C       -1.0630     1.9530     0.0230 C.2   1 <1>  -0.1810 
  7 C       -2.5960     0.0740    -1.0020 C.3   1 <1>   0.0200 
  8 C        3.4170     0.2760    -0.8160 C.2   1 <1>   0.5440 
  9 C        0.8550     3.3670     0.9360 C.2   1 <1>   0.7160 
 10 C       -2.1330     2.9690     0.4220 C.3   1 <1>   0.0210 
 11 C       -3.7470     0.4210    -0.0500 C.3   1 <1>  -0.1600 
 12 O        3.0790    -0.1950    -1.8820 O.2   1 <1>  -0.5700 
 13 C        4.7630     0.0440    -0.3250 C.ar  1 <1>   0.0860 
 14 O        0.3410     3.8230     1.9410 O.2   1 <1>  -0.5700 
 15 N        1.9660     3.9850     0.4300 N.am  1 <1>  -0.7300 
 16 C       -3.3480     2.9530    -0.5190 C.3   1 <1>  -0.1600 
 17 C       -4.3540     1.8170    -0.2660 C.3   1 <1>  -0.1600 
 18 C        5.4540     0.9210     0.5170 C.ar  1 <1>   0.1900 
 19 C        5.4580    -1.1130    -0.6940 C.ar  1 <1>  -0.1500 
 20 C        2.6370     5.1850     0.9910 C.3   1 <1>   0.0600 
 21 F        4.8930     2.0380     0.8960 F     1 <1>  -0.1900 
 22 C        6.7340     0.6810     0.9810 C.ar  1 <1>  -0.1500 
 23 C        6.7410    -1.3730    -0.2420 C.ar  1 <1>  -0.1500 
 24 C        7.3830    -0.4790     0.5980 C.ar  1 <1>  -0.1500 
 25 H        2.9630     1.6030     0.6350 H     1 <1>   0.3700 
 26 H       -2.4270    -0.9870    -0.9500 H     1 <1>   0.0800 
 27 H       -2.8450     0.3210    -2.0190 H     1 <1>   0.0800 
 28 H       -1.7110     3.9560     0.3630 H     1 <1>   0.0800 
 29 H       -2.4350     2.8060     1.4420 H     1 <1>   0.0800 
 30 H       -3.3890     0.3400     0.9620 H     1 <1>   0.0800 
 31 H       -4.5280    -0.3090    -0.1680 H     1 <1>   0.0800 
 32 H        2.2890     3.6700    -0.4890 H     1 <1>   0.3700 
 33 H       -2.9950     2.9040    -1.5350 H     1 <1>   0.0800 
 34 H       -3.8720     3.8870    -0.4160 H     1 <1>   0.0800 
 35 H       -4.9450     2.0620     0.6010 H     1 <1>   0.0800 
 36 H       -5.0270     1.7770    -1.1050 H     1 <1>   0.0800 
 37 H        4.9760    -1.8210    -1.3490 H     1 <1>   0.1500 
 38 H        2.2240     5.4320     1.9550 H     1 <1>   0.0800 
 39 H        2.4980     6.0220     0.3300 H     1 <1>   0.0800 
 40 H        3.6900     4.9940     1.1040 H     1 <1>   0.0800 
 41 H        7.2160     1.3910     1.6290 H     1 <1>   0.1500 
 42 H        7.2430    -2.2760    -0.5470 H     1 <1>   0.1500 
 43 H        8.3810    -0.6850     0.9470 H     1 <1>   0.1500 
@<TRIPOS>BOND
  1   1   2  1   
  2   1   3  1   
  3   2   4  1   
  4   2   5  2   
  5   3   6  2   
  6   3   7  1   
  7   4   8  am  
  8   4  25  1   
  9   5   6  1   
 10   5   9  1   
 11   6  10  1   
 12   7  11  1   
 13   7  26  1   
 14   7  27  1   
 15   8  12  2   
 16   8  13  1   
 17   9  14  2   
 18   9  15  am  
 19  10  16  1   
 20  10  28  1   
 21  10  29  1   
 22  11  17  1   
 23  11  30  1   
 24  11  31  1   
 25  13  18  ar  
 26  13  19  ar  
 27  15  20  1   
 28  15  32  1   
 29  16  17  1   
 30  16  33  1   
 31  16  34  1   
 32  17  35  1   
 33  17  36  1   
 34  18  21  1   
 35  18  22  ar  
 36  19  23  ar  
 37  19  37  1   
 38  20  38  1   
 39  20  39  1   
 40  20  40  1   
 41  22  24  ar  
 42  22  41  1   
 43  23  24  ar  
 44  23  42  1   
 45  24  43  1   
@<TRIPOS>SUBSTRUCTURE
  1 ****   2 GROUP 4 **** **** 0

# MOE 2024.06 (io_trps.svl 2023.06)
