@<TRIPOS>MOLECULE
NONAME
54 58 1 0 0 
SMALL
USER_CHARGES


@<TRIPOS>ATOM
  1 O       -0.9720     0.4230    -0.8480 O.2   1 <1>  -0.5700 
  2 C       -1.5420    -0.2270    -0.0040 C.2   1 <1>   0.5690 
  3 N       -2.2280     0.3510     1.0350 N.am  1 <1>  -0.5470 
  4 C       -1.4970    -1.7680    -0.1100 C.3   1 <1>   0.0610 
  5 C       -2.4310     1.6910     1.4000 C.ar  1 <1>   0.1170 
  6 C       -2.3180    -2.4770     0.9990 C.3   1 <1>  -0.1600 
  7 C       -0.0340    -2.2570     0.0020 C.3   1 <1>  -0.1600 
  8 C       -2.0650    -2.2200    -1.4760 C.3   1 <1>  -0.1600 
  9 C       -1.6470     2.7420     0.9320 C.ar  1 <1>  -0.1500 
 10 C       -3.4600     1.9850     2.2890 C.ar  1 <1>  -0.1500 
 11 C       -2.2730    -4.0280     0.8950 C.3   1 <1>   0.0610 
 12 C        0.0450    -3.7870    -0.1380 C.3   1 <1>  -0.0800 
 13 C       -1.9950    -3.7490    -1.6220 C.3   1 <1>  -0.0800 
 14 C       -1.8890     4.0440     1.3330 C.ar  1 <1>  -0.1500 
 15 C       -3.7050     3.2850     2.6940 C.ar  1 <1>  -0.1500 
 16 C       -3.1200    -4.6620     2.0350 C.2   1 <1>   0.5690 
 17 C       -0.7840    -4.4470     0.9780 C.3   1 <1>  -0.1600 
 18 C       -2.8190    -4.4090    -0.5030 C.3   1 <1>  -0.1600 
 19 C       -0.5280    -4.2010    -1.5050 C.3   1 <1>  -0.1600 
 20 C       -2.9190     4.3180     2.2160 C.ar  1 <1>  -0.1500 
 21 O       -3.7000    -3.9370     2.8080 O.2   1 <1>  -0.5700 
 22 N       -3.2620    -6.0040     2.2340 N.am  1 <1>  -0.5470 
 23 C       -2.7640    -7.1290     1.5750 C.ar  1 <1>   0.1170 
 24 C       -3.4730    -7.7060     0.5300 C.ar  1 <1>  -0.1500 
 25 C       -1.5710    -7.7120     1.9820 C.ar  1 <1>  -0.1500 
 26 C       -2.9850    -8.8280    -0.1170 C.ar  1 <1>  -0.1500 
 27 C       -1.0800    -8.8340     1.3380 C.ar  1 <1>  -0.1500 
 28 C       -1.7860    -9.3920     0.2860 C.ar  1 <1>  -0.1500 
 29 H       -2.7030    -0.3180     1.6380 H     1 <1>   0.3700 
 30 H       -1.9380    -2.1890     1.9650 H     1 <1>   0.0800 
 31 H       -3.3450    -2.1580     0.9390 H     1 <1>   0.0800 
 32 H        0.3800    -1.9550     0.9480 H     1 <1>   0.0800 
 33 H        0.5600    -1.7970    -0.7700 H     1 <1>   0.0800 
 34 H       -1.5030    -1.7600    -2.2720 H     1 <1>   0.0800 
 35 H       -3.0850    -1.8900    -1.5740 H     1 <1>   0.0800 
 36 H       -0.8390     2.5510     0.2510 H     1 <1>   0.1500 
 37 H       -4.0790     1.1920     2.6670 H     1 <1>   0.1500 
 38 H        1.0710    -4.1040    -0.0650 H     1 <1>   0.0800 
 39 H       -2.3870    -4.0390    -2.5820 H     1 <1>   0.0800 
 40 H       -1.2730     4.8430     0.9580 H     1 <1>   0.1500 
 41 H       -4.5060     3.4950     3.3810 H     1 <1>   0.1500 
 42 H       -0.6910    -5.5100     0.8720 H     1 <1>   0.0800 
 43 H       -0.3810    -4.1790     1.9400 H     1 <1>   0.0800 
 44 H       -3.8500    -4.1120    -0.5860 H     1 <1>   0.0800 
 45 H       -2.7750    -5.4710    -0.6410 H     1 <1>   0.0800 
 46 H        0.0540    -3.7550    -2.2930 H     1 <1>   0.0800 
 47 H       -0.4650    -5.2700    -1.6190 H     1 <1>   0.0800 
 48 H       -3.1070     5.3310     2.5280 H     1 <1>   0.1500 
 49 H       -3.8580    -6.2020     3.0380 H     1 <1>   0.3700 
 50 H       -4.4070    -7.2720     0.2220 H     1 <1>   0.1500 
 51 H       -1.0260    -7.2820     2.8030 H     1 <1>   0.1500 
 52 H       -3.5380    -9.2650    -0.9300 H     1 <1>   0.1500 
 53 H       -0.1510    -9.2760     1.6550 H     1 <1>   0.1500 
 54 H       -1.4060   -10.2640    -0.2170 H     1 <1>   0.1500 
@<TRIPOS>BOND
  1   1   2  2   
  2   2   3  am  
  3   2   4  1   
  4   3   5  1   
  5   3  29  1   
  6   4   6  1   
  7   4   7  1   
  8   4   8  1   
  9   5   9  ar  
 10   5  10  ar  
 11   6  11  1   
 12   6  30  1   
 13   6  31  1   
 14   7  12  1   
 15   7  32  1   
 16   7  33  1   
 17   8  13  1   
 18   8  34  1   
 19   8  35  1   
 20   9  14  ar  
 21   9  36  1   
 22  10  15  ar  
 23  10  37  1   
 24  11  16  1   
 25  11  17  1   
 26  11  18  1   
 27  12  17  1   
 28  12  19  1   
 29  12  38  1   
 30  13  18  1   
 31  13  19  1   
 32  13  39  1   
 33  14  20  ar  
 34  14  40  1   
 35  15  20  ar  
 36  15  41  1   
 37  16  21  2   
 38  16  22  am  
 39  17  42  1   
 40  17  43  1   
 41  18  44  1   
 42  18  45  1   
 43  19  46  1   
 44  19  47  1   
 45  20  48  1   
 46  22  23  1   
 47  22  49  1   
 48  23  24  ar  
 49  23  25  ar  
 50  24  26  ar  
 51  24  50  1   
 52  25  27  ar  
 53  25  51  1   
 54  26  28  ar  
 55  26  52  1   
 56  27  28  ar  
 57  27  53  1   
 58  28  54  1   
@<TRIPOS>SUBSTRUCTURE
  1 ****   6 GROUP 4 **** **** 0

# MOE 2024.06 (io_trps.svl 2023.06)
