@<TRIPOS>MOLECULE
NONAME
51 54 1 0 0 
SMALL
USER_CHARGES


@<TRIPOS>ATOM
  1 S        0.4380    -0.4160     0.9580 S.3   1 <1>  -0.0800 
  2 C        1.5320     0.7460     0.2240 C.2   1 <1>   0.1660 
  3 C       -0.9290     0.6450     0.6530 C.2   1 <1>  -0.1400 
  4 N        2.8600     0.5190     0.1300 N.2   1 <1>  -0.5760 
  5 C        0.8680     1.8490    -0.2160 C.2   1 <1>  -0.0860 
  6 C       -0.5460     1.7680     0.0340 C.2   1 <1>  -0.1810 
  7 C       -2.3400     0.2790     1.0590 C.3   1 <1>   0.3000 
  8 C        3.5290     1.4770    -0.4160 C.2   1 <1>   0.6510 
  9 C        1.6540     2.8660    -0.8280 C.2   1 <1>   0.7160 
 10 C       -1.5950     2.8070    -0.3160 C.3   1 <1>   0.0210 
 11 O       -3.1770     1.4020     0.9020 O.3   1 <1>  -0.5600 
 12 S        5.2820     1.1980    -0.5940 S.3   1 <1>  -0.3710 
 13 N        3.0190     2.6690    -0.8870 N.am  1 <1>  -0.4200 
 14 O        1.1500     3.8750    -1.3040 O.2   1 <1>  -0.5700 
 15 C       -3.0260     2.2010    -0.2460 C.3   1 <1>   0.2800 
 16 C        5.5600    -0.4620     0.2000 C.3   1 <1>   0.1310 
 17 C        3.8860     3.7790    -1.3740 C.3   1 <1>   0.2840 
 18 C       -4.0640     3.3150    -0.1070 C.3   1 <1>  -0.2400 
 19 C       -3.3590     1.3590    -1.4880 C.3   1 <1>  -0.2400 
 20 C        7.0320    -0.8250     0.1820 C.2   1 <1>   0.6590 
 21 C        4.3420     4.6430    -0.2050 C.ar  1 <1>  -0.1440 
 22 O        7.4530    -1.7280    -0.4940 O.2   1 <1>  -0.5700 
 23 O        7.8260    -0.1030     0.9680 O.3   1 <1>  -0.4300 
 24 C        5.6290     4.5290     0.3020 C.ar  1 <1>  -0.1500 
 25 C        3.4730     5.5640     0.3630 C.ar  1 <1>  -0.1500 
 26 C        9.2160    -0.3450     1.0410 C.3   1 <1>   0.0400 
 27 C        6.0370     5.3160     1.3650 C.ar  1 <1>  -0.1500 
 28 C        3.8800     6.3510     1.4260 C.ar  1 <1>  -0.1500 
 29 C        5.1630     6.2270     1.9290 C.ar  1 <1>  -0.1500 
 30 H       -2.3730    -0.0110     2.0940 H     1 <1>   0.0800 
 31 H       -2.7190    -0.5250     0.4530 H     1 <1>   0.0800 
 32 H       -1.4210     3.1940    -1.3030 H     1 <1>   0.0800 
 33 H       -1.5090     3.6260     0.3750 H     1 <1>   0.0800 
 34 H        4.9880    -1.1830    -0.3540 H     1 <1>   0.0800 
 35 H        5.2010    -0.4010     1.2100 H     1 <1>   0.0800 
 36 H        3.3450     4.3920    -2.0740 H     1 <1>   0.0800 
 37 H        4.7350     3.3920    -1.9070 H     1 <1>   0.0800 
 38 H       -3.8840     3.8810     0.7900 H     1 <1>   0.0800 
 39 H       -5.0540     2.8960    -0.0600 H     1 <1>   0.0800 
 40 H       -4.0150     3.9820    -0.9480 H     1 <1>   0.0800 
 41 H       -2.6100     0.6100    -1.6640 H     1 <1>   0.0800 
 42 H       -3.3970     1.9890    -2.3580 H     1 <1>   0.0800 
 43 H       -4.3170     0.8860    -1.3700 H     1 <1>   0.0800 
 44 H        6.3250     3.8270    -0.1240 H     1 <1>   0.1500 
 45 H        2.4720     5.6760    -0.0170 H     1 <1>   0.1500 
 46 H        9.6490     0.3550     1.7330 H     1 <1>   0.0800 
 47 H        9.6440    -0.2140     0.0620 H     1 <1>   0.0800 
 48 H        9.3770    -1.3530     1.3840 H     1 <1>   0.0800 
 49 H        7.0360     5.2180     1.7540 H     1 <1>   0.1500 
 50 H        3.1980     7.0600     1.8620 H     1 <1>   0.1500 
 51 H        5.4790     6.8390     2.7550 H     1 <1>   0.1500 
@<TRIPOS>BOND
  1   1   2  1   
  2   1   3  1   
  3   2   4  1   
  4   2   5  2   
  5   3   6  2   
  6   3   7  1   
  7   4   8  2   
  8   5   6  1   
  9   5   9  1   
 10   6  10  1   
 11   7  11  1   
 12   7  30  1   
 13   7  31  1   
 14   8  12  1   
 15   8  13  1   
 16   9  13  am  
 17   9  14  2   
 18  10  15  1   
 19  10  32  1   
 20  10  33  1   
 21  11  15  1   
 22  12  16  1   
 23  13  17  1   
 24  15  18  1   
 25  15  19  1   
 26  16  20  1   
 27  16  34  1   
 28  16  35  1   
 29  17  21  1   
 30  17  36  1   
 31  17  37  1   
 32  18  38  1   
 33  18  39  1   
 34  18  40  1   
 35  19  41  1   
 36  19  42  1   
 37  19  43  1   
 38  20  22  2   
 39  20  23  1   
 40  21  24  ar  
 41  21  25  ar  
 42  23  26  1   
 43  24  27  ar  
 44  24  44  1   
 45  25  28  ar  
 46  25  45  1   
 47  26  46  1   
 48  26  47  1   
 49  26  48  1   
 50  27  29  ar  
 51  27  49  1   
 52  28  29  ar  
 53  28  50  1   
 54  29  51  1   
@<TRIPOS>SUBSTRUCTURE
  1 ****  13 GROUP 4 **** **** 0

# MOE 2024.06 (io_trps.svl 2023.06)
