@<TRIPOS>MOLECULE
Structure1650
31 31 1 0 0 
SMALL
USER_CHARGES


@<TRIPOS>ATOM
  1 O       -0.4880    -0.9420    -0.0140 O.co2 1 <1>  -0.9000 
  2 C       -0.0090    -1.5480     0.9510 C.2   1 <1>   0.9060 
  3 O       -0.2440    -1.2730     2.1180 O.co2 1 <1>  -0.9000 
  4 C        1.1180    -2.4680     0.6560 C.3   1 <1>  -0.2660 
  5 C        2.2830    -1.5400     0.3980 C.3   1 <1>   0.5660 
  6 N        2.0120    -0.7790    -0.8180 N.4   1 <1>  -0.8530 
  7 C        3.6410    -2.2040     0.1970 C.ar  1 <1>  -0.1440 
  8 C        4.7660    -1.3820     0.1750 C.ar  1 <1>   0.0820 
  9 C        3.7970    -3.5750     0.0320 C.ar  1 <1>  -0.1500 
 10 O        4.5490    -0.0450     0.3450 O.3   1 <1>  -0.3620 
 11 C        6.0410    -1.9260    -0.0390 C.ar  1 <1>   0.0820 
 12 C        5.0540    -4.1190    -0.1570 C.ar  1 <1>  -0.1500 
 13 C        5.3250     0.6580     1.2950 C.3   1 <1>   0.0400 
 14 O        7.1170    -1.0910    -0.1130 O.3   1 <1>  -0.3630 
 15 C        6.1700    -3.3030    -0.1940 C.ar  1 <1>  -0.1500 
 16 C        8.4190    -1.5650    -0.3830 C.3   1 <1>   0.0400 
 17 H        0.8810    -3.0880    -0.1860 H     1 <1>   0.0800 
 18 H        1.3000    -3.0740     1.5230 H     1 <1>   0.0800 
 19 H        2.3530    -0.8580     1.2330 H     1 <1>   0.0800 
 20 H        2.1180    -1.3730    -1.6350 H     1 <1>   0.4500 
 21 H        2.6420     0.0240    -0.8490 H     1 <1>   0.4500 
 22 H        1.0090    -0.4850    -0.7450 H     1 <1>   0.4500 
 23 H        2.9550    -4.2460     0.0510 H     1 <1>   0.1500 
 24 H        5.1660    -5.1830    -0.2770 H     1 <1>   0.1500 
 25 H        5.5530     0.0080     2.1220 H     1 <1>   0.0800 
 26 H        4.7570     1.5040     1.6380 H     1 <1>   0.0800 
 27 H        6.2300     0.9990     0.8250 H     1 <1>   0.0800 
 28 H        7.1270    -3.7640    -0.3480 H     1 <1>   0.1500 
 29 H        9.0840    -0.7200    -0.4100 H     1 <1>   0.0800 
 30 H        8.4220    -2.0590    -1.3390 H     1 <1>   0.0800 
 31 H        8.7190    -2.2370     0.4010 H     1 <1>   0.0800 
@<TRIPOS>BOND
  1   1   2  ar  
  2   2   3  ar  
  3   2   4  1   
  4   4   5  1   
  5   4  17  1   
  6   4  18  1   
  7   5   6  1   
  8   5   7  1   
  9   5  19  1   
 10   6  20  1   
 11   6  21  1   
 12   6  22  1   
 13   7   8  ar  
 14   7   9  ar  
 15   8  10  1   
 16   8  11  ar  
 17   9  12  ar  
 18   9  23  1   
 19  10  13  1   
 20  11  14  1   
 21  11  15  ar  
 22  12  15  ar  
 23  12  24  1   
 24  13  25  1   
 25  13  26  1   
 26  13  27  1   
 27  14  16  1   
 28  15  28  1   
 29  16  29  1   
 30  16  30  1   
 31  16  31  1   
@<TRIPOS>SUBSTRUCTURE
  1 ****   7 GROUP 4 **** **** 0

# MOE 2024.06 (io_trps.svl 2023.06)
