@<TRIPOS>MOLECULE
NONAME
48 50 1 0 0 
SMALL
USER_CHARGES


@<TRIPOS>ATOM
  1 CL       3.7700    -0.0290     4.8260 Cl    1 <1>  -0.1770 
  2 C        3.3250     0.4410     3.2060 C.ar  1 <1>   0.1770 
  3 C        2.0430     0.8970     2.9670 C.ar  1 <1>  -0.1500 
  4 C        4.2580     0.3450     2.1920 C.ar  1 <1>  -0.1500 
  5 C        1.7120     1.2590     1.6760 C.ar  1 <1>   0.1770 
  6 C        3.9140     0.7100     0.8940 C.ar  1 <1>   0.1990 
  7 CL       0.1010     1.8360     1.3400 Cl    1 <1>  -0.1770 
  8 C        2.6270     1.1710     0.6450 C.ar  1 <1>  -0.1500 
  9 N        4.8180     0.6070    -0.1540 N.am  1 <1>  -0.6930 
 10 S        5.3130    -0.9550    -0.7120 S.o2  1 <1>   1.4470 
 11 C        5.8110     1.7130    -0.3280 C.3   1 <1>   0.2570 
 12 O        5.9800    -0.7190    -1.9730 O.2   1 <1>  -0.6500 
 13 O        6.0280    -1.5750     0.3780 O.2   1 <1>  -0.6500 
 14 C        3.7180    -1.7670    -0.9970 C.ar  1 <1>  -0.0090 
 15 C        6.9430     1.7180     0.7130 C.2   1 <1>   0.5690 
 16 C        3.1190    -2.5370    -0.0070 C.ar  1 <1>  -0.1500 
 17 C        3.0320    -1.6040    -2.1950 C.ar  1 <1>  -0.1500 
 18 O        6.7270     2.3280     1.7360 O.2   1 <1>  -0.5700 
 19 N        8.1450     1.0780     0.5150 N.am  1 <1>  -0.6600 
 20 C        1.8810    -3.1240    -0.2030 C.ar  1 <1>  -0.1500 
 21 C        1.7940    -2.1890    -2.3980 C.ar  1 <1>  -0.1500 
 22 C        9.1210     0.9160     1.6370 C.3   1 <1>   0.1400 
 23 C        8.5990     0.3920    -0.7350 C.3   1 <1>   0.1400 
 24 C        1.2100    -2.9510    -1.4010 C.ar  1 <1>  -0.1430 
 25 C       10.5480     1.2560     1.1780 C.3   1 <1>   0.1200 
 26 C       10.0630     0.7420    -1.0580 C.3   1 <1>   0.1200 
 27 C       -0.1470    -3.5940    -1.6210 C.3   1 <1>  -0.0970 
 28 O       10.8910     0.5110     0.0450 O.3   1 <1>  -0.5600 
 29 H        1.3250     0.9680     3.7630 H     1 <1>   0.1500 
 30 H        5.2500    -0.0080     2.4110 H     1 <1>   0.1500 
 31 H        2.3410     1.4550    -0.3510 H     1 <1>   0.1500 
 32 H        5.2890     2.6470    -0.2300 H     1 <1>   0.0800 
 33 H        6.2140     1.6920    -1.3210 H     1 <1>   0.0800 
 34 H        3.6260    -2.6800     0.9330 H     1 <1>   0.1500 
 35 H        3.4710    -1.0120    -2.9800 H     1 <1>   0.1500 
 36 H        1.4430    -3.7170     0.5810 H     1 <1>   0.1500 
 37 H        1.2870    -2.0480    -3.3370 H     1 <1>   0.1500 
 38 H        9.0940    -0.1040     1.9800 H     1 <1>   0.0800 
 39 H        8.8600     1.5480     2.4670 H     1 <1>   0.0800 
 40 H        7.9970     0.6760    -1.5750 H     1 <1>   0.0800 
 41 H        8.5130    -0.6730    -0.6050 H     1 <1>   0.0800 
 42 H       11.2530     1.0170     1.9540 H     1 <1>   0.0800 
 43 H       10.6300     2.3030     0.9450 H     1 <1>   0.0800 
 44 H       10.1500     1.7760    -1.3430 H     1 <1>   0.0800 
 45 H       10.4180     0.1300    -1.8680 H     1 <1>   0.0800 
 46 H       -0.0220    -4.5680    -2.0580 H     1 <1>   0.0800 
 47 H       -0.7460    -2.9920    -2.2810 H     1 <1>   0.0800 
 48 H       -0.6720    -3.6960    -0.6880 H     1 <1>   0.0800 
@<TRIPOS>BOND
  1   1   2  1   
  2   2   3  ar  
  3   2   4  ar  
  4   3   5  ar  
  5   3  29  1   
  6   4   6  ar  
  7   4  30  1   
  8   5   7  1   
  9   5   8  ar  
 10   6   8  ar  
 11   6   9  1   
 12   8  31  1   
 13   9  10  am  
 14   9  11  1   
 15  10  12  2   
 16  10  13  2   
 17  10  14  1   
 18  11  15  1   
 19  11  32  1   
 20  11  33  1   
 21  14  16  ar  
 22  14  17  ar  
 23  15  18  2   
 24  15  19  am  
 25  16  20  ar  
 26  16  34  1   
 27  17  21  ar  
 28  17  35  1   
 29  19  22  1   
 30  19  23  1   
 31  20  24  ar  
 32  20  36  1   
 33  21  24  ar  
 34  21  37  1   
 35  22  25  1   
 36  22  38  1   
 37  22  39  1   
 38  23  26  1   
 39  23  40  1   
 40  23  41  1   
 41  24  27  1   
 42  25  28  1   
 43  25  42  1   
 44  25  43  1   
 45  26  28  1   
 46  26  44  1   
 47  26  45  1   
 48  27  46  1   
 49  27  47  1   
 50  27  48  1   
@<TRIPOS>SUBSTRUCTURE
  1 ****   9 GROUP 4 **** **** 0

# MOE 2024.06 (io_trps.svl 2023.06)
