@<TRIPOS>MOLECULE
NONAME
31 31 1 0 0 
SMALL
USER_CHARGES


@<TRIPOS>ATOM
  1 O       -8.5600    -0.9290    -2.5920 O.2   1 <1>  -0.5700 
  2 C       -8.3230    -1.2480    -1.4390 C.2   1 <1>   0.5440 
  3 N       -7.1930    -0.7720    -0.8410 N.am  1 <1>  -0.7300 
  4 C       -9.2620    -2.0620    -0.6990 C.ar  1 <1>   0.0860 
  5 C       -6.1100    -0.0080    -1.4780 C.3   1 <1>   0.1400 
  6 C       -8.9000    -3.2710    -0.0930 C.ar  1 <1>   0.0820 
  7 C      -10.5860    -1.6420    -0.5580 C.ar  1 <1>  -0.1500 
  8 C       -4.7410    -0.5120    -1.0010 C.3   1 <1>  -0.1600 
  9 O       -7.6470    -3.7450    -0.2490 O.3   1 <1>  -0.3620 
 10 C       -9.8220    -4.0050     0.6420 C.ar  1 <1>  -0.1500 
 11 C      -11.5060    -2.3730     0.1700 C.ar  1 <1>  -0.1500 
 12 C       -4.4330    -0.2190     0.4860 C.3   1 <1>  -0.2660 
 13 C       -6.8830    -3.9990     0.9120 C.3   1 <1>   0.0400 
 14 C      -11.1230    -3.5570     0.7770 C.ar  1 <1>  -0.1500 
 15 C       -5.1310    -1.1400     1.4610 C.2   1 <1>   0.9060 
 16 O       -4.5310    -2.1320     1.8800 O.co2 1 <1>  -0.9000 
 17 O       -6.2930    -0.8830     1.7940 O.co2 1 <1>  -0.9000 
 18 H       -7.0380    -0.9570     0.1740 H     1 <1>   0.3700 
 19 H       -6.2260     1.0330    -1.2310 H     1 <1>   0.0800 
 20 H       -6.1820    -0.1160    -2.5470 H     1 <1>   0.0800 
 21 H      -10.8800    -0.7210    -1.0300 H     1 <1>   0.1500 
 22 H       -3.9920    -0.0260    -1.5980 H     1 <1>   0.0800 
 23 H       -4.6650    -1.5700    -1.1870 H     1 <1>   0.0800 
 24 H       -9.5210    -4.9280     1.1000 H     1 <1>   0.1500 
 25 H      -12.5180    -2.0210     0.2660 H     1 <1>   0.1500 
 26 H       -4.6990     0.7910     0.7300 H     1 <1>   0.0800 
 27 H       -3.3800    -0.3350     0.6530 H     1 <1>   0.0800 
 28 H       -7.1440    -4.9630     1.3040 H     1 <1>   0.0800 
 29 H       -7.0740    -3.2310     1.6410 H     1 <1>   0.0800 
 30 H       -5.8420    -3.9790     0.6420 H     1 <1>   0.0800 
 31 H      -11.8350    -4.1270     1.3480 H     1 <1>   0.1500 
@<TRIPOS>BOND
  1   1   2  2   
  2   2   3  am  
  3   2   4  1   
  4   3   5  1   
  5   3  18  1   
  6   4   6  ar  
  7   4   7  ar  
  8   5   8  1   
  9   5  19  1   
 10   5  20  1   
 11   6   9  1   
 12   6  10  ar  
 13   7  11  ar  
 14   7  21  1   
 15   8  12  1   
 16   8  22  1   
 17   8  23  1   
 18   9  13  1   
 19  10  14  ar  
 20  10  24  1   
 21  11  14  ar  
 22  11  25  1   
 23  12  15  1   
 24  12  26  1   
 25  12  27  1   
 26  13  28  1   
 27  13  29  1   
 28  13  30  1   
 29  14  31  1   
 30  15  16  ar  
 31  15  17  ar  
@<TRIPOS>SUBSTRUCTURE
  1 ****   3 GROUP 4 **** **** 0

# MOE 2024.06 (io_trps.svl 2023.06)
