@<TRIPOS>MOLECULE
NONAME
56 62 1 0 0 
SMALL
USER_CHARGES


@<TRIPOS>ATOM
  1 O        1.1800    -2.8020    -2.4760 O.2   1 <1>  -0.5700 
  2 C        0.8490    -2.7870    -1.3180 C.2   1 <1>   0.5690 
  3 N        1.4860    -3.4410    -0.3040 N.am  1 <1>  -0.4200 
  4 C       -0.3640    -2.0240    -0.8110 C.3   1 <1>  -0.0190 
  5 C        0.8930    -3.2910     0.9160 C.2   1 <1>   0.5690 
  6 C        2.7620    -4.1520    -0.4890 C.3   1 <1>   0.2840 
  7 C       -0.3320    -2.3940     0.8300 C.3   1 <1>  -0.0190 
  8 C       -1.8270    -2.5220    -1.3950 C.3   1 <1>   0.0580 
  9 O        1.2670    -3.7980     1.9420 O.2   1 <1>  -0.5700 
 10 C        3.9090    -3.1740    -0.2920 C.ar  1 <1>  -0.1440 
 11 C       -1.7760    -3.1070     1.1990 C.3   1 <1>   0.0580 
 12 C       -3.2480    -3.0940    -0.8490 C.2   1 <1>  -0.2880 
 13 C       -1.7590    -2.8200    -0.1000 C.3   1 <1>  -0.1600 
 14 C        4.4150    -2.4630    -1.3690 C.ar  1 <1>  -0.1500 
 15 C        4.4550    -2.9800     0.9670 C.ar  1 <1>  -0.1500 
 16 C       -3.2210    -3.4020     0.5150 C.2   1 <1>  -0.2880 
 17 C        5.4580    -1.5710    -1.1890 C.ar  1 <1>  -0.1500 
 18 C        5.4970    -2.0880     1.1470 C.ar  1 <1>  -0.1500 
 19 C        6.0020    -1.3760     0.0700 C.ar  1 <1>  -0.1430 
 20 C        7.1470    -0.3970     0.2690 C.3   1 <1>   0.2840 
 21 N        8.4220    -1.1200     0.1470 N.am  1 <1>  -0.4200 
 22 C        8.9870    -1.4430    -1.0690 C.2   1 <1>   0.5690 
 23 C        9.0930    -1.6710     1.2180 C.2   1 <1>   0.5690 
 24 O        8.7450    -0.9450    -2.1380 O.2   1 <1>  -0.5700 
 25 C        9.9380    -2.5840    -0.8280 C.3   1 <1>  -0.0190 
 26 O        8.7320    -1.6970     2.3660 O.2   1 <1>  -0.5700 
 27 C       10.4210    -2.1630     0.7060 C.3   1 <1>  -0.0190 
 28 C       11.1780    -3.4300    -1.4970 C.3   1 <1>   0.0580 
 29 C       11.7140    -3.1240     1.1040 C.3   1 <1>   0.0580 
 30 C       12.4450    -4.3320    -1.0040 C.2   1 <1>  -0.2880 
 31 C       11.4470    -3.2370    -0.1950 C.3   1 <1>  -0.1600 
 32 C       12.7470    -4.1580     0.3560 C.2   1 <1>  -0.2880 
 33 H       -0.2120    -0.9710    -0.9810 H     1 <1>   0.0800 
 34 H        2.8010    -4.5740    -1.4790 H     1 <1>   0.0800 
 35 H        2.8350    -4.9560     0.2230 H     1 <1>   0.0800 
 36 H       -0.1650    -1.5150     1.4300 H     1 <1>   0.0800 
 37 H       -1.5620    -3.2490    -2.1510 H     1 <1>   0.0800 
 38 H       -1.4880    -4.0860     1.5600 H     1 <1>   0.0800 
 39 H       -4.0650    -3.1910    -1.5450 H     1 <1>   0.1500 
 40 H       -2.1520    -1.6950     0.1610 H     1 <1>   0.0800 
 41 H       -1.3430    -3.8850    -0.3480 H     1 <1>   0.0800 
 42 H        3.9970    -2.5980    -2.3530 H     1 <1>   0.1500 
 43 H        4.0680    -3.5210     1.8150 H     1 <1>   0.1500 
 44 H       -4.0120    -3.7950     1.1320 H     1 <1>   0.1500 
 45 H        5.8460    -1.0320    -2.0380 H     1 <1>   0.1500 
 46 H        5.9160    -1.9540     2.1310 H     1 <1>   0.1500 
 47 H        7.0810     0.0570     1.2430 H     1 <1>   0.0800 
 48 H        7.1030     0.3810    -0.4730 H     1 <1>   0.0800 
 49 H        9.1710    -3.3530    -0.7630 H     1 <1>   0.0800 
 50 H       10.8850    -1.1780     0.6550 H     1 <1>   0.0800 
 51 H       11.5960    -2.7580    -2.2350 H     1 <1>   0.0800 
 52 H       12.4120    -2.3960     1.4910 H     1 <1>   0.0800 
 53 H       12.9430    -4.9560    -1.7280 H     1 <1>   0.1500 
 54 H       10.7460    -4.1790     0.1420 H     1 <1>   0.0800 
 55 H       12.1390    -2.3250    -0.4700 H     1 <1>   0.0800 
 56 H       13.5310    -4.6160     0.9370 H     1 <1>   0.1500 
@<TRIPOS>BOND
  1   1   2  2   
  2   2   3  am  
  3   2   4  1   
  4   3   5  am  
  5   3   6  1   
  6   4   7  1   
  7   4   8  1   
  8   4  33  1   
  9   5   7  1   
 10   5   9  2   
 11   6  10  1   
 12   6  34  1   
 13   6  35  1   
 14   7  11  1   
 15   7  36  1   
 16   8  12  1   
 17   8  13  1   
 18   8  37  1   
 19  10  14  ar  
 20  10  15  ar  
 21  11  13  1   
 22  11  16  1   
 23  11  38  1   
 24  12  16  2   
 25  12  39  1   
 26  13  40  1   
 27  13  41  1   
 28  14  17  ar  
 29  14  42  1   
 30  15  18  ar  
 31  15  43  1   
 32  16  44  1   
 33  17  19  ar  
 34  17  45  1   
 35  18  19  ar  
 36  18  46  1   
 37  19  20  1   
 38  20  21  1   
 39  20  47  1   
 40  20  48  1   
 41  21  22  am  
 42  21  23  am  
 43  22  24  2   
 44  22  25  1   
 45  23  26  2   
 46  23  27  1   
 47  25  27  1   
 48  25  28  1   
 49  25  49  1   
 50  27  29  1   
 51  27  50  1   
 52  28  30  1   
 53  28  31  1   
 54  28  51  1   
 55  29  31  1   
 56  29  32  1   
 57  29  52  1   
 58  30  32  2   
 59  30  53  1   
 60  31  54  1   
 61  31  55  1   
 62  32  56  1   
@<TRIPOS>SUBSTRUCTURE
  1 ****  10 GROUP 4 **** **** 0

# MOE 2024.06 (io_trps.svl 2023.06)
