@<TRIPOS>MOLECULE
NONAME
34 35 1 0 0 
SMALL
USER_CHARGES


@<TRIPOS>ATOM
  1 O       -2.7520     0.3620     1.0060 O.2   1 <1>  -0.5700 
  2 C       -2.5310     0.2640    -0.1840 C.2   1 <1>   0.7800 
  3 O       -2.4140    -0.9190    -0.7830 O.3   1 <1>  -0.4300 
  4 N       -2.3780     1.3310    -0.9950 N.am  1 <1>  -0.7300 
  5 C       -2.5250    -2.1920    -0.1850 C.3   1 <1>   0.2800 
  6 C       -2.3030     2.7640    -0.5920 C.3   1 <1>   0.2200 
  7 C       -2.3100    -3.1880    -1.3240 C.3   1 <1>  -0.2400 
  8 C       -1.4250    -2.3810     0.8670 C.3   1 <1>  -0.2400 
  9 C       -3.9310    -2.3850     0.3960 C.3   1 <1>  -0.2400 
 10 C       -3.2920     3.2170     0.5060 C.3   1 <1>   0.3380 
 11 C       -2.7280     3.6790    -1.7580 C.3   1 <1>  -0.1860 
 12 O       -3.3170     4.5770     0.2390 O.3   1 <1>  -0.5600 
 13 C       -4.7200     2.8910     0.1090 C.2   1 <1>  -0.2880 
 14 C       -1.5990     4.4910    -2.3200 C.2   1 <1>   0.9060 
 15 C       -3.7700     4.5710    -1.0760 C.3   1 <1>   0.3380 
 16 C       -5.0170     3.7370    -0.8690 C.2   1 <1>  -0.2880 
 17 O       -1.8580     5.5650    -2.8720 O.co2 1 <1>  -0.9000 
 18 O       -0.4560     4.0230    -2.2910 O.co2 1 <1>  -0.9000 
 19 H       -2.0150     1.1510    -1.9290 H     1 <1>   0.3700 
 20 H       -1.3020     2.9890    -0.2650 H     1 <1>   0.0800 
 21 H       -1.3370    -3.0490    -1.7610 H     1 <1>   0.0800 
 22 H       -3.0580    -3.0520    -2.0840 H     1 <1>   0.0800 
 23 H       -2.3760    -4.1970    -0.9580 H     1 <1>   0.0800 
 24 H       -1.5860    -1.7430     1.7160 H     1 <1>   0.0800 
 25 H       -0.4620    -2.1660     0.4410 H     1 <1>   0.0800 
 26 H       -1.4240    -3.3960     1.2190 H     1 <1>   0.0800 
 27 H       -4.0900    -1.7470     1.2460 H     1 <1>   0.0800 
 28 H       -4.0570    -3.4000     0.7240 H     1 <1>   0.0800 
 29 H       -4.6750    -2.1710    -0.3490 H     1 <1>   0.0800 
 30 H       -3.0090     3.0340     1.5270 H     1 <1>   0.0800 
 31 H       -3.1810     3.1400    -2.5650 H     1 <1>   0.0800 
 32 H       -5.2570     2.0940     0.5890 H     1 <1>   0.1500 
 33 H       -3.9090     5.5720    -1.4510 H     1 <1>   0.0800 
 34 H       -5.8910     3.8840    -1.4760 H     1 <1>   0.1500 
@<TRIPOS>BOND
  1   1   2  2   
  2   2   3  1   
  3   2   4  am  
  4   3   5  1   
  5   4   6  1   
  6   4  19  1   
  7   5   7  1   
  8   5   8  1   
  9   5   9  1   
 10   6  10  1   
 11   6  11  1   
 12   6  20  1   
 13   7  21  1   
 14   7  22  1   
 15   7  23  1   
 16   8  24  1   
 17   8  25  1   
 18   8  26  1   
 19   9  27  1   
 20   9  28  1   
 21   9  29  1   
 22  10  12  1   
 23  10  13  1   
 24  10  30  1   
 25  11  14  1   
 26  11  15  1   
 27  11  31  1   
 28  12  15  1   
 29  13  16  2   
 30  13  32  1   
 31  14  17  ar  
 32  14  18  ar  
 33  15  16  1   
 34  15  33  1   
 35  16  34  1   
@<TRIPOS>SUBSTRUCTURE
  1 ****   4 GROUP 4 **** **** 0

# MOE 2024.06 (io_trps.svl 2023.06)
