@<TRIPOS>MOLECULE
NONAME
26 26 1 0 0 
SMALL
USER_CHARGES


@<TRIPOS>ATOM
  1 CL      -0.0750     0.0100     0.7920 Cl    1 <1>  -0.1770 
  2 C       -0.0510    -1.6440     0.2470 C.ar  1 <1>   0.1770 
  3 C       -0.7410    -1.9950    -0.8970 C.ar  1 <1>  -0.1500 
  4 C        0.6600    -2.5870     0.9640 C.ar  1 <1>  -0.1500 
  5 C       -0.7190    -3.3110    -1.3230 C.ar  1 <1>  -0.1500 
  6 C        0.6750    -3.9010     0.5280 C.ar  1 <1>  -0.1500 
  7 C       -0.0180    -4.2970    -0.6210 C.ar  1 <1>   0.0860 
  8 C       -0.0160    -5.6740    -1.0840 C.2   1 <1>   0.5440 
  9 O       -0.1890    -5.9490    -2.2550 O.2   1 <1>  -0.5700 
 10 N        0.1830    -6.7110    -0.2290 N.am  1 <1>  -0.7300 
 11 C        0.3060    -8.1050    -0.6580 C.3   1 <1>   0.5000 
 12 O        0.2930    -8.8250     0.5340 O.3   1 <1>  -0.5600 
 13 C        1.5920    -8.3710    -1.4860 C.3   1 <1>   0.5000 
 14 C       -0.9780    -9.1790     0.9880 C.3   1 <1>   0.0400 
 15 CL       1.7400   -10.0770    -1.8980 Cl    1 <1>  -0.2900 
 16 CL       3.0540    -7.9450    -0.5940 Cl    1 <1>  -0.2900 
 17 H       -1.2850    -1.2450    -1.4430 H     1 <1>   0.1500 
 18 H        1.1940    -2.2900     1.8490 H     1 <1>   0.1500 
 19 H       -1.2530    -3.5880    -2.2170 H     1 <1>   0.1500 
 20 H        1.2420    -4.6250     1.0870 H     1 <1>   0.1500 
 21 H        0.4040    -6.5830     0.7570 H     1 <1>   0.3700 
 22 H       -0.5490    -8.3810    -1.2530 H     1 <1>   0.0800 
 23 H        1.5820    -7.8120    -2.4030 H     1 <1>   0.0800 
 24 H       -0.8660    -9.6970     1.9240 H     1 <1>   0.0800 
 25 H       -1.4420    -9.8320     0.2690 H     1 <1>   0.0800 
 26 H       -1.5710    -8.2920     1.1320 H     1 <1>   0.0800 
@<TRIPOS>BOND
  1   1   2  1   
  2   2   3  ar  
  3   2   4  ar  
  4   3   5  ar  
  5   3  17  1   
  6   4   6  ar  
  7   4  18  1   
  8   5   7  ar  
  9   5  19  1   
 10   6   7  ar  
 11   6  20  1   
 12   7   8  1   
 13   8   9  2   
 14   8  10  am  
 15  10  11  1   
 16  10  21  1   
 17  11  12  1   
 18  11  13  1   
 19  11  22  1   
 20  12  14  1   
 21  13  15  1   
 22  13  16  1   
 23  13  23  1   
 24  14  24  1   
 25  14  25  1   
 26  14  26  1   
@<TRIPOS>SUBSTRUCTURE
  1 ****   8 GROUP 4 **** **** 0

# MOE 2024.06 (io_trps.svl 2023.06)
