@<TRIPOS>MOLECULE
NONAME
41 42 1 0 0 
SMALL
USER_CHARGES


@<TRIPOS>ATOM
  1 CL      -1.2750    -3.0000    -1.2070 Cl    1 <1>  -0.1770 
  2 C       -2.4500    -2.3030    -0.1150 C.ar  1 <1>   0.1770 
  3 C       -3.4710    -3.0770     0.4130 C.ar  1 <1>   0.1770 
  4 C       -2.3430    -0.9670     0.2150 C.ar  1 <1>  -0.1500 
  5 CL      -3.6210    -4.7720    -0.0020 Cl    1 <1>  -0.1770 
  6 C       -4.3900    -2.5190     1.2830 C.ar  1 <1>  -0.1500 
  7 C       -3.2730    -0.3870     1.0710 C.ar  1 <1>   0.1000 
  8 C       -4.2850    -1.1780     1.6100 C.ar  1 <1>  -0.1500 
  9 N       -3.2020     0.9610     1.3920 N.pl3 1 <1>  -0.8690 
 10 C       -3.7480     1.9880     0.4140 C.3   1 <1>   0.3690 
 11 P       -5.3300     1.5650    -0.4510 P.3   1 <1>   1.2420 
 12 C       -3.8890     3.2450     1.3100 C.3   1 <1>  -0.1600 
 13 C       -2.5910     2.2560    -0.5800 C.3   1 <1>  -0.1600 
 14 O       -5.9410     2.5850    -1.3070 O.2   1 <1>  -0.7000 
 15 O       -5.0680     0.2060    -1.2750 O.3   1 <1>  -0.5510 
 16 O       -6.3520     1.0850     0.7020 O.3   1 <1>  -0.5510 
 17 C       -4.0520     4.5640     0.5350 C.3   1 <1>  -0.1600 
 18 C       -2.7350     3.5640    -1.3770 C.3   1 <1>  -0.1600 
 19 C       -6.1210    -0.4690    -1.8720 C.3   1 <1>   0.0400 
 20 C       -7.4130     1.8950     1.0850 C.3   1 <1>   0.0400 
 21 C       -2.8930     4.7690    -0.4440 C.3   1 <1>  -0.1600 
 22 H       -1.5410    -0.3790    -0.1860 H     1 <1>   0.1500 
 23 H       -5.1760    -3.1270     1.6930 H     1 <1>   0.1500 
 24 H       -5.0010    -0.7360     2.2790 H     1 <1>   0.1500 
 25 H       -3.6150     1.1460     2.3110 H     1 <1>   0.4000 
 26 H       -3.0050     3.3440     1.9170 H     1 <1>   0.0800 
 27 H       -4.7280     3.1240     1.9710 H     1 <1>   0.0800 
 28 H       -2.5300     1.4410    -1.2780 H     1 <1>   0.0800 
 29 H       -1.6630     2.2980    -0.0360 H     1 <1>   0.0800 
 30 H       -4.0770     5.3870     1.2290 H     1 <1>   0.0800 
 31 H       -4.9830     4.5730    -0.0050 H     1 <1>   0.0800 
 32 H       -3.5860     3.5070    -2.0340 H     1 <1>   0.0800 
 33 H       -1.8640     3.7040    -1.9940 H     1 <1>   0.0800 
 34 H       -5.7240    -1.3260    -2.3870 H     1 <1>   0.0800 
 35 H       -6.6070     0.1900    -2.5720 H     1 <1>   0.0800 
 36 H       -6.8130    -0.7860    -1.1110 H     1 <1>   0.0800 
 37 H       -7.0350     2.8420     1.4300 H     1 <1>   0.0800 
 38 H       -7.9510     1.4010     1.8750 H     1 <1>   0.0800 
 39 H       -8.0610     2.0430     0.2380 H     1 <1>   0.0800 
 40 H       -1.9800     4.9110     0.1090 H     1 <1>   0.0800 
 41 H       -3.0650     5.6570    -1.0280 H     1 <1>   0.0800 
@<TRIPOS>BOND
  1   1   2  1   
  2   2   3  ar  
  3   2   4  ar  
  4   3   5  1   
  5   3   6  ar  
  6   4   7  ar  
  7   4  22  1   
  8   6   8  ar  
  9   6  23  1   
 10   7   8  ar  
 11   7   9  1   
 12   8  24  1   
 13   9  10  1   
 14   9  25  1   
 15  10  11  1   
 16  10  12  1   
 17  10  13  1   
 18  11  14  2   
 19  11  15  1   
 20  11  16  1   
 21  12  17  1   
 22  12  26  1   
 23  12  27  1   
 24  13  18  1   
 25  13  28  1   
 26  13  29  1   
 27  15  19  1   
 28  16  20  1   
 29  17  21  1   
 30  17  30  1   
 31  17  31  1   
 32  18  21  1   
 33  18  32  1   
 34  18  33  1   
 35  19  34  1   
 36  19  35  1   
 37  19  36  1   
 38  20  37  1   
 39  20  38  1   
 40  20  39  1   
 41  21  40  1   
 42  21  41  1   
@<TRIPOS>SUBSTRUCTURE
  1 ****   7 GROUP 4 **** **** 0

# MOE 2024.06 (io_trps.svl 2023.06)
