@<TRIPOS>MOLECULE
NONAME
37 37 1 0 0 
SMALL
USER_CHARGES


@<TRIPOS>ATOM
  1 CL      -2.3450     2.9460     1.7770 Cl    1 <1>  -0.1770 
  2 C       -0.7300     3.0400     1.1070 C.ar  1 <1>   0.1770 
  3 C       -0.3960     4.0740     0.2390 C.ar  1 <1>   0.0820 
  4 C        0.1880     2.0690     1.4550 C.ar  1 <1>  -0.1500 
  5 O       -1.3330     4.9980    -0.0890 O.3   1 <1>  -0.3630 
  6 C        0.9020     4.1540    -0.2650 C.ar  1 <1>  -0.1440 
  7 C        1.4690     2.1350     0.9340 C.ar  1 <1>  -0.1500 
  8 C       -1.8800     4.9390    -1.3940 C.3   1 <1>   0.1200 
  9 C        1.8190     3.1720     0.0840 C.ar  1 <1>  -0.1500 
 10 C        1.3570     5.2930    -1.1690 C.3   1 <1>  -0.0960 
 11 C       -3.3010     4.3610    -1.3350 C.3   1 <1>   0.3430 
 12 N       -4.0180     4.8310    -0.1110 N.4   1 <1>  -0.9060 
 13 C       -5.4170     4.4460     0.0580 C.3   1 <1>   0.5030 
 14 C       -5.8310     4.9320     1.4420 C.3   1 <1>  -0.2400 
 15 C       -6.2560     5.1390    -1.0140 C.3   1 <1>  -0.2400 
 16 C       -5.5680     2.9280    -0.0300 C.3   1 <1>  -0.2400 
 17 H       -0.0910     1.2740     2.1250 H     1 <1>   0.1500 
 18 H        2.1960     1.3840     1.1940 H     1 <1>   0.1500 
 19 H       -1.2510     4.3390    -2.0300 H     1 <1>   0.0800 
 20 H       -1.9020     5.9430    -1.7810 H     1 <1>   0.0800 
 21 H        2.8240     3.2110    -0.3020 H     1 <1>   0.1500 
 22 H        0.8760     6.2130    -0.8890 H     1 <1>   0.0800 
 23 H        1.1260     5.0700    -2.1940 H     1 <1>   0.0800 
 24 H        2.4190     5.4390    -1.0830 H     1 <1>   0.0800 
 25 H       -3.2330     3.2850    -1.3210 H     1 <1>   0.0800 
 26 H       -3.8390     4.6470    -2.2230 H     1 <1>   0.0800 
 27 H       -3.9460     5.8490    -0.0370 H     1 <1>   0.4500 
 28 H       -3.4860     4.4720     0.6960 H     1 <1>   0.4500 
 29 H       -5.7300     5.9990     1.5270 H     1 <1>   0.0800 
 30 H       -5.2430     4.4590     2.2090 H     1 <1>   0.0800 
 31 H       -6.8630     4.6850     1.6240 H     1 <1>   0.0800 
 32 H       -6.1300     6.2070    -0.9750 H     1 <1>   0.0800 
 33 H       -7.2990     4.9270    -0.8500 H     1 <1>   0.0800 
 34 H       -6.0090     4.7860    -1.9980 H     1 <1>   0.0800 
 35 H       -4.9460     2.4330     0.6950 H     1 <1>   0.0800 
 36 H       -5.3330     2.5590    -1.0120 H     1 <1>   0.0800 
 37 H       -6.5870     2.6540     0.1770 H     1 <1>   0.0800 
@<TRIPOS>BOND
  1   1   2  1   
  2   2   3  ar  
  3   2   4  ar  
  4   3   5  1   
  5   3   6  ar  
  6   4   7  ar  
  7   4  17  1   
  8   5   8  1   
  9   6   9  ar  
 10   6  10  1   
 11   7   9  ar  
 12   7  18  1   
 13   8  11  1   
 14   8  19  1   
 15   8  20  1   
 16   9  21  1   
 17  10  22  1   
 18  10  23  1   
 19  10  24  1   
 20  11  12  1   
 21  11  25  1   
 22  11  26  1   
 23  12  13  1   
 24  12  27  1   
 25  12  28  1   
 26  13  14  1   
 27  13  15  1   
 28  13  16  1   
 29  14  29  1   
 30  14  30  1   
 31  14  31  1   
 32  15  32  1   
 33  15  33  1   
 34  15  34  1   
 35  16  35  1   
 36  16  36  1   
 37  16  37  1   
@<TRIPOS>SUBSTRUCTURE
  1 ****   5 GROUP 4 **** **** 0

# MOE 2024.06 (io_trps.svl 2023.06)
