@<TRIPOS>MOLECULE
NONAME
50 52 1 0 0 
SMALL
USER_CHARGES


@<TRIPOS>ATOM
  1 S        0.1960     0.1270     0.6480 S.o2  1 <1>   1.4470 
  2 O       -0.0760    -0.0090     2.0640 O.2   1 <1>  -0.6500 
  3 O        0.0150    -1.0370    -0.1940 O.2   1 <1>  -0.6500 
  4 N       -0.7980     1.3750     0.0500 N.am  1 <1>  -0.8490 
  5 C        1.8920     0.7160     0.3810 C.ar  1 <1>  -0.0090 
  6 C       -1.0800     2.4620     1.0250 C.3   1 <1>   0.2760 
  7 C       -2.0380     0.7930    -0.4940 C.3   1 <1>   0.1960 
  8 C        2.8810     0.5230     1.3380 C.ar  1 <1>  -0.1500 
  9 C        2.2540     1.3620    -0.7950 C.ar  1 <1>  -0.1500 
 10 C       -1.9870     3.5330     0.3790 C.3   1 <1>  -0.1600 
 11 C        0.2220     3.1330     1.5310 C.3   1 <1>  -0.1600 
 12 C       -2.9040     1.8410    -1.1880 C.3   1 <1>  -0.1600 
 13 C        4.1740     0.9710     1.1360 C.ar  1 <1>  -0.1500 
 14 C        3.5460     1.8120    -1.0020 C.ar  1 <1>  -0.1500 
 15 C       -3.2710     2.9580    -0.2180 C.3   1 <1>  -0.1600 
 16 C        0.0200     4.3350     2.4700 C.3   1 <1>  -0.2400 
 17 C        4.5270     1.6290    -0.0340 C.ar  1 <1>   0.1170 
 18 N        5.8500     2.0590    -0.1910 N.am  1 <1>  -0.5470 
 19 C        6.4260     3.0220    -0.9830 C.2   1 <1>   0.7150 
 20 O        5.7470     3.7140    -1.7180 O.2   1 <1>  -0.5700 
 21 C        7.8550     3.2000    -0.9060 C.2   1 <1>   0.0550 
 22 O        8.5880     2.4530    -0.0820 O.3   1 <1>  -0.2800 
 23 C        8.6860     4.0550    -1.5640 C.2   1 <1>  -0.1500 
 24 C        9.8480     2.8050    -0.1980 C.2   1 <1>  -0.0400 
 25 C        9.9770     3.7970    -1.1040 C.2   1 <1>  -0.1500 
 26 C       10.8880     2.0960     0.6420 C.3   1 <1>  -0.0600 
 27 H       -1.6020     2.0430     1.8710 H     1 <1>   0.0800 
 28 H       -2.5940     0.3200     0.2990 H     1 <1>   0.0800 
 29 H       -1.8010     0.0420    -1.2300 H     1 <1>   0.0800 
 30 H        2.6310     0.0160     2.2560 H     1 <1>   0.1500 
 31 H        1.5100     1.5170    -1.5590 H     1 <1>   0.1500 
 32 H       -1.4320     4.0410    -0.3900 H     1 <1>   0.0800 
 33 H       -2.2720     4.2620     1.1130 H     1 <1>   0.0800 
 34 H        0.8100     3.4530     0.6880 H     1 <1>   0.0800 
 35 H        0.7950     2.4240     2.0970 H     1 <1>   0.0800 
 36 H       -3.7990     1.3750    -1.5590 H     1 <1>   0.0800 
 37 H       -2.3650     2.2410    -2.0290 H     1 <1>   0.0800 
 38 H        4.9130     0.8100     1.9000 H     1 <1>   0.1500 
 39 H        3.7840     2.3060    -1.9270 H     1 <1>   0.1500 
 40 H       -3.8180     3.7290    -0.7310 H     1 <1>   0.0800 
 41 H       -3.8930     2.5660     0.5690 H     1 <1>   0.0800 
 42 H       -0.3750     5.1830     1.9400 H     1 <1>   0.0800 
 43 H        0.9650     4.6240     2.8930 H     1 <1>   0.0800 
 44 H       -0.6470     4.0770     3.2750 H     1 <1>   0.0800 
 45 H        6.5380     1.6130     0.4170 H     1 <1>   0.3700 
 46 H        8.4110     4.7920    -2.2990 H     1 <1>   0.1500 
 47 H       10.8700     4.3040    -1.4260 H     1 <1>   0.1500 
 48 H       10.6680     2.2320     1.6850 H     1 <1>   0.0800 
 49 H       11.8650     2.4930     0.4360 H     1 <1>   0.0800 
 50 H       10.8830     1.0450     0.4160 H     1 <1>   0.0800 
@<TRIPOS>BOND
  1   1   2  2   
  2   1   3  2   
  3   1   4  am  
  4   1   5  1   
  5   4   6  1   
  6   4   7  1   
  7   5   8  ar  
  8   5   9  ar  
  9   6  10  1   
 10   6  11  1   
 11   6  27  1   
 12   7  12  1   
 13   7  28  1   
 14   7  29  1   
 15   8  13  ar  
 16   8  30  1   
 17   9  14  ar  
 18   9  31  1   
 19  10  15  1   
 20  10  32  1   
 21  10  33  1   
 22  11  16  1   
 23  11  34  1   
 24  11  35  1   
 25  12  15  1   
 26  12  36  1   
 27  12  37  1   
 28  13  17  ar  
 29  13  38  1   
 30  14  17  ar  
 31  14  39  1   
 32  15  40  1   
 33  15  41  1   
 34  16  42  1   
 35  16  43  1   
 36  16  44  1   
 37  17  18  1   
 38  18  19  am  
 39  18  45  1   
 40  19  20  2   
 41  19  21  1   
 42  21  22  1   
 43  21  23  2   
 44  22  24  1   
 45  23  25  1   
 46  23  46  1   
 47  24  25  2   
 48  24  26  1   
 49  25  47  1   
 50  26  48  1   
 51  26  49  1   
 52  26  50  1   
@<TRIPOS>SUBSTRUCTURE
  1 ****  14 GROUP 4 **** **** 0

# MOE 2024.06 (io_trps.svl 2023.06)
