@<TRIPOS>MOLECULE
NONAME
42 44 1 0 0 
SMALL
USER_CHARGES


@<TRIPOS>ATOM
  1 S        0.3900    -0.2230    -1.1470 S.o2  1 <1>   1.5010 
  2 O        1.0040    -0.5660    -2.4130 O.2   1 <1>  -0.6500 
  3 O        0.2870     1.1660    -0.7570 O.2   1 <1>  -0.6500 
  4 N        1.2930    -1.0070     0.0520 N.am  1 <1>  -0.8490 
  5 C       -1.2180    -1.0130    -1.0150 C.2   1 <1>  -0.0630 
  6 C        2.5540    -0.2890     0.3190 C.3   1 <1>   0.1960 
  7 C        1.5810    -2.4150    -0.2930 C.3   1 <1>   0.1960 
  8 C       -1.8340    -1.7000    -2.0520 C.2   1 <1>   0.1390 
  9 C       -2.0960    -1.1240     0.0130 C.2   1 <1>  -0.3020 
 10 C        3.3960    -0.9480     1.4300 C.3   1 <1>   0.2090 
 11 C        2.3730    -3.1460     0.8080 C.3   1 <1>   0.2090 
 12 N       -2.9810    -2.2020    -1.7090 N.2   1 <1>  -0.7070 
 13 N       -3.1470    -1.8400    -0.4270 N.pl3 1 <1>   0.3140 
 14 N        3.6120    -2.4080     1.1980 N.pl3 1 <1>  -0.8380 
 15 C       -4.3530    -2.2090     0.3440 C.3   1 <1>   0.0960 
 16 C        4.8200    -2.8170     0.6440 C.ar  1 <1>   0.1000 
 17 C       -4.0720    -3.3930     1.2780 C.3   1 <1>  -0.2400 
 18 C        5.1430    -2.5500    -0.6860 C.ar  1 <1>  -0.1500 
 19 C        5.7260    -3.5100     1.4390 C.ar  1 <1>  -0.1500 
 20 C        6.3520    -2.9670    -1.2140 C.ar  1 <1>  -0.1500 
 21 C        6.9400    -3.9350     0.9260 C.ar  1 <1>  -0.1500 
 22 C        7.2290    -3.6530    -0.3950 C.ar  1 <1>   0.1900 
 23 F        8.3740    -4.0500    -0.8890 F     1 <1>  -0.1900 
 24 H        2.3330     0.7210     0.6230 H     1 <1>   0.0800 
 25 H        3.1410    -0.2350    -0.5810 H     1 <1>   0.0800 
 26 H        2.1460    -2.4630    -1.2090 H     1 <1>   0.0800 
 27 H        0.6570    -2.9430    -0.4510 H     1 <1>   0.0800 
 28 H       -1.4100    -1.8110    -3.0370 H     1 <1>   0.1500 
 29 H       -2.0200    -0.7360     1.0120 H     1 <1>   0.1500 
 30 H        2.8940    -0.8180     2.3730 H     1 <1>   0.0800 
 31 H        4.3490    -0.4510     1.4960 H     1 <1>   0.0800 
 32 H        2.6370    -4.1310     0.4640 H     1 <1>   0.0800 
 33 H        1.7480    -3.2580     1.6770 H     1 <1>   0.0800 
 34 H       -5.1300    -2.4670    -0.3530 H     1 <1>   0.0800 
 35 H       -4.6710    -1.3530     0.9100 H     1 <1>   0.0800 
 36 H       -3.7580    -4.2480     0.7040 H     1 <1>   0.0800 
 37 H       -4.9660    -3.6530     1.8150 H     1 <1>   0.0800 
 38 H       -3.3060    -3.1390     1.9900 H     1 <1>   0.0800 
 39 H        4.4470    -2.0170    -1.3050 H     1 <1>   0.1500 
 40 H        5.4660    -3.7100     2.4630 H     1 <1>   0.1500 
 41 H        6.6150    -2.7680    -2.2370 H     1 <1>   0.1500 
 42 H        7.6460    -4.4710     1.5330 H     1 <1>   0.1500 
@<TRIPOS>BOND
  1   1   2  2   
  2   1   3  2   
  3   1   4  am  
  4   1   5  1   
  5   4   6  1   
  6   4   7  1   
  7   5   8  1   
  8   5   9  2   
  9   6  10  1   
 10   6  24  1   
 11   6  25  1   
 12   7  11  1   
 13   7  26  1   
 14   7  27  1   
 15   8  12  2   
 16   8  28  1   
 17   9  13  1   
 18   9  29  1   
 19  10  14  1   
 20  10  30  1   
 21  10  31  1   
 22  11  14  1   
 23  11  32  1   
 24  11  33  1   
 25  12  13  1   
 26  13  15  1   
 27  14  16  1   
 28  15  17  1   
 29  15  34  1   
 30  15  35  1   
 31  16  18  ar  
 32  16  19  ar  
 33  17  36  1   
 34  17  37  1   
 35  17  38  1   
 36  18  20  ar  
 37  18  39  1   
 38  19  21  ar  
 39  19  40  1   
 40  20  22  ar  
 41  20  41  1   
 42  21  22  ar  
 43  21  42  1   
 44  22  23  1   
@<TRIPOS>SUBSTRUCTURE
  1 ****   7 GROUP 4 **** **** 0

# MOE 2024.06 (io_trps.svl 2023.06)
