@<TRIPOS>MOLECULE
NONAME
42 43 1 0 0 
SMALL
USER_CHARGES


@<TRIPOS>ATOM
  1 O       -1.2350     0.5980     1.0290 O.3   1 <1>  -0.3630 
  2 C       -2.0660    -0.2460     0.3510 C.ar  1 <1>   0.0830 
  3 C       -1.5650     1.9520     1.2390 C.3   1 <1>   0.0400 
  4 C       -1.5610    -1.4850    -0.0500 C.ar  1 <1>   0.0830 
  5 C       -3.3840     0.0900     0.0530 C.ar  1 <1>  -0.1500 
  6 O       -0.2670    -1.7860     0.2640 O.3   1 <1>  -0.3630 
  7 C       -2.3840    -2.3610    -0.7500 C.ar  1 <1>  -0.1500 
  8 C       -4.2090    -0.7890    -0.6400 C.ar  1 <1>  -0.1430 
  9 C        0.3290    -3.0010    -0.1290 C.3   1 <1>   0.0400 
 10 C       -3.6900    -2.0120    -1.0410 C.ar  1 <1>  -0.1500 
 11 C       -5.6700    -0.4790    -0.9780 C.3   1 <1>   0.5650 
 12 N       -6.1090     0.8300    -0.4930 N.2   1 <1>  -0.6960 
 13 N       -6.5310    -1.4680    -0.2900 N.4   1 <1>  -0.1220 
 14 C       -7.1390     0.7100     0.2040 C.2   1 <1>   0.3280 
 15 O       -6.9430    -2.4710    -1.1390 O.2   1 <1>  -0.7500 
 16 C       -7.6320    -0.7210     0.3780 C.3   1 <1>   0.3170 
 17 C       -7.8570     1.8910     0.8470 C.3   1 <1>  -0.0990 
 18 C       -7.6800    -1.1680     1.8470 C.3   1 <1>  -0.2400 
 19 C       -9.0050    -0.9400    -0.2890 C.3   1 <1>  -0.2400 
 20 C       -8.8500     2.5670    -0.1090 C.3   1 <1>  -0.2400 
 21 H       -0.7150     2.4350     1.6860 H     1 <1>   0.0800 
 22 H       -2.4080     2.0080     1.9030 H     1 <1>   0.0800 
 23 H       -1.7870     2.4080     0.2900 H     1 <1>   0.0800 
 24 H       -3.7750     1.0400     0.3610 H     1 <1>   0.1500 
 25 H       -2.0300    -3.3190    -1.0780 H     1 <1>   0.1500 
 26 H        1.3440    -3.0010     0.2220 H     1 <1>   0.0800 
 27 H        0.3130    -3.0660    -1.2030 H     1 <1>   0.0800 
 28 H       -0.2130    -3.8160     0.3170 H     1 <1>   0.0800 
 29 H       -4.3120    -2.7080    -1.5850 H     1 <1>   0.1500 
 30 H       -5.8360    -0.5440    -2.0400 H     1 <1>   0.0800 
 31 H       -5.9310    -1.8920     0.4220 H     1 <1>   0.3600 
 32 H       -7.1140     2.6160     1.1290 H     1 <1>   0.0800 
 33 H       -8.3630     1.5840     1.7430 H     1 <1>   0.0800 
 34 H       -8.4690    -0.6610     2.3710 H     1 <1>   0.0800 
 35 H       -7.8740    -2.2260     1.9020 H     1 <1>   0.0800 
 36 H       -6.7500    -0.9520     2.3430 H     1 <1>   0.0800 
 37 H       -9.7660    -0.3730     0.2110 H     1 <1>   0.0800 
 38 H       -9.2800    -1.9800    -0.2440 H     1 <1>   0.0800 
 39 H       -8.9670    -0.6400    -1.3210 H     1 <1>   0.0800 
 40 H       -8.3390     2.8920    -1.0000 H     1 <1>   0.0800 
 41 H       -9.2880     3.4280     0.3640 H     1 <1>   0.0800 
 42 H       -9.6390     1.8950    -0.3920 H     1 <1>   0.0800 
@<TRIPOS>BOND
  1   1   2  1   
  2   1   3  1   
  3   2   4  ar  
  4   2   5  ar  
  5   3  21  1   
  6   3  22  1   
  7   3  23  1   
  8   4   6  1   
  9   4   7  ar  
 10   5   8  ar  
 11   5  24  1   
 12   6   9  1   
 13   7  10  ar  
 14   7  25  1   
 15   8  10  ar  
 16   8  11  1   
 17   9  26  1   
 18   9  27  1   
 19   9  28  1   
 20  10  29  1   
 21  11  12  1   
 22  11  13  1   
 23  11  30  1   
 24  12  14  2   
 25  13  15  2   
 26  13  16  1   
 27  13  31  1   
 28  14  16  1   
 29  14  17  1   
 30  16  18  1   
 31  16  19  1   
 32  17  20  1   
 33  17  32  1   
 34  17  33  1   
 35  18  34  1   
 36  18  35  1   
 37  18  36  1   
 38  19  37  1   
 39  19  38  1   
 40  19  39  1   
 41  20  40  1   
 42  20  41  1   
 43  20  42  1   
@<TRIPOS>SUBSTRUCTURE
  1 ****   8 GROUP 4 **** **** 0

# MOE 2024.06 (io_trps.svl 2023.06)
