@<TRIPOS>MOLECULE
NONAME
34 35 1 0 0 
SMALL
USER_CHARGES


@<TRIPOS>ATOM
  1 O       -0.3250     0.0790     0.6860 O.3   1 <1>  -0.0190 
  2 N       -1.5600    -0.3090     0.6250 N.2   1 <1>  -0.4100 
  3 C       -0.3900     1.3740     0.5190 C.2   1 <1>   0.2980 
  4 C       -2.2920     0.7310     0.4300 C.2   1 <1>   0.4620 
  5 N       -1.5560     1.8450     0.3580 N.2   1 <1>  -0.5650 
  6 C        0.8970     2.1800     0.5340 C.3   1 <1>   0.0200 
  7 C       -3.7410     0.7340     0.3010 C.ar  1 <1>   0.0540 
  8 C        1.7950     1.8520    -0.6660 C.3   1 <1>  -0.2400 
  9 C       -4.4580     1.9140     0.0920 C.ar  1 <1>  -0.1500 
 10 C       -4.4750    -0.4500     0.3810 C.ar  1 <1>  -0.1500 
 11 C       -5.8430     1.9210    -0.0320 C.ar  1 <1>   0.0830 
 12 C       -5.8520    -0.4640     0.2600 C.ar  1 <1>  -0.1500 
 13 O       -6.5540     3.0680    -0.2360 O.3   1 <1>  -0.3630 
 14 C       -6.5510     0.7200     0.0520 C.ar  1 <1>   0.0830 
 15 C       -5.9260     4.3270    -0.3360 C.3   1 <1>   0.0400 
 16 O       -7.9080     0.7600    -0.0740 O.3   1 <1>  -0.3630 
 17 C       -8.6990    -0.4020    -0.0020 C.3   1 <1>   0.1200 
 18 C      -10.1570     0.0100    -0.1820 C.3   1 <1>  -0.2400 
 19 H        1.4230     1.9750     1.4500 H     1 <1>   0.0800 
 20 H        0.6510     3.2270     0.5190 H     1 <1>   0.0800 
 21 H        2.0740     0.8130    -0.6530 H     1 <1>   0.0800 
 22 H        2.6880     2.4500    -0.6350 H     1 <1>   0.0800 
 23 H        1.2730     2.0580    -1.5840 H     1 <1>   0.0800 
 24 H       -3.9030     2.8290     0.0290 H     1 <1>   0.1500 
 25 H       -3.9560    -1.3800     0.5410 H     1 <1>   0.1500 
 26 H       -6.3590    -1.4070     0.3300 H     1 <1>   0.1500 
 27 H       -6.6890     5.0670    -0.4950 H     1 <1>   0.0800 
 28 H       -5.2490     4.3140    -1.1720 H     1 <1>   0.0800 
 29 H       -5.4050     4.5310     0.5830 H     1 <1>   0.0800 
 30 H       -8.5490    -0.8570     0.9620 H     1 <1>   0.0800 
 31 H       -8.3930    -1.0710    -0.7870 H     1 <1>   0.0800 
 32 H      -10.4440     0.6940     0.5960 H     1 <1>   0.0800 
 33 H      -10.7910    -0.8560    -0.1320 H     1 <1>   0.0800 
 34 H      -10.2900     0.4810    -1.1390 H     1 <1>   0.0800 
@<TRIPOS>BOND
  1   1   2  1   
  2   1   3  1   
  3   2   4  2   
  4   3   5  2   
  5   3   6  1   
  6   4   5  1   
  7   4   7  1   
  8   6   8  1   
  9   6  19  1   
 10   6  20  1   
 11   7   9  ar  
 12   7  10  ar  
 13   8  21  1   
 14   8  22  1   
 15   8  23  1   
 16   9  11  ar  
 17   9  24  1   
 18  10  12  ar  
 19  10  25  1   
 20  11  13  1   
 21  11  14  ar  
 22  12  14  ar  
 23  12  26  1   
 24  13  15  1   
 25  14  16  1   
 26  15  27  1   
 27  15  28  1   
 28  15  29  1   
 29  16  17  1   
 30  17  18  1   
 31  17  30  1   
 32  17  31  1   
 33  18  32  1   
 34  18  33  1   
 35  18  34  1   
@<TRIPOS>SUBSTRUCTURE
  1 ****   7 GROUP 4 **** **** 0

# MOE 2024.06 (io_trps.svl 2023.06)
