@<TRIPOS>MOLECULE
NONAME
41 43 1 0 0 
SMALL
USER_CHARGES


@<TRIPOS>ATOM
  1 CL      -3.7530     3.4850     2.3560 Cl    1 <1>  -0.1770 
  2 C       -2.2330     3.3120     1.5020 C.ar  1 <1>   0.1770 
  3 C       -2.2420     2.9350     0.1580 C.ar  1 <1>   0.1170 
  4 C       -1.0610     3.5620     2.1890 C.ar  1 <1>  -0.1500 
  5 N       -3.4670     2.6900    -0.4860 N.am  1 <1>  -0.5470 
  6 C       -1.0150     2.8100    -0.4910 C.ar  1 <1>  -0.1500 
  7 C        0.1360     3.4300     1.5140 C.ar  1 <1>   0.1770 
  8 C       -3.8430     2.6700    -1.7970 C.2   1 <1>   0.5690 
  9 C        0.1710     3.0580     0.1820 C.ar  1 <1>  -0.1500 
 10 CL       1.6320     3.7400     2.3570 Cl    1 <1>  -0.1770 
 11 O       -3.0840     2.8270    -2.7230 O.2   1 <1>  -0.5700 
 12 C       -5.3330     2.4430    -2.0700 C.3   1 <1>   0.1710 
 13 N       -6.2000     2.6900    -0.8770 N.3   1 <1>  -0.8100 
 14 C       -7.5290     2.0610    -1.0500 C.3   1 <1>   0.1100 
 15 C       -6.3810     4.1440    -0.6330 C.3   1 <1>   0.1100 
 16 C       -8.4420     2.2740     0.1730 C.3   1 <1>   0.2090 
 17 C       -7.2500     4.4250     0.6080 C.3   1 <1>   0.2090 
 18 N       -8.5710     3.7290     0.5030 N.pl3 1 <1>  -0.8380 
 19 C       -9.7690     4.3240     0.8410 C.ar  1 <1>   0.7200 
 20 N       -9.7400     5.6190     1.1590 N.ar  1 <1>  -0.6200 
 21 N      -10.8590     3.5560     0.8220 N.ar  1 <1>  -0.6200 
 22 C      -10.8840     6.1700     1.4800 C.ar  1 <1>   0.1600 
 23 C      -11.9890     4.1340     1.1480 C.ar  1 <1>   0.1600 
 24 C      -12.0580     5.4610     1.4910 C.ar  1 <1>  -0.1500 
 25 H       -1.0780     3.8520     3.2230 H     1 <1>   0.1500 
 26 H       -4.2890     2.6100     0.1280 H     1 <1>   0.3700 
 27 H       -0.9800     2.5170    -1.5260 H     1 <1>   0.1500 
 28 H        1.1170     2.9620    -0.3210 H     1 <1>   0.1500 
 29 H       -5.4390     1.4200    -2.3820 H     1 <1>   0.0800 
 30 H       -5.6400     3.0710    -2.8880 H     1 <1>   0.0800 
 31 H       -7.4080     1.0030    -1.2020 H     1 <1>   0.0800 
 32 H       -8.0190     2.4700    -1.9170 H     1 <1>   0.0800 
 33 H       -6.8500     4.6040    -1.4860 H     1 <1>   0.0800 
 34 H       -5.4240     4.6150    -0.4890 H     1 <1>   0.0800 
 35 H       -8.0250     1.7600     1.0210 H     1 <1>   0.0800 
 36 H       -9.4000     1.8350    -0.0390 H     1 <1>   0.0800 
 37 H       -7.3740     5.4890     0.7010 H     1 <1>   0.0800 
 38 H       -6.7380     4.0760     1.4870 H     1 <1>   0.0800 
 39 H      -10.8840     7.2150     1.7420 H     1 <1>   0.1500 
 40 H      -12.8830     3.5330     1.1410 H     1 <1>   0.1500 
 41 H      -12.9900     5.9230     1.7560 H     1 <1>   0.1500 
@<TRIPOS>BOND
  1   1   2  1   
  2   2   3  ar  
  3   2   4  ar  
  4   3   5  1   
  5   3   6  ar  
  6   4   7  ar  
  7   4  25  1   
  8   5   8  am  
  9   5  26  1   
 10   6   9  ar  
 11   6  27  1   
 12   7   9  ar  
 13   7  10  1   
 14   8  11  2   
 15   8  12  1   
 16   9  28  1   
 17  12  13  1   
 18  12  29  1   
 19  12  30  1   
 20  13  14  1   
 21  13  15  1   
 22  14  16  1   
 23  14  31  1   
 24  14  32  1   
 25  15  17  1   
 26  15  33  1   
 27  15  34  1   
 28  16  18  1   
 29  16  35  1   
 30  16  36  1   
 31  17  18  1   
 32  17  37  1   
 33  17  38  1   
 34  18  19  1   
 35  19  20  ar  
 36  19  21  ar  
 37  20  22  ar  
 38  21  23  ar  
 39  22  24  ar  
 40  22  39  1   
 41  23  24  ar  
 42  23  40  1   
 43  24  41  1   
@<TRIPOS>SUBSTRUCTURE
  1 ****  15 GROUP 4 **** **** 0

# MOE 2024.06 (io_trps.svl 2023.06)
