@<TRIPOS>MOLECULE
NONAME
27 27 1 0 0 
SMALL
USER_CHARGES


@<TRIPOS>ATOM
  1 F        0.7810     0.2490    -0.5840 F     1 <1>  -0.3400 
  2 C        1.2170    -0.2570     0.5580 C.3   1 <1>   1.0200 
  3 F        0.1420    -0.6880     1.2010 F     1 <1>  -0.3400 
  4 F        1.6560     0.7740     1.2680 F     1 <1>  -0.3400 
  5 C        2.2720    -1.3170     0.4510 C.3   1 <1>  -0.0190 
  6 C        3.5330    -0.7260    -0.0880 C.2   1 <1>   0.5690 
  7 C        1.8120    -2.4580    -0.4090 C.3   1 <1>   1.0200 
  8 O        3.5380    -0.2710    -1.1990 O.2   1 <1>  -0.5700 
  9 N        4.6390    -0.7290     0.7130 N.am  1 <1>  -0.5470 
 10 F        1.4250    -2.1460    -1.6350 F     1 <1>  -0.3400 
 11 F        0.7980    -3.1100     0.1390 F     1 <1>  -0.3400 
 12 F        2.7720    -3.3610    -0.5450 F     1 <1>  -0.3400 
 13 C        5.9250    -0.3190     0.4350 C.ar  1 <1>   0.4270 
 14 N        6.8070    -1.2480     0.7670 N.ar  1 <1>  -0.6200 
 15 C        6.2710     0.9380    -0.0860 C.ar  1 <1>  -0.1430 
 16 C        8.0740    -0.9590     0.5280 C.ar  1 <1>   0.1600 
 17 C        7.6010     1.2100    -0.3250 C.ar  1 <1>  -0.1500 
 18 C        5.2570     2.0370    -0.3850 C.3   1 <1>  -0.0970 
 19 C        8.5200     0.2310    -0.0120 C.ar  1 <1>  -0.1500 
 20 H        2.4530    -1.7000     1.4350 H     1 <1>   0.0800 
 21 H        4.6590    -1.3790     1.4940 H     1 <1>   0.3700 
 22 H        8.8000    -1.7150     0.7770 H     1 <1>   0.1500 
 23 H        7.9210     2.1520    -0.7380 H     1 <1>   0.1500 
 24 H        4.4270     1.9910     0.2960 H     1 <1>   0.0800 
 25 H        4.8900     1.9330    -1.3910 H     1 <1>   0.0800 
 26 H        5.7110     3.0070    -0.2880 H     1 <1>   0.0800 
 27 H        9.5690     0.3920    -0.1820 H     1 <1>   0.1500 
@<TRIPOS>BOND
  1   1   2  1   
  2   2   3  1   
  3   2   4  1   
  4   2   5  1   
  5   5   6  1   
  6   5   7  1   
  7   5  20  1   
  8   6   8  2   
  9   6   9  am  
 10   7  10  1   
 11   7  11  1   
 12   7  12  1   
 13   9  13  1   
 14   9  21  1   
 15  13  14  ar  
 16  13  15  ar  
 17  14  16  ar  
 18  15  17  ar  
 19  15  18  1   
 20  16  19  ar  
 21  16  22  1   
 22  17  19  ar  
 23  17  23  1   
 24  18  24  1   
 25  18  25  1   
 26  18  26  1   
 27  19  27  1   
@<TRIPOS>SUBSTRUCTURE
  1 ****   6 GROUP 4 **** **** 0

# MOE 2024.06 (io_trps.svl 2023.06)
