@<TRIPOS>MOLECULE
NONAME
28 28 1 0 0 
SMALL
USER_CHARGES


@<TRIPOS>ATOM
  1 F        0.0020     0.6180     1.4510 F     1 <1>  -0.3400 
  2 C       -0.2500     1.9030     1.2520 C.3   1 <1>   1.0200 
  3 F       -1.3380     2.1820     1.9580 F     1 <1>  -0.3400 
  4 F        0.7390     2.5520     1.8510 F     1 <1>  -0.3400 
  5 C       -0.3440     2.2830    -0.2200 C.3   1 <1>   0.0640 
  6 C       -0.4250     3.8040    -0.4580 C.ar  1 <1>  -0.1440 
  7 C       -1.4730     1.5000    -0.8770 C.3   1 <1>   1.0200 
  8 C       -1.4920     4.5660     0.0010 C.ar  1 <1>  -0.1500 
  9 C        0.5980     4.4370    -1.1510 C.ar  1 <1>  -0.1500 
 10 F       -1.2910     0.1880    -0.8440 F     1 <1>  -0.3400 
 11 F       -2.6700     1.7220    -0.3510 F     1 <1>  -0.3400 
 12 F       -1.5850     1.8070    -2.1620 F     1 <1>  -0.3400 
 13 C       -1.5590     5.9370    -0.2180 C.ar  1 <1>   0.1170 
 14 C        0.5490     5.8010    -1.3750 C.ar  1 <1>  -0.1500 
 15 N       -2.6640     6.6420     0.2860 N.am  1 <1>  -0.5470 
 16 C       -0.5180     6.5440    -0.9110 C.ar  1 <1>  -0.1500 
 17 C       -3.1610     7.8790    -0.0160 C.2   1 <1>   0.5690 
 18 O       -2.7010     8.6160    -0.8500 O.2   1 <1>  -0.5700 
 19 C       -4.3780     8.3340     0.7490 C.3   1 <1>  -0.1790 
 20 H        0.5610     1.9270    -0.6730 H     1 <1>   0.0800 
 21 H       -2.3010     4.1050     0.5380 H     1 <1>   0.1500 
 22 H        1.4440     3.8860    -1.5250 H     1 <1>   0.1500 
 23 H        1.3440     6.2890    -1.9130 H     1 <1>   0.1500 
 24 H       -3.2080     6.1310     0.9770 H     1 <1>   0.3700 
 25 H       -0.5330     7.6040    -1.0920 H     1 <1>   0.1500 
 26 H       -5.2020     7.6760     0.5480 H     1 <1>   0.0800 
 27 H       -4.6470     9.3290     0.4420 H     1 <1>   0.0800 
 28 H       -4.1670     8.3420     1.8010 H     1 <1>   0.0800 
@<TRIPOS>BOND
  1   1   2  1   
  2   2   3  1   
  3   2   4  1   
  4   2   5  1   
  5   5   6  1   
  6   5   7  1   
  7   5  20  1   
  8   6   8  ar  
  9   6   9  ar  
 10   7  10  1   
 11   7  11  1   
 12   7  12  1   
 13   8  13  ar  
 14   8  21  1   
 15   9  14  ar  
 16   9  22  1   
 17  13  15  1   
 18  13  16  ar  
 19  14  16  ar  
 20  14  23  1   
 21  15  17  am  
 22  15  24  1   
 23  16  25  1   
 24  17  18  2   
 25  17  19  1   
 26  19  26  1   
 27  19  27  1   
 28  19  28  1   
@<TRIPOS>SUBSTRUCTURE
  1 ****   8 GROUP 4 **** **** 0

# MOE 2024.06 (io_trps.svl 2023.06)
