@<TRIPOS>MOLECULE
NONAME
29 30 1 0 0 
SMALL
USER_CHARGES


@<TRIPOS>ATOM
  1 O        1.4360     0.5850     2.3090 O.co2 1 <1>  -0.9000 
  2 C        1.5420     0.6020     1.0740 C.2   1 <1>   0.9470 
  3 O        1.9930    -0.3730     0.4540 O.co2 1 <1>  -0.9000 
  4 C        1.1430     1.8750     0.2940 C.3   1 <1>  -0.0420 
  5 C       -0.3420     2.0070     0.1390 C.1   1 <1>  -0.1050 
  6 C        1.9970     3.1210     0.3450 C.3   1 <1>  -0.1900 
  7 C        1.9780     2.3020    -0.8980 C.3   1 <1>  -0.2000 
  8 C       -1.5220     2.1170     0.0290 C.1   1 <1>  -0.0730 
  9 C        1.3530     4.5140     0.3100 C.3   1 <1>  -0.1450 
 10 C        3.2700     3.1110     1.2000 C.3   1 <1>  -0.1450 
 11 C       -2.9440     2.2450    -0.0790 C.ar  1 <1>   0.0730 
 12 C       -3.5170     3.0040    -1.0900 C.ar  1 <1>  -0.1500 
 13 C       -3.7790     1.6100     0.8300 C.ar  1 <1>  -0.1500 
 14 C       -4.8920     3.1300    -1.1910 C.ar  1 <1>  -0.1500 
 15 C       -5.1540     1.7310     0.7360 C.ar  1 <1>  -0.1500 
 16 C       -5.7130     2.4920    -0.2770 C.ar  1 <1>  -0.1500 
 17 H        1.4610     2.6550    -1.7710 H     1 <1>   0.1000 
 18 H        2.8170     1.6740    -1.1460 H     1 <1>   0.1000 
 19 H        0.5150     4.5390    -0.3630 H     1 <1>   0.0800 
 20 H        2.0690     5.2460    -0.0160 H     1 <1>   0.0800 
 21 H        1.0070     4.7760     1.2940 H     1 <1>   0.0800 
 22 H        3.7610     2.1540     1.1470 H     1 <1>   0.0800 
 23 H        3.0160     3.2950     2.2290 H     1 <1>   0.0800 
 24 H        3.9580     3.8640     0.8640 H     1 <1>   0.0800 
 25 H       -2.8770     3.4970    -1.7990 H     1 <1>   0.1500 
 26 H       -3.3380     1.0190     1.6150 H     1 <1>   0.1500 
 27 H       -5.3210     3.7220    -1.9800 H     1 <1>   0.1500 
 28 H       -5.7870     1.2330     1.4490 H     1 <1>   0.1500 
 29 H       -6.7820     2.5880    -0.3520 H     1 <1>   0.1500 
@<TRIPOS>BOND
  1   1   2  ar  
  2   2   3  ar  
  3   2   4  1   
  4   4   5  1   
  5   4   6  1   
  6   4   7  1   
  7   5   8  3   
  8   6   7  1   
  9   6   9  1   
 10   6  10  1   
 11   7  17  1   
 12   7  18  1   
 13   8  11  1   
 14   9  19  1   
 15   9  20  1   
 16   9  21  1   
 17  10  22  1   
 18  10  23  1   
 19  10  24  1   
 20  11  12  ar  
 21  11  13  ar  
 22  12  14  ar  
 23  12  25  1   
 24  13  15  ar  
 25  13  26  1   
 26  14  16  ar  
 27  14  27  1   
 28  15  16  ar  
 29  15  28  1   
 30  16  29  1   
@<TRIPOS>SUBSTRUCTURE
  1 ****   5 GROUP 4 **** **** 0

# MOE 2024.06 (io_trps.svl 2023.06)
