@<TRIPOS>MOLECULE
NONAME
44 45 1 0 0 
SMALL
USER_CHARGES


@<TRIPOS>ATOM
  1 O        1.2130     0.8920     0.6390 O.3   1 <1>  -0.3630 
  2 C        0.4670     1.9350     0.1820 C.ar  1 <1>   0.0830 
  3 C        0.6640    -0.0620     1.5250 C.3   1 <1>   0.0400 
  4 C        0.9940     2.7020    -0.8560 C.ar  1 <1>  -0.1440 
  5 C       -0.7800     2.2590     0.7110 C.ar  1 <1>  -0.1500 
  6 C        0.2700     3.7750    -1.3530 C.ar  1 <1>  -0.1500 
  7 C        2.3550     2.3680    -1.4420 C.3   1 <1>  -0.0160 
  8 C       -1.4920     3.3320     0.2090 C.ar  1 <1>  -0.1500 
  9 C       -0.9680     4.0900    -0.8230 C.ar  1 <1>  -0.1500 
 10 C        3.4290     2.6680    -0.3980 C.3   1 <1>   0.3430 
 11 N        4.7660     2.2190    -0.8740 N.4   1 <1>  -0.9060 
 12 C        5.8380     2.4300     0.1150 C.3   1 <1>   0.4230 
 13 C        6.1620     3.9260     0.2340 C.3   1 <1>  -0.1600 
 14 C        7.0680     1.6370    -0.3380 C.3   1 <1>  -0.1600 
 15 C        7.3500     4.1600     1.1790 C.3   1 <1>  -0.1600 
 16 C        8.2550     1.8660     0.6090 C.3   1 <1>  -0.1600 
 17 C        8.5870     3.3610     0.7390 C.3   1 <1>  -0.0800 
 18 C        9.7340     3.5660     1.7330 C.3   1 <1>  -0.2400 
 19 H        1.3900    -0.8410     1.6760 H     1 <1>   0.0800 
 20 H       -0.2270    -0.4750     1.0870 H     1 <1>   0.0800 
 21 H        0.4430     0.4160     2.4640 H     1 <1>   0.0800 
 22 H       -1.2150     1.6930     1.5130 H     1 <1>   0.1500 
 23 H        0.6550     4.3770    -2.1580 H     1 <1>   0.1500 
 24 H        2.5280     2.9500    -2.3300 H     1 <1>   0.0800 
 25 H        2.3670     1.3250    -1.7050 H     1 <1>   0.0800 
 26 H       -2.4570     3.5800     0.6190 H     1 <1>   0.1500 
 27 H       -1.5270     4.9240    -1.2130 H     1 <1>   0.1500 
 28 H        3.1800     2.1560     0.5180 H     1 <1>   0.0800 
 29 H        3.4360     3.7270    -0.1950 H     1 <1>   0.0800 
 30 H        5.0180     2.7030    -1.7420 H     1 <1>   0.4500 
 31 H        4.7180     1.2160    -1.0870 H     1 <1>   0.4500 
 32 H        5.5260     2.0580     1.0790 H     1 <1>   0.0800 
 33 H        5.3160     4.4630     0.6230 H     1 <1>   0.0800 
 34 H        6.4110     4.3270    -0.7330 H     1 <1>   0.0800 
 35 H        7.3590     1.9410    -1.3290 H     1 <1>   0.0800 
 36 H        6.8420     0.5850    -0.3530 H     1 <1>   0.0800 
 37 H        7.0750     3.8740     2.1810 H     1 <1>   0.0800 
 38 H        7.5910     5.2100     1.1970 H     1 <1>   0.0800 
 39 H        9.1170     1.3390     0.2350 H     1 <1>   0.0800 
 40 H        8.0240     1.4630     1.5810 H     1 <1>   0.0800 
 41 H        8.9110     3.7270    -0.2220 H     1 <1>   0.0800 
 42 H        9.4620     3.2150     2.7140 H     1 <1>   0.0800 
 43 H        9.9880     4.6100     1.8030 H     1 <1>   0.0800 
 44 H       10.6100     3.0310     1.4100 H     1 <1>   0.0800 
@<TRIPOS>BOND
  1   1   2  1   
  2   1   3  1   
  3   2   4  ar  
  4   2   5  ar  
  5   3  19  1   
  6   3  20  1   
  7   3  21  1   
  8   4   6  ar  
  9   4   7  1   
 10   5   8  ar  
 11   5  22  1   
 12   6   9  ar  
 13   6  23  1   
 14   7  10  1   
 15   7  24  1   
 16   7  25  1   
 17   8   9  ar  
 18   8  26  1   
 19   9  27  1   
 20  10  11  1   
 21  10  28  1   
 22  10  29  1   
 23  11  12  1   
 24  11  30  1   
 25  11  31  1   
 26  12  13  1   
 27  12  14  1   
 28  12  32  1   
 29  13  15  1   
 30  13  33  1   
 31  13  34  1   
 32  14  16  1   
 33  14  35  1   
 34  14  36  1   
 35  15  17  1   
 36  15  37  1   
 37  15  38  1   
 38  16  17  1   
 39  16  39  1   
 40  16  40  1   
 41  17  18  1   
 42  17  41  1   
 43  18  42  1   
 44  18  43  1   
 45  18  44  1   
@<TRIPOS>SUBSTRUCTURE
  1 ****  10 GROUP 4 **** **** 0

# MOE 2024.06 (io_trps.svl 2023.06)
