@<TRIPOS>MOLECULE
NONAME
34 35 1 0 0 
SMALL
USER_CHARGES


@<TRIPOS>ATOM
  1 F       -1.4490     1.1550     1.5340 F     1 <1>  -0.1900 
  2 C       -0.8240     2.0850     0.8630 C.ar  1 <1>   0.1900 
  3 C       -1.3690     2.5200    -0.3320 C.ar  1 <1>  -0.1440 
  4 C        0.3500     2.6030     1.3820 C.ar  1 <1>  -0.1500 
  5 C       -0.6820     3.5190    -0.9970 C.ar  1 <1>   0.1900 
  6 C       -2.6460     1.9280    -0.8860 C.3   1 <1>   0.4860 
  7 C        1.0130     3.6020     0.6840 C.ar  1 <1>  -0.1500 
  8 F       -1.1700     3.9720    -2.1200 F     1 <1>  -0.1900 
  9 C        0.4950     4.0670    -0.5160 C.ar  1 <1>  -0.1500 
 10 N       -3.8010     2.3300    -0.0290 N.4   1 <1>  -0.9590 
 11 C       -5.0620     1.5960    -0.3410 C.3   1 <1>   0.4230 
 12 C       -3.9860     3.8140    -0.0810 C.3   1 <1>   0.3430 
 13 C       -6.1540     2.0130     0.6540 C.3   1 <1>  -0.1600 
 14 C       -4.8430     0.0850    -0.2480 C.3   1 <1>  -0.2400 
 15 C       -5.0520     4.2510     0.9210 C.3   1 <1>  -0.1600 
 16 C       -6.3790     3.5290     0.6740 C.3   1 <1>  -0.1600 
 17 H        0.7400     2.2320     2.3150 H     1 <1>   0.1500 
 18 H       -2.5420     0.8560    -0.8920 H     1 <1>   0.0800 
 19 H       -2.8030     2.2580    -1.9000 H     1 <1>   0.0800 
 20 H        1.9300     4.0160     1.0730 H     1 <1>   0.1500 
 21 H        0.9970     4.8420    -1.0700 H     1 <1>   0.1500 
 22 H       -3.5480     2.0830     0.9360 H     1 <1>   0.4500 
 23 H       -5.3880     1.8470    -1.3380 H     1 <1>   0.0800 
 24 H       -4.2860     4.1090    -1.0740 H     1 <1>   0.0800 
 25 H       -3.0600     4.3140     0.1530 H     1 <1>   0.0800 
 26 H       -5.8930     1.6760     1.6420 H     1 <1>   0.0800 
 27 H       -7.0790     1.5310     0.3870 H     1 <1>   0.0800 
 28 H       -4.4040    -0.1870     0.6960 H     1 <1>   0.0800 
 29 H       -4.2300    -0.2770    -1.0530 H     1 <1>   0.0800 
 30 H       -5.7890    -0.4210    -0.3300 H     1 <1>   0.0800 
 31 H       -5.2030     5.3140     0.8330 H     1 <1>   0.0800 
 32 H       -4.7060     4.0570     1.9220 H     1 <1>   0.0800 
 33 H       -7.0860     3.7850     1.4460 H     1 <1>   0.0800 
 34 H       -6.7950     3.8460    -0.2690 H     1 <1>   0.0800 
@<TRIPOS>BOND
  1   1   2  1   
  2   2   3  ar  
  3   2   4  ar  
  4   3   5  ar  
  5   3   6  1   
  6   4   7  ar  
  7   4  17  1   
  8   5   8  1   
  9   5   9  ar  
 10   6  10  1   
 11   6  18  1   
 12   6  19  1   
 13   7   9  ar  
 14   7  20  1   
 15   9  21  1   
 16  10  11  1   
 17  10  12  1   
 18  10  22  1   
 19  11  13  1   
 20  11  14  1   
 21  11  23  1   
 22  12  15  1   
 23  12  24  1   
 24  12  25  1   
 25  13  16  1   
 26  13  26  1   
 27  13  27  1   
 28  14  28  1   
 29  14  29  1   
 30  14  30  1   
 31  15  16  1   
 32  15  31  1   
 33  15  32  1   
 34  16  33  1   
 35  16  34  1   
@<TRIPOS>SUBSTRUCTURE
  1 ****   6 GROUP 4 **** **** 0

# MOE 2024.06 (io_trps.svl 2023.06)
