@<TRIPOS>MOLECULE
NONAME
42 44 1 0 0 
SMALL
USER_CHARGES


@<TRIPOS>ATOM
  1 CL      -0.2640     0.2060    -0.1110 Cl    1 <1>  -0.1770 
  2 C       -1.8490     0.8460     0.2650 C.ar  1 <1>   0.1770 
  3 C       -3.0050     0.2300    -0.2010 C.ar  1 <1>  -0.1440 
  4 C       -1.8910     1.9830     1.0510 C.ar  1 <1>  -0.1500 
  5 C       -4.2420     0.7770     0.1540 C.ar  1 <1>   0.1170 
  6 C       -2.9340    -1.0170    -1.0850 C.3   1 <1>  -0.0970 
  7 C       -3.1150     2.5270     1.3910 C.ar  1 <1>  -0.1500 
  8 N       -5.4310     0.1570    -0.2590 N.am  1 <1>  -0.5470 
  9 C       -4.2760     1.9230     0.9470 C.ar  1 <1>  -0.1500 
 10 C       -6.6670     0.6670    -0.5270 C.2   1 <1>   0.6900 
 11 O       -6.8590     1.8680    -0.5730 O.2   1 <1>  -0.5700 
 12 N       -7.6930    -0.2070    -0.7700 N.am  1 <1>  -0.6600 
 13 C       -7.8340    -1.5150    -0.0580 C.3   1 <1>   0.1400 
 14 C       -8.9690     0.2720    -1.3860 C.3   1 <1>   0.1400 
 15 C       -8.9490    -1.4340     0.9950 C.3   1 <1>   0.1400 
 16 C      -10.0990     0.3410    -0.3460 C.3   1 <1>   0.1400 
 17 N      -10.2280    -0.9600     0.3850 N.am  1 <1>  -0.6600 
 18 C      -11.3500    -1.7670     0.3320 C.2   1 <1>   0.7150 
 19 O      -11.1890    -2.9680     0.4700 O.2   1 <1>  -0.5700 
 20 C      -12.6920    -1.2640     0.1100 C.2   1 <1>   0.0550 
 21 O      -13.0250     0.0120     0.3050 O.3   1 <1>  -0.2800 
 22 C      -13.8110    -1.9370    -0.2820 C.2   1 <1>  -0.1500 
 23 C      -14.3040     0.1650     0.0450 C.2   1 <1>  -0.0100 
 24 C      -14.8530    -1.0100    -0.3280 C.2   1 <1>  -0.1500 
 25 H       -0.9760     2.4340     1.3890 H     1 <1>   0.1500 
 26 H       -1.9670    -1.1340    -1.5380 H     1 <1>   0.0800 
 27 H       -3.6470    -0.9510    -1.8880 H     1 <1>   0.0800 
 28 H       -3.1410    -1.8930    -0.4980 H     1 <1>   0.0800 
 29 H       -3.1660     3.4130     2.0000 H     1 <1>   0.1500 
 30 H       -5.3360    -0.8050    -0.5610 H     1 <1>   0.3700 
 31 H       -5.2230     2.3500     1.2230 H     1 <1>   0.1500 
 32 H       -6.9170    -1.7880     0.4300 H     1 <1>   0.0800 
 33 H       -8.0770    -2.2840    -0.7710 H     1 <1>   0.0800 
 34 H       -9.2530    -0.4040    -2.1720 H     1 <1>   0.0800 
 35 H       -8.8320     1.2440    -1.8280 H     1 <1>   0.0800 
 36 H       -8.6550    -0.7450     1.7680 H     1 <1>   0.0800 
 37 H       -9.0800    -2.3990     1.4530 H     1 <1>   0.0800 
 38 H      -11.0090     0.5890    -0.8570 H     1 <1>   0.0800 
 39 H       -9.8870     1.1260     0.3600 H     1 <1>   0.0800 
 40 H      -13.8890    -2.9860    -0.5110 H     1 <1>   0.1500 
 41 H      -14.7470     1.1400     0.1500 H     1 <1>   0.1500 
 42 H      -15.8710    -1.2210    -0.6030 H     1 <1>   0.1500 
@<TRIPOS>BOND
  1   1   2  1   
  2   2   3  ar  
  3   2   4  ar  
  4   3   5  ar  
  5   3   6  1   
  6   4   7  ar  
  7   4  25  1   
  8   5   8  1   
  9   5   9  ar  
 10   6  26  1   
 11   6  27  1   
 12   6  28  1   
 13   7   9  ar  
 14   7  29  1   
 15   8  10  am  
 16   8  30  1   
 17   9  31  1   
 18  10  11  2   
 19  10  12  am  
 20  12  13  1   
 21  12  14  1   
 22  13  15  1   
 23  13  32  1   
 24  13  33  1   
 25  14  16  1   
 26  14  34  1   
 27  14  35  1   
 28  15  17  1   
 29  15  36  1   
 30  15  37  1   
 31  16  17  1   
 32  16  38  1   
 33  16  39  1   
 34  17  18  am  
 35  18  19  2   
 36  18  20  1   
 37  20  21  1   
 38  20  22  2   
 39  21  23  1   
 40  22  24  1   
 41  22  40  1   
 42  23  24  2   
 43  23  41  1   
 44  24  42  1   
@<TRIPOS>SUBSTRUCTURE
  1 ****  12 GROUP 4 **** **** 0

# MOE 2024.06 (io_trps.svl 2023.06)
