@<TRIPOS>MOLECULE
NONAME
26 27 1 0 0 
SMALL
USER_CHARGES


@<TRIPOS>ATOM
  1 S        0.0050     0.3330    -0.0010 S.3   1 <1>  -0.3320 
  2 C        1.5330    -0.6120     0.0270 C.ar  1 <1>   0.4120 
  3 C       -1.3380    -0.9340    -0.0150 C.3   1 <1>   0.0700 
  4 N        1.3720    -1.9320     0.0300 N.ar  1 <1>  -0.6200 
  5 C        2.7470     0.0740     0.0420 C.ar  1 <1>   0.0730 
  6 C       -2.6760    -0.1990    -0.0390 C.3   1 <1>  -0.2400 
  7 C        2.4940    -2.6350     0.0500 C.ar  1 <1>   0.1600 
  8 C        2.8200     1.5030     0.0370 C.1   1 <1>   0.4840 
  9 C        3.8930    -0.7040     0.0620 C.ar  1 <1>  -0.1440 
 10 C        3.7540    -2.0640     0.0670 C.ar  1 <1>  -0.1440 
 11 N        2.9380     2.6380     0.0340 N.1   1 <1>  -0.5570 
 12 C        5.3480    -0.2950     0.0820 C.3   1 <1>  -0.0160 
 13 C        5.0970    -2.7540     0.0920 C.3   1 <1>  -0.0160 
 14 C        6.0900    -1.6140    -0.1950 C.3   1 <1>  -0.1600 
 15 H       -1.2250    -1.5330     0.8710 H     1 <1>   0.0800 
 16 H       -1.1980    -1.5410    -0.8930 H     1 <1>   0.0800 
 17 H       -2.7710     0.4230     0.8330 H     1 <1>   0.0800 
 18 H       -3.4830    -0.9090    -0.0480 H     1 <1>   0.0800 
 19 H       -2.7440     0.4150    -0.9190 H     1 <1>   0.0800 
 20 H        2.4040    -3.7080     0.0550 H     1 <1>   0.1500 
 21 H        5.6030     0.0880     1.0550 H     1 <1>   0.0800 
 22 H        5.5670     0.4450    -0.6690 H     1 <1>   0.0800 
 23 H        5.1610    -3.5280    -0.6530 H     1 <1>   0.0800 
 24 H        5.2700    -3.1710     1.0690 H     1 <1>   0.0800 
 25 H        6.9820    -1.7020     0.4010 H     1 <1>   0.0800 
 26 H        6.3640    -1.6450    -1.2360 H     1 <1>   0.0800 
@<TRIPOS>BOND
  1   1   2  1   
  2   1   3  1   
  3   2   4  ar  
  4   2   5  ar  
  5   3   6  1   
  6   3  15  1   
  7   3  16  1   
  8   4   7  ar  
  9   5   8  1   
 10   5   9  ar  
 11   6  17  1   
 12   6  18  1   
 13   6  19  1   
 14   7  10  ar  
 15   7  20  1   
 16   8  11  3   
 17   9  10  ar  
 18   9  12  1   
 19  10  13  1   
 20  12  14  1   
 21  12  21  1   
 22  12  22  1   
 23  13  14  1   
 24  13  23  1   
 25  13  24  1   
 26  14  25  1   
 27  14  26  1   
@<TRIPOS>SUBSTRUCTURE
  1 ****   5 GROUP 4 **** **** 0

# MOE 2024.06 (io_trps.svl 2023.06)
