@<TRIPOS>MOLECULE
NONAME
39 39 1 0 0 
SMALL
USER_CHARGES


@<TRIPOS>ATOM
  1 O        0.3230     1.0580    -0.8140 O.2   1 <1>  -0.5700 
  2 C        0.0130     2.2360    -0.7580 C.2   1 <1>   0.6900 
  3 N        0.9590     3.1950    -1.0330 N.am  1 <1>  -0.6600 
  4 N       -1.2760     2.5920    -0.4340 N.am  1 <1>  -0.6600 
  5 C        1.0380     4.4580    -0.2560 C.3   1 <1>   0.1400 
  6 C        2.1600     2.8670    -1.8440 C.3   1 <1>   0.1400 
  7 C       -1.9980     3.5950    -1.2620 C.3   1 <1>   0.1400 
  8 C       -2.1340     1.6430     0.3240 C.3   1 <1>   0.1400 
  9 C        2.2840     4.4470     0.6330 C.3   1 <1>  -0.1600 
 10 C        3.4010     2.8360    -0.9500 C.3   1 <1>  -0.1600 
 11 C       -2.7110     4.6220    -0.3820 C.3   1 <1>  -0.2400 
 12 C       -1.9450     1.8880     1.8180 C.3   1 <1>  -0.2400 
 13 C        3.5690     4.1540    -0.1700 C.3   1 <1>  -0.0190 
 14 C        4.8230     4.1260     0.7030 C.2   1 <1>   0.6590 
 15 O        4.7820     4.1480     1.9070 O.2   1 <1>  -0.5700 
 16 O        5.9770     4.0890     0.0450 O.3   1 <1>  -0.4300 
 17 C        7.2160     4.0570     0.7220 C.3   1 <1>   0.0400 
 18 H        0.1700     4.5660     0.3690 H     1 <1>   0.0800 
 19 H        1.0720     5.2890    -0.9390 H     1 <1>   0.0800 
 20 H        2.2760     3.6140    -2.6110 H     1 <1>   0.0800 
 21 H        2.0350     1.9130    -2.3280 H     1 <1>   0.0800 
 22 H       -2.7140     3.0860    -1.8850 H     1 <1>   0.0800 
 23 H       -1.3040     4.1000    -1.9120 H     1 <1>   0.0800 
 24 H       -1.8640     0.6270     0.0860 H     1 <1>   0.0800 
 25 H       -3.1670     1.7780     0.0550 H     1 <1>   0.0800 
 26 H        2.1540     3.6950     1.3930 H     1 <1>   0.0800 
 27 H        2.3740     5.3970     1.1290 H     1 <1>   0.0800 
 28 H        4.2670     2.6580    -1.5610 H     1 <1>   0.0800 
 29 H        3.3090     2.0120    -0.2620 H     1 <1>   0.0800 
 30 H       -3.4800     4.1530     0.2030 H     1 <1>   0.0800 
 31 H       -3.1720     5.3680    -1.0040 H     1 <1>   0.0800 
 32 H       -2.0130     5.1100     0.2720 H     1 <1>   0.0800 
 33 H       -0.9190     1.7140     2.0890 H     1 <1>   0.0800 
 34 H       -2.5660     1.2120     2.3780 H     1 <1>   0.0800 
 35 H       -2.2160     2.8960     2.0710 H     1 <1>   0.0800 
 36 H        3.7050     4.9500    -0.8800 H     1 <1>   0.0800 
 37 H        8.0040     4.0270    -0.0080 H     1 <1>   0.0800 
 38 H        7.2490     3.1790     1.3430 H     1 <1>   0.0800 
 39 H        7.3030     4.9430     1.3280 H     1 <1>   0.0800 
@<TRIPOS>BOND
  1   1   2  2   
  2   2   3  am  
  3   2   4  am  
  4   3   5  1   
  5   3   6  1   
  6   4   7  1   
  7   4   8  1   
  8   5   9  1   
  9   5  18  1   
 10   5  19  1   
 11   6  10  1   
 12   6  20  1   
 13   6  21  1   
 14   7  11  1   
 15   7  22  1   
 16   7  23  1   
 17   8  12  1   
 18   8  24  1   
 19   8  25  1   
 20   9  13  1   
 21   9  26  1   
 22   9  27  1   
 23  10  13  1   
 24  10  28  1   
 25  10  29  1   
 26  11  30  1   
 27  11  31  1   
 28  11  32  1   
 29  12  33  1   
 30  12  34  1   
 31  12  35  1   
 32  13  14  1   
 33  13  36  1   
 34  14  15  2   
 35  14  16  1   
 36  16  17  1   
 37  17  37  1   
 38  17  38  1   
 39  17  39  1   
@<TRIPOS>SUBSTRUCTURE
  1 ****   3 GROUP 4 **** **** 0

# MOE 2024.06 (io_trps.svl 2023.06)
