@<TRIPOS>MOLECULE
NONAME
39 39 1 0 0 
SMALL
USER_CHARGES


@<TRIPOS>ATOM
  1 O       -0.5750     0.1540    -0.9750 O.2   1 <1>  -0.5700 
  2 C       -1.5460     0.8420    -0.7000 C.2   1 <1>   0.7060 
  3 O       -2.6430     0.1770    -0.3090 O.3   1 <1>  -0.2270 
  4 C       -1.5730     2.2650    -0.7880 C.2   1 <1>   0.0290 
  5 C       -3.7960     0.7940    -0.0620 C.2   1 <1>  -0.0610 
  6 C       -2.7730     2.9210    -0.5560 C.2   1 <1>   0.1000 
  7 C       -0.3730     2.9640    -1.1140 C.2   1 <1>   0.4950 
  8 C       -3.8960     2.1340    -0.1780 C.2   1 <1>  -0.1500 
  9 C       -4.9240    -0.1370     0.3360 C.3   1 <1>  -0.1020 
 10 N       -2.8900     4.2740    -0.6800 N.pl3 1 <1>  -0.8690 
 11 O       -0.3500     3.9100    -1.8750 O.2   1 <1>  -0.5700 
 12 C        0.9640     2.5870    -0.4740 C.3   1 <1>  -0.0990 
 13 C       -4.0290     5.1560    -0.3520 C.3   1 <1>   0.2090 
 14 C        1.6910     3.7950     0.1430 C.3   1 <1>  -0.1600 
 15 C       -3.4920     6.5600    -0.0800 C.3   1 <1>  -0.1600 
 16 C        3.0030     3.3740     0.8130 C.3   1 <1>  -0.2400 
 17 C       -4.6240     7.5310     0.2810 C.3   1 <1>  -0.1600 
 18 C       -4.0770     8.9350     0.5530 C.3   1 <1>  -0.2400 
 19 H       -4.8270     2.6350     0.0080 H     1 <1>   0.1500 
 20 H       -4.6580    -0.6720     1.2300 H     1 <1>   0.0800 
 21 H       -5.1070    -0.8460    -0.4510 H     1 <1>   0.0800 
 22 H       -5.8270     0.4160     0.5200 H     1 <1>   0.0800 
 23 H       -2.1040     4.7710    -1.1380 H     1 <1>   0.4000 
 24 H        1.5840     2.1410    -1.2310 H     1 <1>   0.0800 
 25 H        0.8080     1.8590     0.3000 H     1 <1>   0.0800 
 26 H       -4.5400     4.7870     0.5200 H     1 <1>   0.0800 
 27 H       -4.7150     5.1750    -1.1820 H     1 <1>   0.0800 
 28 H        1.0520     4.2660     0.8710 H     1 <1>   0.0800 
 29 H        1.9040     4.5180    -0.6270 H     1 <1>   0.0800 
 30 H       -2.9810     6.9180    -0.9560 H     1 <1>   0.0800 
 31 H       -2.7900     6.5130     0.7340 H     1 <1>   0.0800 
 32 H        2.8150     2.6700     1.6050 H     1 <1>   0.0800 
 33 H        3.4940     4.2350     1.2310 H     1 <1>   0.0800 
 34 H        3.6630     2.9200     0.0950 H     1 <1>   0.0800 
 35 H       -5.1410     7.1780     1.1570 H     1 <1>   0.0800 
 36 H       -5.3320     7.5800    -0.5290 H     1 <1>   0.0800 
 37 H       -3.3820     8.9160     1.3740 H     1 <1>   0.0800 
 38 H       -4.8830     9.6020     0.8040 H     1 <1>   0.0800 
 39 H       -3.5750     9.3200    -0.3170 H     1 <1>   0.0800 
@<TRIPOS>BOND
  1   1   2  2   
  2   2   3  1   
  3   2   4  1   
  4   3   5  1   
  5   4   6  2   
  6   4   7  1   
  7   5   8  2   
  8   5   9  1   
  9   6   8  1   
 10   6  10  1   
 11   7  11  2   
 12   7  12  1   
 13   8  19  1   
 14   9  20  1   
 15   9  21  1   
 16   9  22  1   
 17  10  13  1   
 18  10  23  1   
 19  12  14  1   
 20  12  24  1   
 21  12  25  1   
 22  13  15  1   
 23  13  26  1   
 24  13  27  1   
 25  14  16  1   
 26  14  28  1   
 27  14  29  1   
 28  15  17  1   
 29  15  30  1   
 30  15  31  1   
 31  16  32  1   
 32  16  33  1   
 33  16  34  1   
 34  17  18  1   
 35  17  35  1   
 36  17  36  1   
 37  18  37  1   
 38  18  38  1   
 39  18  39  1   
@<TRIPOS>SUBSTRUCTURE
  1 ****   6 GROUP 4 **** **** 0

# MOE 2024.06 (io_trps.svl 2023.06)
