@<TRIPOS>MOLECULE
NONAME
37 37 1 0 0 
SMALL
USER_CHARGES


@<TRIPOS>ATOM
  1 BR       1.0660     0.4240    -0.6610 Br    1 <1>  -0.1110 
  2 C        0.7010    -1.4630    -0.5320 C.ar  1 <1>   0.1110 
  3 C        1.4690    -2.2890     0.2930 C.ar  1 <1>   0.0860 
  4 C       -0.3630    -1.9280    -1.2840 C.ar  1 <1>  -0.1500 
  5 C        2.6020    -1.8370     1.0750 C.2   1 <1>   0.5440 
  6 C        1.0890    -3.6320     0.3400 C.ar  1 <1>  -0.1500 
  7 C       -0.7010    -3.2670    -1.2200 C.ar  1 <1>  -0.1500 
  8 O        2.7380    -2.2020     2.2260 O.2   1 <1>  -0.5700 
  9 N        3.5660    -1.0390     0.5360 N.am  1 <1>  -0.7300 
 10 C        0.0260    -4.1170    -0.4030 C.ar  1 <1>  -0.1500 
 11 C        4.7320    -0.4720     1.2810 C.3   1 <1>   0.2810 
 12 C        5.0620     0.9830     0.8900 C.2   1 <1>   0.6590 
 13 C        5.9360    -1.4300     1.1580 C.3   1 <1>  -0.1600 
 14 O        5.8700     1.6390     1.4990 O.2   1 <1>  -0.5700 
 15 O        4.4030     1.4880    -0.1540 O.3   1 <1>  -0.4300 
 16 C        6.3290    -1.9140    -0.2570 C.3   1 <1>  -0.0800 
 17 C        4.6050     2.8160    -0.5900 C.3   1 <1>   0.0400 
 18 C        7.4660    -2.9360    -0.1420 C.3   1 <1>  -0.2400 
 19 C        6.7720    -0.7740    -1.1830 C.3   1 <1>  -0.2400 
 20 H       -0.9210    -1.2510    -1.9060 H     1 <1>   0.1500 
 21 H        1.6430    -4.3030     0.9750 H     1 <1>   0.1500 
 22 H       -1.5270    -3.6470    -1.7980 H     1 <1>   0.1500 
 23 H        3.4190    -0.6190    -0.3850 H     1 <1>   0.3700 
 24 H       -0.2380    -5.1590    -0.3450 H     1 <1>   0.1500 
 25 H        4.4710    -0.4310     2.3250 H     1 <1>   0.0800 
 26 H        5.7010    -2.2950     1.7540 H     1 <1>   0.0800 
 27 H        6.7880    -0.9640     1.6210 H     1 <1>   0.0800 
 28 H        5.4870    -2.4140    -0.7070 H     1 <1>   0.0800 
 29 H        3.9670     2.9990    -1.4360 H     1 <1>   0.0800 
 30 H        5.6380     2.9370    -0.8700 H     1 <1>   0.0800 
 31 H        4.3570     3.4880     0.2140 H     1 <1>   0.0800 
 32 H        8.3410    -2.4830     0.2910 H     1 <1>   0.0800 
 33 H        7.7230    -3.3220    -1.1120 H     1 <1>   0.0800 
 34 H        7.1650    -3.7630     0.4770 H     1 <1>   0.0800 
 35 H        7.5250    -0.1680    -0.7090 H     1 <1>   0.0800 
 36 H        5.9390    -0.1530    -1.4510 H     1 <1>   0.0800 
 37 H        7.1800    -1.1720    -2.0950 H     1 <1>   0.0800 
@<TRIPOS>BOND
  1   1   2  1   
  2   2   3  ar  
  3   2   4  ar  
  4   3   5  1   
  5   3   6  ar  
  6   4   7  ar  
  7   4  20  1   
  8   5   8  2   
  9   5   9  am  
 10   6  10  ar  
 11   6  21  1   
 12   7  10  ar  
 13   7  22  1   
 14   9  11  1   
 15   9  23  1   
 16  10  24  1   
 17  11  12  1   
 18  11  13  1   
 19  11  25  1   
 20  12  14  2   
 21  12  15  1   
 22  13  16  1   
 23  13  26  1   
 24  13  27  1   
 25  15  17  1   
 26  16  18  1   
 27  16  19  1   
 28  16  28  1   
 29  17  29  1   
 30  17  30  1   
 31  17  31  1   
 32  18  32  1   
 33  18  33  1   
 34  18  34  1   
 35  19  35  1   
 36  19  36  1   
 37  19  37  1   
@<TRIPOS>SUBSTRUCTURE
  1 ****   9 GROUP 4 **** **** 0

# MOE 2024.06 (io_trps.svl 2023.06)
