@<TRIPOS>MOLECULE
NONAME
41 42 1 0 0 
SMALL
USER_CHARGES


@<TRIPOS>ATOM
  1 O       -0.2460    -0.0460    -0.6910 O.2   1 <1>  -0.5700 
  2 C       -0.3100     1.0270    -0.1220 C.2   1 <1>   0.6900 
  3 N        0.7950     1.7050     0.2970 N.am  1 <1>  -0.5470 
  4 N       -1.5100     1.6110     0.1090 N.am  1 <1>  -0.7300 
  5 C        2.1660     1.4130     0.2290 C.ar  1 <1>   0.1170 
  6 C       -2.7910     1.1220    -0.4350 C.3   1 <1>   0.2200 
  7 C        2.6670     0.1300     0.0280 C.ar  1 <1>  -0.1500 
  8 C        3.0730     2.4540     0.3920 C.ar  1 <1>  -0.1500 
  9 C       -3.8240     2.2770    -0.4520 C.3   1 <1>   0.2000 
 10 C       -3.2630    -0.0850     0.3840 C.3   1 <1>  -0.2400 
 11 C        4.0300    -0.1080    -0.0180 C.ar  1 <1>  -0.1430 
 12 C        4.4390     2.2320     0.3510 C.ar  1 <1>  -0.1430 
 13 O       -3.2360     3.4520    -0.9240 O.3   1 <1>  -0.5600 
 14 C       -4.3910     2.6910     0.9050 C.3   1 <1>  -0.1600 
 15 C        4.9130     0.9470     0.1460 C.ar  1 <1>  -0.1500 
 16 C        4.5570    -1.5140    -0.2410 C.3   1 <1>  -0.0970 
 17 C        5.4200     3.3760     0.5290 C.3   1 <1>  -0.0970 
 18 C       -4.0230     4.5460    -0.5810 C.3   1 <1>   0.1200 
 19 C       -4.7540     4.1540     0.7010 C.3   1 <1>  -0.1600 
 20 H        0.5720     2.5870     0.7410 H     1 <1>   0.3700 
 21 H       -1.5280     2.6320     0.1430 H     1 <1>   0.3700 
 22 H       -2.6320     0.8040    -1.4530 H     1 <1>   0.0800 
 23 H        1.9860    -0.6920    -0.0900 H     1 <1>   0.1500 
 24 H        2.7030     3.4490     0.5480 H     1 <1>   0.1500 
 25 H       -4.6330     2.0270    -1.1180 H     1 <1>   0.0800 
 26 H       -3.3310     0.1590     1.4280 H     1 <1>   0.0800 
 27 H       -2.5710    -0.8990     0.2640 H     1 <1>   0.0800 
 28 H       -4.2250    -0.4130     0.0360 H     1 <1>   0.0800 
 29 H       -3.6320     2.6030     1.6620 H     1 <1>   0.0800 
 30 H       -5.2390     2.0900     1.1820 H     1 <1>   0.0800 
 31 H        5.9720     0.7650     0.1150 H     1 <1>   0.1500 
 32 H        3.8020    -2.1330    -0.6910 H     1 <1>   0.0800 
 33 H        4.8460    -1.9470     0.6990 H     1 <1>   0.0800 
 34 H        5.4110    -1.4920    -0.8940 H     1 <1>   0.0800 
 35 H        4.9200     4.3250     0.4600 H     1 <1>   0.0800 
 36 H        6.1760     3.3340    -0.2350 H     1 <1>   0.0800 
 37 H        5.8940     3.3030     1.4910 H     1 <1>   0.0800 
 38 H       -4.7160     4.7270    -1.3850 H     1 <1>   0.0800 
 39 H       -3.3850     5.4020    -0.4440 H     1 <1>   0.0800 
 40 H       -4.4310     4.7580     1.5310 H     1 <1>   0.0800 
 41 H       -5.8140     4.2800     0.5690 H     1 <1>   0.0800 
@<TRIPOS>BOND
  1   1   2  2   
  2   2   3  am  
  3   2   4  am  
  4   3   5  1   
  5   3  20  1   
  6   4   6  1   
  7   4  21  1   
  8   5   7  ar  
  9   5   8  ar  
 10   6   9  1   
 11   6  10  1   
 12   6  22  1   
 13   7  11  ar  
 14   7  23  1   
 15   8  12  ar  
 16   8  24  1   
 17   9  13  1   
 18   9  14  1   
 19   9  25  1   
 20  10  26  1   
 21  10  27  1   
 22  10  28  1   
 23  11  15  ar  
 24  11  16  1   
 25  12  15  ar  
 26  12  17  1   
 27  13  18  1   
 28  14  19  1   
 29  14  29  1   
 30  14  30  1   
 31  15  31  1   
 32  16  32  1   
 33  16  33  1   
 34  16  34  1   
 35  17  35  1   
 36  17  36  1   
 37  17  37  1   
 38  18  19  1   
 39  18  38  1   
 40  18  39  1   
 41  19  40  1   
 42  19  41  1   
@<TRIPOS>SUBSTRUCTURE
  1 ****   3 GROUP 4 **** **** 0

# MOE 2024.06 (io_trps.svl 2023.06)
