@<TRIPOS>MOLECULE
NONAME
38 39 1 0 0 
SMALL
USER_CHARGES


@<TRIPOS>ATOM
  1 O       -0.0550     1.0310     1.7310 O.2   1 <1>  -0.5700 
  2 C       -0.0970     1.7430     0.7470 C.2   1 <1>   0.5440 
  3 N        1.0310     1.9030    -0.0070 N.am  1 <1>  -0.7300 
  4 C       -1.3160     2.4280     0.3550 C.ar  1 <1>   0.0860 
  5 C        2.3380     1.2820     0.2550 C.3   1 <1>   0.2200 
  6 C       -2.5220     1.7600     0.1100 C.ar  1 <1>  -0.1440 
  7 C       -1.2950     3.8150     0.1960 C.ar  1 <1>  -0.1500 
  8 C        3.3990     2.3830     0.3470 C.3   1 <1>  -0.1600 
  9 C        2.6530     0.2970    -0.8750 C.3   1 <1>  -0.1600 
 10 C       -3.6460     2.4700    -0.2780 C.ar  1 <1>  -0.1500 
 11 C       -2.6230     0.2470     0.2620 C.3   1 <1>  -0.0970 
 12 C       -2.4160     4.5240    -0.1940 C.ar  1 <1>  -0.1430 
 13 C        4.8050     1.7860     0.5110 C.3   1 <1>  -0.1600 
 14 C        4.0580    -0.3030    -0.7140 C.3   1 <1>  -0.1600 
 15 C       -3.5960     3.8430    -0.4310 C.ar  1 <1>  -0.1500 
 16 C       -2.3680     6.0330    -0.3570 C.3   1 <1>  -0.0970 
 17 C        5.1240     0.7970    -0.6190 C.3   1 <1>  -0.1600 
 18 H        0.9710     2.4460    -0.8670 H     1 <1>   0.3700 
 19 H        2.3080     0.7460     1.1900 H     1 <1>   0.0800 
 20 H       -0.3760     4.3380     0.3940 H     1 <1>   0.1500 
 21 H        3.1810     3.0140     1.1900 H     1 <1>   0.0800 
 22 H        3.3760     2.9820    -0.5460 H     1 <1>   0.0800 
 23 H        2.5960     0.8040    -1.8220 H     1 <1>   0.0800 
 24 H        1.9250    -0.4950    -0.8660 H     1 <1>   0.0800 
 25 H       -4.5740     1.9580    -0.4640 H     1 <1>   0.1500 
 26 H       -1.8360    -0.2360    -0.2890 H     1 <1>   0.0800 
 27 H       -3.5650    -0.1200    -0.1000 H     1 <1>   0.0800 
 28 H       -2.5280    -0.0210     1.3000 H     1 <1>   0.0800 
 29 H        4.8660     1.2770     1.4580 H     1 <1>   0.0800 
 30 H        5.5350     2.5770     0.5150 H     1 <1>   0.0800 
 31 H        4.2740    -0.9460    -1.5490 H     1 <1>   0.0800 
 32 H        4.0860    -0.9040     0.1800 H     1 <1>   0.0800 
 33 H       -4.4790     4.3780    -0.7320 H     1 <1>   0.1500 
 34 H       -1.3540     6.3910    -0.3310 H     1 <1>   0.0800 
 35 H       -2.9190     6.5020     0.4390 H     1 <1>   0.0800 
 36 H       -2.8050     6.3170    -1.2970 H     1 <1>   0.0800 
 37 H        6.0880     0.3500    -0.4450 H     1 <1>   0.0800 
 38 H        5.1720     1.3280    -1.5540 H     1 <1>   0.0800 
@<TRIPOS>BOND
  1   1   2  2   
  2   2   3  am  
  3   2   4  1   
  4   3   5  1   
  5   3  18  1   
  6   4   6  ar  
  7   4   7  ar  
  8   5   8  1   
  9   5   9  1   
 10   5  19  1   
 11   6  10  ar  
 12   6  11  1   
 13   7  12  ar  
 14   7  20  1   
 15   8  13  1   
 16   8  21  1   
 17   8  22  1   
 18   9  14  1   
 19   9  23  1   
 20   9  24  1   
 21  10  15  ar  
 22  10  25  1   
 23  11  26  1   
 24  11  27  1   
 25  11  28  1   
 26  12  15  ar  
 27  12  16  1   
 28  13  17  1   
 29  13  29  1   
 30  13  30  1   
 31  14  17  1   
 32  14  31  1   
 33  14  32  1   
 34  15  33  1   
 35  16  34  1   
 36  16  35  1   
 37  16  36  1   
 38  17  37  1   
 39  17  38  1   
@<TRIPOS>SUBSTRUCTURE
  1 ****   2 GROUP 4 **** **** 0

# MOE 2024.06 (io_trps.svl 2023.06)
