@<TRIPOS>MOLECULE
NONAME
40 42 1 0 0 
SMALL
USER_CHARGES


@<TRIPOS>ATOM
  1 CL      -0.1630    -0.4770    -0.8490 Cl    1 <1>  -0.1770 
  2 C        1.3930    -1.2050    -0.5310 C.ar  1 <1>   0.1770 
  3 C        1.8520    -1.2850     0.7710 C.ar  1 <1>  -0.1500 
  4 C        2.1430    -1.6890    -1.5870 C.ar  1 <1>  -0.1500 
  5 C        3.0850    -1.8620     1.0160 C.ar  1 <1>  -0.1500 
  6 C        3.3760    -2.2650    -1.3320 C.ar  1 <1>  -0.1500 
  7 C        3.8580    -2.3570    -0.0280 C.ar  1 <1>   0.1000 
  8 N        5.0930    -2.9320     0.2490 N.pl3 1 <1>  -0.8380 
  9 C        6.2930    -2.1740    -0.2100 C.3   1 <1>   0.2090 
 10 C        5.1890    -4.4090     0.0670 C.3   1 <1>   0.2090 
 11 C        7.5740    -2.7340     0.4450 C.3   1 <1>   0.3430 
 12 C        6.4750    -4.9560     0.7230 C.3   1 <1>   0.3430 
 13 N        7.7150    -4.2290     0.2620 N.4   1 <1>  -0.9590 
 14 C        8.9410    -4.7610     0.9150 C.3   1 <1>   0.4860 
 15 C       10.1630    -4.1470     0.2590 C.ar  1 <1>  -0.1430 
 16 C       10.4610    -4.4130    -1.0720 C.ar  1 <1>   0.1900 
 17 C       11.0180    -3.3090     0.9640 C.ar  1 <1>  -0.1500 
 18 F        9.6560    -5.1880    -1.7500 F     1 <1>  -0.1900 
 19 C       11.5640    -3.8840    -1.7210 C.ar  1 <1>  -0.1500 
 20 C       12.1200    -2.7780     0.3130 C.ar  1 <1>   0.1900 
 21 C       12.4120    -3.0470    -1.0130 C.ar  1 <1>  -0.1500 
 22 F       12.9130    -1.9870     0.9820 F     1 <1>  -0.1900 
 23 H        1.2500    -0.9000     1.5740 H     1 <1>   0.1500 
 24 H        1.7610    -1.6140    -2.5890 H     1 <1>   0.1500 
 25 H        3.4580    -1.9330     2.0220 H     1 <1>   0.1500 
 26 H        3.9630    -2.6440    -2.1470 H     1 <1>   0.1500 
 27 H        6.1790    -1.1370     0.0560 H     1 <1>   0.0800 
 28 H        6.3740    -2.2330    -1.2820 H     1 <1>   0.0800 
 29 H        5.1800    -4.6480    -0.9820 H     1 <1>   0.0800 
 30 H        4.3300    -4.8770     0.5200 H     1 <1>   0.0800 
 31 H        7.5350    -2.5020     1.4960 H     1 <1>   0.0800 
 32 H        8.4280    -2.2280     0.0270 H     1 <1>   0.0800 
 33 H        6.5600    -6.0070     0.5000 H     1 <1>   0.0800 
 34 H        6.3720    -4.8510     1.7900 H     1 <1>   0.0800 
 35 H        7.8280    -4.4050    -0.7470 H     1 <1>   0.4500 
 36 H        8.9830    -5.8320     0.8010 H     1 <1>   0.0800 
 37 H        8.9320    -4.5300     1.9680 H     1 <1>   0.0800 
 38 H       10.8580    -3.0620     2.0000 H     1 <1>   0.1500 
 39 H       11.7560    -4.1210    -2.7530 H     1 <1>   0.1500 
 40 H       13.2820    -2.6120    -1.4740 H     1 <1>   0.1500 
@<TRIPOS>BOND
  1   1   2  1   
  2   2   3  ar  
  3   2   4  ar  
  4   3   5  ar  
  5   3  23  1   
  6   4   6  ar  
  7   4  24  1   
  8   5   7  ar  
  9   5  25  1   
 10   6   7  ar  
 11   6  26  1   
 12   7   8  1   
 13   8   9  1   
 14   8  10  1   
 15   9  11  1   
 16   9  27  1   
 17   9  28  1   
 18  10  12  1   
 19  10  29  1   
 20  10  30  1   
 21  11  13  1   
 22  11  31  1   
 23  11  32  1   
 24  12  13  1   
 25  12  33  1   
 26  12  34  1   
 27  13  14  1   
 28  13  35  1   
 29  14  15  1   
 30  14  36  1   
 31  14  37  1   
 32  15  16  ar  
 33  15  17  ar  
 34  16  18  1   
 35  16  19  ar  
 36  17  20  ar  
 37  17  38  1   
 38  19  21  ar  
 39  19  39  1   
 40  20  21  ar  
 41  20  22  1   
 42  21  40  1   
@<TRIPOS>SUBSTRUCTURE
  1 ****  11 GROUP 4 **** **** 0

# MOE 2024.06 (io_trps.svl 2023.06)
