@<TRIPOS>MOLECULE
NONAME
46 48 1 0 0 
SMALL
USER_CHARGES


@<TRIPOS>ATOM
  1 S       -0.4020    -0.5130    -0.3110 S.3   1 <1>  -0.0800 
  2 C        0.4080     1.0120    -0.6640 C.2   1 <1>   0.1040 
  3 C        1.0560    -1.4370    -0.6140 C.2   1 <1>  -0.1100 
  4 N       -0.3370     2.1850    -0.6440 N.am  1 <1>  -0.4940 
  5 C        1.7240     0.7860    -0.9700 C.2   1 <1>  -0.0860 
  6 C        2.0620    -0.6130    -0.9480 C.2   1 <1>  -0.1500 
  7 C       -1.4900     2.5090     0.0250 C.2   1 <1>   0.5690 
  8 C        2.7230     1.7700    -1.2910 C.2   1 <1>   0.7160 
  9 O       -1.9140     1.8310     0.9320 O.2   1 <1>  -0.5700 
 10 C       -2.2630     3.7600    -0.4330 C.3   1 <1>  -0.0190 
 11 O        3.5000     1.5510    -2.2090 O.2   1 <1>  -0.5700 
 12 N        2.8720     2.9290    -0.5640 N.am  1 <1>  -0.6600 
 13 C       -1.5990     5.1020    -0.0170 C.3   1 <1>  -0.1860 
 14 C       -3.7420     3.7500     0.0240 C.3   1 <1>  -0.0220 
 15 C        3.3710     4.1810    -1.1950 C.3   1 <1>   0.1400 
 16 C        2.3510     3.1190     0.8170 C.3   1 <1>   0.1400 
 17 C       -0.2140     5.2970    -0.6120 C.2   1 <1>   0.9060 
 18 C       -1.5970     5.2650     1.5150 C.3   1 <1>  -0.0220 
 19 C       -3.9200     4.2920     1.4360 C.2   1 <1>  -0.2880 
 20 C        4.4840     4.7840    -0.3320 C.3   1 <1>  -0.1600 
 21 C        3.4490     3.7130     1.7050 C.3   1 <1>  -0.1600 
 22 O        0.5990     6.0340    -0.0500 O.co2 1 <1>  -0.9000 
 23 O        0.0810     4.6770    -1.6410 O.co2 1 <1>  -0.9000 
 24 C       -2.9660     4.9510     2.0990 C.2   1 <1>  -0.2880 
 25 C        4.0030     5.0150     1.1080 C.3   1 <1>  -0.1600 
 26 H        0.9950    -2.5050    -0.5100 H     1 <1>   0.1500 
 27 H        0.0490     2.9920    -1.1800 H     1 <1>   0.3700 
 28 H        3.0640    -0.9230    -1.1920 H     1 <1>   0.1500 
 29 H       -2.2790     3.7190    -1.5080 H     1 <1>   0.0800 
 30 H       -2.1930     5.8980    -0.4230 H     1 <1>   0.0800 
 31 H       -4.1300     2.7480    -0.0330 H     1 <1>   0.0800 
 32 H       -4.3200     4.3630    -0.6440 H     1 <1>   0.0800 
 33 H        2.5570     4.8830    -1.2730 H     1 <1>   0.0800 
 34 H        3.7350     3.9870    -2.1880 H     1 <1>   0.0800 
 35 H        2.0200     2.1840     1.2320 H     1 <1>   0.0800 
 36 H        1.5130     3.7930     0.7870 H     1 <1>   0.0800 
 37 H       -1.3260     6.2790     1.7560 H     1 <1>   0.0800 
 38 H       -0.8630     4.6140     1.9570 H     1 <1>   0.0800 
 39 H       -4.8890     4.0840     1.8540 H     1 <1>   0.1500 
 40 H        4.7910     5.7190    -0.7630 H     1 <1>   0.0800 
 41 H        5.3290     4.1180    -0.3380 H     1 <1>   0.0800 
 42 H        4.2410     2.9930     1.8110 H     1 <1>   0.0800 
 43 H        3.0420     3.9100     2.6800 H     1 <1>   0.0800 
 44 H       -3.0880     5.3080     3.1070 H     1 <1>   0.1500 
 45 H        3.2180     5.7560     1.0970 H     1 <1>   0.0800 
 46 H        4.8100     5.3870     1.7130 H     1 <1>   0.0800 
@<TRIPOS>BOND
  1   1   2  1   
  2   1   3  1   
  3   2   4  1   
  4   2   5  2   
  5   3   6  2   
  6   3  26  1   
  7   4   7  am  
  8   4  27  1   
  9   5   6  1   
 10   5   8  1   
 11   6  28  1   
 12   7   9  2   
 13   7  10  1   
 14   8  11  2   
 15   8  12  am  
 16  10  13  1   
 17  10  14  1   
 18  10  29  1   
 19  12  15  1   
 20  12  16  1   
 21  13  17  1   
 22  13  18  1   
 23  13  30  1   
 24  14  19  1   
 25  14  31  1   
 26  14  32  1   
 27  15  20  1   
 28  15  33  1   
 29  15  34  1   
 30  16  21  1   
 31  16  35  1   
 32  16  36  1   
 33  17  22  ar  
 34  17  23  ar  
 35  18  24  1   
 36  18  37  1   
 37  18  38  1   
 38  19  24  2   
 39  19  39  1   
 40  20  25  1   
 41  20  40  1   
 42  20  41  1   
 43  21  25  1   
 44  21  42  1   
 45  21  43  1   
 46  24  44  1   
 47  25  45  1   
 48  25  46  1   
@<TRIPOS>SUBSTRUCTURE
  1 ****   4 GROUP 4 **** **** 0

# MOE 2024.06 (io_trps.svl 2023.06)
