@<TRIPOS>MOLECULE
NONAME
48 50 1 0 0 
SMALL
USER_CHARGES


@<TRIPOS>ATOM
  1 O       -1.0150     0.2690     0.5780 O.3   1 <1>  -0.1650 
  2 C       -2.1760     0.3880     1.2710 C.ar  1 <1>   0.0830 
  3 C       -0.7110    -0.8710    -0.0900 C.ar  1 <1>   0.0830 
  4 C       -3.3370    -0.2730     0.8860 C.ar  1 <1>  -0.1500 
  5 C       -2.1920     1.2130     2.3830 C.ar  1 <1>  -0.1500 
  6 C       -0.8360    -2.1160     0.5130 C.ar  1 <1>  -0.1500 
  7 C       -0.2620    -0.7740    -1.3980 C.ar  1 <1>  -0.1500 
  8 C       -4.5080    -0.1120     1.6110 C.ar  1 <1>  -0.1430 
  9 C       -3.3550     1.3700     3.1130 C.ar  1 <1>  -0.1500 
 10 C       -0.5330    -3.2620    -0.2020 C.ar  1 <1>  -0.1500 
 11 C        0.0400    -1.9210    -2.1100 C.ar  1 <1>  -0.1500 
 12 C       -4.5100     0.7090     2.7310 C.ar  1 <1>  -0.1500 
 13 C       -5.7740    -0.8200     1.1690 C.3   1 <1>   0.4860 
 14 C       -0.1000    -3.1640    -1.5140 C.ar  1 <1>  -0.1500 
 15 N       -6.6510     0.1580     0.4750 N.4   1 <1>  -0.9590 
 16 C       -8.0040    -0.3760     0.1220 C.3   1 <1>   0.3430 
 17 C       -6.0120     0.8260    -0.7080 C.3   1 <1>   0.3430 
 18 C       -8.9030     0.7310    -0.4870 C.3   1 <1>   0.1100 
 19 C       -6.9390     1.9140    -1.3030 C.3   1 <1>   0.1100 
 20 N       -8.2170     2.0480    -0.5600 N.3   1 <1>  -0.8100 
 21 C       -9.0700     3.0870    -1.1770 C.3   1 <1>   0.1100 
 22 C      -10.1980     3.5340    -0.2390 C.3   1 <1>   0.1200 
 23 O      -10.9350     4.5300    -0.8600 O.3   1 <1>  -0.6800 
 24 H       -3.3150    -0.9060     0.0160 H     1 <1>   0.1500 
 25 H       -1.2920     1.7270     2.6740 H     1 <1>   0.1500 
 26 H       -1.1600    -2.1880     1.5360 H     1 <1>   0.1500 
 27 H       -0.1520     0.1950    -1.8510 H     1 <1>   0.1500 
 28 H       -3.3580     2.0080     3.9820 H     1 <1>   0.1500 
 29 H       -0.6280    -4.2290     0.2610 H     1 <1>   0.1500 
 30 H        0.3860    -1.8490    -3.1270 H     1 <1>   0.1500 
 31 H       -5.4030     0.8440     3.3180 H     1 <1>   0.1500 
 32 H       -6.2770    -1.2230     2.0320 H     1 <1>   0.0800 
 33 H       -5.5260    -1.6330     0.5060 H     1 <1>   0.0800 
 34 H        0.1360    -4.0550    -2.0690 H     1 <1>   0.1500 
 35 H       -6.8360     0.9460     1.1130 H     1 <1>   0.4500 
 36 H       -8.4870    -0.7670     1.0020 H     1 <1>   0.0800 
 37 H       -7.9110    -1.1820    -0.5870 H     1 <1>   0.0800 
 38 H       -5.7840     0.0980    -1.4680 H     1 <1>   0.0800 
 39 H       -5.0850     1.2900    -0.4120 H     1 <1>   0.0800 
 40 H       -9.7890     0.8150     0.1180 H     1 <1>   0.0800 
 41 H       -9.2160     0.4260    -1.4720 H     1 <1>   0.0800 
 42 H       -7.1380     1.6780    -2.3350 H     1 <1>   0.0800 
 43 H       -6.4160     2.8550    -1.2840 H     1 <1>   0.0800 
 44 H       -9.4910     2.7210    -2.0990 H     1 <1>   0.0800 
 45 H       -8.4640     3.9510    -1.3980 H     1 <1>   0.0800 
 46 H       -9.8050     3.9270     0.6820 H     1 <1>   0.0800 
 47 H      -10.8730     2.7230    -0.0330 H     1 <1>   0.0800 
 48 H      -10.4350     5.3690    -0.8960 H     1 <1>   0.4000 
@<TRIPOS>BOND
  1   1   2  1   
  2   1   3  1   
  3   2   4  ar  
  4   2   5  ar  
  5   3   6  ar  
  6   3   7  ar  
  7   4   8  ar  
  8   4  24  1   
  9   5   9  ar  
 10   5  25  1   
 11   6  10  ar  
 12   6  26  1   
 13   7  11  ar  
 14   7  27  1   
 15   8  12  ar  
 16   8  13  1   
 17   9  12  ar  
 18   9  28  1   
 19  10  14  ar  
 20  10  29  1   
 21  11  14  ar  
 22  11  30  1   
 23  12  31  1   
 24  13  15  1   
 25  13  32  1   
 26  13  33  1   
 27  14  34  1   
 28  15  16  1   
 29  15  17  1   
 30  15  35  1   
 31  16  18  1   
 32  16  36  1   
 33  16  37  1   
 34  17  19  1   
 35  17  38  1   
 36  17  39  1   
 37  18  20  1   
 38  18  40  1   
 39  18  41  1   
 40  19  20  1   
 41  19  42  1   
 42  19  43  1   
 43  20  21  1   
 44  21  22  1   
 45  21  44  1   
 46  21  45  1   
 47  22  23  1   
 48  22  46  1   
 49  22  47  1   
 50  23  48  1   
@<TRIPOS>SUBSTRUCTURE
  1 ****   8 GROUP 4 **** **** 0

# MOE 2024.06 (io_trps.svl 2023.06)
