@<TRIPOS>MOLECULE
NONAME
41 42 1 0 0 
SMALL
USER_CHARGES


@<TRIPOS>ATOM
  1 O       -0.9060     0.9440     0.0800 O.2   1 <1>  -0.5700 
  2 C       -0.9840    -0.0680     0.7400 C.2   1 <1>   0.6160 
  3 N       -2.1990    -0.3150     1.2960 N.am  1 <1>  -0.7300 
  4 C        0.1400    -0.9500     0.8980 C.2   1 <1>  -0.1360 
  5 C       -2.8320    -1.6210     1.5520 C.3   1 <1>   0.1400 
  6 C        1.3000    -0.9180     0.2010 C.2   1 <1>  -0.1780 
  7 C       -3.8370    -1.8900     0.4310 C.3   1 <1>  -0.1600 
  8 C        2.4560    -1.7690     0.3270 C.ar  1 <1>   0.0280 
  9 C       -4.5150    -3.2480     0.6140 C.3   1 <1>   0.3430 
 10 C        3.4250    -1.7660    -0.6810 C.ar  1 <1>  -0.1500 
 11 C        2.6560    -2.6100     1.4340 C.ar  1 <1>  -0.1500 
 12 N       -5.3880    -3.5590    -0.5570 N.4   1 <1>  -0.9590 
 13 C        4.5280    -2.5860    -0.5600 C.ar  1 <1>   0.0830 
 14 C        3.7710    -3.4300     1.5420 C.ar  1 <1>  -0.1500 
 15 C       -6.6090    -2.6910    -0.6130 C.3   1 <1>   0.2630 
 16 C       -5.7850    -5.0020    -0.5480 C.3   1 <1>   0.2630 
 17 O        5.5540    -2.7290    -1.4070 O.3   1 <1>  -0.3620 
 18 C        4.6980    -3.3990     0.5210 C.ar  1 <1>   0.0830 
 19 C        6.4320    -3.6930    -0.8270 C.3   1 <1>   0.4000 
 20 O        5.8340    -4.0890     0.4050 O.3   1 <1>  -0.3620 
 21 H       -2.8340     0.4840     1.2140 H     1 <1>   0.3700 
 22 H        0.0020    -1.6850     1.6620 H     1 <1>   0.1500 
 23 H       -2.0850    -2.3970     1.5770 H     1 <1>   0.0800 
 24 H       -3.3260    -1.5900     2.5100 H     1 <1>   0.0800 
 25 H        1.4020    -0.1630    -0.5630 H     1 <1>   0.1500 
 26 H       -3.3110    -1.8760    -0.5080 H     1 <1>   0.0800 
 27 H       -4.5730    -1.1060     0.4390 H     1 <1>   0.0800 
 28 H       -5.0980    -3.2510     1.5220 H     1 <1>   0.0800 
 29 H       -3.7530    -4.0060     0.7010 H     1 <1>   0.0800 
 30 H        3.3240    -1.1380    -1.5470 H     1 <1>   0.1500 
 31 H        1.9380    -2.6210     2.2310 H     1 <1>   0.1500 
 32 H       -4.8360    -3.3890    -1.4130 H     1 <1>   0.4500 
 33 H        3.9230    -4.0730     2.3900 H     1 <1>   0.1500 
 34 H       -7.2020    -2.8190     0.2790 H     1 <1>   0.0800 
 35 H       -7.2130    -2.9510    -1.4670 H     1 <1>   0.0800 
 36 H       -6.3320    -1.6530    -0.6970 H     1 <1>   0.0800 
 37 H       -6.3650    -5.2270     0.3330 H     1 <1>   0.0800 
 38 H       -4.9100    -5.6320    -0.5550 H     1 <1>   0.0800 
 39 H       -6.3780    -5.2330    -1.4190 H     1 <1>   0.0800 
 40 H        6.5140    -4.5450    -1.4790 H     1 <1>   0.0800 
 41 H        7.3890    -3.2410    -0.6360 H     1 <1>   0.0800 
@<TRIPOS>BOND
  1   1   2  2   
  2   2   3  am  
  3   2   4  1   
  4   3   5  1   
  5   3  21  1   
  6   4   6  2   
  7   4  22  1   
  8   5   7  1   
  9   5  23  1   
 10   5  24  1   
 11   6   8  1   
 12   6  25  1   
 13   7   9  1   
 14   7  26  1   
 15   7  27  1   
 16   8  10  ar  
 17   8  11  ar  
 18   9  12  1   
 19   9  28  1   
 20   9  29  1   
 21  10  13  ar  
 22  10  30  1   
 23  11  14  ar  
 24  11  31  1   
 25  12  15  1   
 26  12  16  1   
 27  12  32  1   
 28  13  17  1   
 29  13  18  ar  
 30  14  18  ar  
 31  14  33  1   
 32  15  34  1   
 33  15  35  1   
 34  15  36  1   
 35  16  37  1   
 36  16  38  1   
 37  16  39  1   
 38  17  19  1   
 39  18  20  1   
 40  19  20  1   
 41  19  40  1   
 42  19  41  1   
@<TRIPOS>SUBSTRUCTURE
  1 ****   4 GROUP 4 **** **** 0

# MOE 2024.06 (io_trps.svl 2023.06)
