@<TRIPOS>MOLECULE
NONAME
43 44 1 0 0 
SMALL
USER_CHARGES


@<TRIPOS>ATOM
  1 CL      -0.5300     0.1520     1.7460 Cl    1 <1>  -0.1770 
  2 C        0.9090    -0.7290     1.2720 C.ar  1 <1>   0.1770 
  3 C        0.7770    -1.9450     0.6070 C.ar  1 <1>   0.1170 
  4 C        2.1480    -0.1950     1.5580 C.ar  1 <1>  -0.1500 
  5 N       -0.5030    -2.4570     0.3480 N.am  1 <1>  -0.5470 
  6 C        1.9360    -2.6130     0.2330 C.ar  1 <1>  -0.1500 
  7 C        3.2870    -0.8820     1.1760 C.ar  1 <1>  -0.1500 
  8 C       -0.9900    -3.1460    -0.7220 C.2   1 <1>   0.5690 
  9 C        3.2110    -2.1090     0.5060 C.ar  1 <1>   0.0860 
 10 O       -0.3100    -3.5350    -1.6380 O.2   1 <1>  -0.5700 
 11 C       -2.5040    -3.3750    -0.7550 C.3   1 <1>   0.1710 
 12 C        4.4040    -2.8380     0.1100 C.2   1 <1>   0.6340 
 13 N       -3.2910    -2.2870    -0.0850 N.3   1 <1>  -0.8100 
 14 O        4.3790    -3.9580    -0.3540 O.2   1 <1>  -0.5700 
 15 O        5.5890    -2.2380     0.2730 O.3   1 <1>  -0.4300 
 16 C       -4.6940    -2.6960     0.1330 C.3   1 <1>   0.1100 
 17 C       -3.2230    -1.0180    -0.8500 C.3   1 <1>   0.1100 
 18 C        6.8000    -2.8720    -0.0890 C.3   1 <1>   0.0400 
 19 C       -5.4990    -1.5910     0.8510 C.3   1 <1>   0.3430 
 20 C       -4.0040     0.1110    -0.1460 C.3   1 <1>   0.3430 
 21 N       -5.4340    -0.2800     0.1140 N.4   1 <1>  -0.9590 
 22 C       -6.1570     0.7940     0.8590 C.3   1 <1>   0.2630 
 23 H        2.2210     0.7470     2.0720 H     1 <1>   0.1500 
 24 H       -1.2490    -2.1130     0.9600 H     1 <1>   0.3700 
 25 H        1.8520    -3.5550    -0.2830 H     1 <1>   0.1500 
 26 H        4.2520    -0.4600     1.4030 H     1 <1>   0.1500 
 27 H       -2.6900    -4.3100    -0.2580 H     1 <1>   0.0800 
 28 H       -2.8130    -3.4790    -1.7810 H     1 <1>   0.0800 
 29 H       -4.7120    -3.5840     0.7420 H     1 <1>   0.0800 
 30 H       -5.1620    -2.9320    -0.8080 H     1 <1>   0.0800 
 31 H       -3.6150    -1.1630    -1.8430 H     1 <1>   0.0800 
 32 H       -2.1960    -0.7070    -0.9490 H     1 <1>   0.0800 
 33 H        7.6140    -2.2040     0.1290 H     1 <1>   0.0800 
 34 H        6.7750    -3.0950    -1.1410 H     1 <1>   0.0800 
 35 H        6.9010    -3.7800     0.4810 H     1 <1>   0.0800 
 36 H       -5.0950    -1.4690     1.8420 H     1 <1>   0.0800 
 37 H       -6.5250    -1.9070     0.9480 H     1 <1>   0.0800 
 38 H       -3.9700     0.9990    -0.7560 H     1 <1>   0.0800 
 39 H       -3.5120     0.3320     0.7870 H     1 <1>   0.0800 
 40 H       -5.8860    -0.4170    -0.8010 H     1 <1>   0.4500 
 41 H       -5.6970     0.9570     1.8210 H     1 <1>   0.0800 
 42 H       -7.1870     0.5170     1.0120 H     1 <1>   0.0800 
 43 H       -6.1290     1.7190     0.3040 H     1 <1>   0.0800 
@<TRIPOS>BOND
  1   1   2  1   
  2   2   3  ar  
  3   2   4  ar  
  4   3   5  1   
  5   3   6  ar  
  6   4   7  ar  
  7   4  23  1   
  8   5   8  am  
  9   5  24  1   
 10   6   9  ar  
 11   6  25  1   
 12   7   9  ar  
 13   7  26  1   
 14   8  10  2   
 15   8  11  1   
 16   9  12  1   
 17  11  13  1   
 18  11  27  1   
 19  11  28  1   
 20  12  14  2   
 21  12  15  1   
 22  13  16  1   
 23  13  17  1   
 24  15  18  1   
 25  16  19  1   
 26  16  29  1   
 27  16  30  1   
 28  17  20  1   
 29  17  31  1   
 30  17  32  1   
 31  18  33  1   
 32  18  34  1   
 33  18  35  1   
 34  19  21  1   
 35  19  36  1   
 36  19  37  1   
 37  20  21  1   
 38  20  38  1   
 39  20  39  1   
 40  21  22  1   
 41  21  40  1   
 42  22  41  1   
 43  22  42  1   
 44  22  43  1   
@<TRIPOS>SUBSTRUCTURE
  1 ****   5 GROUP 4 **** **** 0

# MOE 2024.06 (io_trps.svl 2023.06)
