@<TRIPOS>MOLECULE
NONAME
41 42 1 0 0 
SMALL
USER_CHARGES


@<TRIPOS>ATOM
  1 CL       2.6920     0.1030     2.5550 Cl    1 <1>  -0.1770 
  2 C        2.2830     1.3600     1.4160 C.ar  1 <1>   0.1770 
  3 C        1.4010     2.3550     1.7940 C.ar  1 <1>  -0.1500 
  4 C        2.8470     1.3380     0.1550 C.ar  1 <1>  -0.1500 
  5 C        1.0550     3.3690     0.9060 C.ar  1 <1>  -0.0090 
  6 C        2.5160     2.3390    -0.7400 C.ar  1 <1>  -0.1500 
  7 S       -0.0850     4.6830     1.4140 S.o2  1 <1>   1.4470 
  8 C        1.6340     3.3430    -0.3620 C.ar  1 <1>   0.0830 
  9 O        0.6270     5.9420     1.4640 O.2   1 <1>  -0.6500 
 10 O       -0.8000     4.2580     2.6000 O.2   1 <1>  -0.6500 
 11 N       -1.2550     4.7980     0.1920 N.am  1 <1>  -0.8490 
 12 O        1.3260     4.2850    -1.2720 O.3   1 <1>  -0.3630 
 13 C       -2.0210     6.0470     0.2950 C.3   1 <1>   0.1960 
 14 C       -2.1260     3.6230     0.1390 C.3   1 <1>   0.1960 
 15 C        2.1920     5.3910    -1.3700 C.3   1 <1>   0.1200 
 16 C       -2.9700     6.2130    -0.8980 C.3   1 <1>  -0.0190 
 17 C       -3.0430     3.7040    -1.0850 C.3   1 <1>  -0.1600 
 18 C        1.4720     6.4760    -2.1650 C.3   1 <1>  -0.2400 
 19 C       -3.7470     7.5140    -0.7580 C.2   1 <1>   0.5690 
 20 C       -3.8860     4.9850    -1.0640 C.3   1 <1>  -0.1600 
 21 O       -3.5130     8.4310    -1.4990 O.2   1 <1>  -0.5700 
 22 N       -4.6890     7.6530     0.1950 N.am  1 <1>  -0.8000 
 23 H        0.9850     2.3370     2.7860 H     1 <1>   0.1500 
 24 H        3.5280     0.5520    -0.1170 H     1 <1>   0.1500 
 25 H        2.9330     2.3450    -1.7310 H     1 <1>   0.1500 
 26 H       -1.3440     6.8860     0.3070 H     1 <1>   0.0800 
 27 H       -2.5760     6.0540     1.2190 H     1 <1>   0.0800 
 28 H       -2.7180     3.5600     1.0390 H     1 <1>   0.0800 
 29 H       -1.5270     2.7300     0.0660 H     1 <1>   0.0800 
 30 H        3.0920     5.0760    -1.8680 H     1 <1>   0.0800 
 31 H        2.4260     5.7420    -0.3790 H     1 <1>   0.0800 
 32 H       -2.3590     6.3000    -1.7800 H     1 <1>   0.0800 
 33 H       -3.6890     2.8440    -1.1050 H     1 <1>   0.0800 
 34 H       -2.4350     3.6790    -1.9730 H     1 <1>   0.0800 
 35 H        1.2260     6.1160    -3.1470 H     1 <1>   0.0800 
 36 H        2.1050     7.3380    -2.2600 H     1 <1>   0.0800 
 37 H        0.5720     6.7670    -1.6520 H     1 <1>   0.0800 
 38 H       -4.4470     5.0700    -1.9790 H     1 <1>   0.0800 
 39 H       -4.5840     4.9310    -0.2460 H     1 <1>   0.0800 
 40 H       -5.1930     8.5380     0.2620 H     1 <1>   0.3700 
 41 H       -4.9630     6.9220     0.8500 H     1 <1>   0.3700 
@<TRIPOS>BOND
  1   1   2  1   
  2   2   3  ar  
  3   2   4  ar  
  4   3   5  ar  
  5   3  23  1   
  6   4   6  ar  
  7   4  24  1   
  8   5   7  1   
  9   5   8  ar  
 10   6   8  ar  
 11   6  25  1   
 12   7   9  2   
 13   7  10  2   
 14   7  11  am  
 15   8  12  1   
 16  11  13  1   
 17  11  14  1   
 18  12  15  1   
 19  13  16  1   
 20  13  26  1   
 21  13  27  1   
 22  14  17  1   
 23  14  28  1   
 24  14  29  1   
 25  15  18  1   
 26  15  30  1   
 27  15  31  1   
 28  16  19  1   
 29  16  20  1   
 30  16  32  1   
 31  17  20  1   
 32  17  33  1   
 33  17  34  1   
 34  18  35  1   
 35  18  36  1   
 36  18  37  1   
 37  19  21  2   
 38  19  22  am  
 39  20  38  1   
 40  20  39  1   
 41  22  40  1   
 42  22  41  1   
@<TRIPOS>SUBSTRUCTURE
  1 ****  11 GROUP 4 **** **** 0

# MOE 2024.06 (io_trps.svl 2023.06)
