@<TRIPOS>MOLECULE
NONAME
36 36 1 0 0 
SMALL
USER_CHARGES


@<TRIPOS>ATOM
  1 O       -0.2150    -0.0060    -0.4990 O.2   1 <1>  -0.5700 
  2 C       -0.0930     1.1370    -0.1110 C.2   1 <1>   0.7800 
  3 O       -1.1500     1.9180     0.1080 O.3   1 <1>  -0.4300 
  4 N        1.1010     1.7400     0.1300 N.am  1 <1>  -0.5470 
  5 C       -2.5110     1.5780    -0.0590 C.3   1 <1>   0.2800 
  6 C        2.4260     1.2860     0.0340 C.ar  1 <1>   0.1170 
  7 C       -3.2870     2.8370     0.3320 C.3   1 <1>  -0.2400 
  8 C       -2.7990     1.2430    -1.5270 C.3   1 <1>  -0.2400 
  9 C       -2.8930     0.4350     0.8890 C.3   1 <1>  -0.2400 
 10 C        3.4490     2.2280     0.0050 C.ar  1 <1>  -0.1500 
 11 C        2.7690    -0.0620    -0.0200 C.ar  1 <1>  -0.1500 
 12 C        4.7760     1.8430    -0.0810 C.ar  1 <1>  -0.1500 
 13 C        4.0930    -0.4520    -0.1070 C.ar  1 <1>  -0.1500 
 14 C        5.1050     0.4920    -0.1380 C.ar  1 <1>   0.0820 
 15 O        6.3780     0.0230    -0.2240 O.3   1 <1>  -0.3630 
 16 C        7.4740     0.9040    -0.2810 C.3   1 <1>   0.1200 
 17 C        8.7460     0.0690    -0.3830 C.3   1 <1>  -0.2400 
 18 H        0.9840     2.7130     0.3960 H     1 <1>   0.3700 
 19 H       -3.0800     3.1020     1.3530 H     1 <1>   0.0800 
 20 H       -4.3450     2.6690     0.2350 H     1 <1>   0.0800 
 21 H       -3.0150     3.6570    -0.3070 H     1 <1>   0.0800 
 22 H       -2.4560     2.0360    -2.1670 H     1 <1>   0.0800 
 23 H       -3.8560     1.1210    -1.6740 H     1 <1>   0.0800 
 24 H       -2.3240     0.3240    -1.8170 H     1 <1>   0.0800 
 25 H       -2.6140     0.6750     1.8980 H     1 <1>   0.0800 
 26 H       -2.4190    -0.4850     0.6000 H     1 <1>   0.0800 
 27 H       -3.9550     0.2740     0.8580 H     1 <1>   0.0800 
 28 H        3.2080     3.2740     0.0470 H     1 <1>   0.1500 
 29 H        2.0060    -0.8180     0.0070 H     1 <1>   0.1500 
 30 H        5.5330     2.6030    -0.1020 H     1 <1>   0.1500 
 31 H        4.3490    -1.4950    -0.1510 H     1 <1>   0.1500 
 32 H        7.4810     1.4990     0.6170 H     1 <1>   0.0800 
 33 H        7.3610     1.5330    -1.1470 H     1 <1>   0.0800 
 34 H        8.8400    -0.5680     0.4790 H     1 <1>   0.0800 
 35 H        9.6040     0.7140    -0.4290 H     1 <1>   0.0800 
 36 H        8.7210    -0.5340    -1.2730 H     1 <1>   0.0800 
@<TRIPOS>BOND
  1   1   2  2   
  2   2   3  1   
  3   2   4  am  
  4   3   5  1   
  5   4   6  1   
  6   4  18  1   
  7   5   7  1   
  8   5   8  1   
  9   5   9  1   
 10   6  10  ar  
 11   6  11  ar  
 12   7  19  1   
 13   7  20  1   
 14   7  21  1   
 15   8  22  1   
 16   8  23  1   
 17   8  24  1   
 18   9  25  1   
 19   9  26  1   
 20   9  27  1   
 21  10  12  ar  
 22  10  28  1   
 23  11  13  ar  
 24  11  29  1   
 25  12  14  ar  
 26  12  30  1   
 27  13  14  ar  
 28  13  31  1   
 29  14  15  1   
 30  15  16  1   
 31  16  17  1   
 32  16  32  1   
 33  16  33  1   
 34  17  34  1   
 35  17  35  1   
 36  17  36  1   
@<TRIPOS>SUBSTRUCTURE
  1 ****   6 GROUP 4 **** **** 0

# MOE 2024.06 (io_trps.svl 2023.06)
