@<TRIPOS>MOLECULE
NONAME
35 35 1 0 0 
SMALL
USER_CHARGES


@<TRIPOS>ATOM
  1 P        0.1010     0.0110     0.5300 P.3   1 <1>   0.9000 
  2 O       -1.2520     0.2930     1.1050 O.co2 1 <1>  -0.9500 
  3 O        1.2180    -0.3160     1.4730 O.co2 1 <1>  -0.9500 
  4 C        0.6000     1.4270    -0.5040 C.3   1 <1>   0.1400 
  5 C       -0.0310    -1.3090    -0.7210 C.3   1 <1>   0.1400 
  6 N        0.8640     2.7430     0.1720 N.am  1 <1>  -0.6600 
  7 N       -0.5820    -2.6790    -0.3640 N.am  1 <1>  -0.6600 
  8 C        1.5870     3.7630    -0.3250 C.2   1 <1>   0.5690 
  9 C        0.5100     2.9160     1.5910 C.3   1 <1>   0.1400 
 10 C       -1.1470    -3.4550    -1.3380 C.2   1 <1>   0.5690 
 11 C       -0.4530    -3.0830     1.0670 C.3   1 <1>   0.1400 
 12 O        2.0310     3.8470    -1.4460 O.2   1 <1>  -0.5700 
 13 C        1.7910     4.8250     0.7210 C.3   1 <1>  -0.0990 
 14 C        0.8850     4.3760     1.8830 C.3   1 <1>  -0.1600 
 15 O       -1.1580    -3.1310    -2.5030 O.2   1 <1>  -0.5700 
 16 C       -1.7780    -4.7840    -0.9920 C.3   1 <1>  -0.1790 
 17 C        0.9390    -3.6620     1.3060 C.3   1 <1>  -0.2400 
 18 H       -0.1580     1.6160    -1.2400 H     1 <1>   0.0800 
 19 H        1.4930     1.1820    -1.0460 H     1 <1>   0.0800 
 20 H        0.9380    -1.4830    -1.1460 H     1 <1>   0.0800 
 21 H       -0.6420    -0.9420    -1.5230 H     1 <1>   0.0800 
 22 H        1.0920     2.2350     2.1910 H     1 <1>   0.0800 
 23 H       -0.5390     2.7290     1.7490 H     1 <1>   0.0800 
 24 H       -1.1960    -3.8160     1.3190 H     1 <1>   0.0800 
 25 H       -0.6210    -2.2420     1.7190 H     1 <1>   0.0800 
 26 H        1.5090     5.7890     0.3410 H     1 <1>   0.0800 
 27 H        2.8240     4.8250     1.0140 H     1 <1>   0.0800 
 28 H        1.3730     4.4650     2.8370 H     1 <1>   0.0800 
 29 H       -0.0150     4.9640     1.8940 H     1 <1>   0.0800 
 30 H       -1.0570    -5.4170    -0.5130 H     1 <1>   0.0800 
 31 H       -2.1220    -5.2660    -1.8880 H     1 <1>   0.0800 
 32 H       -2.6160    -4.6240    -0.3410 H     1 <1>   0.0800 
 33 H        1.1140    -4.5070     0.6670 H     1 <1>   0.0800 
 34 H        1.0270    -3.9700     2.3310 H     1 <1>   0.0800 
 35 H        1.6830    -2.9080     1.1200 H     1 <1>   0.0800 
@<TRIPOS>BOND
  1   1   2  ar  
  2   1   3  ar  
  3   1   4  1   
  4   1   5  1   
  5   4   6  1   
  6   4  18  1   
  7   4  19  1   
  8   5   7  1   
  9   5  20  1   
 10   5  21  1   
 11   6   8  am  
 12   6   9  1   
 13   7  10  am  
 14   7  11  1   
 15   8  12  2   
 16   8  13  1   
 17   9  14  1   
 18   9  22  1   
 19   9  23  1   
 20  10  15  2   
 21  10  16  1   
 22  11  17  1   
 23  11  24  1   
 24  11  25  1   
 25  13  14  1   
 26  13  26  1   
 27  13  27  1   
 28  14  28  1   
 29  14  29  1   
 30  16  30  1   
 31  16  31  1   
 32  16  32  1   
 33  17  33  1   
 34  17  34  1   
 35  17  35  1   
@<TRIPOS>SUBSTRUCTURE
  1 ****   1 GROUP 4 **** **** 0

# MOE 2024.06 (io_trps.svl 2023.06)
