@<TRIPOS>MOLECULE
NONAME
33 34 1 0 0 
SMALL
USER_CHARGES


@<TRIPOS>ATOM
  1 O       -0.1980     0.3590    -0.8160 O.3   1 <1>  -0.0190 
  2 N       -1.4110    -0.0820    -0.9190 N.2   1 <1>  -0.4100 
  3 C       -0.3300     1.5630    -0.3160 C.2   1 <1>   0.2980 
  4 C       -2.2030     0.8370    -0.4920 C.2   1 <1>   0.4620 
  5 N       -1.5300     1.9190    -0.0930 N.2   1 <1>  -0.5650 
  6 C        0.9460     2.3880    -0.0610 C.3   1 <1>   0.1800 
  7 C       -3.6530     0.7470    -0.4360 C.ar  1 <1>   0.0540 
  8 C        1.8550     1.6480     0.9330 C.3   1 <1>  -0.2400 
  9 C        1.7070     2.5930    -1.3810 C.3   1 <1>  -0.2400 
 10 C        0.6100     3.7710     0.5260 C.3   1 <1>  -0.2400 
 11 C       -4.4370     1.7960     0.0440 C.ar  1 <1>  -0.1500 
 12 C       -4.3240    -0.4020    -0.8630 C.ar  1 <1>  -0.1500 
 13 C       -5.8180     1.7150     0.0990 C.ar  1 <1>   0.0830 
 14 C       -5.7020    -0.4980    -0.8130 C.ar  1 <1>  -0.1500 
 15 O       -6.4750     2.7990     0.5850 O.3   1 <1>  -0.3630 
 16 C       -6.4550     0.5570    -0.3330 C.ar  1 <1>  -0.1500 
 17 C       -7.8810     2.8210     0.6850 C.3   1 <1>   0.0400 
 18 H        1.3350     1.4870     1.8610 H     1 <1>   0.0800 
 19 H        2.7460     2.2170     1.1330 H     1 <1>   0.0800 
 20 H        2.1460     0.6890     0.5390 H     1 <1>   0.0800 
 21 H        1.9950     1.6470    -1.8030 H     1 <1>   0.0800 
 22 H        2.5940     3.1800    -1.2230 H     1 <1>   0.0800 
 23 H        1.0810     3.1030    -2.0930 H     1 <1>   0.0800 
 24 H        0.0840     3.6630     1.4580 H     1 <1>   0.0800 
 25 H       -0.0200     4.3210    -0.1520 H     1 <1>   0.0800 
 26 H        1.5040     4.3420     0.7020 H     1 <1>   0.0800 
 27 H       -3.9670     2.7010     0.3840 H     1 <1>   0.1500 
 28 H       -3.7540    -1.2340    -1.2400 H     1 <1>   0.1500 
 29 H       -6.1900    -1.3970    -1.1500 H     1 <1>   0.1500 
 30 H       -7.5240     0.4600    -0.3040 H     1 <1>   0.1500 
 31 H       -8.1710     3.7730     1.0930 H     1 <1>   0.0800 
 32 H       -8.1970     2.0310     1.3420 H     1 <1>   0.0800 
 33 H       -8.3030     2.7010    -0.2970 H     1 <1>   0.0800 
@<TRIPOS>BOND
  1   1   2  1   
  2   1   3  1   
  3   2   4  2   
  4   3   5  2   
  5   3   6  1   
  6   4   5  1   
  7   4   7  1   
  8   6   8  1   
  9   6   9  1   
 10   6  10  1   
 11   7  11  ar  
 12   7  12  ar  
 13   8  18  1   
 14   8  19  1   
 15   8  20  1   
 16   9  21  1   
 17   9  22  1   
 18   9  23  1   
 19  10  24  1   
 20  10  25  1   
 21  10  26  1   
 22  11  13  ar  
 23  11  27  1   
 24  12  14  ar  
 25  12  28  1   
 26  13  15  1   
 27  13  16  ar  
 28  14  16  ar  
 29  14  29  1   
 30  15  17  1   
 31  16  30  1   
 32  17  31  1   
 33  17  32  1   
 34  17  33  1   
@<TRIPOS>SUBSTRUCTURE
  1 ****   4 GROUP 4 **** **** 0

# MOE 2024.06 (io_trps.svl 2023.06)
