@<TRIPOS>MOLECULE
NONAME
43 45 1 0 0 
SMALL
USER_CHARGES


@<TRIPOS>ATOM
  1 CL       1.8990     2.0260    -3.2220 Cl    1 <1>  -0.1770 
  2 C        2.3860     1.7300    -1.5730 C.ar  1 <1>   0.1770 
  3 C        3.5870     1.0950    -1.3300 C.ar  1 <1>  -0.1500 
  4 C        1.5610     2.1380    -0.5400 C.ar  1 <1>  -0.1500 
  5 C        3.9850     0.8550    -0.0200 C.ar  1 <1>   0.1000 
  6 C        1.9540     1.9000     0.7670 C.ar  1 <1>  -0.1500 
  7 N        5.1860     0.2170     0.2680 N.pl3 1 <1>  -0.8380 
  8 C        3.1570     1.2630     1.0190 C.ar  1 <1>  -0.1500 
  9 C        6.4340     0.9500    -0.0950 C.3   1 <1>   0.2090 
 10 C        5.2320    -1.2500     0.0050 C.3   1 <1>   0.2090 
 11 C        7.6640     0.3000     0.5730 C.3   1 <1>   0.3430 
 12 C        6.4680    -1.8870     0.6750 C.3   1 <1>   0.3430 
 13 N        7.7530    -1.1870     0.3070 N.4   1 <1>  -0.9590 
 14 C        8.9300    -1.7910     0.9880 C.3   1 <1>   0.4860 
 15 C       10.1830    -1.1640     0.4140 C.ar  1 <1>  -0.1430 
 16 C       10.8920    -0.2240     1.1480 C.ar  1 <1>  -0.1500 
 17 C       10.6280    -1.5160    -0.8520 C.ar  1 <1>  -0.1500 
 18 C       12.0230     0.3670     0.6140 C.ar  1 <1>  -0.1500 
 19 C       11.7600    -0.9220    -1.3820 C.ar  1 <1>  -0.1500 
 20 C       12.4620     0.0230    -0.6530 C.ar  1 <1>  -0.1430 
 21 C       13.7040     0.6720    -1.2370 C.3   1 <1>  -0.0970 
 22 H        4.2010     0.7920    -2.1540 H     1 <1>   0.1500 
 23 H        0.6310     2.6310    -0.7590 H     1 <1>   0.1500 
 24 H        1.3240     2.2110     1.5830 H     1 <1>   0.1500 
 25 H        3.4640     1.0790     2.0320 H     1 <1>   0.1500 
 26 H        6.3510     1.9740     0.2310 H     1 <1>   0.0800 
 27 H        6.5580     0.9530    -1.1640 H     1 <1>   0.0800 
 28 H        5.2560    -1.4280    -1.0560 H     1 <1>   0.0800 
 29 H        4.3380    -1.7070     0.3960 H     1 <1>   0.0800 
 30 H        7.5950     0.4720     1.6340 H     1 <1>   0.0800 
 31 H        8.5540     0.7910     0.2170 H     1 <1>   0.0800 
 32 H        6.5210    -2.9270     0.3950 H     1 <1>   0.0800 
 33 H        6.3260    -1.8390     1.7420 H     1 <1>   0.0800 
 34 H        7.9110    -1.2940    -0.7020 H     1 <1>   0.4500 
 35 H        8.9550    -2.8550     0.8170 H     1 <1>   0.0800 
 36 H        8.8810    -1.6150     2.0500 H     1 <1>   0.0800 
 37 H       10.5810     0.0600     2.1390 H     1 <1>   0.1500 
 38 H       10.1110    -2.2540    -1.4410 H     1 <1>   0.1500 
 39 H       12.5680     1.0970     1.1890 H     1 <1>   0.1500 
 40 H       12.0990    -1.1990    -2.3660 H     1 <1>   0.1500 
 41 H       13.4330     1.5620    -1.7770 H     1 <1>   0.0800 
 42 H       14.2030    -0.0030    -1.9100 H     1 <1>   0.0800 
 43 H       14.3940     0.9380    -0.4560 H     1 <1>   0.0800 
@<TRIPOS>BOND
  1   1   2  1   
  2   2   3  ar  
  3   2   4  ar  
  4   3   5  ar  
  5   3  22  1   
  6   4   6  ar  
  7   4  23  1   
  8   5   7  1   
  9   5   8  ar  
 10   6   8  ar  
 11   6  24  1   
 12   7   9  1   
 13   7  10  1   
 14   8  25  1   
 15   9  11  1   
 16   9  26  1   
 17   9  27  1   
 18  10  12  1   
 19  10  28  1   
 20  10  29  1   
 21  11  13  1   
 22  11  30  1   
 23  11  31  1   
 24  12  13  1   
 25  12  32  1   
 26  12  33  1   
 27  13  14  1   
 28  13  34  1   
 29  14  15  1   
 30  14  35  1   
 31  14  36  1   
 32  15  16  ar  
 33  15  17  ar  
 34  16  18  ar  
 35  16  37  1   
 36  17  19  ar  
 37  17  38  1   
 38  18  20  ar  
 39  18  39  1   
 40  19  20  ar  
 41  19  40  1   
 42  20  21  1   
 43  21  41  1   
 44  21  42  1   
 45  21  43  1   
@<TRIPOS>SUBSTRUCTURE
  1 ****   9 GROUP 4 **** **** 0

# MOE 2024.06 (io_trps.svl 2023.06)
