@<TRIPOS>MOLECULE
NONAME
30 30 1 0 0 
SMALL
USER_CHARGES


@<TRIPOS>ATOM
  1 S        0.1160     0.3390    -0.5310 S.o2  1 <1>   1.3330 
  2 O       -0.7690    -0.7510    -0.8730 O.2   1 <1>  -0.6500 
  3 O        0.3950     1.3700    -1.5040 O.2   1 <1>  -0.6500 
  4 N        1.5870    -0.3330    -0.0390 N.am  1 <1>  -0.8490 
  5 C       -0.4720     1.1370     0.9480 C.3   1 <1>  -0.1350 
  6 C        2.4620    -0.5280    -1.2020 C.3   1 <1>   0.3390 
  7 C        1.4220    -1.5900     0.7100 C.3   1 <1>   0.1160 
  8 C        3.8310    -1.0620    -0.7960 C.ar  1 <1>  -0.1440 
  9 C        4.6560    -0.3110     0.0290 C.ar  1 <1>  -0.1500 
 10 C        4.2680    -2.3010    -1.2430 C.ar  1 <1>  -0.1500 
 11 C        5.9010    -0.7860     0.4030 C.ar  1 <1>  -0.1500 
 12 C        5.5110    -2.7780    -0.8700 C.ar  1 <1>  -0.1500 
 13 C        6.3360    -2.0290    -0.0480 C.ar  1 <1>   0.0830 
 14 O        7.5390    -2.5700     0.2690 O.3   1 <1>  -0.3630 
 15 C        8.4630    -1.8800     1.0810 C.3   1 <1>   0.0400 
 16 H       -0.6300     0.4180     1.7260 H     1 <1>   0.0800 
 17 H       -1.4000     1.6360     0.7480 H     1 <1>   0.0800 
 18 H        0.2440     1.8610     1.2820 H     1 <1>   0.0800 
 19 H        2.6140     0.4130    -1.7030 H     1 <1>   0.0800 
 20 H        1.9910    -1.2000    -1.9010 H     1 <1>   0.0800 
 21 H        0.7370    -1.4500     1.5280 H     1 <1>   0.0800 
 22 H        2.3640    -1.9130     1.1200 H     1 <1>   0.0800 
 23 H        1.0360    -2.3650     0.0680 H     1 <1>   0.0800 
 24 H        4.3200     0.6490     0.3820 H     1 <1>   0.1500 
 25 H        3.6440    -2.9000    -1.8840 H     1 <1>   0.1500 
 26 H        6.5130    -0.1790     1.0420 H     1 <1>   0.1500 
 27 H        5.8530    -3.7370    -1.2150 H     1 <1>   0.1500 
 28 H        9.3390    -2.4940     1.1860 H     1 <1>   0.0800 
 29 H        8.0190    -1.7070     2.0450 H     1 <1>   0.0800 
 30 H        8.7220    -0.9520     0.6020 H     1 <1>   0.0800 
@<TRIPOS>BOND
  1   1   2  2   
  2   1   3  2   
  3   1   4  am  
  4   1   5  1   
  5   4   6  1   
  6   4   7  1   
  7   5  16  1   
  8   5  17  1   
  9   5  18  1   
 10   6   8  1   
 11   6  19  1   
 12   6  20  1   
 13   7  21  1   
 14   7  22  1   
 15   7  23  1   
 16   8   9  ar  
 17   8  10  ar  
 18   9  11  ar  
 19   9  24  1   
 20  10  12  ar  
 21  10  25  1   
 22  11  13  ar  
 23  11  26  1   
 24  12  13  ar  
 25  12  27  1   
 26  13  14  1   
 27  14  15  1   
 28  15  28  1   
 29  15  29  1   
 30  15  30  1   
@<TRIPOS>SUBSTRUCTURE
  1 ****   8 GROUP 4 **** **** 0

# MOE 2024.06 (io_trps.svl 2023.06)
