@<TRIPOS>MOLECULE
NONAME
44 46 1 0 0 
SMALL
USER_CHARGES


@<TRIPOS>ATOM
  1 O       -0.9370    -0.5190    -1.0570 O.2   1 <1>  -0.5700 
  2 C       -1.1480    -1.2030    -0.0850 C.2   1 <1>   0.5690 
  3 N       -2.0490    -0.8760     0.8800 N.am  1 <1>  -0.7300 
  4 C       -0.3980    -2.5270     0.0700 C.3   1 <1>  -0.0190 
  5 C       -3.0190     0.2390     0.9410 C.3   1 <1>   0.3640 
  6 C        1.1220    -2.3580    -0.1230 C.3   1 <1>  -0.1600 
  7 C       -0.9530    -3.5860    -0.9010 C.3   1 <1>  -0.1600 
  8 C       -4.3460    -0.2230     0.3500 C.ar  1 <1>  -0.1440 
  9 C       -2.5180     1.5330     0.3000 C.3   1 <1>  -0.2400 
 10 C        1.8600    -3.6960     0.0230 C.3   1 <1>  -0.1600 
 11 C       -0.2140    -4.9250    -0.7590 C.3   1 <1>  -0.1600 
 12 C       -5.4880    -0.2420     1.1400 C.ar  1 <1>  -0.1500 
 13 C       -4.4330    -0.6340    -0.9750 C.ar  1 <1>  -0.1500 
 14 C        1.2980    -4.7460    -0.9450 C.3   1 <1>  -0.1600 
 15 C       -6.6960    -0.6680     0.6160 C.ar  1 <1>   0.0830 
 16 C       -5.6410    -1.0560    -1.5080 C.ar  1 <1>  -0.1500 
 17 O       -7.7870    -0.6910     1.4240 O.3   1 <1>  -0.3630 
 18 C       -6.7760    -1.0680    -0.7180 C.ar  1 <1>   0.0830 
 19 C       -8.9110    -1.4150     0.9590 C.3   1 <1>   0.1200 
 20 O       -7.9530    -1.4680    -1.2630 O.3   1 <1>  -0.3630 
 21 C       -9.1280    -1.1590    -0.5380 C.3   1 <1>   0.1200 
 22 H       -2.2450    -1.5850     1.5830 H     1 <1>   0.3700 
 23 H       -0.5580    -2.8820     1.0720 H     1 <1>   0.0800 
 24 H       -3.1740     0.4560     1.9850 H     1 <1>   0.0800 
 25 H        1.5010    -1.6550     0.5980 H     1 <1>   0.0800 
 26 H        1.3130    -1.9550    -1.1040 H     1 <1>   0.0800 
 27 H       -0.8460    -3.2270    -1.9110 H     1 <1>   0.0800 
 28 H       -2.0030    -3.7320    -0.7160 H     1 <1>   0.0800 
 29 H       -2.4650     1.4400    -0.7690 H     1 <1>   0.0800 
 30 H       -1.5470     1.7870     0.6850 H     1 <1>   0.0800 
 31 H       -3.2000     2.3310     0.5260 H     1 <1>   0.0800 
 32 H        1.7610    -4.0530     1.0340 H     1 <1>   0.0800 
 33 H        2.9090    -3.5510    -0.1740 H     1 <1>   0.0800 
 34 H       -0.5870    -5.6200    -1.4920 H     1 <1>   0.0800 
 35 H       -0.4070    -5.3390     0.2160 H     1 <1>   0.0800 
 36 H       -5.4570     0.0690     2.1690 H     1 <1>   0.1500 
 37 H       -3.5550    -0.6270    -1.5990 H     1 <1>   0.1500 
 38 H        1.7960    -5.6870    -0.7860 H     1 <1>   0.0800 
 39 H        1.4970    -4.4360    -1.9580 H     1 <1>   0.0800 
 40 H       -5.7050    -1.3710    -2.5330 H     1 <1>   0.1500 
 41 H       -9.7670    -1.1000     1.5290 H     1 <1>   0.0800 
 42 H       -8.7320    -2.4600     1.1380 H     1 <1>   0.0800 
 43 H       -9.3650    -0.1240    -0.7110 H     1 <1>   0.0800 
 44 H       -9.9240    -1.7730    -0.9210 H     1 <1>   0.0800 
@<TRIPOS>BOND
  1   1   2  2   
  2   2   3  am  
  3   2   4  1   
  4   3   5  1   
  5   3  22  1   
  6   4   6  1   
  7   4   7  1   
  8   4  23  1   
  9   5   8  1   
 10   5   9  1   
 11   5  24  1   
 12   6  10  1   
 13   6  25  1   
 14   6  26  1   
 15   7  11  1   
 16   7  27  1   
 17   7  28  1   
 18   8  12  ar  
 19   8  13  ar  
 20   9  29  1   
 21   9  30  1   
 22   9  31  1   
 23  10  14  1   
 24  10  32  1   
 25  10  33  1   
 26  11  14  1   
 27  11  34  1   
 28  11  35  1   
 29  12  15  ar  
 30  12  36  1   
 31  13  16  ar  
 32  13  37  1   
 33  14  38  1   
 34  14  39  1   
 35  15  17  1   
 36  15  18  ar  
 37  16  18  ar  
 38  16  40  1   
 39  17  19  1   
 40  18  20  1   
 41  19  21  1   
 42  19  41  1   
 43  19  42  1   
 44  20  21  1   
 45  21  43  1   
 46  21  44  1   
@<TRIPOS>SUBSTRUCTURE
  1 ****  13 GROUP 4 **** **** 0

# MOE 2024.06 (io_trps.svl 2023.06)
