@<TRIPOS>MOLECULE
NONAME
48 51 1 0 0 
SMALL
USER_CHARGES


@<TRIPOS>ATOM
  1 O        0.2340     0.0950    -0.8990 O.2   1 <1>  -0.5700 
  2 C        0.7010     1.1150    -0.4340 C.2   1 <1>   0.5440 
  3 N       -0.1210     2.1110     0.0420 N.am  1 <1>  -0.5470 
  4 C        2.1390     1.2930    -0.3650 C.ar  1 <1>   0.0860 
  5 C       -1.5220     2.2560     0.0700 C.ar  1 <1>   0.1170 
  6 C        2.7410     2.5380    -0.5600 C.ar  1 <1>  -0.1500 
  7 C        2.9790     0.2110    -0.0960 C.ar  1 <1>  -0.1500 
  8 C       -2.0450     3.5290     0.1930 C.ar  1 <1>  -0.1500 
  9 C       -2.4050     1.1620    -0.0040 C.ar  1 <1>  -0.1500 
 10 C        4.1120     2.6980    -0.4720 C.ar  1 <1>  -0.1500 
 11 C        4.3510     0.3640    -0.0070 C.ar  1 <1>  -0.1500 
 12 C       -3.4230     3.7160     0.2380 C.ar  1 <1>   0.2270 
 13 C       -3.7700     1.3340     0.0360 C.ar  1 <1>  -0.1500 
 14 C        4.9200     1.6110    -0.1930 C.ar  1 <1>  -0.1500 
 15 N       -4.1310     4.8750     0.3540 N.2   1 <1>  -0.5650 
 16 C       -4.2730     2.6300     0.1590 C.ar  1 <1>  -0.1520 
 17 C       -5.3630     4.4920     0.3380 C.2   1 <1>   0.0060 
 18 N       -5.5260     3.1500     0.2280 N.pl3 1 <1>   0.0480 
 19 C       -6.5780     5.4050     0.4480 C.3   1 <1>   0.2900 
 20 C       -6.8250     2.4620     0.1440 C.3   1 <1>   0.0960 
 21 N       -7.8290     4.7260     0.0180 N.3   1 <1>  -0.8100 
 22 C       -7.9450     3.3900     0.6380 C.3   1 <1>   0.1100 
 23 C       -8.9970     5.5820     0.3030 C.3   1 <1>   0.1100 
 24 C      -10.1840     5.2210    -0.5930 C.3   1 <1>   0.1200 
 25 O      -11.2520     6.0500    -0.2570 O.3   1 <1>  -0.5600 
 26 C      -12.3810     5.8600    -1.0460 C.3   1 <1>   0.0400 
 27 H        0.3770     2.9070     0.4320 H     1 <1>   0.3700 
 28 H        2.1330     3.3940    -0.7950 H     1 <1>   0.1500 
 29 H        2.5410    -0.7630     0.0440 H     1 <1>   0.1500 
 30 H       -1.4200     4.3970     0.2540 H     1 <1>   0.1500 
 31 H       -2.0070     0.1680    -0.0900 H     1 <1>   0.1500 
 32 H        4.5550     3.6680    -0.6240 H     1 <1>   0.1500 
 33 H        4.9750    -0.4870     0.2040 H     1 <1>   0.1500 
 34 H       -4.4370     0.4930    -0.0250 H     1 <1>   0.1500 
 35 H        5.9880     1.7330    -0.1240 H     1 <1>   0.1500 
 36 H       -6.4130     6.2750    -0.1630 H     1 <1>   0.0800 
 37 H       -6.6690     5.7240     1.4720 H     1 <1>   0.0800 
 38 H       -6.7920     1.5680     0.7380 H     1 <1>   0.0800 
 39 H       -7.0020     2.1950    -0.8810 H     1 <1>   0.0800 
 40 H       -7.8940     3.4790     1.7100 H     1 <1>   0.0800 
 41 H       -8.8910     2.9440     0.3870 H     1 <1>   0.0800 
 42 H       -8.7450     6.6090     0.1020 H     1 <1>   0.0800 
 43 H       -9.2780     5.4930     1.3380 H     1 <1>   0.0800 
 44 H      -10.4880     4.2010    -0.4390 H     1 <1>   0.0800 
 45 H       -9.9270     5.3850    -1.6250 H     1 <1>   0.0800 
 46 H      -13.1430     6.5400    -0.7080 H     1 <1>   0.0800 
 47 H      -12.7250     4.8460    -0.9370 H     1 <1>   0.0800 
 48 H      -12.1370     6.0710    -2.0730 H     1 <1>   0.0800 
@<TRIPOS>BOND
  1   1   2  2   
  2   2   3  am  
  3   2   4  1   
  4   3   5  1   
  5   3  27  1   
  6   4   6  ar  
  7   4   7  ar  
  8   5   8  ar  
  9   5   9  ar  
 10   6  10  ar  
 11   6  28  1   
 12   7  11  ar  
 13   7  29  1   
 14   8  12  ar  
 15   8  30  1   
 16   9  13  ar  
 17   9  31  1   
 18  10  14  ar  
 19  10  32  1   
 20  11  14  ar  
 21  11  33  1   
 22  12  15  1   
 23  12  16  ar  
 24  13  16  ar  
 25  13  34  1   
 26  14  35  1   
 27  15  17  2   
 28  16  18  1   
 29  17  18  1   
 30  17  19  1   
 31  18  20  1   
 32  19  21  1   
 33  19  36  1   
 34  19  37  1   
 35  20  22  1   
 36  20  38  1   
 37  20  39  1   
 38  21  22  1   
 39  21  23  1   
 40  22  40  1   
 41  22  41  1   
 42  23  24  1   
 43  23  42  1   
 44  23  43  1   
 45  24  25  1   
 46  24  44  1   
 47  24  45  1   
 48  25  26  1   
 49  26  46  1   
 50  26  47  1   
 51  26  48  1   
@<TRIPOS>SUBSTRUCTURE
  1 ****  12 GROUP 4 **** **** 0

# MOE 2024.06 (io_trps.svl 2023.06)
