@<TRIPOS>MOLECULE
NONAME
44 45 1 0 0 
SMALL
USER_CHARGES


@<TRIPOS>ATOM
  1 S       -1.3330     0.2210    -0.1200 S.o2  1 <1>   1.4930 
  2 O       -2.4790    -0.3610    -0.7950 O.2   1 <1>  -0.6500 
  3 O       -1.5110     0.8760     1.1640 O.2   1 <1>  -0.6500 
  4 O       -0.6060     1.2600    -1.1730 O.3   1 <1>  -0.2460 
  5 C       -0.0400    -1.0440     0.0340 C.ar  1 <1>  -0.0090 
  6 C        0.4420     2.0210    -0.7730 C.2   1 <1>   0.0620 
  7 C        0.9780    -0.9140     0.9720 C.ar  1 <1>  -0.1500 
  8 C       -0.0020    -2.1420    -0.8180 C.ar  1 <1>  -0.1500 
  9 C        0.3450     3.2070    -0.0260 C.2   1 <1>  -0.0860 
 10 C        1.7510     1.7380    -1.0530 C.2   1 <1>  -0.2370 
 11 C        2.0040    -1.8390     1.0490 C.ar  1 <1>  -0.1500 
 12 C        1.0220    -3.0710    -0.7440 C.ar  1 <1>  -0.1500 
 13 C        1.6600     3.5950     0.1540 C.2   1 <1>  -0.3320 
 14 C       -0.8900     3.8240     0.4130 C.2   1 <1>   0.8060 
 15 N        2.5030     2.7230    -0.4500 N.pl3 1 <1>   0.0480 
 16 C        2.2680     0.6490    -1.8250 C.2   1 <1>   0.5950 
 17 C        2.0330    -2.9210     0.1870 C.ar  1 <1>  -0.1440 
 18 C        2.1600     4.8270     0.9030 C.3   1 <1>  -0.0600 
 19 O       -0.9650     4.6340     1.3170 O.2   1 <1>  -0.5700 
 20 O       -2.0140     3.4750    -0.2220 O.3   1 <1>  -0.4300 
 21 C        3.9840     2.7970    -0.4760 C.3   1 <1>   0.0160 
 22 O        3.4350     0.4300    -2.0430 O.2   1 <1>  -0.5700 
 23 C        3.1640    -3.9310     0.2700 C.3   1 <1>  -0.0970 
 24 C       -3.2790     3.9160     0.2090 C.3   1 <1>   0.1200 
 25 C       -4.3320     3.2370    -0.6610 C.3   1 <1>  -0.2400 
 26 H        0.9750    -0.0750     1.6500 H     1 <1>   0.1500 
 27 H       -0.7800    -2.2760    -1.5510 H     1 <1>   0.1500 
 28 H        2.7820    -1.7130     1.7830 H     1 <1>   0.1500 
 29 H        1.0270    -3.9120    -1.4170 H     1 <1>   0.1500 
 30 H        1.5520    -0.0320    -2.2490 H     1 <1>   0.0600 
 31 H        1.3510     5.4470     1.2400 H     1 <1>   0.0800 
 32 H        2.7810     5.4260     0.2600 H     1 <1>   0.0800 
 33 H        2.7310     4.5290     1.7640 H     1 <1>   0.0800 
 34 H        4.3910     1.8870    -0.0750 H     1 <1>   0.0800 
 35 H        4.3350     3.6250     0.1100 H     1 <1>   0.0800 
 36 H        4.3140     2.9150    -1.4910 H     1 <1>   0.0800 
 37 H        4.0920    -3.4350     0.4890 H     1 <1>   0.0800 
 38 H        3.2740    -4.4550    -0.6630 H     1 <1>   0.0800 
 39 H        2.9590    -4.6450     1.0470 H     1 <1>   0.0800 
 40 H       -3.3210     4.9880     0.1100 H     1 <1>   0.0800 
 41 H       -3.4020     3.6400     1.2440 H     1 <1>   0.0800 
 42 H       -4.1880     3.5020    -1.6930 H     1 <1>   0.0800 
 43 H       -5.3130     3.5530    -0.3580 H     1 <1>   0.0800 
 44 H       -4.2680     2.1680    -0.5510 H     1 <1>   0.0800 
@<TRIPOS>BOND
  1   1   2  2   
  2   1   3  2   
  3   1   4  1   
  4   1   5  1   
  5   4   6  1   
  6   5   7  ar  
  7   5   8  ar  
  8   6   9  1   
  9   6  10  2   
 10   7  11  ar  
 11   7  26  1   
 12   8  12  ar  
 13   8  27  1   
 14   9  13  2   
 15   9  14  1   
 16  10  15  1   
 17  10  16  1   
 18  11  17  ar  
 19  11  28  1   
 20  12  17  ar  
 21  12  29  1   
 22  13  15  1   
 23  13  18  1   
 24  14  19  2   
 25  14  20  1   
 26  15  21  1   
 27  16  22  2   
 28  16  30  1   
 29  17  23  1   
 30  18  31  1   
 31  18  32  1   
 32  18  33  1   
 33  20  24  1   
 34  21  34  1   
 35  21  35  1   
 36  21  36  1   
 37  23  37  1   
 38  23  38  1   
 39  23  39  1   
 40  24  25  1   
 41  24  40  1   
 42  24  41  1   
 43  25  42  1   
 44  25  43  1   
 45  25  44  1   
@<TRIPOS>SUBSTRUCTURE
  1 ****   6 GROUP 4 **** **** 0

# MOE 2024.06 (io_trps.svl 2023.06)
