@<TRIPOS>MOLECULE
NONAME
45 47 1 0 0 
SMALL
USER_CHARGES


@<TRIPOS>ATOM
  1 O       -1.1510     0.7570    -0.1080 O.2   1 <1>  -0.5700 
  2 C       -0.6700     1.8760    -0.2010 C.2   1 <1>   0.4690 
  3 C        0.7280     2.1480     0.0060 C.ar  1 <1>   0.0860 
  4 C       -1.5180     2.9920    -0.4780 C.2   1 <1>  -0.1240 
  5 C        1.1590     3.4810    -0.0150 C.ar  1 <1>   0.0820 
  6 C        1.6820     1.1530     0.2380 C.ar  1 <1>  -0.1500 
  7 C       -1.0110     4.2440    -0.4830 C.2   1 <1>  -0.0730 
  8 C       -2.9780     2.6970    -0.7760 C.3   1 <1>   0.4810 
  9 O        0.2800     4.4820    -0.2390 O.3   1 <1>  -0.1590 
 10 C        2.4940     3.8000     0.1910 C.ar  1 <1>  -0.1500 
 11 C        3.0090     1.4740     0.4410 C.ar  1 <1>  -0.1500 
 12 N       -3.5800     1.9120     0.3450 N.4   1 <1>  -0.9590 
 13 C        3.4170     2.8000     0.4190 C.ar  1 <1>  -0.1500 
 14 C       -4.7420     1.0840    -0.0850 C.3   1 <1>   0.4230 
 15 C       -3.7450     2.7440     1.5850 C.3   1 <1>   0.2630 
 16 C       -6.0270     1.9020    -0.2500 C.3   1 <1>  -0.1600 
 17 C       -4.9600    -0.0590     0.9080 C.3   1 <1>  -0.1600 
 18 C       -7.1820     0.9980    -0.6880 C.3   1 <1>   0.3430 
 19 C       -6.1180    -0.9490     0.4570 C.3   1 <1>   0.3430 
 20 N       -7.3520    -0.1270     0.2790 N.4   1 <1>  -0.9590 
 21 C       -8.4950    -1.0020    -0.1430 C.3   1 <1>   0.2630 
 22 H        1.3740     0.1210     0.2570 H     1 <1>   0.1500 
 23 H       -1.5740     5.1420    -0.6850 H     1 <1>   0.1500 
 24 H       -3.0220     2.1210    -1.6870 H     1 <1>   0.0800 
 25 H       -3.5210     3.6160    -0.9270 H     1 <1>   0.0800 
 26 H        2.8050     4.8310     0.1710 H     1 <1>   0.1500 
 27 H        3.7340     0.6970     0.6190 H     1 <1>   0.1500 
 28 H       -2.8170     1.2260     0.5430 H     1 <1>   0.4500 
 29 H        4.4540     3.0440     0.5790 H     1 <1>   0.1500 
 30 H       -4.5010     0.6390    -1.0390 H     1 <1>   0.0800 
 31 H       -4.4780     3.5180     1.4290 H     1 <1>   0.0800 
 32 H       -2.8090     3.2090     1.8500 H     1 <1>   0.0800 
 33 H       -4.0590     2.1300     2.4140 H     1 <1>   0.0800 
 34 H       -5.8880     2.6580    -1.0020 H     1 <1>   0.0800 
 35 H       -6.3030     2.3860     0.6700 H     1 <1>   0.0800 
 36 H       -5.1720     0.3140     1.8940 H     1 <1>   0.0800 
 37 H       -4.0710    -0.6640     0.9610 H     1 <1>   0.0800 
 38 H       -6.9810     0.6030    -1.6720 H     1 <1>   0.0800 
 39 H       -8.0920     1.5760    -0.7430 H     1 <1>   0.0800 
 40 H       -6.2910    -1.7180     1.1950 H     1 <1>   0.0800 
 41 H       -5.8640    -1.4320    -0.4730 H     1 <1>   0.0800 
 42 H       -7.6120     0.2690     1.1970 H     1 <1>   0.4500 
 43 H       -8.2920    -1.4560    -1.1000 H     1 <1>   0.0800 
 44 H       -9.4030    -0.4250    -0.2230 H     1 <1>   0.0800 
 45 H       -8.6560    -1.7870     0.5800 H     1 <1>   0.0800 
@<TRIPOS>BOND
  1   1   2  2   
  2   2   3  1   
  3   2   4  1   
  4   3   5  ar  
  5   3   6  ar  
  6   4   7  2   
  7   4   8  1   
  8   5   9  1   
  9   5  10  ar  
 10   6  11  ar  
 11   6  22  1   
 12   7   9  1   
 13   7  23  1   
 14   8  12  1   
 15   8  24  1   
 16   8  25  1   
 17  10  13  ar  
 18  10  26  1   
 19  11  13  ar  
 20  11  27  1   
 21  12  14  1   
 22  12  15  1   
 23  12  28  1   
 24  13  29  1   
 25  14  16  1   
 26  14  17  1   
 27  14  30  1   
 28  15  31  1   
 29  15  32  1   
 30  15  33  1   
 31  16  18  1   
 32  16  34  1   
 33  16  35  1   
 34  17  19  1   
 35  17  36  1   
 36  17  37  1   
 37  18  20  1   
 38  18  38  1   
 39  18  39  1   
 40  19  20  1   
 41  19  40  1   
 42  19  41  1   
 43  20  21  1   
 44  20  42  1   
 45  21  43  1   
 46  21  44  1   
 47  21  45  1   
@<TRIPOS>SUBSTRUCTURE
  1 ****  12 GROUP 4 **** **** 0

# MOE 2024.06 (io_trps.svl 2023.06)
