@<TRIPOS>MOLECULE
NONAME
48 50 1 0 0 
SMALL
USER_CHARGES


@<TRIPOS>ATOM
  1 S        0.2840    -0.4860     0.8950 S.o2  1 <1>   1.2040 
  2 O        0.3150     0.9510     1.0750 O.2   1 <1>  -0.6500 
  3 O        0.8490    -1.3530     1.9070 O.2   1 <1>  -0.6500 
  4 C       -1.4220    -0.9960     0.5810 C.ar  1 <1>  -0.0090 
  5 C        1.0370    -0.8770    -0.6900 C.3   1 <1>   0.0890 
  6 C       -2.3550    -0.1060     0.0630 C.ar  1 <1>  -0.1500 
  7 C       -1.8340    -2.3030     0.8130 C.ar  1 <1>  -0.1500 
  8 C        2.5370    -0.6100    -0.7600 C.ar  1 <1>  -0.1440 
  9 C       -3.6500    -0.5050    -0.2190 C.ar  1 <1>  -0.1500 
 10 C       -3.1270    -2.7090     0.5330 C.ar  1 <1>  -0.1500 
 11 C        3.4300    -1.6630    -0.8710 C.ar  1 <1>  -0.1500 
 12 C        3.0210     0.6870    -0.7160 C.ar  1 <1>  -0.1500 
 13 C       -4.0420    -1.8120     0.0120 C.ar  1 <1>  -0.1430 
 14 C        4.8080    -1.4580    -0.9440 C.ar  1 <1>   0.0860 
 15 C        4.3810     0.9210    -0.7910 C.ar  1 <1>  -0.1500 
 16 C       -5.4630    -2.2530    -0.2940 C.3   1 <1>  -0.0970 
 17 C        5.7210    -2.5830    -1.0560 C.2   1 <1>   0.5440 
 18 C        5.2620    -0.1390    -0.9070 C.ar  1 <1>  -0.1500 
 19 O        5.3680    -3.6170    -1.5890 O.2   1 <1>  -0.5700 
 20 N        6.9870    -2.5020    -0.5510 N.am  1 <1>  -0.7300 
 21 C        8.0050    -3.5650    -0.5950 C.3   1 <1>   0.2200 
 22 C        8.3910    -3.9320     0.8320 C.3   1 <1>  -0.1600 
 23 C        9.2920    -2.9850    -1.1680 C.3   1 <1>  -0.1600 
 24 C        9.4080    -2.8740     1.2790 C.3   1 <1>  -0.1600 
 25 C        9.9750    -2.2560    -0.0050 C.3   1 <1>  -0.1600 
 26 H        0.5590    -0.3010    -1.4580 H     1 <1>   0.0800 
 27 H        0.8600    -1.9110    -0.9130 H     1 <1>   0.0800 
 28 H       -2.0710     0.9180    -0.1180 H     1 <1>   0.1500 
 29 H       -1.1370    -3.0140     1.2250 H     1 <1>   0.1500 
 30 H       -4.3530     0.2070    -0.6160 H     1 <1>   0.1500 
 31 H       -3.4190    -3.7270     0.7270 H     1 <1>   0.1500 
 32 H        3.0700    -2.6780    -0.9030 H     1 <1>   0.1500 
 33 H        2.3460     1.5220    -0.6200 H     1 <1>   0.1500 
 34 H        4.7520     1.9310    -0.7580 H     1 <1>   0.1500 
 35 H       -5.8660    -1.6860    -1.1130 H     1 <1>   0.0800 
 36 H       -6.0840    -2.1030     0.5710 H     1 <1>   0.0800 
 37 H       -5.4850    -3.2950    -0.5600 H     1 <1>   0.0800 
 38 H        6.3150     0.0630    -0.9770 H     1 <1>   0.1500 
 39 H        7.2580    -1.6920     0.0040 H     1 <1>   0.3700 
 40 H        7.6530    -4.4150    -1.1570 H     1 <1>   0.0800 
 41 H        8.8720    -4.8940     0.8150 H     1 <1>   0.0800 
 42 H        7.5340    -3.9900     1.4820 H     1 <1>   0.0800 
 43 H        9.1080    -2.3460    -2.0140 H     1 <1>   0.0800 
 44 H        9.9180    -3.8000    -1.4850 H     1 <1>   0.0800 
 45 H       10.1840    -3.3210     1.8770 H     1 <1>   0.0800 
 46 H        8.9160    -2.1150     1.8620 H     1 <1>   0.0800 
 47 H        9.7350    -1.2070    -0.0400 H     1 <1>   0.0800 
 48 H       11.0450    -2.3680    -0.0580 H     1 <1>   0.0800 
@<TRIPOS>BOND
  1   1   2  2   
  2   1   3  2   
  3   1   4  1   
  4   1   5  1   
  5   4   6  ar  
  6   4   7  ar  
  7   5   8  1   
  8   5  26  1   
  9   5  27  1   
 10   6   9  ar  
 11   6  28  1   
 12   7  10  ar  
 13   7  29  1   
 14   8  11  ar  
 15   8  12  ar  
 16   9  13  ar  
 17   9  30  1   
 18  10  13  ar  
 19  10  31  1   
 20  11  14  ar  
 21  11  32  1   
 22  12  15  ar  
 23  12  33  1   
 24  13  16  1   
 25  14  17  1   
 26  14  18  ar  
 27  15  18  ar  
 28  15  34  1   
 29  16  35  1   
 30  16  36  1   
 31  16  37  1   
 32  17  19  2   
 33  17  20  am  
 34  18  38  1   
 35  20  21  1   
 36  20  39  1   
 37  21  22  1   
 38  21  23  1   
 39  21  40  1   
 40  22  24  1   
 41  22  41  1   
 42  22  42  1   
 43  23  25  1   
 44  23  43  1   
 45  23  44  1   
 46  24  25  1   
 47  24  45  1   
 48  24  46  1   
 49  25  47  1   
 50  25  48  1   
@<TRIPOS>SUBSTRUCTURE
  1 ****  11 GROUP 4 **** **** 0

# MOE 2024.06 (io_trps.svl 2023.06)
