@<TRIPOS>MOLECULE
NONAME
44 45 1 0 0 
SMALL
USER_CHARGES


@<TRIPOS>ATOM
  1 CL      -1.6160     0.2430     3.7350 Cl    1 <1>  -0.1770 
  2 C       -2.5490    -0.5510     2.4940 C.ar  1 <1>   0.1770 
  3 C       -3.6130    -1.3550     2.8540 C.ar  1 <1>  -0.1500 
  4 C       -2.2100    -0.3640     1.1680 C.ar  1 <1>  -0.1500 
  5 C       -4.3540    -1.9830     1.8670 C.ar  1 <1>  -0.1500 
  6 C       -2.9530    -0.9930     0.1820 C.ar  1 <1>  -0.1500 
  7 C       -4.0310    -1.8010     0.5270 C.ar  1 <1>  -0.1430 
  8 C       -4.8490    -2.4780    -0.5580 C.3   1 <1>   0.4870 
  9 N       -6.1750    -1.8160    -0.6560 N.4   1 <1>  -0.9590 
 10 C       -7.1240    -2.4860    -1.6030 C.3   1 <1>   0.3430 
 11 C       -6.1100    -0.3400    -0.9200 C.3   1 <1>   0.3430 
 12 C       -8.5150    -1.8030    -1.5850 C.3   1 <1>   0.1100 
 13 C       -7.5210     0.2960    -0.8580 C.3   1 <1>   0.1100 
 14 N       -8.5900    -0.6990    -0.5940 N.3   1 <1>  -0.8100 
 15 C       -9.9160    -0.0390    -0.5910 C.3   1 <1>   0.1100 
 16 C      -10.9790    -0.8850     0.1140 C.3   1 <1>   0.1200 
 17 O      -12.1810    -0.1850     0.0700 O.3   1 <1>  -0.5600 
 18 C      -13.2320    -0.8150     0.7330 C.3   1 <1>   0.1200 
 19 C      -14.4610     0.0900     0.6610 C.3   1 <1>   0.1200 
 20 O      -15.5460    -0.5600     1.2340 O.3   1 <1>  -0.6800 
 21 H       -3.8500    -1.4860     3.8960 H     1 <1>   0.1500 
 22 H       -1.3720     0.2640     0.9180 H     1 <1>   0.1500 
 23 H       -5.1780    -2.6130     2.1600 H     1 <1>   0.1500 
 24 H       -2.6750    -0.8450    -0.8480 H     1 <1>   0.1500 
 25 H       -4.9730    -3.5200    -0.3110 H     1 <1>   0.0800 
 26 H       -4.3310    -2.4110    -1.5010 H     1 <1>   0.0800 
 27 H       -6.6440    -1.8660     0.2600 H     1 <1>   0.4500 
 28 H       -7.2440    -3.5220    -1.3290 H     1 <1>   0.0800 
 29 H       -6.7310    -2.4560    -2.6060 H     1 <1>   0.0800 
 30 H       -5.6790    -0.1550    -1.8890 H     1 <1>   0.0800 
 31 H       -5.4840     0.1400    -0.1850 H     1 <1>   0.0800 
 32 H       -9.2570    -2.5480    -1.3570 H     1 <1>   0.0800 
 33 H       -8.7330    -1.4240    -2.5690 H     1 <1>   0.0800 
 34 H       -7.7170     0.8070    -1.7860 H     1 <1>   0.0800 
 35 H       -7.5280     1.0380    -0.0770 H     1 <1>   0.0800 
 36 H      -10.2300     0.1690    -1.6010 H     1 <1>   0.0800 
 37 H       -9.8470     0.8950    -0.0590 H     1 <1>   0.0800 
 38 H      -10.7060    -1.0380     1.1440 H     1 <1>   0.0800 
 39 H      -11.1200    -1.8270    -0.3840 H     1 <1>   0.0800 
 40 H      -12.9510    -0.9710     1.7600 H     1 <1>   0.0800 
 41 H      -13.4260    -1.7550     0.2460 H     1 <1>   0.0800 
 42 H      -14.7070     0.3260    -0.3600 H     1 <1>   0.0800 
 43 H      -14.2870     0.9960     1.2150 H     1 <1>   0.0800 
 44 H      -15.8520    -1.2920     0.6650 H     1 <1>   0.4000 
@<TRIPOS>BOND
  1   1   2  1   
  2   2   3  ar  
  3   2   4  ar  
  4   3   5  ar  
  5   3  21  1   
  6   4   6  ar  
  7   4  22  1   
  8   5   7  ar  
  9   5  23  1   
 10   6   7  ar  
 11   6  24  1   
 12   7   8  1   
 13   8   9  1   
 14   8  25  1   
 15   8  26  1   
 16   9  10  1   
 17   9  11  1   
 18   9  27  1   
 19  10  12  1   
 20  10  28  1   
 21  10  29  1   
 22  11  13  1   
 23  11  30  1   
 24  11  31  1   
 25  12  14  1   
 26  12  32  1   
 27  12  33  1   
 28  13  14  1   
 29  13  34  1   
 30  13  35  1   
 31  14  15  1   
 32  15  16  1   
 33  15  36  1   
 34  15  37  1   
 35  16  17  1   
 36  16  38  1   
 37  16  39  1   
 38  17  18  1   
 39  18  19  1   
 40  18  40  1   
 41  18  41  1   
 42  19  20  1   
 43  19  42  1   
 44  19  43  1   
 45  20  44  1   
@<TRIPOS>SUBSTRUCTURE
  1 ****  14 GROUP 4 **** **** 0

# MOE 2024.06 (io_trps.svl 2023.06)
