@<TRIPOS>MOLECULE
NONAME
46 48 1 0 0 
SMALL
USER_CHARGES


@<TRIPOS>ATOM
  1 CL       0.4540     2.4570    -3.0160 Cl    1 <1>  -0.1770 
  2 C        0.9360     2.2370    -1.3490 C.ar  1 <1>   0.1770 
  3 C       -0.0270     2.0990    -0.3600 C.ar  1 <1>  -0.1440 
  4 C        2.2880     2.2040    -1.0590 C.ar  1 <1>  -0.1500 
  5 C        0.4010     1.9180     0.9500 C.ar  1 <1>  -0.1500 
  6 C       -1.5020     2.1430    -0.7500 C.3   1 <1>   0.2640 
  7 C        2.6990     2.0260     0.2500 C.ar  1 <1>  -0.1500 
  8 C        1.7530     1.8830     1.2510 C.ar  1 <1>  -0.1500 
  9 O       -2.3300     2.1870     0.3950 O.3   1 <1>  -0.3620 
 10 C       -3.6780     2.2040     0.3000 C.ar  1 <1>   0.0830 
 11 C       -4.3900     2.1770     1.4870 C.ar  1 <1>  -0.1500 
 12 C       -4.3740     2.2430    -0.9050 C.ar  1 <1>  -0.1500 
 13 C       -5.7720     2.1900     1.4780 C.ar  1 <1>  -0.1500 
 14 C       -5.7570     2.2570    -0.9050 C.ar  1 <1>  -0.1500 
 15 C       -6.4930     2.2380     0.2830 C.ar  1 <1>   0.0860 
 16 C       -7.9460     2.2670     0.2860 C.2   1 <1>   0.5440 
 17 O       -8.5830     1.8460     1.2330 O.2   1 <1>  -0.5700 
 18 N       -8.6650     2.8280    -0.7450 N.am  1 <1>  -0.6600 
 19 C      -10.0460     2.3260    -1.0050 C.3   1 <1>   0.1400 
 20 C       -8.5090     4.2850    -1.0110 C.3   1 <1>   0.1400 
 21 C      -11.0600     3.1150    -0.1550 C.3   1 <1>   0.3430 
 22 C       -9.5390     5.0870    -0.1850 C.3   1 <1>   0.3430 
 23 N      -10.9550     4.6030    -0.3900 N.4   1 <1>  -0.9590 
 24 C      -11.9010     5.3390     0.5010 C.3   1 <1>   0.2630 
 25 H        3.0070     2.3160    -1.8510 H     1 <1>   0.1500 
 26 H       -0.3140     1.8030     1.7480 H     1 <1>   0.1500 
 27 H       -1.7570     1.2630    -1.3140 H     1 <1>   0.0800 
 28 H       -1.7010     3.0240    -1.3340 H     1 <1>   0.0800 
 29 H        3.7480     1.9990     0.4900 H     1 <1>   0.1500 
 30 H        2.0690     1.7440     2.2710 H     1 <1>   0.1500 
 31 H       -3.8520     2.1410     2.4180 H     1 <1>   0.1500 
 32 H       -3.8580     2.2580    -1.8470 H     1 <1>   0.1500 
 33 H       -6.3060     2.1590     2.4120 H     1 <1>   0.1500 
 34 H       -6.2780     2.2750    -1.8450 H     1 <1>   0.1500 
 35 H      -10.1040     1.2810    -0.7470 H     1 <1>   0.0800 
 36 H      -10.2780     2.4200    -2.0510 H     1 <1>   0.0800 
 37 H       -8.6440     4.4770    -2.0620 H     1 <1>   0.0800 
 38 H       -7.5150     4.6040    -0.7440 H     1 <1>   0.0800 
 39 H      -10.8640     2.8950     0.8830 H     1 <1>   0.0800 
 40 H      -12.0560     2.7730    -0.3830 H     1 <1>   0.0800 
 41 H       -9.4670     6.1300    -0.4460 H     1 <1>   0.0800 
 42 H       -9.2780     4.9900     0.8570 H     1 <1>   0.0800 
 43 H      -11.2120     4.7820    -1.3710 H     1 <1>   0.4500 
 44 H      -11.6560     5.1600     1.5360 H     1 <1>   0.0800 
 45 H      -12.9130     5.0110     0.3260 H     1 <1>   0.0800 
 46 H      -11.8470     6.4000     0.3120 H     1 <1>   0.0800 
@<TRIPOS>BOND
  1   1   2  1   
  2   2   3  ar  
  3   2   4  ar  
  4   3   5  ar  
  5   3   6  1   
  6   4   7  ar  
  7   4  25  1   
  8   5   8  ar  
  9   5  26  1   
 10   6   9  1   
 11   6  27  1   
 12   6  28  1   
 13   7   8  ar  
 14   7  29  1   
 15   8  30  1   
 16   9  10  1   
 17  10  11  ar  
 18  10  12  ar  
 19  11  13  ar  
 20  11  31  1   
 21  12  14  ar  
 22  12  32  1   
 23  13  15  ar  
 24  13  33  1   
 25  14  15  ar  
 26  14  34  1   
 27  15  16  1   
 28  16  17  2   
 29  16  18  am  
 30  18  19  1   
 31  18  20  1   
 32  19  21  1   
 33  19  35  1   
 34  19  36  1   
 35  20  22  1   
 36  20  37  1   
 37  20  38  1   
 38  21  23  1   
 39  21  39  1   
 40  21  40  1   
 41  22  23  1   
 42  22  41  1   
 43  22  42  1   
 44  23  24  1   
 45  23  43  1   
 46  24  44  1   
 47  24  45  1   
 48  24  46  1   
@<TRIPOS>SUBSTRUCTURE
  1 ****  12 GROUP 4 **** **** 0

# MOE 2024.06 (io_trps.svl 2023.06)
