@<TRIPOS>MOLECULE
NONAME
34 34 1 0 0 
SMALL
USER_CHARGES


@<TRIPOS>ATOM
  1 S        0.3760     0.0100    -1.2720 S.3   1 <1>  -0.3710 
  2 C       -1.3940    -0.0910    -1.0980 C.2   1 <1>   0.6500 
  3 C        1.0990    -1.3510    -0.2410 C.3   1 <1>   0.0700 
  4 O       -2.0870     0.6900    -1.6790 O.2   1 <1>  -0.5700 
  5 C       -1.9470    -1.1790    -0.2080 C.3   1 <1>  -0.1790 
  6 C        2.6340    -1.2870    -0.3030 C.3   1 <1>  -0.0190 
  7 C        3.2340    -2.5530     0.3020 C.2   1 <1>   0.5690 
  8 C        3.1810    -0.0330     0.4080 C.3   1 <1>  -0.2400 
  9 O        2.6140    -3.1790     1.1280 O.2   1 <1>  -0.5700 
 10 N        4.4630    -2.9450    -0.1050 N.am  1 <1>  -0.7300 
 11 C        5.1930    -4.0970     0.4450 C.3   1 <1>   0.2840 
 12 C        6.6640    -3.9090     0.1220 C.ar  1 <1>  -0.1440 
 13 C        7.4660    -3.1380     0.9500 C.ar  1 <1>  -0.1500 
 14 C        7.2160    -4.4970    -1.0060 C.ar  1 <1>  -0.1500 
 15 C        8.8070    -2.9600     0.6550 C.ar  1 <1>  -0.1500 
 16 C        8.5570    -4.3190    -1.3020 C.ar  1 <1>  -0.1500 
 17 C        9.3530    -3.5500    -0.4710 C.ar  1 <1>  -0.1500 
 18 H        0.7410    -2.2800    -0.6470 H     1 <1>   0.0800 
 19 H        0.7490    -1.2300     0.7690 H     1 <1>   0.0800 
 20 H       -1.6010    -1.0430     0.7990 H     1 <1>   0.0800 
 21 H       -1.6510    -2.1430    -0.5750 H     1 <1>   0.0800 
 22 H       -3.0200    -1.1250    -0.2110 H     1 <1>   0.0800 
 23 H        2.9220    -1.2540    -1.3380 H     1 <1>   0.0800 
 24 H        2.8890    -0.0350     1.4440 H     1 <1>   0.0800 
 25 H        2.8080     0.8640    -0.0540 H     1 <1>   0.0800 
 26 H        4.2550    -0.0150     0.3580 H     1 <1>   0.0800 
 27 H        5.0080    -2.3850    -0.7630 H     1 <1>   0.3700 
 28 H        4.8210    -5.0040     0.0030 H     1 <1>   0.0800 
 29 H        5.0450    -4.1490     1.5110 H     1 <1>   0.0800 
 30 H        7.0490    -2.6740     1.8260 H     1 <1>   0.1500 
 31 H        6.6060    -5.0960    -1.6600 H     1 <1>   0.1500 
 32 H        9.4250    -2.3620     1.3010 H     1 <1>   0.1500 
 33 H        8.9810    -4.7790    -2.1770 H     1 <1>   0.1500 
 34 H       10.3950    -3.4120    -0.7000 H     1 <1>   0.1500 
@<TRIPOS>BOND
  1   1   2  1   
  2   1   3  1   
  3   2   4  2   
  4   2   5  1   
  5   3   6  1   
  6   3  18  1   
  7   3  19  1   
  8   5  20  1   
  9   5  21  1   
 10   5  22  1   
 11   6   7  1   
 12   6   8  1   
 13   6  23  1   
 14   7   9  2   
 15   7  10  am  
 16   8  24  1   
 17   8  25  1   
 18   8  26  1   
 19  10  11  1   
 20  10  27  1   
 21  11  12  1   
 22  11  28  1   
 23  11  29  1   
 24  12  13  ar  
 25  12  14  ar  
 26  13  15  ar  
 27  13  30  1   
 28  14  16  ar  
 29  14  31  1   
 30  15  17  ar  
 31  15  32  1   
 32  16  17  ar  
 33  16  33  1   
 34  17  34  1   
@<TRIPOS>SUBSTRUCTURE
  1 ****   7 GROUP 4 **** **** 0

# MOE 2024.06 (io_trps.svl 2023.06)
