@<TRIPOS>MOLECULE
NONAME
30 31 1 0 0 
SMALL
USER_CHARGES


@<TRIPOS>ATOM
  1 O       -0.5940    -0.0620    -0.0300 O.2   1 <1>  -0.5700 
  2 C       -1.5910    -0.7540    -0.0180 C.2   1 <1>   0.7060 
  3 O       -2.7810    -0.1560     0.0020 O.3   1 <1>  -0.2330 
  4 C       -1.5550    -2.1770    -0.0230 C.2   1 <1>  -0.1360 
  5 C       -3.9540    -0.8330     0.0200 C.ar  1 <1>   0.0820 
  6 C       -2.6820    -2.9280    -0.0110 C.2   1 <1>  -0.1670 
  7 C       -3.9480    -2.2400     0.0090 C.ar  1 <1>   0.0280 
  8 C       -5.1420    -0.1040     0.0430 C.ar  1 <1>  -0.1440 
  9 C       -2.6740    -4.4600    -0.0160 C.3   1 <1>  -0.0220 
 10 C       -5.1880    -2.8840     0.0160 C.ar  1 <1>  -0.1500 
 11 C       -6.3570    -0.7790     0.0400 C.ar  1 <1>   0.0830 
 12 C       -5.1080     1.4260     0.0600 C.3   1 <1>  -0.0960 
 13 C       -1.2820    -5.1050    -0.0320 C.3   1 <1>  -0.2400 
 14 C       -6.3680    -2.1730     0.0290 C.ar  1 <1>  -0.1500 
 15 O       -7.5000    -0.0470     0.0410 O.3   1 <1>  -0.3630 
 16 C       -8.7800    -0.6380     0.0260 C.3   1 <1>   0.0400 
 17 H       -0.5650    -2.5880    -0.0390 H     1 <1>   0.1500 
 18 H       -3.2120    -4.8050    -0.8820 H     1 <1>   0.0800 
 19 H       -3.1940    -4.8110     0.8590 H     1 <1>   0.0800 
 20 H       -5.2430    -3.9560     0.0090 H     1 <1>   0.1500 
 21 H       -4.2310     1.7920     0.5620 H     1 <1>   0.0800 
 22 H       -5.9620     1.8260     0.5760 H     1 <1>   0.0800 
 23 H       -5.1100     1.7970    -0.9480 H     1 <1>   0.0800 
 24 H       -0.7410    -4.8130    -0.9150 H     1 <1>   0.0800 
 25 H       -1.3780    -6.1760    -0.0340 H     1 <1>   0.0800 
 26 H       -0.7230    -4.8170     0.8400 H     1 <1>   0.0800 
 27 H       -7.2920    -2.7180     0.0310 H     1 <1>   0.1500 
 28 H       -9.5110     0.1500     0.0260 H     1 <1>   0.0800 
 29 H       -8.8950    -1.2440     0.9080 H     1 <1>   0.0800 
 30 H       -8.8810    -1.2300    -0.8660 H     1 <1>   0.0800 
@<TRIPOS>BOND
  1   1   2  2   
  2   2   3  1   
  3   2   4  1   
  4   3   5  1   
  5   4   6  2   
  6   4  17  1   
  7   5   7  ar  
  8   5   8  ar  
  9   6   7  1   
 10   6   9  1   
 11   7  10  ar  
 12   8  11  ar  
 13   8  12  1   
 14   9  13  1   
 15   9  18  1   
 16   9  19  1   
 17  10  14  ar  
 18  10  20  1   
 19  11  14  ar  
 20  11  15  1   
 21  12  21  1   
 22  12  22  1   
 23  12  23  1   
 24  13  24  1   
 25  13  25  1   
 26  13  26  1   
 27  14  27  1   
 28  15  16  1   
 29  16  28  1   
 30  16  29  1   
 31  16  30  1   
@<TRIPOS>SUBSTRUCTURE
  1 ****   5 GROUP 4 **** **** 0

# MOE 2024.06 (io_trps.svl 2023.06)
