@<TRIPOS>MOLECULE
NONAME
40 41 1 0 0 
SMALL
USER_CHARGES


@<TRIPOS>ATOM
  1 O       -0.6130     0.1990     0.0270 O.3   1 <1>  -0.3630 
  2 C        0.6300     0.7420     0.0230 C.ar  1 <1>   0.0830 
  3 C       -1.7610     1.0160     0.0160 C.3   1 <1>   0.1200 
  4 C        0.8780     2.1110     0.0090 C.ar  1 <1>  -0.1500 
  5 C        1.6970    -0.1430     0.0340 C.ar  1 <1>  -0.1500 
  6 C       -2.9900     0.1070     0.0230 C.3   1 <1>  -0.1600 
  7 C        2.1790     2.5880     0.0060 C.ar  1 <1>   0.0830 
  8 C        2.9980     0.3270     0.0310 C.ar  1 <1>  -0.1500 
  9 C       -4.2860     0.9290     0.0120 C.3   1 <1>  -0.1600 
 10 O        2.3310     3.9360    -0.0080 O.3   1 <1>  -0.3630 
 11 C        3.2430     1.6890     0.0170 C.ar  1 <1>  -0.1500 
 12 C       -5.5160     0.0220     0.0190 C.3   1 <1>   0.1200 
 13 C        3.6110     4.5280    -0.0120 C.3   1 <1>   0.0400 
 14 O       -6.6610     0.8420     0.0080 O.3   1 <1>  -0.3630 
 15 C       -7.9090     0.3090     0.0100 C.ar  1 <1>   0.0830 
 16 C       -8.9670     1.2040    -0.0020 C.ar  1 <1>  -0.1500 
 17 C       -8.1690    -1.0590     0.0240 C.ar  1 <1>  -0.1500 
 18 C      -10.2730     0.7470     0.0000 C.ar  1 <1>  -0.1500 
 19 C       -9.4770    -1.5150     0.0250 C.ar  1 <1>  -0.1500 
 20 C      -10.5280    -0.6140     0.0130 C.ar  1 <1>  -0.1500 
 21 H       -1.7390     1.6210    -0.8730 H     1 <1>   0.0800 
 22 H       -1.7420     1.6390     0.8940 H     1 <1>   0.0800 
 23 H        0.0840     2.8300     0.0010 H     1 <1>   0.1500 
 24 H        1.4990    -1.1990     0.0450 H     1 <1>   0.1500 
 25 H       -2.9620    -0.5100     0.9050 H     1 <1>   0.0800 
 26 H       -2.9580    -0.5280    -0.8450 H     1 <1>   0.0800 
 27 H        3.8190    -0.3690     0.0400 H     1 <1>   0.1500 
 28 H       -4.3130     1.5460    -0.8690 H     1 <1>   0.0800 
 29 H       -4.3160     1.5640     0.8810 H     1 <1>   0.0800 
 30 H        4.2610     2.0290     0.0150 H     1 <1>   0.1500 
 31 H       -5.5400    -0.5830     0.9090 H     1 <1>   0.0800 
 32 H       -5.5360    -0.6010    -0.8590 H     1 <1>   0.0800 
 33 H        3.4850     5.5960    -0.0240 H     1 <1>   0.0800 
 34 H        4.1380     4.2130    -0.8950 H     1 <1>   0.0800 
 35 H        4.1360     4.2320     0.8790 H     1 <1>   0.0800 
 36 H       -8.7600     2.2580    -0.0120 H     1 <1>   0.1500 
 37 H       -7.3750    -1.7800     0.0330 H     1 <1>   0.1500 
 38 H      -11.0890     1.4480    -0.0100 H     1 <1>   0.1500 
 39 H       -9.6780    -2.5720     0.0360 H     1 <1>   0.1500 
 40 H      -11.5430    -0.9710     0.0150 H     1 <1>   0.1500 
@<TRIPOS>BOND
  1   1   2  1   
  2   1   3  1   
  3   2   4  ar  
  4   2   5  ar  
  5   3   6  1   
  6   3  21  1   
  7   3  22  1   
  8   4   7  ar  
  9   4  23  1   
 10   5   8  ar  
 11   5  24  1   
 12   6   9  1   
 13   6  25  1   
 14   6  26  1   
 15   7  10  1   
 16   7  11  ar  
 17   8  11  ar  
 18   8  27  1   
 19   9  12  1   
 20   9  28  1   
 21   9  29  1   
 22  10  13  1   
 23  11  30  1   
 24  12  14  1   
 25  12  31  1   
 26  12  32  1   
 27  13  33  1   
 28  13  34  1   
 29  13  35  1   
 30  14  15  1   
 31  15  16  ar  
 32  15  17  ar  
 33  16  18  ar  
 34  16  36  1   
 35  17  19  ar  
 36  17  37  1   
 37  18  20  ar  
 38  18  38  1   
 39  19  20  ar  
 40  19  39  1   
 41  20  40  1   
@<TRIPOS>SUBSTRUCTURE
  1 ****   6 GROUP 4 **** **** 0

# MOE 2024.06 (io_trps.svl 2023.06)
