@<TRIPOS>MOLECULE
NONAME
47 50 1 0 0 
SMALL
USER_CHARGES


@<TRIPOS>ATOM
  1 N        0.1140    -0.0530     0.4680 N.4   1 <1>  -0.9590 
  2 C       -0.2350     1.3190    -0.0100 C.3   1 <1>   0.3430 
  3 C       -1.0860    -0.8280     0.8910 C.3   1 <1>   0.3430 
  4 C        1.1460    -0.0130     1.5390 C.3   1 <1>   0.4860 
  5 C       -1.1890     1.2210    -1.2020 C.3   1 <1>  -0.1600 
  6 C       -2.0520    -0.9650    -0.2880 C.3   1 <1>  -0.1600 
  7 C        2.4150     0.5790     0.9620 C.ar  1 <1>  -0.1440 
  8 C       -2.4420     0.4020    -0.8650 C.3   1 <1>  -0.1600 
  9 C        2.7880     1.8700     1.2840 C.ar  1 <1>  -0.1500 
 10 C        3.2070    -0.1790     0.0920 C.ar  1 <1>  -0.1500 
 11 C        3.9390     2.4170     0.7240 C.ar  1 <1>   0.0000 
 12 C        4.3490     0.3540    -0.4650 C.ar  1 <1>  -0.1500 
 13 C        4.7110     1.6640    -0.1500 C.ar  1 <1>  -0.1520 
 14 C        4.5650     3.6880     0.8500 C.ar  1 <1>   0.0000 
 15 N        5.7850     2.4300    -0.5650 N.pl3 1 <1>   0.0480 
 16 C        5.6990     3.6660     0.0470 C.ar  1 <1>  -0.1520 
 17 C        4.2530     4.8340     1.5820 C.ar  1 <1>  -0.1500 
 18 C        6.8470     2.0050    -1.5020 C.3   1 <1>   0.0960 
 19 C        6.5320     4.7830    -0.0350 C.ar  1 <1>  -0.1500 
 20 C        5.0760     5.9370     1.4980 C.ar  1 <1>  -0.1500 
 21 C        8.0100     1.3650    -0.7400 C.3   1 <1>  -0.2400 
 22 C        6.2140     5.9110     0.6910 C.ar  1 <1>  -0.1500 
 23 H        0.5440    -0.5330    -0.3320 H     1 <1>   0.4500 
 24 H        0.6560     1.8460    -0.3130 H     1 <1>   0.0800 
 25 H       -0.7060     1.8750     0.7840 H     1 <1>   0.0800 
 26 H       -1.5810    -0.3200     1.7020 H     1 <1>   0.0800 
 27 H       -0.7950    -1.8100     1.2300 H     1 <1>   0.0800 
 28 H        1.3520    -1.0090     1.8980 H     1 <1>   0.0800 
 29 H        0.8030     0.5850     2.3670 H     1 <1>   0.0800 
 30 H       -0.6720     0.7770    -2.0350 H     1 <1>   0.0800 
 31 H       -1.4810     2.2130    -1.5000 H     1 <1>   0.0800 
 32 H       -2.9390    -1.4770     0.0420 H     1 <1>   0.0800 
 33 H       -1.5990    -1.5700    -1.0540 H     1 <1>   0.0800 
 34 H       -3.0410     0.2680    -1.7520 H     1 <1>   0.0800 
 35 H       -3.0400     0.9390    -0.1470 H     1 <1>   0.0800 
 36 H        2.2160     2.4810     1.9600 H     1 <1>   0.1500 
 37 H        2.9360    -1.1920    -0.1510 H     1 <1>   0.1500 
 38 H        4.9610    -0.2280    -1.1320 H     1 <1>   0.1500 
 39 H        3.3780     4.8470     2.2030 H     1 <1>   0.1500 
 40 H        7.1900     2.8640    -2.0500 H     1 <1>   0.0800 
 41 H        6.4320     1.3040    -2.2040 H     1 <1>   0.0800 
 42 H        7.4110     4.7630    -0.6530 H     1 <1>   0.1500 
 43 H        4.8470     6.8280     2.0570 H     1 <1>   0.1500 
 44 H        8.4320     2.0700    -0.0450 H     1 <1>   0.0800 
 45 H        8.7780     1.0640    -1.4300 H     1 <1>   0.0800 
 46 H        7.6720     0.4970    -0.2020 H     1 <1>   0.0800 
 47 H        6.8440     6.7820     0.6410 H     1 <1>   0.1500 
@<TRIPOS>BOND
  1   1   2  1   
  2   1   3  1   
  3   1   4  1   
  4   1  23  1   
  5   2   5  1   
  6   2  24  1   
  7   2  25  1   
  8   3   6  1   
  9   3  26  1   
 10   3  27  1   
 11   4   7  1   
 12   4  28  1   
 13   4  29  1   
 14   5   8  1   
 15   5  30  1   
 16   5  31  1   
 17   6   8  1   
 18   6  32  1   
 19   6  33  1   
 20   7   9  ar  
 21   7  10  ar  
 22   8  34  1   
 23   8  35  1   
 24   9  11  ar  
 25   9  36  1   
 26  10  12  ar  
 27  10  37  1   
 28  11  13  ar  
 29  11  14  1   
 30  12  13  ar  
 31  12  38  1   
 32  13  15  1   
 33  14  16  ar  
 34  14  17  ar  
 35  15  16  1   
 36  15  18  1   
 37  16  19  ar  
 38  17  20  ar  
 39  17  39  1   
 40  18  21  1   
 41  18  40  1   
 42  18  41  1   
 43  19  22  ar  
 44  19  42  1   
 45  20  22  ar  
 46  20  43  1   
 47  21  44  1   
 48  21  45  1   
 49  21  46  1   
 50  22  47  1   
@<TRIPOS>SUBSTRUCTURE
  1 ****  11 GROUP 4 **** **** 0

# MOE 2024.06 (io_trps.svl 2023.06)
