@<TRIPOS>MOLECULE
NONAME
37 37 1 0 0 
SMALL
USER_CHARGES


@<TRIPOS>ATOM
  1 S        0.2870    -0.2740    -0.4810 S.o2  1 <1>   1.3330 
  2 O        0.0120    -1.6630    -0.2210 O.2   1 <1>  -0.6500 
  3 O       -0.7330     0.7350    -0.3450 O.2   1 <1>  -0.6500 
  4 N        1.5940     0.1300     0.5550 N.am  1 <1>  -0.7570 
  5 C        1.0420    -0.1330    -2.0860 C.3   1 <1>  -0.1350 
  6 C        2.2520     1.3520     0.5800 C.ar  1 <1>   0.1990 
  7 C        3.6480     1.4290     0.4120 C.ar  1 <1>   0.0860 
  8 C        1.5270     2.5220     0.7880 C.ar  1 <1>  -0.1500 
  9 C        4.4530     0.2410     0.2230 C.2   1 <1>   0.5440 
 10 C        4.2490     2.6910     0.4300 C.ar  1 <1>  -0.1500 
 11 C        2.1430     3.7560     0.8080 C.ar  1 <1>  -0.1500 
 12 O        4.0450    -0.6860    -0.4540 O.2   1 <1>  -0.5700 
 13 N        5.6800     0.1400     0.8210 N.am  1 <1>  -0.7300 
 14 C        3.5110     3.8420     0.6250 C.ar  1 <1>  -0.1500 
 15 C        6.6130    -1.0170     0.8140 C.3   1 <1>   0.2200 
 16 C        6.8740    -1.5520    -0.6050 C.3   1 <1>   0.1200 
 17 C        6.0660    -2.0910     1.7550 C.3   1 <1>  -0.2400 
 18 O        7.9630    -2.4260    -0.5730 O.3   1 <1>  -0.5600 
 19 C        8.2490    -3.0100    -1.8030 C.3   1 <1>   0.0400 
 20 H        2.2120    -0.6860     0.5820 H     1 <1>   0.4200 
 21 H        1.8880    -0.7900    -2.1570 H     1 <1>   0.0800 
 22 H        1.3700     0.8730    -2.2550 H     1 <1>   0.0800 
 23 H        0.3360    -0.3980    -2.8480 H     1 <1>   0.0800 
 24 H        0.4640     2.4650     0.9440 H     1 <1>   0.1500 
 25 H        5.3110     2.7740     0.2810 H     1 <1>   0.1500 
 26 H        1.5610     4.6490     0.9670 H     1 <1>   0.1500 
 27 H        5.9350     0.8570     1.5010 H     1 <1>   0.3700 
 28 H        3.9940     4.8050     0.6340 H     1 <1>   0.1500 
 29 H        7.5570    -0.6710     1.1990 H     1 <1>   0.0800 
 30 H        7.1140    -0.7390    -1.2680 H     1 <1>   0.0800 
 31 H        6.0160    -2.0880    -0.9710 H     1 <1>   0.0800 
 32 H        5.1290    -2.4710     1.3870 H     1 <1>   0.0800 
 33 H        5.9290    -1.6920     2.7430 H     1 <1>   0.0800 
 34 H        6.7620    -2.9090     1.8120 H     1 <1>   0.0800 
 35 H        9.0950    -3.6620    -1.6750 H     1 <1>   0.0800 
 36 H        8.4880    -2.2400    -2.5160 H     1 <1>   0.0800 
 37 H        7.3970    -3.5810    -2.1310 H     1 <1>   0.0800 
@<TRIPOS>BOND
  1   1   2  2   
  2   1   3  2   
  3   1   4  am  
  4   1   5  1   
  5   4   6  1   
  6   4  20  1   
  7   5  21  1   
  8   5  22  1   
  9   5  23  1   
 10   6   7  ar  
 11   6   8  ar  
 12   7   9  1   
 13   7  10  ar  
 14   8  11  ar  
 15   8  24  1   
 16   9  12  2   
 17   9  13  am  
 18  10  14  ar  
 19  10  25  1   
 20  11  14  ar  
 21  11  26  1   
 22  13  15  1   
 23  13  27  1   
 24  14  28  1   
 25  15  16  1   
 26  15  17  1   
 27  15  29  1   
 28  16  18  1   
 29  16  30  1   
 30  16  31  1   
 31  17  32  1   
 32  17  33  1   
 33  17  34  1   
 34  18  19  1   
 35  19  35  1   
 36  19  36  1   
 37  19  37  1   
@<TRIPOS>SUBSTRUCTURE
  1 ****   9 GROUP 4 **** **** 0

# MOE 2024.06 (io_trps.svl 2023.06)
