@<TRIPOS>MOLECULE
NONAME
50 52 1 0 0 
SMALL
USER_CHARGES


@<TRIPOS>ATOM
  1 CL       0.4170    -0.3080    -0.2710 Cl    1 <1>  -0.1770 
  2 C        1.8890    -1.2080     0.0050 C.ar  1 <1>   0.1770 
  3 C        1.8490    -2.3540     0.7760 C.ar  1 <1>  -0.1500 
  4 C        3.0730    -0.7610    -0.5510 C.ar  1 <1>  -0.1500 
  5 C        3.0190    -3.0630     0.9910 C.ar  1 <1>  -0.1500 
  6 C        4.2370    -1.4760    -0.3320 C.ar  1 <1>  -0.1500 
  7 C        4.2240    -2.6360     0.4410 C.ar  1 <1>   0.1000 
  8 N        5.3820    -3.3760     0.6690 N.pl3 1 <1>  -0.8380 
  9 C        5.4800    -4.7580     0.1130 C.3   1 <1>   0.2090 
 10 C        6.6620    -2.7080     1.0570 C.3   1 <1>   0.2090 
 11 C        6.5740    -4.8510    -0.9720 C.3   1 <1>   0.3430 
 12 C        7.7360    -2.8570    -0.0420 C.3   1 <1>   0.3430 
 13 N        7.8930    -4.2830    -0.5150 N.4   1 <1>  -0.9590 
 14 C        8.9490    -4.4100    -1.5550 C.3   1 <1>   0.4860 
 15 C       10.2720    -3.9900    -0.9440 C.ar  1 <1>  -0.1430 
 16 C       10.9900    -4.8230    -0.0900 C.ar  1 <1>  -0.1430 
 17 C       10.7630    -2.7270    -1.2460 C.ar  1 <1>  -0.1500 
 18 C       12.1730    -4.3630     0.4660 C.ar  1 <1>  -0.1500 
 19 C       10.5320    -6.2360     0.2560 C.3   1 <1>  -0.0970 
 20 C       11.9450    -2.2700    -0.6910 C.ar  1 <1>  -0.1430 
 21 C       12.6560    -3.0910     0.1760 C.ar  1 <1>   0.0830 
 22 C       12.4630    -0.8800    -1.0360 C.3   1 <1>  -0.0970 
 23 O       13.8080    -2.5990     0.7030 O.3   1 <1>  -0.3620 
 24 C       14.6610    -3.3860     1.5050 C.3   1 <1>   0.0400 
 25 H        0.9170    -2.6800     1.2010 H     1 <1>   0.1500 
 26 H        3.0730     0.1350    -1.1460 H     1 <1>   0.1500 
 27 H        3.0030    -3.9500     1.5980 H     1 <1>   0.1500 
 28 H        5.1540    -1.1310    -0.7670 H     1 <1>   0.1500 
 29 H        4.5330    -5.0440    -0.3150 H     1 <1>   0.0800 
 30 H        5.6970    -5.4450     0.9120 H     1 <1>   0.0800 
 31 H        7.0210    -3.1460     1.9720 H     1 <1>   0.0800 
 32 H        6.4860    -1.6630     1.2510 H     1 <1>   0.0800 
 33 H        6.2300    -4.3090    -1.8370 H     1 <1>   0.0800 
 34 H        6.6950    -5.8830    -1.2570 H     1 <1>   0.0800 
 35 H        8.6750    -2.4920     0.3430 H     1 <1>   0.0800 
 36 H        7.4560    -2.2310    -0.8720 H     1 <1>   0.0800 
 37 H        8.2230    -4.8190     0.2960 H     1 <1>   0.4500 
 38 H        8.7190    -3.7840    -2.4010 H     1 <1>   0.0800 
 39 H        9.0200    -5.4300    -1.8960 H     1 <1>   0.0800 
 40 H       10.2280    -2.0820    -1.9210 H     1 <1>   0.1500 
 41 H       12.7200    -5.0060     1.1280 H     1 <1>   0.1500 
 42 H       10.2120    -6.7630    -0.6240 H     1 <1>   0.0800 
 43 H        9.7310    -6.2080     0.9720 H     1 <1>   0.0800 
 44 H       11.3410    -6.7990     0.6880 H     1 <1>   0.0800 
 45 H       11.8090    -0.3720    -1.7200 H     1 <1>   0.0800 
 46 H       13.4360    -0.9590    -1.4870 H     1 <1>   0.0800 
 47 H       12.5500    -0.2910    -0.1400 H     1 <1>   0.0800 
 48 H       15.5190    -2.7910     1.7610 H     1 <1>   0.0800 
 49 H       14.9710    -4.2500     0.9440 H     1 <1>   0.0800 
 50 H       14.1360    -3.6710     2.3990 H     1 <1>   0.0800 
@<TRIPOS>BOND
  1   1   2  1   
  2   2   3  ar  
  3   2   4  ar  
  4   3   5  ar  
  5   3  25  1   
  6   4   6  ar  
  7   4  26  1   
  8   5   7  ar  
  9   5  27  1   
 10   6   7  ar  
 11   6  28  1   
 12   7   8  1   
 13   8   9  1   
 14   8  10  1   
 15   9  11  1   
 16   9  29  1   
 17   9  30  1   
 18  10  12  1   
 19  10  31  1   
 20  10  32  1   
 21  11  13  1   
 22  11  33  1   
 23  11  34  1   
 24  12  13  1   
 25  12  35  1   
 26  12  36  1   
 27  13  14  1   
 28  13  37  1   
 29  14  15  1   
 30  14  38  1   
 31  14  39  1   
 32  15  16  ar  
 33  15  17  ar  
 34  16  18  ar  
 35  16  19  1   
 36  17  20  ar  
 37  17  40  1   
 38  18  21  ar  
 39  18  41  1   
 40  19  42  1   
 41  19  43  1   
 42  19  44  1   
 43  20  21  ar  
 44  20  22  1   
 45  21  23  1   
 46  22  45  1   
 47  22  46  1   
 48  22  47  1   
 49  23  24  1   
 50  24  48  1   
 51  24  49  1   
 52  24  50  1   
@<TRIPOS>SUBSTRUCTURE
  1 ****  12 GROUP 4 **** **** 0

# MOE 2024.06 (io_trps.svl 2023.06)
