@<TRIPOS>MOLECULE
NONAME
39 41 1 0 0 
SMALL
USER_CHARGES


@<TRIPOS>ATOM
  1 O        0.4810    -0.7770    -0.5960 O.2   1 <1>  -0.5700 
  2 C        0.3770    -1.8730    -0.0710 C.2   1 <1>   0.7150 
  3 N        1.5300    -2.5190     0.3320 N.am  1 <1>  -0.6600 
  4 C       -0.9280    -2.4700     0.1260 C.2   1 <1>   0.0550 
  5 C        1.6530    -4.0070     0.3810 C.3   1 <1>   0.1400 
  6 C        2.8520    -1.8250     0.3580 C.3   1 <1>   0.1400 
  7 O       -1.8730    -2.3840    -0.8070 O.3   1 <1>  -0.2800 
  8 C       -1.4330    -3.1740     1.1800 C.2   1 <1>  -0.1500 
  9 C        2.6150    -4.5080    -0.7110 C.3   1 <1>   0.1100 
 10 C        3.7730    -2.3780    -0.7410 C.3   1 <1>   0.1100 
 11 C       -2.9490    -3.0060    -0.3840 C.2   1 <1>  -0.0100 
 12 C       -2.7430    -3.5210     0.8460 C.2   1 <1>  -0.1500 
 13 N        3.9350    -3.8480    -0.6270 N.3   1 <1>  -0.8100 
 14 C        4.8460    -4.3610    -1.6950 C.3   1 <1>   0.1710 
 15 C        6.3210    -4.0070    -1.4870 C.2   1 <1>   0.5690 
 16 O        7.0580    -3.9520    -2.4430 O.2   1 <1>  -0.5700 
 17 N        6.7350    -3.7700    -0.2150 N.am  1 <1>  -0.5790 
 18 C        8.0880    -3.4030     0.2180 C.3   1 <1>   0.0490 
 19 C        8.5370    -3.8520     1.5680 C.3   1 <1>  -0.2000 
 20 C        8.2230    -2.4060     1.3200 C.3   1 <1>  -0.2000 
 21 H        0.6980    -4.4770     0.2380 H     1 <1>   0.0800 
 22 H        2.0290    -4.2990     1.3460 H     1 <1>   0.0800 
 23 H        3.3130    -1.9800     1.3180 H     1 <1>   0.0800 
 24 H        2.7290    -0.7640     0.2220 H     1 <1>   0.0800 
 25 H       -0.9390    -3.4180     2.1030 H     1 <1>   0.1500 
 26 H        2.1740    -4.3230    -1.6770 H     1 <1>   0.0800 
 27 H        2.7400    -5.5710    -0.5990 H     1 <1>   0.0800 
 28 H        4.7320    -1.8950    -0.6600 H     1 <1>   0.0800 
 29 H        3.3550    -2.1240    -1.7010 H     1 <1>   0.0800 
 30 H       -3.8190    -3.0330    -1.0170 H     1 <1>   0.1500 
 31 H       -3.4250    -4.0810     1.4620 H     1 <1>   0.1500 
 32 H        4.5340    -3.9860    -2.6550 H     1 <1>   0.0800 
 33 H        4.7860    -5.4340    -1.7270 H     1 <1>   0.0800 
 34 H        6.0070    -3.7980     0.5030 H     1 <1>   0.3700 
 35 H        8.8040    -3.3860    -0.5890 H     1 <1>   0.1000 
 36 H        9.5660    -4.1340     1.7000 H     1 <1>   0.1000 
 37 H        7.8660    -4.4400     2.1690 H     1 <1>   0.1000 
 38 H        7.3330    -1.9820     1.7500 H     1 <1>   0.1000 
 39 H        9.0400    -1.7080     1.2840 H     1 <1>   0.1000 
@<TRIPOS>BOND
  1   1   2  2   
  2   2   3  am  
  3   2   4  1   
  4   3   5  1   
  5   3   6  1   
  6   4   7  1   
  7   4   8  2   
  8   5   9  1   
  9   5  21  1   
 10   5  22  1   
 11   6  10  1   
 12   6  23  1   
 13   6  24  1   
 14   7  11  1   
 15   8  12  1   
 16   8  25  1   
 17   9  13  1   
 18   9  26  1   
 19   9  27  1   
 20  10  13  1   
 21  10  28  1   
 22  10  29  1   
 23  11  12  2   
 24  11  30  1   
 25  12  31  1   
 26  13  14  1   
 27  14  15  1   
 28  14  32  1   
 29  14  33  1   
 30  15  16  2   
 31  15  17  am  
 32  17  18  1   
 33  17  34  1   
 34  18  19  1   
 35  18  20  1   
 36  18  35  1   
 37  19  20  1   
 38  19  36  1   
 39  19  37  1   
 40  20  38  1   
 41  20  39  1   
@<TRIPOS>SUBSTRUCTURE
  1 ****  10 GROUP 4 **** **** 0

# MOE 2024.06 (io_trps.svl 2023.06)
