@<TRIPOS>MOLECULE
NONAME
53 55 1 0 0 
SMALL
USER_CHARGES


@<TRIPOS>ATOM
  1 S       -0.0510     0.2490     0.4640 S.3   1 <1>  -0.0800 
  2 C       -0.7110    -1.3000    -0.0140 C.2   1 <1>   0.1040 
  3 C        1.5500    -0.1650    -0.1290 C.2   1 <1>  -0.1400 
  4 N       -2.0670    -1.5600     0.1520 N.am  1 <1>  -0.4940 
  5 C        0.2640    -2.0780    -0.5710 C.2   1 <1>  -0.0860 
  6 C        1.5550    -1.4210    -0.6260 C.2   1 <1>  -0.1810 
  7 C        2.5750     0.9470     0.0310 C.3   1 <1>   0.0200 
  8 C       -3.0340    -0.9350     0.9000 C.2   1 <1>   0.5690 
  9 C        0.0160    -3.4150    -1.0380 C.2   1 <1>   0.7160 
 10 C        2.7470    -2.1870    -1.2110 C.3   1 <1>   0.0210 
 11 C        3.4260     0.7630     1.2960 C.3   1 <1>  -0.1600 
 12 O       -2.7960    -0.0880     1.7240 O.2   1 <1>  -0.5700 
 13 C       -4.4810    -1.3820     0.6690 C.3   1 <1>  -0.0190 
 14 O        0.3950    -3.8290    -2.1130 O.2   1 <1>  -0.5700 
 15 N       -0.6740    -4.2900    -0.2740 N.am  1 <1>  -0.8000 
 16 C        4.1500    -1.6660    -0.8670 C.3   1 <1>  -0.1600 
 17 C        4.6820    -0.1070     1.1140 C.3   1 <1>  -0.1600 
 18 C       -5.0390    -0.7850    -0.6380 C.3   1 <1>  -0.1600 
 19 C       -5.4170    -1.0270     1.8440 C.3   1 <1>  -0.1600 
 20 C        4.4100    -1.5470     0.6490 C.3   1 <1>  -0.1600 
 21 C       -6.4870    -1.2170    -0.8880 C.3   1 <1>   0.1400 
 22 C       -6.8590    -1.4610     1.5730 C.3   1 <1>   0.1400 
 23 N       -7.3250    -0.8640     0.2910 N.am  1 <1>  -0.6600 
 24 C       -8.4120    -0.0370     0.1550 C.2   1 <1>   0.5690 
 25 O       -8.7650     0.3940    -0.9160 O.2   1 <1>  -0.5700 
 26 C       -9.2260     0.3730     1.3600 C.3   1 <1>  -0.1790 
 27 H       -2.4080    -2.3460    -0.3980 H     1 <1>   0.3700 
 28 H        2.0450     1.8800     0.1090 H     1 <1>   0.0800 
 29 H        3.1940     1.0270    -0.8420 H     1 <1>   0.0800 
 30 H        2.6400    -2.2180    -2.2820 H     1 <1>   0.0800 
 31 H        2.7030    -3.2030    -0.8600 H     1 <1>   0.0800 
 32 H        2.8100     0.3530     2.0780 H     1 <1>   0.0800 
 33 H        3.7480     1.7350     1.6250 H     1 <1>   0.0800 
 34 H       -4.4760    -2.4530     0.5740 H     1 <1>   0.0800 
 35 H       -0.6960    -5.2610    -0.5860 H     1 <1>   0.3700 
 36 H       -0.7480    -4.1400     0.7320 H     1 <1>   0.3700 
 37 H        4.3290    -0.7370    -1.3730 H     1 <1>   0.0800 
 38 H        4.8600    -2.3640    -1.2750 H     1 <1>   0.0800 
 39 H        5.1800    -0.1560     2.0670 H     1 <1>   0.0800 
 40 H        5.3630     0.3730     0.4320 H     1 <1>   0.0800 
 41 H       -4.4350    -1.0890    -1.4730 H     1 <1>   0.0800 
 42 H       -5.0040     0.2900    -0.5870 H     1 <1>   0.0800 
 43 H       -5.4040     0.0370     2.0130 H     1 <1>   0.0800 
 44 H       -5.0640    -1.5010     2.7430 H     1 <1>   0.0800 
 45 H        5.2820    -2.1350     0.8790 H     1 <1>   0.0800 
 46 H        3.5960    -1.9650     1.2170 H     1 <1>   0.0800 
 47 H       -6.5360    -2.2800    -1.0470 H     1 <1>   0.0800 
 48 H       -6.8540    -0.7330    -1.7770 H     1 <1>   0.0800 
 49 H       -7.4820    -1.1600     2.3960 H     1 <1>   0.0800 
 50 H       -6.9110    -2.5330     1.4950 H     1 <1>   0.0800 
 51 H       -9.6660    -0.4930     1.8160 H     1 <1>   0.0800 
 52 H      -10.0130     1.0390     1.0560 H     1 <1>   0.0800 
 53 H       -8.5990     0.8830     2.0670 H     1 <1>   0.0800 
@<TRIPOS>BOND
  1   1   2  1   
  2   1   3  1   
  3   2   4  1   
  4   2   5  2   
  5   3   6  2   
  6   3   7  1   
  7   4   8  am  
  8   4  27  1   
  9   5   6  1   
 10   5   9  1   
 11   6  10  1   
 12   7  11  1   
 13   7  28  1   
 14   7  29  1   
 15   8  12  2   
 16   8  13  1   
 17   9  14  2   
 18   9  15  am  
 19  10  16  1   
 20  10  30  1   
 21  10  31  1   
 22  11  17  1   
 23  11  32  1   
 24  11  33  1   
 25  13  18  1   
 26  13  19  1   
 27  13  34  1   
 28  15  35  1   
 29  15  36  1   
 30  16  20  1   
 31  16  37  1   
 32  16  38  1   
 33  17  20  1   
 34  17  39  1   
 35  17  40  1   
 36  18  21  1   
 37  18  41  1   
 38  18  42  1   
 39  19  22  1   
 40  19  43  1   
 41  19  44  1   
 42  20  45  1   
 43  20  46  1   
 44  21  23  1   
 45  21  47  1   
 46  21  48  1   
 47  22  23  1   
 48  22  49  1   
 49  22  50  1   
 50  23  24  am  
 51  24  25  2   
 52  24  26  1   
 53  26  51  1   
 54  26  52  1   
 55  26  53  1   
@<TRIPOS>SUBSTRUCTURE
  1 ****   4 GROUP 4 **** **** 0

# MOE 2024.06 (io_trps.svl 2023.06)
