@<TRIPOS>MOLECULE
NONAME
36 37 1 0 0 
SMALL
USER_CHARGES


@<TRIPOS>ATOM
  1 F       -2.5160     1.7710    -1.9060 F     1 <1>  -0.1900 
  2 C       -1.5400     2.3470    -1.2510 C.ar  1 <1>   0.1900 
  3 C       -1.5180     2.2980     0.1370 C.ar  1 <1>  -0.1440 
  4 C       -0.5630     2.9900    -1.9880 C.ar  1 <1>  -0.1500 
  5 C       -0.4660     2.9250     0.7900 C.ar  1 <1>  -0.1500 
  6 C       -2.6080     1.5850     0.9230 C.3   1 <1>   0.2540 
  7 C        0.4770     3.6100    -1.3170 C.ar  1 <1>  -0.1500 
  8 C        0.5230     3.5760     0.0670 C.ar  1 <1>  -0.1500 
  9 N       -3.8950     2.2660     0.7020 N.3   1 <1>  -0.8100 
 10 C       -5.0740     1.4130     0.9780 C.3   1 <1>   0.1100 
 11 C       -3.9780     3.5960     1.3270 C.3   1 <1>   0.1100 
 12 C       -6.3400     1.9390     0.2650 C.3   1 <1>   0.3430 
 13 C       -4.5070     4.6020     0.2990 C.3   1 <1>  -0.1600 
 14 N       -5.9490     2.9210    -0.7920 N.4   1 <1>  -0.9590 
 15 C       -5.9030     4.3040    -0.2560 C.3   1 <1>   0.3430 
 16 C       -6.7260     2.7890    -2.0550 C.3   1 <1>   0.2630 
 17 H       -0.6150     3.0020    -3.0610 H     1 <1>   0.1500 
 18 H       -0.4060     2.9100     1.8650 H     1 <1>   0.1500 
 19 H       -2.3740     1.5620     1.9740 H     1 <1>   0.0800 
 20 H       -2.6630     0.5690     0.5690 H     1 <1>   0.0800 
 21 H        1.2500     4.1170    -1.8700 H     1 <1>   0.1500 
 22 H        1.3350     4.0580     0.5850 H     1 <1>   0.1500 
 23 H       -5.2460     1.3320     2.0380 H     1 <1>   0.0800 
 24 H       -4.8840     0.4200     0.6060 H     1 <1>   0.0800 
 25 H       -3.0010     3.9220     1.6450 H     1 <1>   0.0800 
 26 H       -4.6100     3.5700     2.2000 H     1 <1>   0.0800 
 27 H       -6.9950     2.4050     0.9810 H     1 <1>   0.0800 
 28 H       -6.8630     1.1050    -0.1700 H     1 <1>   0.0800 
 29 H       -3.8060     4.6630    -0.5160 H     1 <1>   0.0800 
 30 H       -4.5290     5.5740     0.7580 H     1 <1>   0.0800 
 31 H       -4.9440     2.6820    -0.9450 H     1 <1>   0.4500 
 32 H       -6.1180     5.0090    -1.0440 H     1 <1>   0.0800 
 33 H       -6.6440     4.4270     0.5170 H     1 <1>   0.0800 
 34 H       -7.7630     3.0240    -1.8840 H     1 <1>   0.0800 
 35 H       -6.6530     1.7820    -2.4330 H     1 <1>   0.0800 
 36 H       -6.3350     3.4620    -2.8020 H     1 <1>   0.0800 
@<TRIPOS>BOND
  1   1   2  1   
  2   2   3  ar  
  3   2   4  ar  
  4   3   5  ar  
  5   3   6  1   
  6   4   7  ar  
  7   4  17  1   
  8   5   8  ar  
  9   5  18  1   
 10   6   9  1   
 11   6  19  1   
 12   6  20  1   
 13   7   8  ar  
 14   7  21  1   
 15   8  22  1   
 16   9  10  1   
 17   9  11  1   
 18  10  12  1   
 19  10  23  1   
 20  10  24  1   
 21  11  13  1   
 22  11  25  1   
 23  11  26  1   
 24  12  14  1   
 25  12  27  1   
 26  12  28  1   
 27  13  15  1   
 28  13  29  1   
 29  13  30  1   
 30  14  15  1   
 31  14  16  1   
 32  14  31  1   
 33  15  32  1   
 34  15  33  1   
 35  16  34  1   
 36  16  35  1   
 37  16  36  1   
@<TRIPOS>SUBSTRUCTURE
  1 ****   9 GROUP 4 **** **** 0

# MOE 2024.06 (io_trps.svl 2023.06)
