@<TRIPOS>MOLECULE
NONAME
34 34 1 0 0 
SMALL
USER_CHARGES


@<TRIPOS>ATOM
  1 I       -0.1500    -0.6370    -2.4250 I     1 <1>  -0.0810 
  2 C        1.7030    -1.2350    -1.5610 C.ar  1 <1>   0.0810 
  3 C        2.2740    -2.4330    -1.9410 C.ar  1 <1>   0.1600 
  4 C        2.3030    -0.4150    -0.6320 C.ar  1 <1>  -0.1500 
  5 N        3.4210    -2.8770    -1.4550 N.ar  1 <1>  -0.6200 
  6 C        3.5020    -0.8640    -0.1180 C.ar  1 <1>  -0.1430 
  7 C        4.0320    -2.0880    -0.5690 C.ar  1 <1>   0.4270 
  8 C        4.2040    -0.0070     0.9310 C.3   1 <1>  -0.0970 
  9 N        5.2440    -2.5750    -0.0860 N.am  1 <1>  -0.4770 
 10 C        6.4430    -1.9870    -0.4120 C.2   1 <1>   0.7800 
 11 C        5.2230    -3.9100     0.5680 C.3   1 <1>   0.0600 
 12 O        6.5190    -0.9560    -1.0510 O.2   1 <1>  -0.5700 
 13 O        7.5510    -2.5980     0.0250 O.3   1 <1>  -0.4300 
 14 C        8.8890    -2.2030    -0.1800 C.3   1 <1>   0.2800 
 15 C        9.2210    -2.2080    -1.6770 C.3   1 <1>  -0.2400 
 16 C        9.1470    -0.8400     0.4740 C.3   1 <1>  -0.2400 
 17 C        9.7310    -3.2670     0.5260 C.3   1 <1>  -0.2400 
 18 H        1.7730    -3.0470    -2.6680 H     1 <1>   0.1500 
 19 H        1.8550     0.5160    -0.3330 H     1 <1>   0.1500 
 20 H        3.5130     0.6730     1.3960 H     1 <1>   0.0800 
 21 H        4.9870     0.5680     0.4680 H     1 <1>   0.0800 
 22 H        4.6340    -0.6240     1.6990 H     1 <1>   0.0800 
 23 H        4.2210    -4.1560     0.8750 H     1 <1>   0.0800 
 24 H        5.8620    -3.9080     1.4330 H     1 <1>   0.0800 
 25 H        5.5670    -4.6540    -0.1290 H     1 <1>   0.0800 
 26 H        8.6990    -1.4240    -2.1930 H     1 <1>   0.0800 
 27 H        8.9600    -3.1540    -2.1150 H     1 <1>   0.0800 
 28 H       10.2740    -2.0440    -1.8200 H     1 <1>   0.0800 
 29 H       10.1960    -0.6090     0.4380 H     1 <1>   0.0800 
 30 H        8.8360    -0.8530     1.5030 H     1 <1>   0.0800 
 31 H        8.6260    -0.0560    -0.0440 H     1 <1>   0.0800 
 32 H       10.7780    -3.0460     0.4210 H     1 <1>   0.0800 
 33 H        9.5440    -4.2350     0.0970 H     1 <1>   0.0800 
 34 H        9.4940    -3.2950     1.5740 H     1 <1>   0.0800 
@<TRIPOS>BOND
  1   1   2  1   
  2   2   3  ar  
  3   2   4  ar  
  4   3   5  ar  
  5   3  18  1   
  6   4   6  ar  
  7   4  19  1   
  8   5   7  ar  
  9   6   7  ar  
 10   6   8  1   
 11   7   9  1   
 12   8  20  1   
 13   8  21  1   
 14   8  22  1   
 15   9  10  am  
 16   9  11  1   
 17  10  12  2   
 18  10  13  1   
 19  11  23  1   
 20  11  24  1   
 21  11  25  1   
 22  13  14  1   
 23  14  15  1   
 24  14  16  1   
 25  14  17  1   
 26  15  26  1   
 27  15  27  1   
 28  15  28  1   
 29  16  29  1   
 30  16  30  1   
 31  16  31  1   
 32  17  32  1   
 33  17  33  1   
 34  17  34  1   
@<TRIPOS>SUBSTRUCTURE
  1 ****   9 GROUP 4 **** **** 0

# MOE 2024.06 (io_trps.svl 2023.06)
