@<TRIPOS>MOLECULE
NONAME
47 49 1 0 0 
SMALL
USER_CHARGES


@<TRIPOS>ATOM
  1 O        1.4680    -3.5550    -1.4790 O.2   1 <1>  -0.5700 
  2 C        0.9760    -2.8890    -0.5840 C.2   1 <1>   0.5440 
  3 N        1.7900    -2.0250     0.1210 N.am  1 <1>  -0.6600 
  4 C       -0.4320    -3.0390    -0.2750 C.ar  1 <1>   0.0860 
  5 C        3.1400    -1.6410    -0.3760 C.3   1 <1>   0.1400 
  6 C        1.4970    -1.5650     1.5070 C.3   1 <1>   0.1400 
  7 C       -0.9940    -4.3040    -0.0380 C.ar  1 <1>   0.1170 
  8 C       -1.2600    -1.9170    -0.2050 C.ar  1 <1>  -0.1500 
  9 C        3.2960    -0.1180    -0.3120 C.3   1 <1>  -0.1600 
 10 C        1.6290    -0.0400     1.5820 C.3   1 <1>  -0.1600 
 11 N       -0.1860    -5.4460    -0.1470 N.am  1 <1>  -0.5470 
 12 C       -2.3470    -4.3970     0.2830 C.ar  1 <1>  -0.1500 
 13 C       -2.5990    -2.0250     0.1130 C.ar  1 <1>  -0.1500 
 14 C        3.0080     0.4280     1.0940 C.3   1 <1>  -0.1600 
 15 C       -0.2840    -6.7170     0.3530 C.2   1 <1>   0.5690 
 16 C       -3.1430    -3.2720     0.3610 C.ar  1 <1>  -0.1500 
 17 O       -1.1910    -7.0900     1.0570 O.2   1 <1>  -0.5700 
 18 C        0.8180    -7.7120     0.0120 C.3   1 <1>   0.1810 
 19 O        1.8880    -7.0740    -0.6690 O.3   1 <1>  -0.3620 
 20 C        2.9680    -7.7660    -1.1020 C.ar  1 <1>   0.0820 
 21 C        3.1670    -9.1240    -0.8640 C.ar  1 <1>  -0.1500 
 22 C        3.9120    -7.0520    -1.8210 C.ar  1 <1>  -0.1500 
 23 C        4.3030    -9.7500    -1.3480 C.ar  1 <1>  -0.1500 
 24 C        5.0470    -7.6790    -2.3030 C.ar  1 <1>  -0.1500 
 25 C        5.2430    -9.0290    -2.0660 C.ar  1 <1>  -0.1500 
 26 H        3.2770    -1.9720    -1.3920 H     1 <1>   0.0800 
 27 H        3.8870    -2.1170     0.2350 H     1 <1>   0.0800 
 28 H        2.2050    -2.0210     2.1770 H     1 <1>   0.0800 
 29 H        0.5110    -1.8640     1.8170 H     1 <1>   0.0800 
 30 H       -0.8370    -0.9480    -0.4050 H     1 <1>   0.1500 
 31 H        2.6200     0.3270    -1.0210 H     1 <1>   0.0800 
 32 H        4.2970     0.1480    -0.6050 H     1 <1>   0.0800 
 33 H        1.4790     0.2800     2.5980 H     1 <1>   0.0800 
 34 H        0.8590     0.4090     0.9800 H     1 <1>   0.0800 
 35 H        0.6820    -5.2850    -0.6840 H     1 <1>   0.3700 
 36 H       -2.7880    -5.3590     0.4670 H     1 <1>   0.1500 
 37 H       -3.2190    -1.1460     0.1660 H     1 <1>   0.1500 
 38 H        3.0450     1.5040     1.0820 H     1 <1>   0.0800 
 39 H        3.7650     0.0770     1.7740 H     1 <1>   0.0800 
 40 H       -4.1860    -3.3660     0.6110 H     1 <1>   0.1500 
 41 H        0.4190    -8.4800    -0.6240 H     1 <1>   0.0800 
 42 H        1.2000    -8.1420     0.9190 H     1 <1>   0.0800 
 43 H        2.4570    -9.7070    -0.3100 H     1 <1>   0.1500 
 44 H        3.7500    -6.0030    -2.0010 H     1 <1>   0.1500 
 45 H        4.4590   -10.7990    -1.1650 H     1 <1>   0.1500 
 46 H        5.7760    -7.1180    -2.8620 H     1 <1>   0.1500 
 47 H        6.1250    -9.5180    -2.4410 H     1 <1>   0.1500 
@<TRIPOS>BOND
  1   1   2  2   
  2   2   3  am  
  3   2   4  1   
  4   3   5  1   
  5   3   6  1   
  6   4   7  ar  
  7   4   8  ar  
  8   5   9  1   
  9   5  26  1   
 10   5  27  1   
 11   6  10  1   
 12   6  28  1   
 13   6  29  1   
 14   7  11  1   
 15   7  12  ar  
 16   8  13  ar  
 17   8  30  1   
 18   9  14  1   
 19   9  31  1   
 20   9  32  1   
 21  10  14  1   
 22  10  33  1   
 23  10  34  1   
 24  11  15  am  
 25  11  35  1   
 26  12  16  ar  
 27  12  36  1   
 28  13  16  ar  
 29  13  37  1   
 30  14  38  1   
 31  14  39  1   
 32  15  17  2   
 33  15  18  1   
 34  16  40  1   
 35  18  19  1   
 36  18  41  1   
 37  18  42  1   
 38  19  20  1   
 39  20  21  ar  
 40  20  22  ar  
 41  21  23  ar  
 42  21  43  1   
 43  22  24  ar  
 44  22  44  1   
 45  23  25  ar  
 46  23  45  1   
 47  24  25  ar  
 48  24  46  1   
 49  25  47  1   
@<TRIPOS>SUBSTRUCTURE
  1 ****   1 GROUP 4 **** **** 0

# MOE 2024.06 (io_trps.svl 2023.06)
