@<TRIPOS>MOLECULE
NONAME
38 39 1 0 0 
SMALL
USER_CHARGES


@<TRIPOS>ATOM
  1 CL       0.4690     0.9400    -0.9780 Cl    1 <1>  -0.1770 
  2 C        1.8690    -0.1110    -0.9880 C.ar  1 <1>   0.1770 
  3 C        2.9930     0.1780    -0.2210 C.ar  1 <1>  -0.1440 
  4 C        1.7980    -1.2370    -1.7870 C.ar  1 <1>  -0.1500 
  5 C        4.0700    -0.7130    -0.2550 C.ar  1 <1>   0.1170 
  6 C        3.0570     1.4400     0.6420 C.3   1 <1>  -0.0970 
  7 C        2.8680    -2.1100    -1.8260 C.ar  1 <1>  -0.1500 
  8 N        5.2040    -0.4800     0.5400 N.am  1 <1>  -0.5470 
  9 C        3.9890    -1.8460    -1.0620 C.ar  1 <1>  -0.1500 
 10 C        6.5150    -0.7790     0.3220 C.2   1 <1>   0.6900 
 11 O        6.9000    -1.2370    -0.7340 O.2   1 <1>  -0.5700 
 12 N        7.3790    -0.5260     1.3370 N.am  1 <1>  -0.7300 
 13 C        8.8520    -0.7410     1.3350 C.3   1 <1>   0.2200 
 14 C        9.5580    -0.1910     0.0720 C.3   1 <1>   0.2000 
 15 C        9.1200    -2.2310     1.5490 C.3   1 <1>  -0.2400 
 16 O       10.9390    -0.1930     0.2620 O.3   1 <1>  -0.5600 
 17 C        9.2420     1.2630    -0.2660 C.3   1 <1>  -0.1600 
 18 C       11.5350     0.6560    -0.6620 C.3   1 <1>   0.1200 
 19 C       10.5140     1.7570    -0.9380 C.3   1 <1>  -0.1600 
 20 H        0.9140    -1.4240    -2.3690 H     1 <1>   0.1500 
 21 H        2.3380     2.1750     0.3320 H     1 <1>   0.0800 
 22 H        4.0260     1.9010     0.5640 H     1 <1>   0.0800 
 23 H        2.8650     1.1910     1.6690 H     1 <1>   0.0800 
 24 H        2.8300    -2.9900    -2.4450 H     1 <1>   0.1500 
 25 H        5.0490     0.1290     1.3330 H     1 <1>   0.3700 
 26 H        4.8150    -2.5350    -1.0940 H     1 <1>   0.1500 
 27 H        6.9890    -0.4040     2.2670 H     1 <1>   0.3700 
 28 H        9.2550    -0.2000     2.1740 H     1 <1>   0.0800 
 29 H        9.3560    -0.8230    -0.7760 H     1 <1>   0.0800 
 30 H        8.7410    -2.8010     0.7200 H     1 <1>   0.0800 
 31 H        8.6590    -2.5710     2.4580 H     1 <1>   0.0800 
 32 H       10.1790    -2.4020     1.6200 H     1 <1>   0.0800 
 33 H        9.0570     1.8170     0.6370 H     1 <1>   0.0800 
 34 H        8.3810     1.3320    -0.9080 H     1 <1>   0.0800 
 35 H       11.7430     0.0860    -1.5520 H     1 <1>   0.0800 
 36 H       12.4500     1.0380    -0.2430 H     1 <1>   0.0800 
 37 H       10.8390     2.6930    -0.5180 H     1 <1>   0.0800 
 38 H       10.3790     1.8750    -1.9990 H     1 <1>   0.0800 
@<TRIPOS>BOND
  1   1   2  1   
  2   2   3  ar  
  3   2   4  ar  
  4   3   5  ar  
  5   3   6  1   
  6   4   7  ar  
  7   4  20  1   
  8   5   8  1   
  9   5   9  ar  
 10   6  21  1   
 11   6  22  1   
 12   6  23  1   
 13   7   9  ar  
 14   7  24  1   
 15   8  10  am  
 16   8  25  1   
 17   9  26  1   
 18  10  11  2   
 19  10  12  am  
 20  12  13  1   
 21  12  27  1   
 22  13  14  1   
 23  13  15  1   
 24  13  28  1   
 25  14  16  1   
 26  14  17  1   
 27  14  29  1   
 28  15  30  1   
 29  15  31  1   
 30  15  32  1   
 31  16  18  1   
 32  17  19  1   
 33  17  33  1   
 34  17  34  1   
 35  18  19  1   
 36  18  35  1   
 37  18  36  1   
 38  19  37  1   
 39  19  38  1   
@<TRIPOS>SUBSTRUCTURE
  1 ****  10 GROUP 4 **** **** 0

# MOE 2024.06 (io_trps.svl 2023.06)
