@<TRIPOS>MOLECULE
NONAME
43 45 1 0 0 
SMALL
USER_CHARGES


@<TRIPOS>ATOM
  1 CL      -1.2870     0.6520    -0.9970 Cl    1 <1>  -0.1770 
  2 C       -0.3270     1.9710    -0.3820 C.ar  1 <1>   0.1770 
  3 C       -0.0690     3.0600    -1.1920 C.ar  1 <1>  -0.1500 
  4 C        0.1650     1.9120     0.9070 C.ar  1 <1>  -0.1500 
  5 C        0.6960     4.1030    -0.6970 C.ar  1 <1>  -0.1500 
  6 C        0.9290     2.9620     1.3890 C.ar  1 <1>  -0.1500 
  7 C        1.2100     4.0730     0.5970 C.ar  1 <1>  -0.0090 
  8 S        2.2200     5.4450     1.2230 S.o2  1 <1>   1.4470 
  9 O        2.8390     5.0770     2.4780 O.2   1 <1>  -0.6500 
 10 O        1.4590     6.6720     1.1350 O.2   1 <1>  -0.6500 
 11 N        3.4620     5.5540     0.0760 N.am  1 <1>  -0.8490 
 12 C        4.1880     6.8290     0.1990 C.3   1 <1>   0.1960 
 13 C        4.4150     4.4340     0.1720 C.3   1 <1>   0.1960 
 14 C        5.3070     6.9490    -0.8550 C.3   1 <1>   0.1100 
 15 C        5.5240     4.5460    -0.8900 C.3   1 <1>   0.1100 
 16 N        6.2610     5.8240    -0.7670 N.3   1 <1>  -0.8100 
 17 C        7.3200     5.9370    -1.8140 C.3   1 <1>   0.1710 
 18 C        8.5280     5.0270    -1.5790 C.2   1 <1>   0.5690 
 19 O        9.1960     4.6710    -2.5220 O.2   1 <1>  -0.5700 
 20 N        8.7930     4.6560    -0.3000 N.am  1 <1>  -0.5790 
 21 C        9.8800     3.7870     0.1620 C.3   1 <1>   0.0490 
 22 C        9.5790     2.7990     1.2400 C.3   1 <1>  -0.2000 
 23 C       10.4130     4.0090     1.5380 C.3   1 <1>  -0.2000 
 24 H       -0.4640     3.0880    -2.1920 H     1 <1>   0.1500 
 25 H       -0.0500     1.0560     1.5220 H     1 <1>   0.1500 
 26 H        0.9010     4.9570    -1.3220 H     1 <1>   0.1500 
 27 H        1.3110     2.9200     2.3960 H     1 <1>   0.1500 
 28 H        4.6180     6.9140     1.1830 H     1 <1>   0.0800 
 29 H        3.5030     7.6480     0.0640 H     1 <1>   0.0800 
 30 H        3.8930     3.5030     0.0320 H     1 <1>   0.0800 
 31 H        4.8730     4.4170     1.1480 H     1 <1>   0.0800 
 32 H        5.8320     7.8760    -0.6960 H     1 <1>   0.0800 
 33 H        4.8600     6.9790    -1.8340 H     1 <1>   0.0800 
 34 H        5.0780     4.4680    -1.8670 H     1 <1>   0.0800 
 35 H        6.2040     3.7200    -0.7680 H     1 <1>   0.0800 
 36 H        7.6910     6.9460    -1.8350 H     1 <1>   0.0800 
 37 H        6.9050     5.7200    -2.7830 H     1 <1>   0.0800 
 38 H        8.1270     4.9820     0.4060 H     1 <1>   0.3700 
 39 H       10.5650     3.5060    -0.6240 H     1 <1>   0.1000 
 40 H       10.0670     1.8410     1.2110 H     1 <1>   0.1000 
 41 H        8.5780     2.7440     1.6300 H     1 <1>   0.1000 
 42 H        9.9950     4.8000     2.1350 H     1 <1>   0.1000 
 43 H       11.4650     3.8710     1.7100 H     1 <1>   0.1000 
@<TRIPOS>BOND
  1   1   2  1   
  2   2   3  ar  
  3   2   4  ar  
  4   3   5  ar  
  5   3  24  1   
  6   4   6  ar  
  7   4  25  1   
  8   5   7  ar  
  9   5  26  1   
 10   6   7  ar  
 11   6  27  1   
 12   7   8  1   
 13   8   9  2   
 14   8  10  2   
 15   8  11  am  
 16  11  12  1   
 17  11  13  1   
 18  12  14  1   
 19  12  28  1   
 20  12  29  1   
 21  13  15  1   
 22  13  30  1   
 23  13  31  1   
 24  14  16  1   
 25  14  32  1   
 26  14  33  1   
 27  15  16  1   
 28  15  34  1   
 29  15  35  1   
 30  16  17  1   
 31  17  18  1   
 32  17  36  1   
 33  17  37  1   
 34  18  19  2   
 35  18  20  am  
 36  20  21  1   
 37  20  38  1   
 38  21  22  1   
 39  21  23  1   
 40  21  39  1   
 41  22  23  1   
 42  22  40  1   
 43  22  41  1   
 44  23  42  1   
 45  23  43  1   
@<TRIPOS>SUBSTRUCTURE
  1 ****  13 GROUP 4 **** **** 0

# MOE 2024.06 (io_trps.svl 2023.06)
