@<TRIPOS>MOLECULE
NONAME
53 56 1 0 0 
SMALL
USER_CHARGES


@<TRIPOS>ATOM
  1 S        0.7430     0.8990    -0.3270 S.3   1 <1>  -0.2860 
  2 C       -0.9530     1.4100    -0.6220 C.2   1 <1>   0.2420 
  3 C        0.8760    -0.6950    -1.2800 C.3   1 <1>   0.1310 
  4 N       -1.7660     0.7370    -1.3530 N.2   1 <1>  -0.3380 
  5 N       -1.4750     2.5300    -0.1080 N.pl3 1 <1>   0.3260 
  6 C        2.2730    -1.2890    -1.1890 C.2   1 <1>   0.5690 
  7 N       -2.9060     1.4250    -1.3500 N.2   1 <1>  -0.3380 
  8 C       -0.8440     3.5280     0.6820 C.ar  1 <1>  -0.0230 
  9 C       -2.7360     2.4870    -0.6080 C.2   1 <1>   0.1330 
 10 O        2.4210    -2.4530    -1.4740 O.2   1 <1>  -0.5700 
 11 N        3.3140    -0.5080    -0.8010 N.am  1 <1>  -0.7300 
 12 C       -0.3260     3.2180     1.9360 C.ar  1 <1>  -0.1500 
 13 C       -0.7440     4.8370     0.2200 C.ar  1 <1>  -0.1500 
 14 C       -3.7480     3.4890    -0.3690 C.ar  1 <1>   0.0530 
 15 C        4.7130    -0.9390    -0.6550 C.3   1 <1>   0.2200 
 16 C        0.2770     4.1940     2.7090 C.ar  1 <1>  -0.1500 
 17 C       -0.1430     5.8130     0.9940 C.ar  1 <1>  -0.1500 
 18 C       -3.9540     4.0650     0.8860 C.ar  1 <1>  -0.1500 
 19 C       -4.5690     3.9170    -1.4120 C.ar  1 <1>  -0.1500 
 20 C        5.1480    -0.6980     0.7850 C.3   1 <1>  -0.1600 
 21 C        5.6010     0.0080    -1.4510 C.3   1 <1>  -0.1600 
 22 C        0.3680     5.4920     2.2390 C.ar  1 <1>  -0.1500 
 23 C       -4.9150     5.0370     1.0880 C.ar  1 <1>  -0.1500 
 24 C       -5.5330     4.8880    -1.2180 C.ar  1 <1>  -0.1500 
 25 C        5.4970     0.7920     0.8710 C.3   1 <1>  -0.1600 
 26 C        5.7970     1.2440    -0.5650 C.3   1 <1>  -0.1600 
 27 C       -5.7140     5.4600     0.0300 C.ar  1 <1>   0.0830 
 28 O       -6.6750     6.4080     0.1380 O.3   1 <1>  -0.3630 
 29 C       -6.9520     7.0390     1.3690 C.3   1 <1>   0.0400 
 30 H        0.6290    -0.4800    -2.3020 H     1 <1>   0.0800 
 31 H        0.1540    -1.3750    -0.8670 H     1 <1>   0.0800 
 32 H        3.1380     0.4600    -0.5290 H     1 <1>   0.3700 
 33 H       -0.3900     2.2110     2.3120 H     1 <1>   0.1500 
 34 H       -1.1400     5.0990    -0.7470 H     1 <1>   0.1500 
 35 H        4.8310    -1.9680    -0.9550 H     1 <1>   0.0800 
 36 H        0.6760     3.9450     3.6770 H     1 <1>   0.1500 
 37 H       -0.0720     6.8230     0.6280 H     1 <1>   0.1500 
 38 H       -3.3560     3.7480     1.7220 H     1 <1>   0.1500 
 39 H       -4.4460     3.4800    -2.3880 H     1 <1>   0.1500 
 40 H        6.0360    -1.2760     0.9720 H     1 <1>   0.0800 
 41 H        4.3920    -0.9920     1.4930 H     1 <1>   0.0800 
 42 H        5.1820     0.2460    -2.4130 H     1 <1>   0.0800 
 43 H        6.5540    -0.4680    -1.6010 H     1 <1>   0.0800 
 44 H        0.8360     6.2520     2.8410 H     1 <1>   0.1500 
 45 H       -5.0310     5.4530     2.0710 H     1 <1>   0.1500 
 46 H       -6.1560     5.2090    -2.0340 H     1 <1>   0.1500 
 47 H        6.3420     0.9520     1.5190 H     1 <1>   0.0800 
 48 H        4.6560     1.3430     1.2560 H     1 <1>   0.0800 
 49 H        5.1040     2.0160    -0.8540 H     1 <1>   0.0800 
 50 H        6.7990     1.6260    -0.6560 H     1 <1>   0.0800 
 51 H       -7.2600     6.2940     2.0810 H     1 <1>   0.0800 
 52 H       -7.7480     7.7440     1.2100 H     1 <1>   0.0800 
 53 H       -6.0690     7.5540     1.7040 H     1 <1>   0.0800 
@<TRIPOS>BOND
  1   1   2  1   
  2   1   3  1   
  3   2   4  2   
  4   2   5  1   
  5   3   6  1   
  6   3  30  1   
  7   3  31  1   
  8   4   7  1   
  9   5   8  1   
 10   5   9  1   
 11   6  10  2   
 12   6  11  am  
 13   7   9  2   
 14   8  12  ar  
 15   8  13  ar  
 16   9  14  1   
 17  11  15  1   
 18  11  32  1   
 19  12  16  ar  
 20  12  33  1   
 21  13  17  ar  
 22  13  34  1   
 23  14  18  ar  
 24  14  19  ar  
 25  15  20  1   
 26  15  21  1   
 27  15  35  1   
 28  16  22  ar  
 29  16  36  1   
 30  17  22  ar  
 31  17  37  1   
 32  18  23  ar  
 33  18  38  1   
 34  19  24  ar  
 35  19  39  1   
 36  20  25  1   
 37  20  40  1   
 38  20  41  1   
 39  21  26  1   
 40  21  42  1   
 41  21  43  1   
 42  22  44  1   
 43  23  27  ar  
 44  23  45  1   
 45  24  27  ar  
 46  24  46  1   
 47  25  26  1   
 48  25  47  1   
 49  25  48  1   
 50  26  49  1   
 51  26  50  1   
 52  27  28  1   
 53  28  29  1   
 54  29  51  1   
 55  29  52  1   
 56  29  53  1   
@<TRIPOS>SUBSTRUCTURE
  1 ****   5 GROUP 4 **** **** 0

# MOE 2024.06 (io_trps.svl 2023.06)
