@<TRIPOS>MOLECULE
NONAME
51 53 1 0 0 
SMALL
USER_CHARGES


@<TRIPOS>ATOM
  1 S       -0.8020     0.1860     1.5230 S.o2  1 <1>   1.4470 
  2 O        0.5900    -0.1470     1.7490 O.2   1 <1>  -0.6500 
  3 O       -1.5990     0.5930     2.6610 O.2   1 <1>  -0.6500 
  4 N       -0.8600     1.4780     0.4290 N.am  1 <1>  -0.8490 
  5 C       -1.6330    -1.1760     0.6620 C.ar  1 <1>  -0.0090 
  6 C       -2.1790     2.0980     0.3330 C.3   1 <1>   0.1960 
  7 C        0.1920     2.4660     0.6960 C.3   1 <1>   0.1960 
  8 C       -1.1270    -1.6960    -0.5250 C.ar  1 <1>   0.0820 
  9 C       -2.7980    -1.7370     1.1670 C.ar  1 <1>  -0.1500 
 10 C       -2.2510     2.9990    -0.9110 C.3   1 <1>  -0.1600 
 11 C       -0.0050     3.7760    -0.0900 C.3   1 <1>  -0.1600 
 12 O       -0.0180    -1.1820    -1.0790 O.3   1 <1>  -0.3620 
 13 C       -1.7700    -2.7390    -1.1750 C.ar  1 <1>  -0.1500 
 14 C       -3.4760    -2.7810     0.5350 C.ar  1 <1>   0.0860 
 15 C       -0.8850     3.5760    -1.3310 C.3   1 <1>  -0.0800 
 16 C        1.1790    -1.9130    -0.9380 C.3   1 <1>   0.0400 
 17 C       -2.9260    -3.2770    -0.6480 C.ar  1 <1>  -0.1500 
 18 C       -4.7010    -3.3140     1.0960 C.2   1 <1>   0.5440 
 19 C       -1.0490     4.8790    -2.1210 C.3   1 <1>  -0.2400 
 20 O       -4.8340    -3.3860     2.3000 O.2   1 <1>  -0.5700 
 21 N       -5.7090    -3.7270     0.2530 N.am  1 <1>  -0.5470 
 22 C       -6.9820    -4.2610     0.5090 C.ar  1 <1>   0.1170 
 23 C       -7.6710    -4.0580     1.7020 C.ar  1 <1>  -0.1500 
 24 C       -7.5980    -5.0130    -0.4860 C.ar  1 <1>  -0.1500 
 25 C       -8.9300    -4.5960     1.8960 C.ar  1 <1>  -0.1500 
 26 C       -8.8580    -5.5520    -0.2960 C.ar  1 <1>  -0.1500 
 27 C       -9.5270    -5.3440     0.8970 C.ar  1 <1>  -0.1500 
 28 H       -2.3620     2.6820     1.2220 H     1 <1>   0.0800 
 29 H       -2.9450     1.3440     0.2670 H     1 <1>   0.0800 
 30 H        1.1380     2.0290     0.4180 H     1 <1>   0.0800 
 31 H        0.2310     2.6880     1.7500 H     1 <1>   0.0800 
 32 H       -3.2040    -1.3560     2.0910 H     1 <1>   0.1500 
 33 H       -2.9450     3.7930    -0.7020 H     1 <1>   0.0800 
 34 H       -2.6530     2.4320    -1.7310 H     1 <1>   0.0800 
 35 H        0.9580     4.1620    -0.3730 H     1 <1>   0.0800 
 36 H       -0.4630     4.5020     0.5590 H     1 <1>   0.0800 
 37 H       -1.3570    -3.1200    -2.0930 H     1 <1>   0.1500 
 38 H       -0.3970     2.8520    -1.9640 H     1 <1>   0.0800 
 39 H        1.9750    -1.3400    -1.3770 H     1 <1>   0.0800 
 40 H        1.0790    -2.8560    -1.4430 H     1 <1>   0.0800 
 41 H        1.3750    -2.0640     0.1100 H     1 <1>   0.0800 
 42 H       -3.4000    -4.0970    -1.1580 H     1 <1>   0.1500 
 43 H       -1.5140     5.6370    -1.5160 H     1 <1>   0.0800 
 44 H       -1.6580     4.7110    -2.9920 H     1 <1>   0.0800 
 45 H       -0.0890     5.2400    -2.4460 H     1 <1>   0.0800 
 46 H       -5.4970    -3.6260    -0.7370 H     1 <1>   0.3700 
 47 H       -7.2280    -3.4740     2.4870 H     1 <1>   0.1500 
 48 H       -7.0910    -5.1870    -1.4160 H     1 <1>   0.1500 
 49 H       -9.4450    -4.4300     2.8270 H     1 <1>   0.1500 
 50 H       -9.3210    -6.1340    -1.0750 H     1 <1>   0.1500 
 51 H      -10.5070    -5.7630     1.0490 H     1 <1>   0.1500 
@<TRIPOS>BOND
  1   1   2  2   
  2   1   3  2   
  3   1   4  am  
  4   1   5  1   
  5   4   6  1   
  6   4   7  1   
  7   5   8  ar  
  8   5   9  ar  
  9   6  10  1   
 10   6  28  1   
 11   6  29  1   
 12   7  11  1   
 13   7  30  1   
 14   7  31  1   
 15   8  12  1   
 16   8  13  ar  
 17   9  14  ar  
 18   9  32  1   
 19  10  15  1   
 20  10  33  1   
 21  10  34  1   
 22  11  15  1   
 23  11  35  1   
 24  11  36  1   
 25  12  16  1   
 26  13  17  ar  
 27  13  37  1   
 28  14  17  ar  
 29  14  18  1   
 30  15  19  1   
 31  15  38  1   
 32  16  39  1   
 33  16  40  1   
 34  16  41  1   
 35  17  42  1   
 36  18  20  2   
 37  18  21  am  
 38  19  43  1   
 39  19  44  1   
 40  19  45  1   
 41  21  22  1   
 42  21  46  1   
 43  22  23  ar  
 44  22  24  ar  
 45  23  25  ar  
 46  23  47  1   
 47  24  26  ar  
 48  24  48  1   
 49  25  27  ar  
 50  25  49  1   
 51  26  27  ar  
 52  26  50  1   
 53  27  51  1   
@<TRIPOS>SUBSTRUCTURE
  1 ****   9 GROUP 4 **** **** 0

# MOE 2024.06 (io_trps.svl 2023.06)
