@<TRIPOS>MOLECULE
NONAME
33 34 1 0 0 
SMALL
USER_CHARGES


@<TRIPOS>ATOM
  1 CL      -0.0950     1.3560    -2.2230 Cl    1 <1>  -0.1770 
  2 C       -0.9640     2.1090    -0.9050 C.ar  1 <1>   0.1770 
  3 C       -0.2810     2.6950     0.1490 C.ar  1 <1>   0.1770 
  4 C       -2.3450     2.1090    -0.9330 C.ar  1 <1>  -0.1500 
  5 CL       1.4700     2.6990     0.1940 Cl    1 <1>  -0.1770 
  6 C       -0.9770     3.2870     1.1870 C.ar  1 <1>  -0.1500 
  7 C       -3.0570     2.7020     0.1050 C.ar  1 <1>   0.1000 
  8 C       -2.3620     3.2870     1.1580 C.ar  1 <1>  -0.1500 
  9 N       -4.4440     2.7230     0.1130 N.pl3 1 <1>  -0.8380 
 10 C       -5.1050     3.5430    -0.9460 C.3   1 <1>   0.2090 
 11 C       -5.1280     1.4080     0.2990 C.3   1 <1>   0.2090 
 12 C       -6.6160     3.6860    -0.6740 C.3   1 <1>   0.1100 
 13 C       -6.6380     1.5960     0.5400 C.3   1 <1>   0.1100 
 14 N       -7.2880     2.3730    -0.5460 N.3   1 <1>  -0.8100 
 15 C       -8.7440     2.5540    -0.2680 C.3   1 <1>   0.1710 
 16 C       -9.5830     1.2780    -0.4010 C.2   1 <1>   0.5690 
 17 O      -10.5770     1.1340     0.2640 O.2   1 <1>  -0.5700 
 18 N       -9.2000     0.3230    -1.2700 N.am  1 <1>  -0.8000 
 19 H       -2.8650     1.6540    -1.7530 H     1 <1>   0.1500 
 20 H       -0.4420     3.7400     2.0030 H     1 <1>   0.1500 
 21 H       -2.9250     3.7410     1.9530 H     1 <1>   0.1500 
 22 H       -4.9620     3.0790    -1.9060 H     1 <1>   0.0800 
 23 H       -4.6530     4.5190    -0.9720 H     1 <1>   0.0800 
 24 H       -4.6930     0.9000     1.1420 H     1 <1>   0.0800 
 25 H       -4.9830     0.7980    -0.5740 H     1 <1>   0.0800 
 26 H       -7.0600     4.2360    -1.4860 H     1 <1>   0.0800 
 27 H       -6.7490     4.2560     0.2300 H     1 <1>   0.0800 
 28 H       -6.7730     2.1000     1.4820 H     1 <1>   0.0800 
 29 H       -7.0960     0.6250     0.6150 H     1 <1>   0.0800 
 30 H       -9.1480     3.2660    -0.9640 H     1 <1>   0.0800 
 31 H       -8.8790     2.9520     0.7230 H     1 <1>   0.0800 
 32 H       -9.7370    -0.5360    -1.3790 H     1 <1>   0.3700 
 33 H       -8.3270     0.4240    -1.7930 H     1 <1>   0.3700 
@<TRIPOS>BOND
  1   1   2  1   
  2   2   3  ar  
  3   2   4  ar  
  4   3   5  1   
  5   3   6  ar  
  6   4   7  ar  
  7   4  19  1   
  8   6   8  ar  
  9   6  20  1   
 10   7   8  ar  
 11   7   9  1   
 12   8  21  1   
 13   9  10  1   
 14   9  11  1   
 15  10  12  1   
 16  10  22  1   
 17  10  23  1   
 18  11  13  1   
 19  11  24  1   
 20  11  25  1   
 21  12  14  1   
 22  12  26  1   
 23  12  27  1   
 24  13  14  1   
 25  13  28  1   
 26  13  29  1   
 27  14  15  1   
 28  15  16  1   
 29  15  30  1   
 30  15  31  1   
 31  16  17  2   
 32  16  18  am  
 33  18  32  1   
 34  18  33  1   
@<TRIPOS>SUBSTRUCTURE
  1 ****   9 GROUP 4 **** **** 0

# MOE 2024.06 (io_trps.svl 2023.06)
