@<TRIPOS>MOLECULE
NONAME
32 33 1 0 0 
SMALL
USER_CHARGES


@<TRIPOS>ATOM
  1 CL      -1.9640     0.7800     1.4580 Cl    1 <1>  -0.1770 
  2 C       -1.0930     2.0850     0.6900 C.ar  1 <1>   0.1770 
  3 C       -1.5890     2.6330    -0.4810 C.ar  1 <1>  -0.1440 
  4 C        0.0680     2.5540     1.2780 C.ar  1 <1>  -0.1500 
  5 C       -0.8870     3.6830    -1.0490 C.ar  1 <1>   0.1770 
  6 C       -2.8500     2.0920    -1.1200 C.3   1 <1>   0.4870 
  7 C        0.7580     3.6010     0.6890 C.ar  1 <1>  -0.1500 
  8 CL      -1.4870     4.4290    -2.5080 Cl    1 <1>  -0.1770 
  9 C        0.2770     4.1700    -0.4800 C.ar  1 <1>  -0.1500 
 10 N       -4.0330     2.5220    -0.3240 N.4   1 <1>  -0.9590 
 11 C       -5.2730     1.7790    -0.7450 C.3   1 <1>   0.3430 
 12 C       -4.2340     4.0170    -0.3870 C.3   1 <1>   0.3430 
 13 C       -6.5150     2.2050     0.0680 C.3   1 <1>   0.1400 
 14 C       -5.4530     4.4690     0.4360 C.3   1 <1>   0.1400 
 15 N       -6.6680     3.6850     0.0580 N.am  1 <1>  -0.6600 
 16 C       -7.8260     4.3040    -0.3290 C.2   1 <1>   0.5700 
 17 O       -7.9160     5.5000    -0.4490 O.2   1 <1>  -0.5700 
 18 H        0.4320     2.1040     2.1870 H     1 <1>   0.1500 
 19 H       -2.7930     1.0150    -1.1390 H     1 <1>   0.0800 
 20 H       -2.9380     2.4400    -2.1360 H     1 <1>   0.0800 
 21 H        1.6660     3.9730     1.1380 H     1 <1>   0.1500 
 22 H        0.8030     4.9860    -0.9470 H     1 <1>   0.1500 
 23 H       -3.8340     2.2730     0.6560 H     1 <1>   0.4500 
 24 H       -5.1240     0.7180    -0.6270 H     1 <1>   0.0800 
 25 H       -5.4700     1.9700    -1.7880 H     1 <1>   0.0800 
 26 H       -4.3830     4.3220    -1.4100 H     1 <1>   0.0800 
 27 H       -3.3570     4.5250    -0.0190 H     1 <1>   0.0800 
 28 H       -6.4190     1.8640     1.0840 H     1 <1>   0.0800 
 29 H       -7.3920     1.7430    -0.3520 H     1 <1>   0.0800 
 30 H       -5.6160     5.5210     0.2690 H     1 <1>   0.0800 
 31 H       -5.2560     4.3360     1.4850 H     1 <1>   0.0800 
 32 H       -8.6880     3.6980    -0.5480 H     1 <1>   0.0600 
@<TRIPOS>BOND
  1   1   2  1   
  2   2   3  ar  
  3   2   4  ar  
  4   3   5  ar  
  5   3   6  1   
  6   4   7  ar  
  7   4  18  1   
  8   5   8  1   
  9   5   9  ar  
 10   6  10  1   
 11   6  19  1   
 12   6  20  1   
 13   7   9  ar  
 14   7  21  1   
 15   9  22  1   
 16  10  11  1   
 17  10  12  1   
 18  10  23  1   
 19  11  13  1   
 20  11  24  1   
 21  11  25  1   
 22  12  14  1   
 23  12  26  1   
 24  12  27  1   
 25  13  15  1   
 26  13  28  1   
 27  13  29  1   
 28  14  15  1   
 29  14  30  1   
 30  14  31  1   
 31  15  16  am  
 32  16  17  2   
 33  16  32  1   
@<TRIPOS>SUBSTRUCTURE
  1 ****  10 GROUP 4 **** **** 0

# MOE 2024.06 (io_trps.svl 2023.06)
