@<TRIPOS>MOLECULE
NONAME
34 34 1 0 0 
SMALL
USER_CHARGES


@<TRIPOS>ATOM
  1 CL       0.1410    -0.2590    -1.3230 Cl    1 <1>  -0.1770 
  2 C        0.4980     1.3630    -0.7880 C.ar  1 <1>   0.1770 
  3 C        1.8150     1.7270    -0.5880 C.ar  1 <1>  -0.1500 
  4 C       -0.5420     2.2490    -0.5740 C.ar  1 <1>  -0.1500 
  5 C        2.1010     3.0210    -0.1610 C.ar  1 <1>   0.0830 
  6 C       -0.2550     3.5350    -0.1500 C.ar  1 <1>  -0.1500 
  7 O        3.3570     3.4790     0.0660 O.3   1 <1>  -0.3630 
  8 C        1.0610     3.9150     0.0550 C.ar  1 <1>  -0.1500 
  9 C        4.4820     2.6510    -0.1020 C.3   1 <1>   0.1200 
 10 C        5.7180     3.4930     0.2350 C.3   1 <1>   0.3430 
 11 N        7.0070     2.7340     0.0750 N.4   1 <1>  -0.9590 
 12 C        7.1630     1.6950     1.1320 C.3   1 <1>   0.3430 
 13 C        8.1700     3.6670     0.0700 C.3   1 <1>   0.3430 
 14 C        8.1620     0.6420     0.6680 C.3   1 <1>  -0.2400 
 15 C        8.2540     4.3710    -1.2790 C.3   1 <1>  -0.2400 
 16 H        2.5750     0.9950    -0.7720 H     1 <1>   0.1500 
 17 H       -1.5570     1.9340    -0.7390 H     1 <1>   0.1500 
 18 H       -1.0540     4.2380     0.0210 H     1 <1>   0.1500 
 19 H        1.2850     4.9140     0.3840 H     1 <1>   0.1500 
 20 H        4.5070     2.3270    -1.1270 H     1 <1>   0.0800 
 21 H        4.3780     1.8160     0.5670 H     1 <1>   0.0800 
 22 H        5.6330     3.8500     1.2480 H     1 <1>   0.0800 
 23 H        5.7190     4.3460    -0.4220 H     1 <1>   0.0800 
 24 H        7.0000     2.2580    -0.8380 H     1 <1>   0.4500 
 25 H        6.2180     1.2100     1.3180 H     1 <1>   0.0800 
 26 H        7.4940     2.1450     2.0550 H     1 <1>   0.0800 
 27 H        9.0840     3.1190     0.2280 H     1 <1>   0.0800 
 28 H        8.0730     4.3910     0.8640 H     1 <1>   0.0800 
 29 H        7.8400     0.1850    -0.2510 H     1 <1>   0.0800 
 30 H        9.1460     1.0550     0.5410 H     1 <1>   0.0800 
 31 H        8.2280    -0.1310     1.4140 H     1 <1>   0.0800 
 32 H        9.1300     4.9960    -1.2930 H     1 <1>   0.0800 
 33 H        8.3480     3.6570    -2.0790 H     1 <1>   0.0800 
 34 H        7.4030     5.0030    -1.4540 H     1 <1>   0.0800 
@<TRIPOS>BOND
  1   1   2  1   
  2   2   3  ar  
  3   2   4  ar  
  4   3   5  ar  
  5   3  16  1   
  6   4   6  ar  
  7   4  17  1   
  8   5   7  1   
  9   5   8  ar  
 10   6   8  ar  
 11   6  18  1   
 12   7   9  1   
 13   8  19  1   
 14   9  10  1   
 15   9  20  1   
 16   9  21  1   
 17  10  11  1   
 18  10  22  1   
 19  10  23  1   
 20  11  12  1   
 21  11  13  1   
 22  11  24  1   
 23  12  14  1   
 24  12  25  1   
 25  12  26  1   
 26  13  15  1   
 27  13  27  1   
 28  13  28  1   
 29  14  29  1   
 30  14  30  1   
 31  14  31  1   
 32  15  32  1   
 33  15  33  1   
 34  15  34  1   
@<TRIPOS>SUBSTRUCTURE
  1 ****   9 GROUP 4 **** **** 0

# MOE 2024.06 (io_trps.svl 2023.06)
