@<TRIPOS>MOLECULE
NONAME
39 40 1 0 0 
SMALL
USER_CHARGES


@<TRIPOS>ATOM
  1 BR      -1.2660     0.7810    -0.5590 Br    1 <1>  -0.1110 
  2 C       -2.8070    -0.3660    -0.5360 C.ar  1 <1>   0.1110 
  3 C       -3.1070    -1.1070    -1.6610 C.ar  1 <1>  -0.1500 
  4 C       -3.5830    -0.4210     0.6050 C.ar  1 <1>  -0.1500 
  5 C       -4.2180    -1.9310    -1.6340 C.ar  1 <1>  -0.1500 
  6 C       -4.6910    -1.2500     0.6140 C.ar  1 <1>  -0.1500 
  7 C       -5.0310    -2.0280    -0.4990 C.ar  1 <1>   0.0860 
  8 C       -6.1860    -2.9080    -0.4930 C.2   1 <1>   0.5440 
  9 O       -6.8080    -3.1280    -1.5150 O.2   1 <1>  -0.5700 
 10 N       -6.6100    -3.5050     0.6600 N.am  1 <1>  -0.7300 
 11 C       -7.8290    -4.3730     0.7720 C.3   1 <1>   0.2010 
 12 C       -9.1400    -3.5850     0.7540 C.2   1 <1>   0.5690 
 13 O       -9.8830    -3.6550     1.7050 O.2   1 <1>  -0.5700 
 14 N       -9.4180    -2.8270    -0.3360 N.am  1 <1>  -0.7300 
 15 C      -10.5930    -1.9720    -0.5300 C.3   1 <1>   0.2200 
 16 C      -11.3240    -2.4170    -1.8000 C.3   1 <1>  -0.1600 
 17 C      -10.1280    -0.5160    -0.6380 C.3   1 <1>  -0.1600 
 18 C      -12.5020    -1.4850    -2.1200 C.3   1 <1>  -0.1600 
 19 C      -11.3030     0.4210    -0.9550 C.3   1 <1>  -0.1600 
 20 C      -12.0400    -0.0250    -2.2260 C.3   1 <1>  -0.1600 
 21 H       -2.4850    -1.0390    -2.5370 H     1 <1>   0.1500 
 22 H       -3.3230     0.1760     1.4620 H     1 <1>   0.1500 
 23 H       -4.4690    -2.5140    -2.5040 H     1 <1>   0.1500 
 24 H       -5.3060    -1.2850     1.4960 H     1 <1>   0.1500 
 25 H       -6.1330    -3.3060     1.5390 H     1 <1>   0.3700 
 26 H       -7.7790    -4.9400     1.6840 H     1 <1>   0.0800 
 27 H       -7.8440    -5.0660    -0.0500 H     1 <1>   0.0800 
 28 H       -8.6970    -2.7810    -1.0720 H     1 <1>   0.3700 
 29 H      -11.2560    -2.0710     0.3140 H     1 <1>   0.0800 
 30 H      -11.6900    -3.4200    -1.6650 H     1 <1>   0.0800 
 31 H      -10.6380    -2.4130    -2.6290 H     1 <1>   0.0800 
 32 H       -9.3920    -0.4320    -1.4190 H     1 <1>   0.0800 
 33 H       -9.6760    -0.2190     0.2920 H     1 <1>   0.0800 
 34 H      -13.2430    -1.5680    -1.3420 H     1 <1>   0.0800 
 35 H      -12.9610    -1.7870    -3.0460 H     1 <1>   0.0800 
 36 H      -10.9390     1.4260    -1.0830 H     1 <1>   0.0800 
 37 H      -11.9900     0.4220    -0.1260 H     1 <1>   0.0800 
 38 H      -12.8920     0.6120    -2.3900 H     1 <1>   0.0800 
 39 H      -11.3840     0.0800    -3.0730 H     1 <1>   0.0800 
@<TRIPOS>BOND
  1   1   2  1   
  2   2   3  ar  
  3   2   4  ar  
  4   3   5  ar  
  5   3  21  1   
  6   4   6  ar  
  7   4  22  1   
  8   5   7  ar  
  9   5  23  1   
 10   6   7  ar  
 11   6  24  1   
 12   7   8  1   
 13   8   9  2   
 14   8  10  am  
 15  10  11  1   
 16  10  25  1   
 17  11  12  1   
 18  11  26  1   
 19  11  27  1   
 20  12  13  2   
 21  12  14  am  
 22  14  15  1   
 23  14  28  1   
 24  15  16  1   
 25  15  17  1   
 26  15  29  1   
 27  16  18  1   
 28  16  30  1   
 29  16  31  1   
 30  17  19  1   
 31  17  32  1   
 32  17  33  1   
 33  18  20  1   
 34  18  34  1   
 35  18  35  1   
 36  19  20  1   
 37  19  36  1   
 38  19  37  1   
 39  20  38  1   
 40  20  39  1   
@<TRIPOS>SUBSTRUCTURE
  1 ****   8 GROUP 4 **** **** 0

# MOE 2024.06 (io_trps.svl 2023.06)
