@<TRIPOS>MOLECULE
NONAME
36 37 1 0 0 
SMALL
USER_CHARGES


@<TRIPOS>ATOM
  1 S       -0.2320     0.0200     0.3620 S.o2  1 <1>   1.4470 
  2 O       -0.6920     0.5220     1.6380 O.2   1 <1>  -0.6500 
  3 O       -0.8360    -1.1540    -0.2220 O.2   1 <1>  -0.6500 
  4 N       -0.5370     1.2200    -0.7730 N.am  1 <1>  -0.9140 
  5 C        1.5760    -0.1050     0.3510 C.ar  1 <1>  -0.0090 
  6 C       -1.8500     1.8410    -0.6230 C.3   1 <1>   0.1160 
  7 C        2.3680     0.9610     0.7610 C.ar  1 <1>  -0.1500 
  8 C        2.2230    -1.2610    -0.0720 C.ar  1 <1>  -0.1500 
  9 C        3.7490     0.8780     0.7510 C.ar  1 <1>  -0.1500 
 10 C        3.6040    -1.3470    -0.0850 C.ar  1 <1>  -0.1500 
 11 C        4.3920    -0.2790     0.3300 C.ar  1 <1>   0.1170 
 12 N        5.7920    -0.3130     0.3250 N.am  1 <1>  -0.5470 
 13 C        6.6740    -1.3560     0.3710 C.2   1 <1>   0.6900 
 14 O        6.2940    -2.5030     0.5140 O.2   1 <1>  -0.5700 
 15 N        8.0120    -1.0850     0.2710 N.am  1 <1>  -0.6600 
 16 C        9.0280    -2.1610     0.2800 C.3   1 <1>   0.1400 
 17 C        8.6220     0.2180    -0.0730 C.3   1 <1>   0.1400 
 18 C       10.2670    -1.5310    -0.3450 C.3   1 <1>  -0.1600 
 19 C       10.1250    -0.0390    -0.0600 C.3   1 <1>  -0.1600 
 20 H       -0.5380     0.7090    -1.6550 H     1 <1>   0.4200 
 21 H       -1.9030     2.3710     0.3140 H     1 <1>   0.0800 
 22 H       -2.6240     1.0910    -0.6430 H     1 <1>   0.0800 
 23 H       -2.0170     2.5410    -1.4230 H     1 <1>   0.0800 
 24 H        1.8900     1.8680     1.0940 H     1 <1>   0.1500 
 25 H        1.6410    -2.1080    -0.3960 H     1 <1>   0.1500 
 26 H        4.3300     1.7200     1.0780 H     1 <1>   0.1500 
 27 H        4.0690    -2.2550    -0.4240 H     1 <1>   0.1500 
 28 H        6.2540     0.5840     0.3840 H     1 <1>   0.3700 
 29 H        8.6920    -3.0170    -0.2810 H     1 <1>   0.0800 
 30 H        9.2190    -2.4500     1.2990 H     1 <1>   0.0800 
 31 H        8.3530     0.9740     0.6450 H     1 <1>   0.0800 
 32 H        8.3020     0.5090    -1.0590 H     1 <1>   0.0800 
 33 H       10.2480    -1.7050    -1.4070 H     1 <1>   0.0800 
 34 H       11.1730    -1.9450     0.0620 H     1 <1>   0.0800 
 35 H       10.5090     0.1820     0.9210 H     1 <1>   0.0800 
 36 H       10.6420     0.5680    -0.7830 H     1 <1>   0.0800 
@<TRIPOS>BOND
  1   1   2  2   
  2   1   3  2   
  3   1   4  am  
  4   1   5  1   
  5   4   6  1   
  6   4  20  1   
  7   5   7  ar  
  8   5   8  ar  
  9   6  21  1   
 10   6  22  1   
 11   6  23  1   
 12   7   9  ar  
 13   7  24  1   
 14   8  10  ar  
 15   8  25  1   
 16   9  11  ar  
 17   9  26  1   
 18  10  11  ar  
 19  10  27  1   
 20  11  12  1   
 21  12  13  am  
 22  12  28  1   
 23  13  14  2   
 24  13  15  am  
 25  15  16  1   
 26  15  17  1   
 27  16  18  1   
 28  16  29  1   
 29  16  30  1   
 30  17  19  1   
 31  17  31  1   
 32  17  32  1   
 33  18  19  1   
 34  18  33  1   
 35  18  34  1   
 36  19  35  1   
 37  19  36  1   
@<TRIPOS>SUBSTRUCTURE
  1 ****  11 GROUP 4 **** **** 0

# MOE 2024.06 (io_trps.svl 2023.06)
