@<TRIPOS>MOLECULE
NONAME
33 33 1 0 0 
SMALL
USER_CHARGES


@<TRIPOS>ATOM
  1 O        1.1800    -0.6260    -0.1580 O.2   1 <1>  -0.5700 
  2 C        0.0090    -0.9110    -0.1220 C.2   1 <1>   0.4240 
  3 C       -0.5490    -2.2220     0.0250 C.ar  1 <1>   0.0860 
  4 C       -1.8530    -2.4840    -0.3670 C.ar  1 <1>   0.3920 
  5 C        0.1190    -3.3210     0.5550 C.ar  1 <1>   0.3920 
  6 O       -2.5780    -1.4760    -0.8850 O.3   1 <1>  -0.3630 
  7 N       -2.4200    -3.6680    -0.2670 N.ar  1 <1>  -0.6200 
  8 O        1.3590    -3.2130     1.0380 O.3   1 <1>  -0.3630 
  9 N       -0.4200    -4.5120     0.6730 N.ar  1 <1>  -0.6200 
 10 C       -3.9360    -1.5890    -1.2710 C.3   1 <1>   0.1200 
 11 C       -1.6630    -4.6230     0.2530 C.ar  1 <1>   0.7030 
 12 C        2.4580    -3.3390     0.1630 C.3   1 <1>   0.1200 
 13 C       -4.8250    -1.4050    -0.0410 C.3   1 <1>  -0.2400 
 14 O       -2.1850    -5.8490     0.3810 O.3   1 <1>  -0.3630 
 15 C        2.9610    -4.7810     0.2050 C.3   1 <1>  -0.2400 
 16 C       -3.5190    -6.1850     0.0540 C.3   1 <1>   0.1200 
 17 C       -4.4320    -5.8280     1.2270 C.3   1 <1>  -0.2400 
 18 H       -0.6840    -0.0960    -0.2310 H     1 <1>   0.0600 
 19 H       -4.0990    -2.5430    -1.7440 H     1 <1>   0.0800 
 20 H       -4.1320    -0.8120    -1.9880 H     1 <1>   0.0800 
 21 H        3.2200    -2.6600     0.5020 H     1 <1>   0.0800 
 22 H        2.1560    -3.0580    -0.8320 H     1 <1>   0.0800 
 23 H       -4.6420    -2.1850     0.6760 H     1 <1>   0.0800 
 24 H       -5.8590    -1.4510    -0.3320 H     1 <1>   0.0800 
 25 H       -4.6400    -0.4480     0.4120 H     1 <1>   0.0800 
 26 H        3.2440    -5.0420     1.2080 H     1 <1>   0.0800 
 27 H        3.8190    -4.8850    -0.4340 H     1 <1>   0.0800 
 28 H        2.1940    -5.4530    -0.1370 H     1 <1>   0.0800 
 29 H       -3.5450    -7.2450    -0.1250 H     1 <1>   0.0800 
 30 H       -3.8080    -5.6760    -0.8500 H     1 <1>   0.0800 
 31 H       -4.1120    -6.3450     2.1150 H     1 <1>   0.0800 
 32 H       -5.4400    -6.1240     1.0040 H     1 <1>   0.0800 
 33 H       -4.4210    -4.7680     1.4050 H     1 <1>   0.0800 
@<TRIPOS>BOND
  1   1   2  2   
  2   2   3  1   
  3   2  18  1   
  4   3   4  ar  
  5   3   5  ar  
  6   4   6  1   
  7   4   7  ar  
  8   5   8  1   
  9   5   9  ar  
 10   6  10  1   
 11   7  11  ar  
 12   8  12  1   
 13   9  11  ar  
 14  10  13  1   
 15  10  19  1   
 16  10  20  1   
 17  11  14  1   
 18  12  15  1   
 19  12  21  1   
 20  12  22  1   
 21  13  23  1   
 22  13  24  1   
 23  13  25  1   
 24  14  16  1   
 25  15  26  1   
 26  15  27  1   
 27  15  28  1   
 28  16  17  1   
 29  16  29  1   
 30  16  30  1   
 31  17  31  1   
 32  17  32  1   
 33  17  33  1   
@<TRIPOS>SUBSTRUCTURE
  1 ****   4 GROUP 4 **** **** 0

# MOE 2024.06 (io_trps.svl 2023.06)
