@<TRIPOS>MOLECULE
NONAME
48 48 1 0 0 
SMALL
USER_CHARGES


@<TRIPOS>ATOM
  1 O        1.8280    -1.4840    -1.0290 O.2   1 <1>  -0.5700 
  2 C        1.3480    -1.2370     0.0610 C.2   1 <1>   0.6900 
  3 N        1.6700    -0.1070     0.7490 N.am  1 <1>  -0.5470 
  4 N        0.4740    -2.0880     0.6560 N.am  1 <1>  -0.7300 
  5 C        2.6500     0.9020     0.5670 C.ar  1 <1>   0.1170 
  6 C       -0.0120    -3.3900     0.1530 C.3   1 <1>   0.2200 
  7 C        3.9590     0.6390     0.1150 C.ar  1 <1>   0.1170 
  8 C        2.3050     2.2110     0.9160 C.ar  1 <1>  -0.1430 
  9 C        1.1640    -4.3690    -0.0040 C.3   1 <1>  -0.1600 
 10 C       -0.8110    -3.1800    -1.1350 C.3   1 <1>  -0.2400 
 11 N        4.3290    -0.6510    -0.2920 N.am  1 <1>  -0.5470 
 12 C        4.8800     1.6750     0.0480 C.ar  1 <1>  -0.1500 
 13 C        3.2440     3.2280     0.8330 C.ar  1 <1>  -0.1500 
 14 C        0.9000     2.5680     1.3920 C.3   1 <1>  -0.0970 
 15 C        0.7150    -5.8180    -0.2380 C.3   1 <1>  -0.2400 
 16 C        5.4840    -1.3530    -0.1880 C.2   1 <1>   0.6900 
 17 C        4.5300     2.9620     0.4050 C.ar  1 <1>  -0.1500 
 18 O        6.4640    -0.8960     0.3690 O.2   1 <1>  -0.5700 
 19 N        5.4810    -2.5980    -0.7320 N.am  1 <1>  -0.7300 
 20 C        6.5620    -3.5990    -0.7570 C.3   1 <1>   0.2200 
 21 C        6.9330    -4.0100     0.6660 C.3   1 <1>  -0.2400 
 22 C        7.7620    -3.0630    -1.5340 C.3   1 <1>  -0.2400 
 23 H        1.0080     0.1120     1.4830 H     1 <1>   0.3700 
 24 H        0.2720    -1.9350     1.6400 H     1 <1>   0.3700 
 25 H       -0.6820    -3.7900     0.8950 H     1 <1>   0.0800 
 26 H        1.7600    -4.3410     0.8920 H     1 <1>   0.0800 
 27 H        1.7850    -4.0620    -0.8270 H     1 <1>   0.0800 
 28 H       -0.1660    -2.8700    -1.9380 H     1 <1>   0.0800 
 29 H       -1.5680    -2.4330    -0.9830 H     1 <1>   0.0800 
 30 H       -1.2950    -4.0940    -1.4260 H     1 <1>   0.0800 
 31 H        3.5410    -1.1780    -0.6770 H     1 <1>   0.3700 
 32 H        5.8800     1.4730    -0.2900 H     1 <1>   0.1500 
 33 H        2.9840     4.2360     1.1030 H     1 <1>   0.1500 
 34 H        0.7160     2.1340     2.3580 H     1 <1>   0.0800 
 35 H        0.1680     2.2060     0.6920 H     1 <1>   0.0800 
 36 H        0.7800     3.6330     1.4730 H     1 <1>   0.0800 
 37 H        0.0730    -6.1500     0.5600 H     1 <1>   0.0800 
 38 H        1.5740    -6.4640    -0.2740 H     1 <1>   0.0800 
 39 H        0.1880    -5.9100    -1.1710 H     1 <1>   0.0800 
 40 H        5.2580     3.7520     0.3470 H     1 <1>   0.1500 
 41 H        4.6400    -2.8720    -1.2340 H     1 <1>   0.3700 
 42 H        6.1900    -4.4700    -1.2710 H     1 <1>   0.0800 
 43 H        7.3560    -3.1810     1.2040 H     1 <1>   0.0800 
 44 H        7.6600    -4.8010     0.6410 H     1 <1>   0.0800 
 45 H        6.0620    -4.3620     1.1890 H     1 <1>   0.0800 
 46 H        8.1980    -2.2210    -1.0280 H     1 <1>   0.0800 
 47 H        7.4600    -2.7640    -2.5210 H     1 <1>   0.0800 
 48 H        8.5110    -3.8280    -1.6230 H     1 <1>   0.0800 
@<TRIPOS>BOND
  1   1   2  2   
  2   2   3  am  
  3   2   4  am  
  4   3   5  1   
  5   3  23  1   
  6   4   6  1   
  7   4  24  1   
  8   5   7  ar  
  9   5   8  ar  
 10   6   9  1   
 11   6  10  1   
 12   6  25  1   
 13   7  11  1   
 14   7  12  ar  
 15   8  13  ar  
 16   8  14  1   
 17   9  15  1   
 18   9  26  1   
 19   9  27  1   
 20  10  28  1   
 21  10  29  1   
 22  10  30  1   
 23  11  16  am  
 24  11  31  1   
 25  12  17  ar  
 26  12  32  1   
 27  13  17  ar  
 28  13  33  1   
 29  14  34  1   
 30  14  35  1   
 31  14  36  1   
 32  15  37  1   
 33  15  38  1   
 34  15  39  1   
 35  16  18  2   
 36  16  19  am  
 37  17  40  1   
 38  19  20  1   
 39  19  41  1   
 40  20  21  1   
 41  20  22  1   
 42  20  42  1   
 43  21  43  1   
 44  21  44  1   
 45  21  45  1   
 46  22  46  1   
 47  22  47  1   
 48  22  48  1   
@<TRIPOS>SUBSTRUCTURE
  1 ****  11 GROUP 4 **** **** 0

# MOE 2024.06 (io_trps.svl 2023.06)
