@<TRIPOS>MOLECULE
NONAME
42 43 1 0 0 
SMALL
USER_CHARGES


@<TRIPOS>ATOM
  1 S       -0.1460     0.1760    -0.1520 S.o2  1 <1>   1.4970 
  2 O       -0.2740     0.9580     1.0650 O.2   1 <1>  -0.6500 
  3 O       -0.2710     0.8820    -1.4110 O.2   1 <1>  -0.6500 
  4 N       -1.3270    -1.0120    -0.1380 N.2   1 <1>  -0.6380 
  5 C        1.4440    -0.7230    -0.1210 C.ar  1 <1>  -0.0090 
  6 C       -2.5470    -0.6960     0.0880 C.2   1 <1>   0.4860 
  7 C        2.6680    -0.0550    -0.2230 C.ar  1 <1>  -0.1430 
  8 C        1.4810    -2.1100     0.0160 C.ar  1 <1>  -0.1500 
  9 N       -2.9490     0.5680     0.4990 N.pl3 1 <1>  -0.5500 
 10 C       -3.6100    -1.6620    -0.0640 C.2   1 <1>  -0.1240 
 11 C        3.8620    -0.7580    -0.1940 C.ar  1 <1>  -0.1500 
 12 C        2.7270     1.4620    -0.3690 C.3   1 <1>  -0.0970 
 13 C        2.6690    -2.8200     0.0470 C.ar  1 <1>  -0.1430 
 14 C       -4.2670     0.9160     0.7100 C.2   1 <1>  -0.0500 
 15 C       -4.9100    -1.3230     0.1490 C.2   1 <1>  -0.1500 
 16 C       -3.2530    -3.0850    -0.4810 C.3   1 <1>  -0.1020 
 17 C        3.8750    -2.1420    -0.0600 C.ar  1 <1>   0.0830 
 18 C        2.6450    -4.3350     0.1980 C.3   1 <1>  -0.0970 
 19 C       -5.2470    -0.0020     0.5380 C.2   1 <1>  -0.1500 
 20 O        5.0180    -2.8750    -0.0260 O.3   1 <1>  -0.3620 
 21 C        6.2900    -2.2820    -0.1340 C.3   1 <1>   0.1200 
 22 C        7.3360    -3.3900    -0.0640 C.3   1 <1>  -0.2400 
 23 H        0.5600    -2.6560     0.1030 H     1 <1>   0.1500 
 24 H       -2.1980     1.2270     0.7480 H     1 <1>   0.4000 
 25 H        4.7840    -0.2150    -0.2770 H     1 <1>   0.1500 
 26 H        2.2600     1.7670    -1.2900 H     1 <1>   0.0800 
 27 H        3.7430     1.8130    -0.3820 H     1 <1>   0.0800 
 28 H        2.2240     1.9390     0.4530 H     1 <1>   0.0800 
 29 H       -4.4720     1.9300     1.0160 H     1 <1>   0.1500 
 30 H       -5.7130    -2.0300     0.0340 H     1 <1>   0.1500 
 31 H       -2.7580    -3.0730    -1.4360 H     1 <1>   0.0800 
 32 H       -4.1320    -3.6990    -0.5600 H     1 <1>   0.0800 
 33 H       -2.5930    -3.5250     0.2450 H     1 <1>   0.0800 
 34 H        1.6390    -4.7070     0.2700 H     1 <1>   0.0800 
 35 H        3.1810    -4.6190     1.0860 H     1 <1>   0.0800 
 36 H        3.1210    -4.7920    -0.6510 H     1 <1>   0.0800 
 37 H       -6.2850     0.2400     0.6940 H     1 <1>   0.1500 
 38 H        6.4130    -1.5900     0.6820 H     1 <1>   0.0800 
 39 H        6.3460    -1.7650    -1.0770 H     1 <1>   0.0800 
 40 H        7.2590    -3.9110     0.8740 H     1 <1>   0.0800 
 41 H        8.3210    -2.9690    -0.1430 H     1 <1>   0.0800 
 42 H        7.1930    -4.0850    -0.8720 H     1 <1>   0.0800 
@<TRIPOS>BOND
  1   1   2  2   
  2   1   3  2   
  3   1   4  1   
  4   1   5  1   
  5   4   6  2   
  6   5   7  ar  
  7   5   8  ar  
  8   6   9  1   
  9   6  10  1   
 10   7  11  ar  
 11   7  12  1   
 12   8  13  ar  
 13   8  23  1   
 14   9  14  1   
 15   9  24  1   
 16  10  15  2   
 17  10  16  1   
 18  11  17  ar  
 19  11  25  1   
 20  12  26  1   
 21  12  27  1   
 22  12  28  1   
 23  13  17  ar  
 24  13  18  1   
 25  14  19  2   
 26  14  29  1   
 27  15  19  1   
 28  15  30  1   
 29  16  31  1   
 30  16  32  1   
 31  16  33  1   
 32  17  20  1   
 33  18  34  1   
 34  18  35  1   
 35  18  36  1   
 36  19  37  1   
 37  20  21  1   
 38  21  22  1   
 39  21  38  1   
 40  21  39  1   
 41  22  40  1   
 42  22  41  1   
 43  22  42  1   
@<TRIPOS>SUBSTRUCTURE
  1 ****   5 GROUP 4 **** **** 0

# MOE 2024.06 (io_trps.svl 2023.06)
