@<TRIPOS>MOLECULE
NONAME
49 51 1 0 0 
SMALL
USER_CHARGES


@<TRIPOS>ATOM
  1 S       -0.5400    -0.1640     0.6850 S.o2  1 <1>   1.4470 
  2 O        0.1870    -0.3810     1.9170 O.2   1 <1>  -0.6500 
  3 O       -0.8160    -1.2790    -0.1920 O.2   1 <1>  -0.6500 
  4 N       -2.0560     0.4430     1.1460 N.am  1 <1>  -0.8490 
  5 C        0.2020     1.1840    -0.2780 C.ar  1 <1>  -0.0090 
  6 C       -2.8480    -0.6360     1.8150 C.3   1 <1>   0.2570 
  7 C       -1.9230     1.6200     2.0180 C.3   1 <1>   0.1960 
  8 C        1.3750     1.8050     0.1330 C.ar  1 <1>  -0.1500 
  9 C       -0.3970     1.6380    -1.4460 C.ar  1 <1>  -0.1500 
 10 C       -4.3480    -0.5820     1.5220 C.2   1 <1>   0.5690 
 11 C       -3.2480     2.3670     2.1550 C.3   1 <1>  -0.2400 
 12 C        1.9280     2.8460    -0.5920 C.ar  1 <1>  -0.1500 
 13 C        0.1500     2.6790    -2.1770 C.ar  1 <1>  -0.1500 
 14 O       -5.1160    -1.0110     2.3490 O.2   1 <1>  -0.5700 
 15 N       -4.7290    -0.0460     0.3230 N.am  1 <1>  -0.5470 
 16 C        1.3160     3.2910    -1.7510 C.ar  1 <1>  -0.1430 
 17 C       -5.9890     0.1810    -0.2540 C.ar  1 <1>   0.1170 
 18 C        1.9220     4.4310    -2.5500 C.3   1 <1>  -0.0970 
 19 C       -7.1640     0.2260     0.4900 C.ar  1 <1>  -0.1500 
 20 C       -6.0610     0.3900    -1.6280 C.ar  1 <1>  -0.1500 
 21 C       -8.3780     0.4740    -0.1240 C.ar  1 <1>   0.0830 
 22 C       -7.2730     0.6320    -2.2530 C.ar  1 <1>  -0.1500 
 23 O       -9.5000     0.5310     0.6380 O.3   1 <1>  -0.3620 
 24 C       -8.4360     0.6690    -1.5060 C.ar  1 <1>   0.0830 
 25 C      -10.6530     1.0910     0.0400 C.3   1 <1>   0.1200 
 26 O       -9.6180     0.8930    -2.1400 O.3   1 <1>  -0.3630 
 27 C      -10.7930     0.5990    -1.4070 C.3   1 <1>   0.1200 
 28 H       -2.6950    -0.6090     2.8800 H     1 <1>   0.0800 
 29 H       -2.5230    -1.6060     1.4820 H     1 <1>   0.0800 
 30 H       -1.2110     2.3060     1.5920 H     1 <1>   0.0800 
 31 H       -1.5530     1.3310     2.9900 H     1 <1>   0.0800 
 32 H        1.8660     1.4710     1.0330 H     1 <1>   0.1500 
 33 H       -1.3030     1.1700    -1.7900 H     1 <1>   0.1500 
 34 H       -3.9590     1.8050     2.7320 H     1 <1>   0.0800 
 35 H       -3.6590     2.5870     1.1860 H     1 <1>   0.0800 
 36 H       -3.0790     3.2970     2.6670 H     1 <1>   0.0800 
 37 H        2.8400     3.3070    -0.2520 H     1 <1>   0.1500 
 38 H       -0.3340     3.0090    -3.0800 H     1 <1>   0.1500 
 39 H       -3.9280     0.2760    -0.2240 H     1 <1>   0.3700 
 40 H        1.1560     4.9750    -3.0720 H     1 <1>   0.0800 
 41 H        2.6210     4.0400    -3.2680 H     1 <1>   0.0800 
 42 H        2.4390     5.1130    -1.8990 H     1 <1>   0.0800 
 43 H       -7.1480     0.0760     1.5530 H     1 <1>   0.1500 
 44 H       -5.1630     0.3580    -2.2180 H     1 <1>   0.1500 
 45 H       -7.3250     0.7880    -3.3150 H     1 <1>   0.1500 
 46 H      -10.5550     2.1620     0.0640 H     1 <1>   0.0800 
 47 H      -11.5050     0.8010     0.6280 H     1 <1>   0.0800 
 48 H      -11.6180     1.0820    -1.8970 H     1 <1>   0.0800 
 49 H      -10.9420    -0.4660    -1.4260 H     1 <1>   0.0800 
@<TRIPOS>BOND
  1   1   2  2   
  2   1   3  2   
  3   1   4  am  
  4   1   5  1   
  5   4   6  1   
  6   4   7  1   
  7   5   8  ar  
  8   5   9  ar  
  9   6  10  1   
 10   6  28  1   
 11   6  29  1   
 12   7  11  1   
 13   7  30  1   
 14   7  31  1   
 15   8  12  ar  
 16   8  32  1   
 17   9  13  ar  
 18   9  33  1   
 19  10  14  2   
 20  10  15  am  
 21  11  34  1   
 22  11  35  1   
 23  11  36  1   
 24  12  16  ar  
 25  12  37  1   
 26  13  16  ar  
 27  13  38  1   
 28  15  17  1   
 29  15  39  1   
 30  16  18  1   
 31  17  19  ar  
 32  17  20  ar  
 33  18  40  1   
 34  18  41  1   
 35  18  42  1   
 36  19  21  ar  
 37  19  43  1   
 38  20  22  ar  
 39  20  44  1   
 40  21  23  1   
 41  21  24  ar  
 42  22  24  ar  
 43  22  45  1   
 44  23  25  1   
 45  24  26  1   
 46  25  27  1   
 47  25  46  1   
 48  25  47  1   
 49  26  27  1   
 50  27  48  1   
 51  27  49  1   
@<TRIPOS>SUBSTRUCTURE
  1 ****  15 GROUP 4 **** **** 0

# MOE 2024.06 (io_trps.svl 2023.06)
