@<TRIPOS>MOLECULE
NONAME
28 28 1 0 0 
SMALL
USER_CHARGES


@<TRIPOS>ATOM
  1 CL      -0.2150     0.4170     0.0180 Cl    1 <1>  -0.1770 
  2 C       -1.6020    -0.6470     0.0080 C.ar  1 <1>   0.1770 
  3 C       -1.4410    -2.0220     0.0000 C.ar  1 <1>   0.1770 
  4 C       -2.8680    -0.0920     0.0080 C.ar  1 <1>  -0.1500 
  5 CL       0.1550    -2.7390     0.0000 Cl    1 <1>  -0.1770 
  6 C       -2.5460    -2.8550    -0.0080 C.ar  1 <1>  -0.1500 
  7 C       -3.9830    -0.9180     0.0010 C.ar  1 <1>   0.0830 
  8 C       -3.8180    -2.3040    -0.0080 C.ar  1 <1>  -0.1500 
  9 O       -5.1920    -0.3020     0.0010 O.3   1 <1>  -0.3630 
 10 C       -6.3960    -1.0300    -0.0060 C.3   1 <1>   0.1200 
 11 C       -7.5400    -0.0120    -0.0030 C.3   1 <1>   0.3430 
 12 N       -8.8820    -0.6730    -0.0110 N.4   1 <1>  -0.9060 
 13 C       -9.9860     0.3120    -0.0080 C.3   1 <1>   0.3430 
 14 C      -11.3010    -0.4520    -0.0170 C.3   1 <1>  -0.2400 
 15 H       -2.9830     0.9770     0.0150 H     1 <1>   0.1500 
 16 H       -2.4040    -3.9220    -0.0140 H     1 <1>   0.1500 
 17 H       -4.6580    -2.9730    -0.0140 H     1 <1>   0.1500 
 18 H       -6.4200    -1.6430     0.8770 H     1 <1>   0.0800 
 19 H       -6.4150    -1.6320    -0.8980 H     1 <1>   0.0800 
 20 H       -7.4430     0.6170    -0.8740 H     1 <1>   0.0800 
 21 H       -7.4480     0.6060     0.8760 H     1 <1>   0.0800 
 22 H       -8.9850    -1.2810     0.8110 H     1 <1>   0.4500 
 23 H       -8.9800    -1.2710    -0.8420 H     1 <1>   0.4500 
 24 H       -9.9250     0.9450    -0.8800 H     1 <1>   0.0800 
 25 H       -9.9300     0.9340     0.8720 H     1 <1>   0.0800 
 26 H      -11.3910    -1.0580    -0.9010 H     1 <1>   0.0800 
 27 H      -12.1170     0.2500    -0.0150 H     1 <1>   0.0800 
 28 H      -11.3960    -1.0690     0.8590 H     1 <1>   0.0800 
@<TRIPOS>BOND
  1   1   2  1   
  2   2   3  ar  
  3   2   4  ar  
  4   3   5  1   
  5   3   6  ar  
  6   4   7  ar  
  7   4  15  1   
  8   6   8  ar  
  9   6  16  1   
 10   7   8  ar  
 11   7   9  1   
 12   8  17  1   
 13   9  10  1   
 14  10  11  1   
 15  10  18  1   
 16  10  19  1   
 17  11  12  1   
 18  11  20  1   
 19  11  21  1   
 20  12  13  1   
 21  12  22  1   
 22  12  23  1   
 23  13  14  1   
 24  13  24  1   
 25  13  25  1   
 26  14  26  1   
 27  14  27  1   
 28  14  28  1   
@<TRIPOS>SUBSTRUCTURE
  1 ****   7 GROUP 4 **** **** 0

# MOE 2024.06 (io_trps.svl 2023.06)
