@<TRIPOS>MOLECULE
NONAME
43 45 1 0 0 
SMALL
USER_CHARGES


@<TRIPOS>ATOM
  1 O       -1.0110    -0.5520    -1.4930 O.3   1 <1>  -0.3630 
  2 C       -2.0200    -0.9630    -0.6820 C.ar  1 <1>   0.0830 
  3 C       -0.2560    -1.4500    -2.2770 C.3   1 <1>   0.0400 
  4 C       -2.6560     0.0250     0.1120 C.ar  1 <1>   0.0000 
  5 C       -2.4230    -2.2740    -0.6110 C.ar  1 <1>  -0.1500 
  6 C       -3.7020    -0.3560     0.9900 C.ar  1 <1>   0.0000 
  7 C       -2.2730     1.3850     0.0650 C.ar  1 <1>  -0.1500 
  8 C       -3.4780    -2.6400     0.2230 C.ar  1 <1>  -0.1500 
  9 C       -4.1320    -1.7120     0.9910 C.ar  1 <1>  -0.1440 
 10 C       -4.2550     0.6480     1.8230 C.ar  1 <1>  -0.1500 
 11 C       -2.8530     2.3280     0.8630 C.ar  1 <1>  -0.1500 
 12 C       -5.3150    -2.1910     1.8370 C.3   1 <1>   0.2530 
 13 C       -3.8510     1.9520     1.7620 C.ar  1 <1>  -0.1500 
 14 N       -6.6150    -2.1130     1.1210 N.3   1 <1>  -0.8100 
 15 C       -6.9930    -0.7300     0.7300 C.3   1 <1>   0.1100 
 16 C       -6.6820    -3.0120    -0.0560 C.3   1 <1>   0.1100 
 17 C       -8.3420    -0.6680    -0.0270 C.3   1 <1>   0.3430 
 18 C       -8.0840    -3.0190    -0.7140 C.3   1 <1>   0.3430 
 19 N       -8.9980    -2.0150    -0.0720 N.4   1 <1>  -0.9590 
 20 C      -10.3650    -1.9930    -0.6650 C.3   1 <1>   0.2630 
 21 H        0.4890    -0.8840    -2.8060 H     1 <1>   0.0800 
 22 H       -0.9100    -1.9380    -2.9770 H     1 <1>   0.0800 
 23 H        0.2200    -2.1630    -1.6280 H     1 <1>   0.0800 
 24 H       -1.9510    -3.0460    -1.1870 H     1 <1>   0.1500 
 25 H       -1.4960     1.6770    -0.6190 H     1 <1>   0.1500 
 26 H       -3.7670    -3.6760     0.2410 H     1 <1>   0.1500 
 27 H       -5.0110     0.3920     2.5380 H     1 <1>   0.1500 
 28 H       -2.5450     3.3590     0.8160 H     1 <1>   0.1500 
 29 H       -5.3750    -1.6410     2.7580 H     1 <1>   0.0800 
 30 H       -5.1450    -3.2160     2.1200 H     1 <1>   0.0800 
 31 H       -4.2850     2.7010     2.4010 H     1 <1>   0.1500 
 32 H       -6.2340    -0.3000     0.0990 H     1 <1>   0.0800 
 33 H       -7.0670    -0.1190     1.6130 H     1 <1>   0.0800 
 34 H       -6.4310    -4.0160     0.2410 H     1 <1>   0.0800 
 35 H       -5.9610    -2.7010    -0.7940 H     1 <1>   0.0800 
 36 H       -8.1650    -0.3130    -1.0290 H     1 <1>   0.0800 
 37 H       -8.9850     0.0430     0.4640 H     1 <1>   0.0800 
 38 H       -8.5060    -4.0060    -0.6210 H     1 <1>   0.0800 
 39 H       -7.9790    -2.8060    -1.7640 H     1 <1>   0.0800 
 40 H       -9.0270    -2.3080     0.9190 H     1 <1>   0.4500 
 41 H      -10.3210    -1.6860    -1.6970 H     1 <1>   0.0800 
 42 H      -10.9940    -1.3030    -0.1260 H     1 <1>   0.0800 
 43 H      -10.8110    -2.9730    -0.6140 H     1 <1>   0.0800 
@<TRIPOS>BOND
  1   1   2  1   
  2   1   3  1   
  3   2   4  ar  
  4   2   5  ar  
  5   3  21  1   
  6   3  22  1   
  7   3  23  1   
  8   4   6  ar  
  9   4   7  ar  
 10   5   8  ar  
 11   5  24  1   
 12   6   9  ar  
 13   6  10  ar  
 14   7  11  ar  
 15   7  25  1   
 16   8   9  ar  
 17   8  26  1   
 18   9  12  1   
 19  10  13  ar  
 20  10  27  1   
 21  11  13  ar  
 22  11  28  1   
 23  12  14  1   
 24  12  29  1   
 25  12  30  1   
 26  13  31  1   
 27  14  15  1   
 28  14  16  1   
 29  15  17  1   
 30  15  32  1   
 31  15  33  1   
 32  16  18  1   
 33  16  34  1   
 34  16  35  1   
 35  17  19  1   
 36  17  36  1   
 37  17  37  1   
 38  18  19  1   
 39  18  38  1   
 40  18  39  1   
 41  19  20  1   
 42  19  40  1   
 43  20  41  1   
 44  20  42  1   
 45  20  43  1   
@<TRIPOS>SUBSTRUCTURE
  1 ****   9 GROUP 4 **** **** 0

# MOE 2024.06 (io_trps.svl 2023.06)
