@<TRIPOS>MOLECULE
NONAME
18 18 1 0 0 
SMALL
USER_CHARGES


@<TRIPOS>ATOM
  1 I       -0.2930     0.1600     0.5520 I     1 <1>  -0.0810 
  2 C        1.4870    -0.8680    -0.0850 C.ar  1 <1>   0.0810 
  3 C        2.6610    -0.1670    -0.3040 C.ar  1 <1>   0.1660 
  4 C        1.4740    -2.2380    -0.2810 C.ar  1 <1>   0.1660 
  5 N        3.7470    -0.7960    -0.6930 N.ar  1 <1>  -0.6200 
  6 C        2.7910     1.3360    -0.1180 C.3   1 <1>  -0.0960 
  7 N        2.5620    -2.8630    -0.6700 N.ar  1 <1>  -0.6200 
  8 C        0.2450    -3.1060    -0.0680 C.3   1 <1>  -0.0970 
  9 C        3.6260    -2.1020    -0.8630 C.ar  1 <1>   0.7200 
 10 N        4.7310    -2.7390    -1.2530 N.pl3 1 <1>  -0.9000 
 11 H        2.1170     1.8510    -0.7770 H     1 <1>   0.0800 
 12 H        3.7920     1.6550    -0.3460 H     1 <1>   0.0800 
 13 H        2.5770     1.6050     0.9000 H     1 <1>   0.0800 
 14 H       -0.5470    -2.7960    -0.7250 H     1 <1>   0.0800 
 15 H       -0.0850    -3.0400     0.9520 H     1 <1>   0.0800 
 16 H        0.4740    -4.1350    -0.2820 H     1 <1>   0.0800 
 17 H        4.7340    -3.7360    -1.0570 H     1 <1>   0.4000 
 18 H        5.5940    -2.2350    -1.0740 H     1 <1>   0.4000 
@<TRIPOS>BOND
  1   1   2  1   
  2   2   3  ar  
  3   2   4  ar  
  4   3   5  ar  
  5   3   6  1   
  6   4   7  ar  
  7   4   8  1   
  8   5   9  ar  
  9   6  11  1   
 10   6  12  1   
 11   6  13  1   
 12   7   9  ar  
 13   8  14  1   
 14   8  15  1   
 15   8  16  1   
 16   9  10  1   
 17  10  17  1   
 18  10  18  1   
@<TRIPOS>SUBSTRUCTURE
  1 ****   2 GROUP 4 **** **** 0

# MOE 2024.06 (io_trps.svl 2023.06)
