@<TRIPOS>MOLECULE
NONAME
46 49 1 0 0 
SMALL
USER_CHARGES


@<TRIPOS>ATOM
  1 S       -2.5360    -4.8940     0.6430 S.3   1 <1>  -0.4600 
  2 C       -4.1020    -4.3830     1.3810 C.3   1 <1>   0.5940 
  3 C       -2.9860    -6.6090     0.2890 C.3   1 <1>   0.1310 
  4 N       -4.9870    -5.5560     1.2060 N.am  1 <1>  -0.6600 
  5 C       -4.6750    -3.1730     0.6450 C.ar  1 <1>  -0.1440 
  6 C       -4.4640    -6.6590     0.6030 C.2   1 <1>   0.5690 
  7 C       -6.4330    -5.4370     1.5380 C.3   1 <1>   0.1400 
  8 C       -5.1440    -2.0900     1.3840 C.ar  1 <1>  -0.1500 
  9 C       -4.7690    -3.1500    -0.7510 C.ar  1 <1>  -0.1500 
 10 O       -5.1470    -7.6040     0.2930 O.2   1 <1>  -0.5700 
 11 C       -7.2720    -5.5030     0.2460 C.3   1 <1>   0.3430 
 12 C       -5.7120    -1.0310     0.7060 C.ar  1 <1>   0.0830 
 13 C       -5.3370    -2.0710    -1.4150 C.ar  1 <1>  -0.1500 
 14 N       -8.5240    -4.6790     0.3010 N.4   1 <1>  -0.9590 
 15 O       -6.2470     0.0830     1.2110 O.3   1 <1>  -0.3630 
 16 C       -5.8100    -1.0220    -0.6540 C.ar  1 <1>   0.0830 
 17 C       -9.4290    -5.0650    -0.8210 C.3   1 <1>   0.3430 
 18 C       -8.2140    -3.2160     0.2570 C.3   1 <1>   0.3430 
 19 C       -6.6220     0.8970     0.1000 C.3   1 <1>   0.4000 
 20 O       -6.4100     0.0990    -1.0640 O.3   1 <1>  -0.3630 
 21 C      -10.7480    -4.2980    -0.7110 C.3   1 <1>  -0.1600 
 22 C       -9.5020    -2.4030     0.3890 C.3   1 <1>  -0.1600 
 23 C      -10.5220    -2.7800    -0.6920 C.3   1 <1>  -0.1600 
 24 H       -3.9180    -4.1820     2.4230 H     1 <1>   0.0800 
 25 H       -2.4190    -7.2520     0.9360 H     1 <1>   0.0800 
 26 H       -2.7850    -6.8100    -0.7470 H     1 <1>   0.0800 
 27 H       -6.6040    -4.5170     2.0670 H     1 <1>   0.0800 
 28 H       -6.7090    -6.2560     2.1810 H     1 <1>   0.0800 
 29 H       -5.0770    -2.0540     2.4580 H     1 <1>   0.1500 
 30 H       -4.3910    -3.9760    -1.3310 H     1 <1>   0.1500 
 31 H       -7.5170    -6.5360     0.0600 H     1 <1>   0.0800 
 32 H       -6.6650    -5.1570    -0.5740 H     1 <1>   0.0800 
 33 H       -5.4040    -2.0370    -2.4890 H     1 <1>   0.1500 
 34 H       -9.0270    -4.8750     1.1750 H     1 <1>   0.4500 
 35 H       -9.6260    -6.1250    -0.7910 H     1 <1>   0.0800 
 36 H       -8.9580    -4.8350    -1.7640 H     1 <1>   0.0800 
 37 H       -7.7320    -2.9730    -0.6770 H     1 <1>   0.0800 
 38 H       -7.5450    -2.9500     1.0580 H     1 <1>   0.0800 
 39 H       -5.9870     1.7650     0.0600 H     1 <1>   0.0800 
 40 H       -7.6600     1.1680     0.1750 H     1 <1>   0.0800 
 41 H      -11.2670    -4.6040     0.1810 H     1 <1>   0.0800 
 42 H      -11.3740    -4.5520    -1.5490 H     1 <1>   0.0800 
 43 H       -9.2620    -1.3570     0.3040 H     1 <1>   0.0800 
 44 H       -9.9240    -2.5570     1.3660 H     1 <1>   0.0800 
 45 H      -11.4550    -2.2720    -0.5100 H     1 <1>   0.0800 
 46 H      -10.1570    -2.4600    -1.6550 H     1 <1>   0.0800 
@<TRIPOS>BOND
  1   1   2  1   
  2   1   3  1   
  3   2   4  1   
  4   2   5  1   
  5   2  24  1   
  6   3   6  1   
  7   3  25  1   
  8   3  26  1   
  9   4   6  am  
 10   4   7  1   
 11   5   8  ar  
 12   5   9  ar  
 13   6  10  2   
 14   7  11  1   
 15   7  27  1   
 16   7  28  1   
 17   8  12  ar  
 18   8  29  1   
 19   9  13  ar  
 20   9  30  1   
 21  11  14  1   
 22  11  31  1   
 23  11  32  1   
 24  12  15  1   
 25  12  16  ar  
 26  13  16  ar  
 27  13  33  1   
 28  14  17  1   
 29  14  18  1   
 30  14  34  1   
 31  15  19  1   
 32  16  20  1   
 33  17  21  1   
 34  17  35  1   
 35  17  36  1   
 36  18  22  1   
 37  18  37  1   
 38  18  38  1   
 39  19  20  1   
 40  19  39  1   
 41  19  40  1   
 42  21  23  1   
 43  21  41  1   
 44  21  42  1   
 45  22  23  1   
 46  22  43  1   
 47  22  44  1   
 48  23  45  1   
 49  23  46  1   
@<TRIPOS>SUBSTRUCTURE
  1 ****   5 GROUP 4 **** **** 0

# MOE 2024.06 (io_trps.svl 2023.06)
