@<TRIPOS>MOLECULE
NONAME
36 36 1 0 0 
SMALL
USER_CHARGES


@<TRIPOS>ATOM
  1 S        0.4220     0.1450    -0.3050 S.o2  1 <1>   1.3330 
  2 O        0.3490    -0.7010    -1.4690 O.2   1 <1>  -0.6500 
  3 O       -0.1370    -0.2530     0.9610 O.2   1 <1>  -0.6500 
  4 N        2.0690     0.5400    -0.0060 N.am  1 <1>  -0.7570 
  5 C       -0.2350     1.7370    -0.7520 C.3   1 <1>  -0.1350 
  6 C        3.1540    -0.3200     0.1360 C.ar  1 <1>   0.1990 
  7 C        4.2930     0.1210     0.8370 C.ar  1 <1>   0.0860 
  8 C        3.1460    -1.6110    -0.3910 C.ar  1 <1>  -0.1500 
  9 C        4.3770     1.4670     1.3710 C.2   1 <1>   0.5440 
 10 C        5.3540    -0.7720     1.0150 C.ar  1 <1>  -0.1500 
 11 C        4.2140    -2.4670    -0.2180 C.ar  1 <1>  -0.1500 
 12 O        3.4190     2.0030     1.8960 O.2   1 <1>  -0.5700 
 13 N        5.5060     2.2250     1.3060 N.am  1 <1>  -0.7300 
 14 C        5.3230    -2.0490     0.4950 C.ar  1 <1>  -0.1500 
 15 C        6.6070     2.1250     0.3210 C.3   1 <1>   0.1400 
 16 C        6.8100     3.4700    -0.3950 C.3   1 <1>  -0.0800 
 17 C        7.8890     3.3280    -1.4770 C.3   1 <1>  -0.2400 
 18 C        7.2060     4.5940     0.5760 C.3   1 <1>  -0.2400 
 19 H        2.1030     1.2740     0.7110 H     1 <1>   0.4200 
 20 H       -1.2810     1.6520    -0.9690 H     1 <1>   0.0800 
 21 H        0.2670     2.1110    -1.6230 H     1 <1>   0.0800 
 22 H       -0.1060     2.4330     0.0520 H     1 <1>   0.0800 
 23 H        2.3000    -1.9680    -0.9450 H     1 <1>   0.1500 
 24 H        6.2150    -0.4550     1.5770 H     1 <1>   0.1500 
 25 H        4.1820    -3.4610    -0.6320 H     1 <1>   0.1500 
 26 H        5.4360     3.1310     1.7730 H     1 <1>   0.3700 
 27 H        6.1530    -2.7190     0.6410 H     1 <1>   0.1500 
 28 H        6.3770     1.3660    -0.4070 H     1 <1>   0.0800 
 29 H        7.5130     1.8430     0.8320 H     1 <1>   0.0800 
 30 H        5.8870     3.7360    -0.8820 H     1 <1>   0.0800 
 31 H        8.8360     3.0620    -1.0400 H     1 <1>   0.0800 
 32 H        8.0070     4.2550    -2.0110 H     1 <1>   0.0800 
 33 H        7.6120     2.5670    -2.1860 H     1 <1>   0.0800 
 34 H        8.1040     4.3370     1.1100 H     1 <1>   0.0800 
 35 H        6.4220     4.7810     1.2880 H     1 <1>   0.0800 
 36 H        7.3820     5.5070     0.0340 H     1 <1>   0.0800 
@<TRIPOS>BOND
  1   1   2  2   
  2   1   3  2   
  3   1   4  am  
  4   1   5  1   
  5   4   6  1   
  6   4  19  1   
  7   5  20  1   
  8   5  21  1   
  9   5  22  1   
 10   6   7  ar  
 11   6   8  ar  
 12   7   9  1   
 13   7  10  ar  
 14   8  11  ar  
 15   8  23  1   
 16   9  12  2   
 17   9  13  am  
 18  10  14  ar  
 19  10  24  1   
 20  11  14  ar  
 21  11  25  1   
 22  13  15  1   
 23  13  26  1   
 24  14  27  1   
 25  15  16  1   
 26  15  28  1   
 27  15  29  1   
 28  16  17  1   
 29  16  18  1   
 30  16  30  1   
 31  17  31  1   
 32  17  32  1   
 33  17  33  1   
 34  18  34  1   
 35  18  35  1   
 36  18  36  1   
@<TRIPOS>SUBSTRUCTURE
  1 ****   7 GROUP 4 **** **** 0

# MOE 2024.06 (io_trps.svl 2023.06)
