@<TRIPOS>MOLECULE
NONAME
40 40 1 0 0 
SMALL
USER_CHARGES


@<TRIPOS>ATOM
  1 O        0.6410    -1.1680    -1.3360 O.3   1 <1>  -0.3630 
  2 C       -0.5640    -1.1050    -0.7030 C.ar  1 <1>   0.0830 
  3 C        1.3880    -0.0180    -1.6750 C.3   1 <1>   0.1200 
  4 C       -1.1110    -2.2920    -0.2110 C.ar  1 <1>  -0.1440 
  5 C       -1.2580     0.0930    -0.5320 C.ar  1 <1>  -0.1500 
  6 C        1.9650     0.6600    -0.4160 C.3   1 <1>   0.3430 
  7 C       -2.3290    -2.2530     0.4500 C.ar  1 <1>  -0.1500 
  8 C       -0.4340    -3.6510    -0.3870 C.3   1 <1>  -0.0160 
  9 C       -2.4670     0.1140     0.1360 C.ar  1 <1>  -0.1500 
 10 N        3.0540    -0.1210     0.2730 N.4   1 <1>  -0.9590 
 11 C       -3.0030    -1.0590     0.6300 C.ar  1 <1>  -0.1500 
 12 C       -0.0200    -4.2530     0.9600 C.3   1 <1>  -0.2400 
 13 C        2.5490    -1.3810     0.8890 C.3   1 <1>   0.3430 
 14 C        3.7390     0.7400     1.2730 C.3   1 <1>   0.3430 
 15 C        3.2430    -2.5510     0.2040 C.3   1 <1>  -0.2400 
 16 C        5.0820     0.1280     1.6560 C.3   1 <1>  -0.2400 
 17 H        0.7520     0.6520    -2.2260 H     1 <1>   0.0800 
 18 H        2.1830    -0.3270    -2.3300 H     1 <1>   0.0800 
 19 H       -0.8930     1.0250    -0.9150 H     1 <1>   0.1500 
 20 H        1.1620     0.8560     0.2760 H     1 <1>   0.0800 
 21 H        2.3690     1.6120    -0.7190 H     1 <1>   0.0800 
 22 H       -2.7690    -3.1600     0.8280 H     1 <1>   0.1500 
 23 H        0.4290    -3.5760    -1.0220 H     1 <1>   0.0800 
 24 H       -1.1230    -4.3190    -0.8760 H     1 <1>   0.0800 
 25 H       -3.0010     1.0400     0.2680 H     1 <1>   0.1500 
 26 H        3.7480    -0.3980    -0.4330 H     1 <1>   0.4500 
 27 H       -3.9470    -1.0470     1.1480 H     1 <1>   0.1500 
 28 H        0.5970    -3.5660     1.5080 H     1 <1>   0.0800 
 29 H        0.5270    -5.1660     0.8020 H     1 <1>   0.0800 
 30 H       -0.8880    -4.4780     1.5540 H     1 <1>   0.0800 
 31 H        1.4810    -1.4660     0.7730 H     1 <1>   0.0800 
 32 H        2.7700    -1.3980     1.9440 H     1 <1>   0.0800 
 33 H        3.1210     0.8590     2.1490 H     1 <1>   0.0800 
 34 H        3.9150     1.7170     0.8510 H     1 <1>   0.0800 
 35 H        2.9860    -2.5880    -0.8400 H     1 <1>   0.0800 
 36 H        2.9160    -3.4710     0.6550 H     1 <1>   0.0800 
 37 H        4.3100    -2.4900     0.3160 H     1 <1>   0.0800 
 38 H        4.9560    -0.8100     2.1680 H     1 <1>   0.0800 
 39 H        5.5940     0.7960     2.3250 H     1 <1>   0.0800 
 40 H        5.7020    -0.0120     0.7890 H     1 <1>   0.0800 
@<TRIPOS>BOND
  1   1   2  1   
  2   1   3  1   
  3   2   4  ar  
  4   2   5  ar  
  5   3   6  1   
  6   3  17  1   
  7   3  18  1   
  8   4   7  ar  
  9   4   8  1   
 10   5   9  ar  
 11   5  19  1   
 12   6  10  1   
 13   6  20  1   
 14   6  21  1   
 15   7  11  ar  
 16   7  22  1   
 17   8  12  1   
 18   8  23  1   
 19   8  24  1   
 20   9  11  ar  
 21   9  25  1   
 22  10  13  1   
 23  10  14  1   
 24  10  26  1   
 25  11  27  1   
 26  12  28  1   
 27  12  29  1   
 28  12  30  1   
 29  13  15  1   
 30  13  31  1   
 31  13  32  1   
 32  14  16  1   
 33  14  33  1   
 34  14  34  1   
 35  15  35  1   
 36  15  36  1   
 37  15  37  1   
 38  16  38  1   
 39  16  39  1   
 40  16  40  1   
@<TRIPOS>SUBSTRUCTURE
  1 ****   1 GROUP 4 **** **** 0

# MOE 2024.06 (io_trps.svl 2023.06)
