@<TRIPOS>MOLECULE
NONAME
50 53 1 0 0 
SMALL
USER_CHARGES


@<TRIPOS>ATOM
  1 N       -0.5930     0.9220     0.8010 N.pl3 1 <1>  -0.8380 
  2 C       -1.4400    -0.1090     0.3960 C.ar  1 <1>   0.1000 
  3 C        0.5200     0.5730     1.7290 C.3   1 <1>   0.2090 
  4 C       -0.3500     2.0300    -0.1660 C.3   1 <1>   0.2090 
  5 C       -2.7390    -0.2030     0.8950 C.ar  1 <1>  -0.1440 
  6 C       -0.9980    -1.0620    -0.5180 C.ar  1 <1>  -0.1500 
  7 C        1.8750     0.4920     0.9940 C.3   1 <1>   0.3430 
  8 C        1.0280     1.9040    -0.8470 C.3   1 <1>   0.3430 
  9 C       -3.5620    -1.2350     0.4770 C.ar  1 <1>  -0.1500 
 10 C       -3.2640     0.8160     1.8970 C.3   1 <1>  -0.0970 
 11 C       -1.8210    -2.0930    -0.9340 C.ar  1 <1>  -0.1440 
 12 N        2.1550     1.7090     0.1420 N.4   1 <1>  -0.9590 
 13 C       -3.1080    -2.1740    -0.4320 C.ar  1 <1>  -0.1500 
 14 C       -1.3400    -3.1320    -1.9310 C.3   1 <1>  -0.0970 
 15 C        3.4830     1.6170    -0.5340 C.3   1 <1>   0.4230 
 16 C        4.7320     1.4800     0.5200 C.3   1 <1>  -0.0800 
 17 C        3.7890     2.9540    -1.4940 C.3   1 <1>  -0.1600 
 18 C        5.0310     2.4520    -0.3510 C.3   1 <1>  -0.1600 
 19 C        6.2690     1.9560     0.8120 C.3   1 <1>  -0.1600 
 20 C        5.3170     3.4530    -1.1870 C.3   1 <1>  -0.0800 
 21 C        6.5890     3.2700    -0.1730 C.3   1 <1>  -0.1600 
 22 H        0.3110    -0.3750     2.1960 H     1 <1>   0.0800 
 23 H        0.5720     1.3130     2.5080 H     1 <1>   0.0800 
 24 H       -0.4170     2.9690     0.3540 H     1 <1>   0.0800 
 25 H       -1.1220     2.0210    -0.9180 H     1 <1>   0.0800 
 26 H       -0.0030    -0.9960    -0.9050 H     1 <1>   0.1500 
 27 H        1.8620    -0.3870     0.3710 H     1 <1>   0.0800 
 28 H        2.6540     0.3610     1.7250 H     1 <1>   0.0800 
 29 H        1.1990     2.7880    -1.4370 H     1 <1>   0.0800 
 30 H        0.9920     1.0630    -1.5190 H     1 <1>   0.0800 
 31 H       -4.5650    -1.3160     0.8560 H     1 <1>   0.1500 
 32 H       -2.6510     0.8080     2.7790 H     1 <1>   0.0800 
 33 H       -4.2770     0.5950     2.1810 H     1 <1>   0.0800 
 34 H       -3.2360     1.7990     1.4640 H     1 <1>   0.0800 
 35 H        2.1720     2.5290     0.7590 H     1 <1>   0.4500 
 36 H       -3.7620    -2.9690    -0.7450 H     1 <1>   0.1500 
 37 H       -0.3100    -2.9730    -2.1930 H     1 <1>   0.0800 
 38 H       -1.9340    -3.0810    -2.8260 H     1 <1>   0.0800 
 39 H       -1.4370    -4.1160    -1.5070 H     1 <1>   0.0800 
 40 H        3.4920     0.7450    -1.1700 H     1 <1>   0.0800 
 41 H        4.2730     1.7130     1.4710 H     1 <1>   0.0800 
 42 H        3.1080     3.7630    -1.2770 H     1 <1>   0.0800 
 43 H        3.6810     2.6970    -2.5350 H     1 <1>   0.0800 
 44 H        5.4940     1.6810    -1.1140 H     1 <1>   0.0800 
 45 H        4.5880     3.2380     0.4090 H     1 <1>   0.0800 
 46 H        6.9590     1.1540     0.5930 H     1 <1>   0.0800 
 47 H        6.4080     2.2220     1.8490 H     1 <1>   0.0800 
 48 H        5.7920     3.2780    -2.1440 H     1 <1>   0.0800 
 49 H        7.5060     3.1150    -0.7210 H     1 <1>   0.0800 
 50 H        6.7210     4.1610     0.4240 H     1 <1>   0.0800 
@<TRIPOS>BOND
  1   1   2  1   
  2   1   3  1   
  3   1   4  1   
  4   2   5  ar  
  5   2   6  ar  
  6   3   7  1   
  7   3  22  1   
  8   3  23  1   
  9   4   8  1   
 10   4  24  1   
 11   4  25  1   
 12   5   9  ar  
 13   5  10  1   
 14   6  11  ar  
 15   6  26  1   
 16   7  12  1   
 17   7  27  1   
 18   7  28  1   
 19   8  12  1   
 20   8  29  1   
 21   8  30  1   
 22   9  13  ar  
 23   9  31  1   
 24  10  32  1   
 25  10  33  1   
 26  10  34  1   
 27  11  13  ar  
 28  11  14  1   
 29  12  15  1   
 30  12  35  1   
 31  13  36  1   
 32  14  37  1   
 33  14  38  1   
 34  14  39  1   
 35  15  16  1   
 36  15  17  1   
 37  15  40  1   
 38  16  18  1   
 39  16  19  1   
 40  16  41  1   
 41  17  20  1   
 42  17  42  1   
 43  17  43  1   
 44  18  20  1   
 45  18  44  1   
 46  18  45  1   
 47  19  21  1   
 48  19  46  1   
 49  19  47  1   
 50  20  21  1   
 51  20  48  1   
 52  21  49  1   
 53  21  50  1   
@<TRIPOS>SUBSTRUCTURE
  1 ****   7 GROUP 4 **** **** 0

# MOE 2024.06 (io_trps.svl 2023.06)
