@<TRIPOS>MOLECULE
NONAME
44 46 1 0 0 
SMALL
USER_CHARGES


@<TRIPOS>ATOM
  1 S        0.6800    -0.2440    -1.8500 S.3   1 <1>  -0.0800 
  2 C        1.6020    -0.7330    -0.4230 C.2   1 <1>  -0.0450 
  3 C       -0.5480    -1.4580    -1.5670 C.2   1 <1>  -0.1100 
  4 C        2.8240    -0.0260    -0.1150 C.2   1 <1>   0.7150 
  5 C        0.9450    -1.7570     0.1820 C.2   1 <1>  -0.1500 
  6 C       -0.2600    -2.1680    -0.4610 C.2   1 <1>  -0.1500 
  7 O        2.9100     1.1650    -0.3550 O.2   1 <1>  -0.5700 
  8 N        3.9050    -0.6610     0.4700 N.am  1 <1>  -0.6600 
  9 C        4.1690    -2.1200     0.3320 C.3   1 <1>   0.1400 
 10 C        4.9880     0.1110     1.1430 C.3   1 <1>   0.1400 
 11 C        5.5020    -2.3400    -0.3860 C.3   1 <1>  -0.1600 
 12 C        6.3220    -0.1120     0.4260 C.3   1 <1>  -0.1600 
 13 C        6.6430    -1.6060     0.3160 C.3   1 <1>   0.1900 
 14 N        7.8510    -1.8180    -0.4680 N.3   1 <1>  -0.9000 
 15 C        9.1060    -1.4490     0.2260 C.3   1 <1>   0.2510 
 16 C        9.8200    -0.2160    -0.3470 C.2   1 <1>   0.5690 
 17 C       10.1360    -2.5720     0.0300 C.3   1 <1>  -0.0990 
 18 O        9.3370     0.8890    -0.3900 O.2   1 <1>  -0.5700 
 19 N       11.0610    -0.5470    -0.7890 N.am  1 <1>  -0.4200 
 20 C       11.3110    -1.8700    -0.6050 C.2   1 <1>   0.5690 
 21 C       12.0130     0.4040    -1.3990 C.3   1 <1>   0.1400 
 22 O       12.3340    -2.4370    -0.8900 O.2   1 <1>  -0.5700 
 23 C       12.8710     1.0440    -0.3090 C.3   1 <1>  -0.2400 
 24 H       -1.3650    -1.5110    -2.2640 H     1 <1>   0.1500 
 25 H        1.2740    -2.2410     1.0850 H     1 <1>   0.1500 
 26 H       -0.8560    -2.9720    -0.0660 H     1 <1>   0.1500 
 27 H        3.3920    -2.6000    -0.2370 H     1 <1>   0.0800 
 28 H        4.1990    -2.5670     1.3110 H     1 <1>   0.0800 
 29 H        5.0650    -0.2170     2.1650 H     1 <1>   0.0800 
 30 H        4.7590     1.1630     1.1540 H     1 <1>   0.0800 
 31 H        5.4090    -1.9910    -1.3990 H     1 <1>   0.0800 
 32 H        5.7190    -3.3930    -0.4110 H     1 <1>   0.0800 
 33 H        7.0890     0.3960     0.9800 H     1 <1>   0.0800 
 34 H        6.2630     0.3310    -0.5520 H     1 <1>   0.0800 
 35 H        6.7700    -2.0280     1.3000 H     1 <1>   0.0800 
 36 H        7.7670    -1.2360    -1.3130 H     1 <1>   0.3600 
 37 H        8.9350    -1.2960     1.2780 H     1 <1>   0.0800 
 38 H        9.7770    -3.3450    -0.6250 H     1 <1>   0.0800 
 39 H       10.4340    -2.9920     0.9710 H     1 <1>   0.0800 
 40 H       11.4660     1.1650    -1.9310 H     1 <1>   0.0800 
 41 H       12.6400    -0.1190    -2.1010 H     1 <1>   0.0800 
 42 H       12.2520     1.5830     0.3870 H     1 <1>   0.0800 
 43 H       13.5640     1.7360    -0.7540 H     1 <1>   0.0800 
 44 H       13.4330     0.2900     0.2140 H     1 <1>   0.0800 
@<TRIPOS>BOND
  1   1   2  1   
  2   1   3  1   
  3   2   4  1   
  4   2   5  2   
  5   3   6  2   
  6   3  24  1   
  7   4   7  2   
  8   4   8  am  
  9   5   6  1   
 10   5  25  1   
 11   6  26  1   
 12   8   9  1   
 13   8  10  1   
 14   9  11  1   
 15   9  27  1   
 16   9  28  1   
 17  10  12  1   
 18  10  29  1   
 19  10  30  1   
 20  11  13  1   
 21  11  31  1   
 22  11  32  1   
 23  12  13  1   
 24  12  33  1   
 25  12  34  1   
 26  13  14  1   
 27  13  35  1   
 28  14  15  1   
 29  14  36  1   
 30  15  16  1   
 31  15  17  1   
 32  15  37  1   
 33  16  18  2   
 34  16  19  am  
 35  17  20  1   
 36  17  38  1   
 37  17  39  1   
 38  19  20  am  
 39  19  21  1   
 40  20  22  2   
 41  21  23  1   
 42  21  40  1   
 43  21  41  1   
 44  23  42  1   
 45  23  43  1   
 46  23  44  1   
@<TRIPOS>SUBSTRUCTURE
  1 ****  13 GROUP 4 **** **** 0

# MOE 2024.06 (io_trps.svl 2023.06)
