@<TRIPOS>MOLECULE
NONAME
45 46 1 0 0 
SMALL
USER_CHARGES


@<TRIPOS>ATOM
  1 O       -0.9000     5.6590    -0.3960 O.2   1 <1>  -0.5700 
  2 C       -0.8970     4.4640    -0.1840 C.2   1 <1>   0.6340 
  3 O        0.2890     3.8680    -0.0010 O.3   1 <1>  -0.4300 
  4 C       -2.0980     3.6550    -0.1170 C.ar  1 <1>   0.0860 
  5 C        1.4860     4.6140    -0.0620 C.3   1 <1>   0.1200 
  6 C       -3.3580     4.2290    -0.3090 C.ar  1 <1>  -0.1500 
  7 C       -2.0540     2.2790     0.1410 C.ar  1 <1>  -0.1500 
  8 C        2.6620     3.6700     0.2080 C.3   1 <1>   0.3430 
  9 C       -4.5120     3.4740    -0.2470 C.ar  1 <1>   0.0830 
 10 C       -3.2050     1.5120     0.1990 C.ar  1 <1>  -0.1500 
 11 N        4.0050     4.3400     0.0460 N.4   1 <1>  -0.9590 
 12 O       -5.7090     4.0880    -0.4220 O.3   1 <1>  -0.3630 
 13 C       -4.4380     2.1020    -0.0010 C.ar  1 <1>   0.0830 
 14 C        5.1530     3.3840     0.0170 C.3   1 <1>   0.5030 
 15 C        4.1630     5.4430     1.0600 C.3   1 <1>   0.2630 
 16 C       -6.8620     3.3710    -0.0230 C.3   1 <1>   0.1200 
 17 O       -5.5510     1.3350     0.0400 O.3   1 <1>  -0.3620 
 18 C        4.9590     2.4040    -1.1440 C.3   1 <1>  -0.2400 
 19 C        6.4480     4.1620    -0.2380 C.3   1 <1>  -0.2400 
 20 C        5.2650     2.6110     1.3350 C.3   1 <1>  -0.2400 
 21 C       -6.7500     1.9010    -0.4540 C.3   1 <1>   0.1200 
 22 H        1.4250     5.3900     0.6810 H     1 <1>   0.0800 
 23 H        1.5550     5.0460    -1.0460 H     1 <1>   0.0800 
 24 H       -3.4410     5.2840    -0.5060 H     1 <1>   0.1500 
 25 H       -1.1070     1.7940     0.2980 H     1 <1>   0.1500 
 26 H        2.5790     2.8510    -0.4840 H     1 <1>   0.0800 
 27 H        2.5720     3.2780     1.2080 H     1 <1>   0.0800 
 28 H       -3.1560     0.4550     0.3950 H     1 <1>   0.1500 
 29 H        4.0160     4.7760    -0.8850 H     1 <1>   0.4500 
 30 H        4.1730     5.0370     2.0580 H     1 <1>   0.0800 
 31 H        3.3510     6.1470     0.9840 H     1 <1>   0.0800 
 32 H        5.0810     5.9820     0.8970 H     1 <1>   0.0800 
 33 H       -7.7170     3.8390    -0.4770 H     1 <1>   0.0800 
 34 H       -6.9470     3.4420     1.0460 H     1 <1>   0.0800 
 35 H        4.7930     2.9270    -2.0690 H     1 <1>   0.0800 
 36 H        4.1500     1.7200    -0.9670 H     1 <1>   0.0800 
 37 H        5.8440     1.8020    -1.2660 H     1 <1>   0.0800 
 38 H        6.3650     4.7740    -1.1190 H     1 <1>   0.0800 
 39 H        7.2620     3.4760    -0.3930 H     1 <1>   0.0800 
 40 H        6.7220     4.7750     0.6010 H     1 <1>   0.0800 
 41 H        6.1020     1.9360     1.2850 H     1 <1>   0.0800 
 42 H        5.4370     3.2680     2.1670 H     1 <1>   0.0800 
 43 H        4.3900     2.0180     1.5250 H     1 <1>   0.0800 
 44 H       -6.7380     1.8270    -1.5260 H     1 <1>   0.0800 
 45 H       -7.5720     1.3260    -0.0680 H     1 <1>   0.0800 
@<TRIPOS>BOND
  1   1   2  2   
  2   2   3  1   
  3   2   4  1   
  4   3   5  1   
  5   4   6  ar  
  6   4   7  ar  
  7   5   8  1   
  8   5  22  1   
  9   5  23  1   
 10   6   9  ar  
 11   6  24  1   
 12   7  10  ar  
 13   7  25  1   
 14   8  11  1   
 15   8  26  1   
 16   8  27  1   
 17   9  12  1   
 18   9  13  ar  
 19  10  13  ar  
 20  10  28  1   
 21  11  14  1   
 22  11  15  1   
 23  11  29  1   
 24  12  16  1   
 25  13  17  1   
 26  14  18  1   
 27  14  19  1   
 28  14  20  1   
 29  15  30  1   
 30  15  31  1   
 31  15  32  1   
 32  16  21  1   
 33  16  33  1   
 34  16  34  1   
 35  17  21  1   
 36  18  35  1   
 37  18  36  1   
 38  18  37  1   
 39  19  38  1   
 40  19  39  1   
 41  19  40  1   
 42  20  41  1   
 43  20  42  1   
 44  20  43  1   
 45  21  44  1   
 46  21  45  1   
@<TRIPOS>SUBSTRUCTURE
  1 ****   3 GROUP 4 **** **** 0

# MOE 2024.06 (io_trps.svl 2023.06)
