@<TRIPOS>MOLECULE
NONAME
37 38 1 0 0 
SMALL
USER_CHARGES


@<TRIPOS>ATOM
  1 BR       0.4440    -0.5080    -1.6360 Br    1 <1>  -0.1110 
  2 C       -0.5440    -1.8480    -0.6600 C.ar  1 <1>   0.1110 
  3 C        0.1180    -2.9610    -0.1550 C.ar  1 <1>   0.0830 
  4 C       -1.9020    -1.6520    -0.4930 C.ar  1 <1>  -0.1500 
  5 O        1.4570    -3.0710    -0.3680 O.3   1 <1>  -0.3630 
  6 C       -0.6320    -3.9050     0.5440 C.ar  1 <1>  -0.1500 
  7 C       -2.6310    -2.6000     0.2040 C.ar  1 <1>  -0.1500 
  8 C        2.1940    -4.1650     0.1240 C.3   1 <1>   0.1200 
  9 C       -1.9960    -3.7200     0.7190 C.ar  1 <1>  -0.1500 
 10 C        3.6530    -3.9760    -0.2870 C.3   1 <1>  -0.1600 
 11 C        4.5160    -5.1280     0.2310 C.3   1 <1>   0.1400 
 12 N        5.9180    -4.9310    -0.1850 N.am  1 <1>  -0.4200 
 13 C        6.4650    -5.4080    -1.3410 C.2   1 <1>   0.6900 
 14 C        6.8740    -4.2750     0.5330 C.2   1 <1>   0.5690 
 15 O        5.8880    -6.0990    -2.1500 O.2   1 <1>  -0.5700 
 16 N        7.7580    -5.0470    -1.4580 N.am  1 <1>  -0.7300 
 17 O        6.7170    -3.7590     1.6150 O.2   1 <1>  -0.5700 
 18 C        8.1940    -4.3120    -0.2640 C.3   1 <1>   0.3610 
 19 C        9.2970    -5.1120     0.4330 C.3   1 <1>  -0.2400 
 20 C        8.6790    -2.9260    -0.6920 C.3   1 <1>  -0.2400 
 21 H       -2.3760    -0.7770    -0.9000 H     1 <1>   0.1500 
 22 H       -0.1780    -4.7850     0.9570 H     1 <1>   0.1500 
 23 H       -3.6900    -2.4680     0.3460 H     1 <1>   0.1500 
 24 H        1.7900    -5.0660    -0.3050 H     1 <1>   0.0800 
 25 H        2.0990    -4.1810     1.1960 H     1 <1>   0.0800 
 26 H       -2.5690    -4.4540     1.2600 H     1 <1>   0.1500 
 27 H        4.0150    -3.0480     0.1210 H     1 <1>   0.0800 
 28 H        3.7110    -3.9420    -1.3620 H     1 <1>   0.0800 
 29 H        4.1610    -6.0650    -0.1640 H     1 <1>   0.0800 
 30 H        4.4720    -5.1700     1.3060 H     1 <1>   0.0800 
 31 H        8.3900    -5.4570    -2.1430 H     1 <1>   0.3700 
 32 H        8.9440    -6.0970     0.6830 H     1 <1>   0.0800 
 33 H        9.5800    -4.6160     1.3440 H     1 <1>   0.0800 
 34 H       10.1640    -5.1930    -0.1960 H     1 <1>   0.0800 
 35 H        7.8990    -2.4030    -1.2160 H     1 <1>   0.0800 
 36 H        9.5430    -3.0040    -1.3260 H     1 <1>   0.0800 
 37 H        8.9430    -2.3510     0.1780 H     1 <1>   0.0800 
@<TRIPOS>BOND
  1   1   2  1   
  2   2   3  ar  
  3   2   4  ar  
  4   3   5  1   
  5   3   6  ar  
  6   4   7  ar  
  7   4  21  1   
  8   5   8  1   
  9   6   9  ar  
 10   6  22  1   
 11   7   9  ar  
 12   7  23  1   
 13   8  10  1   
 14   8  24  1   
 15   8  25  1   
 16   9  26  1   
 17  10  11  1   
 18  10  27  1   
 19  10  28  1   
 20  11  12  1   
 21  11  29  1   
 22  11  30  1   
 23  12  13  am  
 24  12  14  am  
 25  13  15  2   
 26  13  16  am  
 27  14  17  2   
 28  14  18  1   
 29  16  18  1   
 30  16  31  1   
 31  18  19  1   
 32  18  20  1   
 33  19  32  1   
 34  19  33  1   
 35  19  34  1   
 36  20  35  1   
 37  20  36  1   
 38  20  37  1   
@<TRIPOS>SUBSTRUCTURE
  1 ****  10 GROUP 4 **** **** 0

# MOE 2024.06 (io_trps.svl 2023.06)
