@<TRIPOS>MOLECULE
NONAME
34 35 1 0 0 
SMALL
USER_CHARGES


@<TRIPOS>ATOM
  1 O        7.3740     1.6410     1.1100 O.2   1 <1>  -0.5700 
  2 C        7.6260     2.3020     0.1370 C.2   1 <1>   0.6590 
  3 O        6.7360     3.1170    -0.4130 O.3   1 <1>  -0.4300 
  4 C        8.9750     2.2510    -0.5320 C.3   1 <1>  -0.1790 
  5 C        5.4580     3.3070     0.1450 C.3   1 <1>   0.2000 
  6 C        4.5660     2.1180    -0.2360 C.3   1 <1>  -0.1600 
  7 C        4.8980     4.6290    -0.3940 C.3   1 <1>  -0.1600 
  8 C        3.1520     2.3580     0.2820 C.3   1 <1>   0.4230 
  9 C        3.4480     4.8590     0.0640 C.3   1 <1>  -0.1600 
 10 N        2.2930     1.2070    -0.0760 N.4   1 <1>  -0.9060 
 11 C        2.5590     3.6560    -0.2970 C.3   1 <1>  -0.0800 
 12 C        0.9090     1.3400     0.4550 C.3   1 <1>   0.3430 
 13 C        1.1200     3.8640     0.2010 C.3   1 <1>  -0.1600 
 14 C        0.2660     2.6200    -0.0890 C.3   1 <1>  -0.1600 
 15 H        8.8610     1.9260    -1.5480 H     1 <1>   0.0800 
 16 H        9.6150     1.5640    -0.0090 H     1 <1>   0.0800 
 17 H        9.4190     3.2280    -0.5180 H     1 <1>   0.0800 
 18 H        5.5650     3.3740     1.2170 H     1 <1>   0.0800 
 19 H        4.9610     1.2230     0.2090 H     1 <1>   0.0800 
 20 H        4.5580     2.0150    -1.3070 H     1 <1>   0.0800 
 21 H        4.9330     4.6190    -1.4700 H     1 <1>   0.0800 
 22 H        5.5130     5.4420    -0.0480 H     1 <1>   0.0800 
 23 H        3.1910     2.4480     1.3560 H     1 <1>   0.0800 
 24 H        3.0670     5.7510    -0.4060 H     1 <1>   0.0800 
 25 H        3.4360     5.0210     1.1290 H     1 <1>   0.0800 
 26 H        2.7240     0.3430     0.2740 H     1 <1>   0.4500 
 27 H        2.2560     1.1370    -1.0990 H     1 <1>   0.4500 
 28 H        2.5400     3.5780    -1.3710 H     1 <1>   0.0800 
 29 H        0.9360     1.3850     1.5330 H     1 <1>   0.0800 
 30 H        0.3160     0.4860     0.1680 H     1 <1>   0.0800 
 31 H        0.6840     4.7220    -0.2850 H     1 <1>   0.0800 
 32 H        1.1230     4.0570     1.2620 H     1 <1>   0.0800 
 33 H       -0.7040     2.7430     0.3610 H     1 <1>   0.0800 
 34 H        0.1140     2.5200    -1.1500 H     1 <1>   0.0800 
@<TRIPOS>BOND
  1   1   2  2   
  2   2   3  1   
  3   2   4  1   
  4   3   5  1   
  5   4  15  1   
  6   4  16  1   
  7   4  17  1   
  8   5   6  1   
  9   5   7  1   
 10   5  18  1   
 11   6   8  1   
 12   6  19  1   
 13   6  20  1   
 14   7   9  1   
 15   7  21  1   
 16   7  22  1   
 17   8  10  1   
 18   8  11  1   
 19   8  23  1   
 20   9  11  1   
 21   9  24  1   
 22   9  25  1   
 23  10  12  1   
 24  10  26  1   
 25  10  27  1   
 26  11  13  1   
 27  11  28  1   
 28  12  14  1   
 29  12  29  1   
 30  12  30  1   
 31  13  14  1   
 32  13  31  1   
 33  13  32  1   
 34  14  33  1   
 35  14  34  1   
@<TRIPOS>SUBSTRUCTURE
  1 ****   6 GROUP 4 **** **** 0

# MOE 2024.06 (io_trps.svl 2023.06)
