@<TRIPOS>MOLECULE
NONAME
43 43 1 0 0 
SMALL
USER_CHARGES


@<TRIPOS>ATOM
  1 O        0.5790    -0.2190    -0.2170 O.3   1 <1>  -0.3630 
  2 C       -0.6470    -0.8010    -0.2050 C.ar  1 <1>   0.0830 
  3 C        1.7530    -0.9850    -0.1220 C.3   1 <1>   0.1200 
  4 C       -0.8560    -2.1730    -0.1020 C.ar  1 <1>  -0.1500 
  5 C       -1.7390     0.0460    -0.3030 C.ar  1 <1>  -0.1500 
  6 C        2.9360    -0.0160    -0.1660 C.3   1 <1>  -0.1600 
  7 C       -2.1440    -2.6800    -0.0980 C.ar  1 <1>  -0.1500 
  8 C       -3.0260    -0.4640    -0.2990 C.ar  1 <1>  -0.1500 
  9 C        4.2830    -0.7480    -0.0690 C.3   1 <1>  -0.1600 
 10 C       -3.2350    -1.8300    -0.1950 C.ar  1 <1>  -0.1430 
 11 C        5.4360     0.2530    -0.1160 C.3   1 <1>   0.3430 
 12 C       -4.6450    -2.3900    -0.1910 C.3   1 <1>  -0.0970 
 13 N        6.7230    -0.4830    -0.0210 N.4   1 <1>  -0.9060 
 14 C        7.9470     0.3220    -0.0510 C.3   1 <1>   0.5030 
 15 C        8.0350     1.0830    -1.3730 C.3   1 <1>  -0.2400 
 16 C        9.1080    -0.6610     0.0600 C.3   1 <1>  -0.2400 
 17 C        7.9640     1.2820     1.1390 C.3   1 <1>  -0.2400 
 18 H        1.7780    -1.6670    -0.9550 H     1 <1>   0.0800 
 19 H        1.7280    -1.5270     0.8080 H     1 <1>   0.0800 
 20 H       -0.0370    -2.8610    -0.0260 H     1 <1>   0.1500 
 21 H       -1.5760     1.1050    -0.3830 H     1 <1>   0.1500 
 22 H        2.8380     0.6760     0.6540 H     1 <1>   0.0800 
 23 H        2.8870     0.5380    -1.0880 H     1 <1>   0.0800 
 24 H       -2.2960    -3.7420    -0.0200 H     1 <1>   0.1500 
 25 H       -3.8620     0.2080    -0.3770 H     1 <1>   0.1500 
 26 H        4.3640    -1.4370    -0.8930 H     1 <1>   0.0800 
 27 H        4.3140    -1.2980     0.8550 H     1 <1>   0.0800 
 28 H        5.3420     0.9470     0.7040 H     1 <1>   0.0800 
 29 H        5.3910     0.8090    -1.0390 H     1 <1>   0.0800 
 30 H       -4.6900    -3.2930     0.3910 H     1 <1>   0.0800 
 31 H       -4.9510    -2.6100    -1.1980 H     1 <1>   0.0800 
 32 H       -5.3310    -1.6790     0.2330 H     1 <1>   0.0800 
 33 H        6.7830    -1.1560    -0.7910 H     1 <1>   0.4500 
 34 H        6.7370    -1.0260     0.8470 H     1 <1>   0.4500 
 35 H        7.2650     1.8290    -1.4550 H     1 <1>   0.0800 
 36 H        8.9790     1.5950    -1.4330 H     1 <1>   0.0800 
 37 H        7.9730     0.4130    -2.2120 H     1 <1>   0.0800 
 38 H        9.0650    -1.2120     0.9830 H     1 <1>   0.0800 
 39 H       10.0420    -0.1270     0.0440 H     1 <1>   0.0800 
 40 H        9.1150    -1.3510    -0.7660 H     1 <1>   0.0800 
 41 H        7.8530     0.7510     2.0680 H     1 <1>   0.0800 
 42 H        7.1940     2.0270     1.0590 H     1 <1>   0.0800 
 43 H        8.9060     1.8010     1.1700 H     1 <1>   0.0800 
@<TRIPOS>BOND
  1   1   2  1   
  2   1   3  1   
  3   2   4  ar  
  4   2   5  ar  
  5   3   6  1   
  6   3  18  1   
  7   3  19  1   
  8   4   7  ar  
  9   4  20  1   
 10   5   8  ar  
 11   5  21  1   
 12   6   9  1   
 13   6  22  1   
 14   6  23  1   
 15   7  10  ar  
 16   7  24  1   
 17   8  10  ar  
 18   8  25  1   
 19   9  11  1   
 20   9  26  1   
 21   9  27  1   
 22  10  12  1   
 23  11  13  1   
 24  11  28  1   
 25  11  29  1   
 26  12  30  1   
 27  12  31  1   
 28  12  32  1   
 29  13  14  1   
 30  13  33  1   
 31  13  34  1   
 32  14  15  1   
 33  14  16  1   
 34  14  17  1   
 35  15  35  1   
 36  15  36  1   
 37  15  37  1   
 38  16  38  1   
 39  16  39  1   
 40  16  40  1   
 41  17  41  1   
 42  17  42  1   
 43  17  43  1   
@<TRIPOS>SUBSTRUCTURE
  1 ****   3 GROUP 4 **** **** 0

# MOE 2024.06 (io_trps.svl 2023.06)
