@<TRIPOS>MOLECULE
NONAME
49 50 1 0 0 
SMALL
USER_CHARGES


@<TRIPOS>ATOM
  1 O       -0.9310     1.6400    -1.5790 O.2   1 <1>  -0.5700 
  2 C       -0.5730     2.5090    -0.8000 C.2   1 <1>   0.5440 
  3 N       -1.5030     3.1000     0.0090 N.am  1 <1>  -0.4300 
  4 C        0.8130     2.9350    -0.7520 C.ar  1 <1>   0.0860 
  5 N       -2.8520     2.5830     0.2650 N.am  1 <1>  -0.4300 
  6 C        1.5910     2.9850    -1.9050 C.ar  1 <1>  -0.1500 
  7 C        1.4270     3.3140     0.4410 C.ar  1 <1>  -0.1500 
  8 C       -3.2130     1.8140     1.3270 C.2   1 <1>   0.5690 
  9 C        2.9070     3.4100    -1.8770 C.ar  1 <1>  -0.1500 
 10 C        2.7420     3.7390     0.4710 C.ar  1 <1>  -0.1500 
 11 O       -2.4830     1.6410     2.2810 O.2   1 <1>  -0.5700 
 12 C       -4.5830     1.1520     1.3350 C.3   1 <1>   0.1810 
 13 C        3.5120     3.8010    -0.6860 C.ar  1 <1>  -0.1430 
 14 O       -5.4400     1.7340     0.3610 O.3   1 <1>  -0.3630 
 15 C        4.9780     4.2830    -0.6020 C.3   1 <1>   0.1430 
 16 C       -6.7230     1.3170     0.2210 C.ar  1 <1>   0.0830 
 17 C        5.7730     3.3490     0.3220 C.3   1 <1>  -0.2400 
 18 C        5.0190     5.7120    -0.0420 C.3   1 <1>  -0.2400 
 19 C        5.6880     4.3000    -1.9670 C.3   1 <1>  -0.2400 
 20 C       -7.4940     1.9740    -0.7260 C.ar  1 <1>  -0.1500 
 21 C       -7.2880     0.2850     0.9660 C.ar  1 <1>  -0.1500 
 22 C       -8.8150     1.6180    -0.9370 C.ar  1 <1>  -0.1430 
 23 C       -8.6090    -0.0720     0.7580 C.ar  1 <1>  -0.1500 
 24 C       -9.3700     0.5920    -0.1880 C.ar  1 <1>  -0.1500 
 25 C       -9.6500     2.3470    -1.9740 C.3   1 <1>  -0.0970 
 26 H       -1.2150     3.8950     0.5870 H     1 <1>   0.3700 
 27 H       -3.5320     2.6840    -0.4990 H     1 <1>   0.3700 
 28 H        1.1500     2.6830    -2.8400 H     1 <1>   0.1500 
 29 H        0.8740     3.2650     1.3630 H     1 <1>   0.1500 
 30 H        3.4410     3.4230    -2.8080 H     1 <1>   0.1500 
 31 H        3.1670     4.0210     1.4170 H     1 <1>   0.1500 
 32 H       -5.0320     1.2800     2.3030 H     1 <1>   0.0800 
 33 H       -4.4730     0.1070     1.1120 H     1 <1>   0.0800 
 34 H        5.3810     3.3670     1.3220 H     1 <1>   0.0800 
 35 H        6.8070     3.6440     0.3640 H     1 <1>   0.0800 
 36 H        5.7200     2.3390    -0.0430 H     1 <1>   0.0800 
 37 H        4.4360     6.3680    -0.6640 H     1 <1>   0.0800 
 38 H        6.0300     6.0790    -0.0110 H     1 <1>   0.0800 
 39 H        4.6210     5.7510     0.9550 H     1 <1>   0.0800 
 40 H        5.7150     3.3120    -2.3910 H     1 <1>   0.0800 
 41 H        6.7020     4.6440    -1.8620 H     1 <1>   0.0800 
 42 H        5.1820     4.9600    -2.6480 H     1 <1>   0.0800 
 43 H       -7.0490     2.7690    -1.2950 H     1 <1>   0.1500 
 44 H       -6.7260    -0.2510     1.7070 H     1 <1>   0.1500 
 45 H       -9.0480    -0.8680     1.3340 H     1 <1>   0.1500 
 46 H      -10.3960     0.3070    -0.3390 H     1 <1>   0.1500 
 47 H       -9.0280     2.6980    -2.7780 H     1 <1>   0.0800 
 48 H      -10.1380     3.1900    -1.5200 H     1 <1>   0.0800 
 49 H      -10.3970     1.6920    -2.3850 H     1 <1>   0.0800 
@<TRIPOS>BOND
  1   1   2  2   
  2   2   3  am  
  3   2   4  1   
  4   3   5  1   
  5   3  26  1   
  6   4   6  ar  
  7   4   7  ar  
  8   5   8  am  
  9   5  27  1   
 10   6   9  ar  
 11   6  28  1   
 12   7  10  ar  
 13   7  29  1   
 14   8  11  2   
 15   8  12  1   
 16   9  13  ar  
 17   9  30  1   
 18  10  13  ar  
 19  10  31  1   
 20  12  14  1   
 21  12  32  1   
 22  12  33  1   
 23  13  15  1   
 24  14  16  1   
 25  15  17  1   
 26  15  18  1   
 27  15  19  1   
 28  16  20  ar  
 29  16  21  ar  
 30  17  34  1   
 31  17  35  1   
 32  17  36  1   
 33  18  37  1   
 34  18  38  1   
 35  18  39  1   
 36  19  40  1   
 37  19  41  1   
 38  19  42  1   
 39  20  22  ar  
 40  20  43  1   
 41  21  23  ar  
 42  21  44  1   
 43  22  24  ar  
 44  22  25  1   
 45  23  24  ar  
 46  23  45  1   
 47  24  46  1   
 48  25  47  1   
 49  25  48  1   
 50  25  49  1   
@<TRIPOS>SUBSTRUCTURE
  1 ****   3 GROUP 4 **** **** 0

# MOE 2024.06 (io_trps.svl 2023.06)
