@<TRIPOS>MOLECULE
NONAME
36 37 1 0 0 
SMALL
USER_CHARGES


@<TRIPOS>ATOM
  1 BR      -0.2000    -0.4590    -0.7610 Br    1 <1>  -0.1110 
  2 C        1.5480    -1.0750    -0.2390 C.ar  1 <1>   0.1110 
  3 C        2.1320    -2.1020    -0.9540 C.ar  1 <1>  -0.1500 
  4 C        2.1700    -0.4740     0.8380 C.ar  1 <1>  -0.1500 
  5 C        3.3910    -2.5480    -0.5810 C.ar  1 <1>  -0.1440 
  6 C        3.4260    -0.9190     1.2090 C.ar  1 <1>  -0.1500 
  7 C        4.0420    -1.9520     0.5000 C.ar  1 <1>   0.0830 
  8 C        4.0490    -3.6820    -1.3550 C.3   1 <1>  -0.0960 
  9 O        5.2780    -2.4210     0.8150 O.3   1 <1>  -0.3630 
 10 C        6.1130    -1.7480     1.7470 C.3   1 <1>   0.1810 
 11 C        7.5130    -2.3570     1.7830 C.2   1 <1>   0.5690 
 12 O        7.8740    -2.8260     2.8400 O.2   1 <1>  -0.5700 
 13 N        8.3380    -2.3420     0.6810 N.am  1 <1>  -0.6600 
 14 C        7.9640    -1.8000    -0.6570 C.3   1 <1>   0.1400 
 15 C        9.7040    -2.9370     0.7300 C.3   1 <1>   0.1400 
 16 C        8.9850    -0.7430    -1.0920 C.3   1 <1>  -0.1600 
 17 C       10.7410    -1.8900     0.3080 C.3   1 <1>  -0.1600 
 18 C       10.4170    -1.2960    -1.0700 C.3   1 <1>  -0.1600 
 19 H        1.6050    -2.5390    -1.7820 H     1 <1>   0.1500 
 20 H        1.6790     0.3210     1.3700 H     1 <1>   0.1500 
 21 H        3.9020    -0.4540     2.0510 H     1 <1>   0.1500 
 22 H        3.4070    -4.0460    -2.1350 H     1 <1>   0.0800 
 23 H        4.2730    -4.4950    -0.6870 H     1 <1>   0.0800 
 24 H        4.9670    -3.3380    -1.7960 H     1 <1>   0.0800 
 25 H        5.6630    -1.8330     2.7190 H     1 <1>   0.0800 
 26 H        6.1830    -0.7150     1.4650 H     1 <1>   0.0800 
 27 H        6.9850    -1.3590    -0.6450 H     1 <1>   0.0800 
 28 H        7.9520    -2.6090    -1.3670 H     1 <1>   0.0800 
 29 H        9.7410    -3.7810     0.0630 H     1 <1>   0.0800 
 30 H        9.9330    -3.2880     1.7220 H     1 <1>   0.0800 
 31 H        8.9130     0.1030    -0.4310 H     1 <1>   0.0800 
 32 H        8.7450    -0.4050    -2.0850 H     1 <1>   0.0800 
 33 H       11.7150    -2.3460     0.2870 H     1 <1>   0.0800 
 34 H       10.7610    -1.1090     1.0470 H     1 <1>   0.0800 
 35 H       11.1150    -0.5100    -1.3010 H     1 <1>   0.0800 
 36 H       10.5160    -2.0610    -1.8200 H     1 <1>   0.0800 
@<TRIPOS>BOND
  1   1   2  1   
  2   2   3  ar  
  3   2   4  ar  
  4   3   5  ar  
  5   3  19  1   
  6   4   6  ar  
  7   4  20  1   
  8   5   7  ar  
  9   5   8  1   
 10   6   7  ar  
 11   6  21  1   
 12   7   9  1   
 13   8  22  1   
 14   8  23  1   
 15   8  24  1   
 16   9  10  1   
 17  10  11  1   
 18  10  25  1   
 19  10  26  1   
 20  11  12  2   
 21  11  13  am  
 22  13  14  1   
 23  13  15  1   
 24  14  16  1   
 25  14  27  1   
 26  14  28  1   
 27  15  17  1   
 28  15  29  1   
 29  15  30  1   
 30  16  18  1   
 31  16  31  1   
 32  16  32  1   
 33  17  18  1   
 34  17  33  1   
 35  17  34  1   
 36  18  35  1   
 37  18  36  1   
@<TRIPOS>SUBSTRUCTURE
  1 ****   9 GROUP 4 **** **** 0

# MOE 2024.06 (io_trps.svl 2023.06)
