@<TRIPOS>MOLECULE
NONAME
45 46 1 0 0 
SMALL
USER_CHARGES


@<TRIPOS>ATOM
  1 O       -1.1300    -0.0770    -0.7580 O.3   1 <1>  -0.3630 
  2 C       -2.1550    -0.7700    -0.1930 C.ar  1 <1>   0.0830 
  3 C       -0.5900    -0.4370    -2.0100 C.3   1 <1>   0.0400 
  4 C       -2.5950    -0.3620     1.0600 C.ar  1 <1>  -0.1440 
  5 C       -2.7690    -1.8540    -0.8140 C.ar  1 <1>  -0.1500 
  6 C       -3.6350    -1.0420     1.6710 C.ar  1 <1>  -0.1500 
  7 C       -1.9450     0.8210     1.7630 C.3   1 <1>  -0.0960 
  8 C       -3.8110    -2.5320    -0.2020 C.ar  1 <1>  -0.1430 
  9 C       -4.2460    -2.1250     1.0560 C.ar  1 <1>  -0.1430 
 10 C       -4.4530    -3.7070    -0.9300 C.3   1 <1>  -0.0970 
 11 C       -5.3860    -2.8170     1.7920 C.3   1 <1>   0.3530 
 12 N       -6.6310    -2.0890     1.4760 N.pl3 1 <1>  -0.8690 
 13 C       -7.6280    -2.7770     0.7970 C.ar  1 <1>   0.1000 
 14 C       -8.1750    -3.9450     1.3120 C.ar  1 <1>  -0.1500 
 15 C       -8.0900    -2.2980    -0.4200 C.ar  1 <1>  -0.1500 
 16 C       -9.1500    -4.6400     0.6210 C.ar  1 <1>   0.0830 
 17 C       -9.0710    -2.9860    -1.1240 C.ar  1 <1>   0.0830 
 18 O       -9.6180    -5.7780     1.1990 O.3   1 <1>  -0.3620 
 19 C       -9.5980    -4.1570    -0.6040 C.ar  1 <1>  -0.1500 
 20 O       -9.5630    -2.5810    -2.3240 O.3   1 <1>  -0.3630 
 21 C      -10.6580    -6.5190     0.6020 C.3   1 <1>   0.0400 
 22 C       -9.1220    -1.3820    -2.9240 C.3   1 <1>   0.0400 
 23 H        0.2120     0.2430    -2.2350 H     1 <1>   0.0800 
 24 H       -1.3590    -0.3570    -2.7570 H     1 <1>   0.0800 
 25 H       -0.2100    -1.4420    -1.9490 H     1 <1>   0.0800 
 26 H       -2.4430    -2.1810    -1.7820 H     1 <1>   0.1500 
 27 H       -3.9780    -0.7230     2.6400 H     1 <1>   0.1500 
 28 H       -0.8990     0.6230     1.9130 H     1 <1>   0.0800 
 29 H       -2.4010     1.0080     2.7180 H     1 <1>   0.0800 
 30 H       -2.0450     1.7030     1.1550 H     1 <1>   0.0800 
 31 H       -4.0640    -3.8050    -1.9270 H     1 <1>   0.0800 
 32 H       -5.5160    -3.5660    -1.0020 H     1 <1>   0.0800 
 33 H       -4.2570    -4.6210    -0.4000 H     1 <1>   0.0800 
 34 H       -5.2170    -2.7800     2.8540 H     1 <1>   0.0800 
 35 H       -5.4620    -3.8500     1.5030 H     1 <1>   0.0800 
 36 H       -6.3620    -1.2110     1.0180 H     1 <1>   0.4000 
 37 H       -7.8420    -4.3130     2.2630 H     1 <1>   0.1500 
 38 H       -7.6630    -1.3910    -0.7990 H     1 <1>   0.1500 
 39 H      -10.3510    -4.6640    -1.1720 H     1 <1>   0.1500 
 40 H      -10.8810    -7.3550     1.2400 H     1 <1>   0.0800 
 41 H      -10.3290    -6.8700    -0.3600 H     1 <1>   0.0800 
 42 H      -11.5250    -5.8900     0.5080 H     1 <1>   0.0800 
 43 H       -9.6540    -1.2560    -3.8490 H     1 <1>   0.0800 
 44 H       -8.0660    -1.4560    -3.1160 H     1 <1>   0.0800 
 45 H       -9.3380    -0.5620    -2.2630 H     1 <1>   0.0800 
@<TRIPOS>BOND
  1   1   2  1   
  2   1   3  1   
  3   2   4  ar  
  4   2   5  ar  
  5   3  23  1   
  6   3  24  1   
  7   3  25  1   
  8   4   6  ar  
  9   4   7  1   
 10   5   8  ar  
 11   5  26  1   
 12   6   9  ar  
 13   6  27  1   
 14   7  28  1   
 15   7  29  1   
 16   7  30  1   
 17   8   9  ar  
 18   8  10  1   
 19   9  11  1   
 20  10  31  1   
 21  10  32  1   
 22  10  33  1   
 23  11  12  1   
 24  11  34  1   
 25  11  35  1   
 26  12  13  1   
 27  12  36  1   
 28  13  14  ar  
 29  13  15  ar  
 30  14  16  ar  
 31  14  37  1   
 32  15  17  ar  
 33  15  38  1   
 34  16  18  1   
 35  16  19  ar  
 36  17  19  ar  
 37  17  20  1   
 38  18  21  1   
 39  19  39  1   
 40  20  22  1   
 41  21  40  1   
 42  21  41  1   
 43  21  42  1   
 44  22  43  1   
 45  22  44  1   
 46  22  45  1   
@<TRIPOS>SUBSTRUCTURE
  1 ****  12 GROUP 4 **** **** 0

# MOE 2024.06 (io_trps.svl 2023.06)
