@<TRIPOS>MOLECULE
NONAME
35 36 1 0 0 
SMALL
USER_CHARGES


@<TRIPOS>ATOM
  1 O        0.2610    -0.7980    -0.9610 O.3   1 <1>  -0.3630 
  2 C       -0.9650    -1.1380    -0.5030 C.ar  1 <1>   0.0820 
  3 C        1.3170    -0.9450    -0.0420 C.3   1 <1>   0.1200 
  4 C       -1.4230    -2.4420    -0.6700 C.ar  1 <1>  -0.1440 
  5 C       -1.7590    -0.1800     0.1210 C.ar  1 <1>  -0.1440 
  6 C        2.6090    -0.5420    -0.7430 C.3   1 <1>   0.0960 
  7 C       -2.6700    -2.7870    -0.1760 C.ar  1 <1>  -0.1500 
  8 C       -0.5880    -3.4930    -1.3880 C.3   1 <1>  -0.0960 
  9 C       -3.0020    -0.5490     0.6070 C.ar  1 <1>  -0.1500 
 10 C       -1.2980     1.2630     0.2750 C.3   1 <1>  -0.0960 
 11 N        3.7400    -0.6520     0.1950 N.pl3 1 <1>   0.0480 
 12 C       -3.4610    -1.8490     0.4670 C.ar  1 <1>  -0.1430 
 13 C        4.3000     0.3300     0.9370 C.2   1 <1>   0.0360 
 14 C        4.4330    -1.7590     0.5150 C.2   1 <1>  -0.3020 
 15 C       -4.8250    -2.2400     1.0050 C.3   1 <1>  -0.0970 
 16 N        5.2750    -0.0690     1.6870 N.2   1 <1>  -0.5650 
 17 C        5.3620    -1.3850     1.4220 C.2   1 <1>   0.0770 
 18 H        1.3530    -1.9730     0.2720 H     1 <1>   0.0800 
 19 H        1.1210    -0.3090     0.8030 H     1 <1>   0.0800 
 20 H        2.5390     0.4740    -1.0860 H     1 <1>   0.0800 
 21 H        2.7900    -1.1900    -1.5810 H     1 <1>   0.0800 
 22 H       -3.0330    -3.7920    -0.2930 H     1 <1>   0.1500 
 23 H       -0.1180    -3.0640    -2.2550 H     1 <1>   0.0800 
 24 H       -1.2030    -4.3130    -1.7120 H     1 <1>   0.0800 
 25 H        0.1710    -3.8710    -0.7290 H     1 <1>   0.0800 
 26 H       -3.6230     0.1800     1.0970 H     1 <1>   0.1500 
 27 H       -0.6340     1.3470     1.1150 H     1 <1>   0.0800 
 28 H       -2.1380     1.9150     0.4310 H     1 <1>   0.0800 
 29 H       -0.7850     1.5860    -0.6130 H     1 <1>   0.0800 
 30 H        3.9510     1.3470     0.8950 H     1 <1>   0.1500 
 31 H        4.2380    -2.7290     0.0950 H     1 <1>   0.1500 
 32 H       -4.8330    -3.2750     1.2940 H     1 <1>   0.0800 
 33 H       -5.5710    -2.0840     0.2470 H     1 <1>   0.0800 
 34 H       -5.0750    -1.6460     1.8660 H     1 <1>   0.0800 
 35 H        6.1000    -2.0030     1.9070 H     1 <1>   0.1500 
@<TRIPOS>BOND
  1   1   2  1   
  2   1   3  1   
  3   2   4  ar  
  4   2   5  ar  
  5   3   6  1   
  6   3  18  1   
  7   3  19  1   
  8   4   7  ar  
  9   4   8  1   
 10   5   9  ar  
 11   5  10  1   
 12   6  11  1   
 13   6  20  1   
 14   6  21  1   
 15   7  12  ar  
 16   7  22  1   
 17   8  23  1   
 18   8  24  1   
 19   8  25  1   
 20   9  12  ar  
 21   9  26  1   
 22  10  27  1   
 23  10  28  1   
 24  10  29  1   
 25  11  13  1   
 26  11  14  1   
 27  12  15  1   
 28  13  16  2   
 29  13  30  1   
 30  14  17  2   
 31  14  31  1   
 32  15  32  1   
 33  15  33  1   
 34  15  34  1   
 35  16  17  1   
 36  17  35  1   
@<TRIPOS>SUBSTRUCTURE
  1 ****   3 GROUP 4 **** **** 0

# MOE 2024.06 (io_trps.svl 2023.06)
