@<TRIPOS>MOLECULE
NONAME
47 50 1 0 0 
SMALL
USER_CHARGES


@<TRIPOS>ATOM
  1 O       -0.6730     0.9840    -1.6200 O.2   1 <1>  -0.5700 
  2 C       -1.5110     1.6320    -1.0470 C.2   1 <1>   0.5690 
  3 N       -1.3500     2.8150    -0.3660 N.am  1 <1>  -0.4200 
  4 C       -2.9660     1.2440    -0.8740 C.3   1 <1>   0.2510 
  5 C       -2.5820     3.3250    -0.0410 C.2   1 <1>   0.5690 
  6 C       -0.0710     3.4570     0.0210 C.3   1 <1>   0.2200 
  7 N       -3.9790     0.5460    -1.6650 N.pl3 1 <1>  -0.5280 
  8 C       -3.6060     2.6060    -0.8710 C.3   1 <1>   0.0420 
  9 O       -2.8100     4.1980     0.7520 O.2   1 <1>  -0.5700 
 10 C        0.7050     3.9130    -1.2240 C.3   1 <1>  -0.1600 
 11 C        0.7710     2.5170     0.8960 C.3   1 <1>  -0.1600 
 12 N       -5.2030     1.0300    -1.3480 N.2   1 <1>  -0.5030 
 13 C       -5.0590     2.1960    -0.7900 C.2   1 <1>   0.3890 
 14 C        2.0360     4.5710    -0.8310 C.3   1 <1>  -0.1600 
 15 C        2.1010     3.1770     1.2880 C.3   1 <1>  -0.1600 
 16 C       -6.0460     3.0800    -0.2420 C.2   1 <1>   0.7200 
 17 C        2.8790     3.6350     0.0460 C.3   1 <1>  -0.1600 
 18 O       -5.8120     4.2310     0.0870 O.2   1 <1>  -0.5700 
 19 O       -7.2980     2.6320    -0.0840 O.3   1 <1>  -0.4300 
 20 C       -8.3050     3.4600     0.4610 C.3   1 <1>   0.2630 
 21 C       -9.6260     2.7050     0.4800 C.ar  1 <1>  -0.1440 
 22 C       -9.6940     1.4120     0.9800 C.ar  1 <1>  -0.1500 
 23 C      -10.7810     3.3070     0.0030 C.ar  1 <1>  -0.1500 
 24 C      -10.8990     0.7320     1.0040 C.ar  1 <1>  -0.1500 
 25 C      -11.9870     2.6280     0.0270 C.ar  1 <1>  -0.1500 
 26 C      -12.0470     1.3400     0.5280 C.ar  1 <1>  -0.1500 
 27 H       -3.0260     0.8170     0.1140 H     1 <1>   0.0800 
 28 H       -0.2970     4.3340     0.6050 H     1 <1>   0.0800 
 29 H       -3.8060    -0.4140    -2.0050 H     1 <1>   0.3110 
 30 H       -3.5040     3.0410    -1.8500 H     1 <1>   0.0800 
 31 H        0.1130     4.6170    -1.7820 H     1 <1>   0.0800 
 32 H        0.9140     3.0660    -1.8550 H     1 <1>   0.0800 
 33 H        0.9850     1.6100     0.3580 H     1 <1>   0.0800 
 34 H        0.2240     2.2670     1.7880 H     1 <1>   0.0800 
 35 H        1.8400     5.4830    -0.2940 H     1 <1>   0.0800 
 36 H        2.5880     4.8250    -1.7200 H     1 <1>   0.0800 
 37 H        2.6990     2.4780     1.8490 H     1 <1>   0.0800 
 38 H        1.9080     4.0270     1.9210 H     1 <1>   0.0800 
 39 H        3.7790     4.1410     0.3510 H     1 <1>   0.0800 
 40 H        3.1670     2.7720    -0.5300 H     1 <1>   0.0800 
 41 H       -8.3800     4.3460    -0.1460 H     1 <1>   0.0800 
 42 H       -8.0170     3.7340     1.4620 H     1 <1>   0.0800 
 43 H       -8.8060     0.9300     1.3490 H     1 <1>   0.1500 
 44 H      -10.7500     4.3090    -0.3900 H     1 <1>   0.1500 
 45 H      -10.9420    -0.2710     1.3920 H     1 <1>   0.1500 
 46 H      -12.8790     3.1020    -0.3450 H     1 <1>   0.1500 
 47 H      -12.9840     0.8110     0.5470 H     1 <1>   0.1500 
@<TRIPOS>BOND
  1   1   2  2   
  2   2   3  am  
  3   2   4  1   
  4   3   5  am  
  5   3   6  1   
  6   4   7  1   
  7   4   8  1   
  8   4  27  1   
  9   5   8  1   
 10   5   9  2   
 11   6  10  1   
 12   6  11  1   
 13   6  28  1   
 14   7  12  1   
 15   7  29  1   
 16   8  13  1   
 17   8  30  1   
 18  10  14  1   
 19  10  31  1   
 20  10  32  1   
 21  11  15  1   
 22  11  33  1   
 23  11  34  1   
 24  12  13  2   
 25  13  16  1   
 26  14  17  1   
 27  14  35  1   
 28  14  36  1   
 29  15  17  1   
 30  15  37  1   
 31  15  38  1   
 32  16  18  2   
 33  16  19  1   
 34  17  39  1   
 35  17  40  1   
 36  19  20  1   
 37  20  21  1   
 38  20  41  1   
 39  20  42  1   
 40  21  22  ar  
 41  21  23  ar  
 42  22  24  ar  
 43  22  43  1   
 44  23  25  ar  
 45  23  44  1   
 46  24  26  ar  
 47  24  45  1   
 48  25  26  ar  
 49  25  46  1   
 50  26  47  1   
@<TRIPOS>SUBSTRUCTURE
  1 ****  13 GROUP 4 **** **** 0

# MOE 2024.06 (io_trps.svl 2023.06)
