@<TRIPOS>MOLECULE
NONAME
41 44 1 0 0 
SMALL
USER_CHARGES


@<TRIPOS>ATOM
  1 CL      -0.2790     0.4530    -0.3780 Cl    1 <1>  -0.1230 
  2 C        0.4250     1.9860     0.1220 C.2   1 <1>   0.1230 
  3 C        1.7420     2.2880     0.0360 C.2   1 <1>  -0.0260 
  4 C       -0.2360     3.0810     0.6720 C.2   1 <1>   0.2030 
  5 N        2.8120     1.5600    -0.4340 N.2   1 <1>  -0.5760 
  6 N        1.8430     3.5600     0.5420 N.pl3 1 <1>   0.6010 
  7 N        0.6480     4.0440     0.9240 N.2   1 <1>  -0.7070 
  8 C       -1.6730     3.1510     0.9210 C.2   1 <1>   0.7160 
  9 C        3.9970     2.1080    -0.3960 C.2   1 <1>   0.5210 
 10 C        3.0830     4.1520     0.5880 C.2   1 <1>  -0.1690 
 11 O       -2.1410     3.9190     1.7430 O.2   1 <1>  -0.5700 
 12 N       -2.5440     2.3520     0.2340 N.am  1 <1>  -0.7300 
 13 C        5.1660     1.3990    -0.8730 C.2   1 <1>   0.0550 
 14 C        4.1480     3.4360     0.1250 C.2   1 <1>  -0.1360 
 15 C        3.1230     5.5550     1.1560 C.3   1 <1>   1.1580 
 16 C       -4.0020     2.2830     0.4170 C.3   1 <1>   0.2200 
 17 O        5.0460     0.1840    -1.4030 O.3   1 <1>  -0.2800 
 18 C        6.4890     1.7390    -0.8970 C.2   1 <1>  -0.1500 
 19 F        4.3630     6.0300     1.1520 F     1 <1>  -0.3400 
 20 F        2.7200     5.6220     2.4160 F     1 <1>  -0.3400 
 21 F        2.4070     6.4240     0.4580 F     1 <1>  -0.3400 
 22 C       -4.3590     0.8920     0.9260 C.3   1 <1>  -0.1600 
 23 C       -4.6620     2.3320    -0.9550 C.3   1 <1>  -0.1600 
 24 C        6.2340    -0.2510    -1.7600 C.2   1 <1>  -0.0100 
 25 C        7.1760     0.6690    -1.4720 C.2   1 <1>  -0.1500 
 26 C       -4.3610    -0.0160    -0.3100 C.3   1 <1>  -0.1600 
 27 C       -4.5600     0.9090    -1.5180 C.3   1 <1>  -0.1600 
 28 H       -2.1750     1.6510    -0.4100 H     1 <1>   0.3700 
 29 H        5.1410     3.8460     0.1350 H     1 <1>   0.1500 
 30 H       -4.3500     3.0660     1.0710 H     1 <1>   0.0800 
 31 H        6.9640     2.6400    -0.5540 H     1 <1>   0.1500 
 32 H       -5.3530     0.9270     1.3350 H     1 <1>   0.0800 
 33 H       -3.6850     0.5530     1.6930 H     1 <1>   0.0800 
 34 H       -4.2150     3.0690    -1.5980 H     1 <1>   0.0800 
 35 H       -5.7010     2.5800    -0.8210 H     1 <1>   0.0800 
 36 H        6.3180    -1.2250    -2.2100 H     1 <1>   0.1500 
 37 H        8.2370     0.6150    -1.6390 H     1 <1>   0.1500 
 38 H       -5.1430    -0.7520    -0.2440 H     1 <1>   0.0800 
 39 H       -3.4140    -0.5230    -0.3930 H     1 <1>   0.0800 
 40 H       -3.7100     0.8340    -2.1760 H     1 <1>   0.0800 
 41 H       -5.4470     0.6500    -2.0700 H     1 <1>   0.0800 
@<TRIPOS>BOND
  1   1   2  1   
  2   2   3  2   
  3   2   4  1   
  4   3   5  1   
  5   3   6  1   
  6   4   7  2   
  7   4   8  1   
  8   5   9  2   
  9   6   7  1   
 10   6  10  1   
 11   8  11  2   
 12   8  12  am  
 13   9  13  1   
 14   9  14  1   
 15  10  14  2   
 16  10  15  1   
 17  12  16  1   
 18  12  28  1   
 19  13  17  1   
 20  13  18  2   
 21  14  29  1   
 22  15  19  1   
 23  15  20  1   
 24  15  21  1   
 25  16  22  1   
 26  16  23  1   
 27  16  30  1   
 28  17  24  1   
 29  18  25  1   
 30  18  31  1   
 31  22  26  1   
 32  22  32  1   
 33  22  33  1   
 34  23  27  1   
 35  23  34  1   
 36  23  35  1   
 37  24  25  2   
 38  24  36  1   
 39  25  37  1   
 40  26  27  1   
 41  26  38  1   
 42  26  39  1   
 43  27  40  1   
 44  27  41  1   
@<TRIPOS>SUBSTRUCTURE
  1 ****   3 GROUP 4 **** **** 0

# MOE 2024.06 (io_trps.svl 2023.06)
