@<TRIPOS>MOLECULE
NONAME
30 30 1 0 0 
SMALL
USER_CHARGES


@<TRIPOS>ATOM
  1 O       -0.8030    -1.5300    -2.0220 O.2   1 <1>  -0.5700 
  2 C       -0.4610    -1.9450    -0.9370 C.2   1 <1>   0.6900 
  3 N       -1.2100    -1.8130     0.1780 N.am  1 <1>  -0.7300 
  4 N        0.7110    -2.5690    -0.8290 N.am  1 <1>  -0.8000 
  5 C       -2.4940    -1.0800     0.3080 C.3   1 <1>   0.2200 
  6 C       -3.5500    -1.6400    -0.6620 C.3   1 <1>  -0.0170 
  7 C       -2.2690     0.4350     0.1430 C.3   1 <1>  -0.1600 
  8 C       -4.9480    -1.1390    -0.3210 C.ar  1 <1>  -0.1440 
  9 C       -1.2530     1.0160     1.1390 C.3   1 <1>  -0.2400 
 10 C       -5.6580    -1.7100     0.7240 C.ar  1 <1>  -0.1500 
 11 C       -5.5220    -0.1100    -1.0500 C.ar  1 <1>  -0.1500 
 12 C       -6.9260    -1.2540     1.0400 C.ar  1 <1>  -0.1500 
 13 C       -6.7900     0.3480    -0.7360 C.ar  1 <1>  -0.1500 
 14 C       -7.4930    -0.2240     0.3100 C.ar  1 <1>  -0.1500 
 15 H       -0.7200    -1.9400     1.0580 H     1 <1>   0.3700 
 16 H        1.2190    -2.7380    -1.6950 H     1 <1>   0.3700 
 17 H        0.9100    -3.1970    -0.0560 H     1 <1>   0.3700 
 18 H       -2.8570    -1.2500     1.3070 H     1 <1>   0.0800 
 19 H       -3.5460    -2.7130    -0.6060 H     1 <1>   0.0800 
 20 H       -3.3070    -1.3620    -1.6710 H     1 <1>   0.0800 
 21 H       -3.2070     0.9400     0.2890 H     1 <1>   0.0800 
 22 H       -1.9470     0.6420    -0.8640 H     1 <1>   0.0800 
 23 H       -1.5500     0.8020     2.1500 H     1 <1>   0.0800 
 24 H       -1.1960     2.0840     1.0170 H     1 <1>   0.0800 
 25 H       -0.2730     0.6070     0.9650 H     1 <1>   0.0800 
 26 H       -5.2280    -2.5130     1.2960 H     1 <1>   0.1500 
 27 H       -4.9830     0.3400    -1.8660 H     1 <1>   0.1500 
 28 H       -7.4720    -1.7010     1.8520 H     1 <1>   0.1500 
 29 H       -7.2280     1.1480    -1.3060 H     1 <1>   0.1500 
 30 H       -8.4790     0.1320     0.5550 H     1 <1>   0.1500 
@<TRIPOS>BOND
  1   1   2  2   
  2   2   3  am  
  3   2   4  am  
  4   3   5  1   
  5   3  15  1   
  6   4  16  1   
  7   4  17  1   
  8   5   6  1   
  9   5   7  1   
 10   5  18  1   
 11   6   8  1   
 12   6  19  1   
 13   6  20  1   
 14   7   9  1   
 15   7  21  1   
 16   7  22  1   
 17   8  10  ar  
 18   8  11  ar  
 19   9  23  1   
 20   9  24  1   
 21   9  25  1   
 22  10  12  ar  
 23  10  26  1   
 24  11  13  ar  
 25  11  27  1   
 26  12  14  ar  
 27  12  28  1   
 28  13  14  ar  
 29  13  29  1   
 30  14  30  1   
@<TRIPOS>SUBSTRUCTURE
  1 ****   6 GROUP 4 **** **** 0

# MOE 2024.06 (io_trps.svl 2023.06)
