@<TRIPOS>MOLECULE
NONAME
41 42 1 0 0 
SMALL
USER_CHARGES


@<TRIPOS>ATOM
  1 S       -0.1710     0.0440     1.3650 S.3   1 <1>  -0.3710 
  2 C        1.0230    -0.8260     0.4180 C.2   1 <1>   0.6510 
  3 C       -0.0250     1.5590     0.3480 C.3   1 <1>   0.6740 
  4 N        1.5260    -0.1550    -0.5300 N.2   1 <1>  -0.5120 
  5 N        1.2350    -2.1170     0.8510 N.am  1 <1>  -0.4900 
  6 N        1.0250     1.1580    -0.6560 N.am  1 <1>  -0.2980 
  7 C       -1.4270     1.7670    -0.2660 C.ar  1 <1>  -0.1440 
  8 C        0.4850     2.6610     1.3180 C.3   1 <1>   0.1400 
  9 C        2.1190    -3.0330     0.3840 C.2   1 <1>   0.5690 
 10 C        1.4220     2.0140    -1.6590 C.2   1 <1>   0.5690 
 11 C       -1.7890     1.1230    -1.4470 C.ar  1 <1>  -0.1500 
 12 C       -2.3760     2.5770     0.3530 C.ar  1 <1>  -0.1500 
 13 N        0.4670     4.0530     0.7690 N.am  1 <1>  -0.7300 
 14 O        2.9010    -2.8200    -0.5050 O.2   1 <1>  -0.5700 
 15 C        2.1160    -4.3970     1.0290 C.3   1 <1>  -0.1790 
 16 O        1.0170     3.1480    -1.7720 O.2   1 <1>  -0.5700 
 17 C        2.4260     1.5290    -2.6830 C.3   1 <1>  -0.1790 
 18 C       -3.0470     1.2970    -1.9980 C.ar  1 <1>  -0.1500 
 19 C       -3.6330     2.7510    -0.1970 C.ar  1 <1>  -0.1500 
 20 C       -0.1160     5.1180     1.3620 C.2   1 <1>   0.5690 
 21 C       -3.9710     2.1130    -1.3750 C.ar  1 <1>  -0.1500 
 22 O       -0.6100     5.0520     2.4590 O.2   1 <1>  -0.5700 
 23 C       -0.1570     6.4160     0.6010 C.3   1 <1>  -0.1790 
 24 H        0.6330    -2.3940     1.6190 H     1 <1>   0.3700 
 25 H        1.4910     2.4210     1.6110 H     1 <1>   0.0800 
 26 H       -0.1200     2.6350     2.2070 H     1 <1>   0.0800 
 27 H       -1.0980     0.4740    -1.9560 H     1 <1>   0.1500 
 28 H       -2.1580     3.0880     1.2760 H     1 <1>   0.1500 
 29 H        0.7580     4.1240    -0.2200 H     1 <1>   0.3700 
 30 H        2.3620    -4.3110     2.0710 H     1 <1>   0.0800 
 31 H        2.8490    -5.0230     0.5530 H     1 <1>   0.0800 
 32 H        1.1500    -4.8530     0.9210 H     1 <1>   0.0800 
 33 H        2.6290     2.3030    -3.3990 H     1 <1>   0.0800 
 34 H        2.0340     0.6710    -3.1960 H     1 <1>   0.0800 
 35 H        3.3410     1.2570    -2.1910 H     1 <1>   0.0800 
 36 H       -3.3050     0.7950    -2.9150 H     1 <1>   0.1500 
 37 H       -4.3500     3.3860     0.2960 H     1 <1>   0.1500 
 38 H       -4.9480     2.2500    -1.8030 H     1 <1>   0.1500 
 39 H       -0.6650     7.1620     1.1830 H     1 <1>   0.0800 
 40 H       -0.6810     6.2740    -0.3250 H     1 <1>   0.0800 
 41 H        0.8440     6.7480     0.4000 H     1 <1>   0.0800 
@<TRIPOS>BOND
  1   1   2  1   
  2   1   3  1   
  3   2   4  2   
  4   2   5  1   
  5   3   6  1   
  6   3   7  1   
  7   3   8  1   
  8   4   6  1   
  9   5   9  am  
 10   5  24  1   
 11   6  10  am  
 12   7  11  ar  
 13   7  12  ar  
 14   8  13  1   
 15   8  25  1   
 16   8  26  1   
 17   9  14  2   
 18   9  15  1   
 19  10  16  2   
 20  10  17  1   
 21  11  18  ar  
 22  11  27  1   
 23  12  19  ar  
 24  12  28  1   
 25  13  20  am  
 26  13  29  1   
 27  15  30  1   
 28  15  31  1   
 29  15  32  1   
 30  17  33  1   
 31  17  34  1   
 32  17  35  1   
 33  18  21  ar  
 34  18  36  1   
 35  19  21  ar  
 36  19  37  1   
 37  20  22  2   
 38  20  23  1   
 39  21  38  1   
 40  23  39  1   
 41  23  40  1   
 42  23  41  1   
@<TRIPOS>SUBSTRUCTURE
  1 ****   3 GROUP 4 **** **** 0

# MOE 2024.06 (io_trps.svl 2023.06)
