@<TRIPOS>MOLECULE
NONAME
30 30 1 0 0 
SMALL
USER_CHARGES


@<TRIPOS>ATOM
  1 S        0.0120    -0.0380    -1.2990 S.o2  1 <1>   1.3330 
  2 O       -0.0590     1.4000    -1.2320 O.2   1 <1>  -0.6500 
  3 O       -0.4140    -0.7570    -2.4730 O.2   1 <1>  -0.6500 
  4 N        1.6570    -0.4940    -1.1320 N.am  1 <1>  -0.7570 
  5 C       -0.7420    -0.7800     0.1540 C.3   1 <1>  -0.0550 
  6 C        2.6550     0.0310    -0.3180 C.ar  1 <1>   0.1990 
  7 C       -2.2630    -0.5670     0.2590 C.3   1 <1>  -0.2400 
  8 C        3.9450    -0.4640    -0.4500 C.ar  1 <1>  -0.1500 
  9 C        2.4220     1.0270     0.6270 C.ar  1 <1>  -0.1500 
 10 C        4.9870     0.0090     0.3310 C.ar  1 <1>   0.1170 
 11 C        3.4500     1.5030     1.4210 C.ar  1 <1>  -0.1500 
 12 N        6.2720    -0.5180     0.1660 N.am  1 <1>  -0.5470 
 13 C        4.7270     0.9930     1.2760 C.ar  1 <1>  -0.1500 
 14 C        7.4500     0.1020    -0.0940 C.2   1 <1>   0.5690 
 15 O        8.4570    -0.5480    -0.1970 O.2   1 <1>  -0.5700 
 16 C        7.5230     1.6000    -0.2790 C.3   1 <1>  -0.1790 
 17 H        1.9270    -1.0680    -1.9260 H     1 <1>   0.4200 
 18 H       -0.2800    -0.3740     1.0330 H     1 <1>   0.0800 
 19 H       -0.5460    -1.8350     0.1460 H     1 <1>   0.0800 
 20 H       -2.4870     0.4850     0.2970 H     1 <1>   0.0800 
 21 H       -2.6450    -1.0360     1.1490 H     1 <1>   0.0800 
 22 H       -2.7570    -0.9930    -0.5970 H     1 <1>   0.0800 
 23 H        4.1440    -1.2290    -1.1760 H     1 <1>   0.1500 
 24 H        1.4410     1.4450     0.7510 H     1 <1>   0.1500 
 25 H        3.2550     2.2710     2.1500 H     1 <1>   0.1500 
 26 H        6.3610    -1.5350     0.1800 H     1 <1>   0.3700 
 27 H        5.5230     1.3570     1.9020 H     1 <1>   0.1500 
 28 H        6.6770     1.9480    -0.8410 H     1 <1>   0.0800 
 29 H        8.4200     1.8520    -0.8130 H     1 <1>   0.0800 
 30 H        7.5430     2.0820     0.6790 H     1 <1>   0.0800 
@<TRIPOS>BOND
  1   1   2  2   
  2   1   3  2   
  3   1   4  am  
  4   1   5  1   
  5   4   6  1   
  6   4  17  1   
  7   5   7  1   
  8   5  18  1   
  9   5  19  1   
 10   6   8  ar  
 11   6   9  ar  
 12   7  20  1   
 13   7  21  1   
 14   7  22  1   
 15   8  10  ar  
 16   8  23  1   
 17   9  11  ar  
 18   9  24  1   
 19  10  12  1   
 20  10  13  ar  
 21  11  13  ar  
 22  11  25  1   
 23  12  14  am  
 24  12  26  1   
 25  13  27  1   
 26  14  15  2   
 27  14  16  1   
 28  16  28  1   
 29  16  29  1   
 30  16  30  1   
@<TRIPOS>SUBSTRUCTURE
  1 ****   6 GROUP 4 **** **** 0

# MOE 2024.06 (io_trps.svl 2023.06)
