@<TRIPOS>MOLECULE
NONAME
39 40 1 0 0 
SMALL
USER_CHARGES


@<TRIPOS>ATOM
  1 O        0.6610    -0.1660     0.2210 O.3   1 <1>  -0.3630 
  2 C        1.8600    -0.7380     0.0280 C.ar  1 <1>   0.7020 
  3 C        0.4570     1.2270     0.0870 C.3   1 <1>   0.0400 
  4 N        1.8760    -2.0340     0.1840 N.ar  1 <1>  -0.6200 
  5 N        2.8730     0.0260    -0.2870 N.ar  1 <1>  -0.6200 
  6 C        3.0610    -2.5590    -0.0120 C.ar  1 <1>   0.7030 
  7 C        3.9850    -0.6320    -0.4530 C.ar  1 <1>   0.7200 
  8 O        3.2000    -3.8870     0.1220 O.3   1 <1>  -0.3630 
  9 N        4.1510    -1.9210    -0.3290 N.ar  1 <1>  -0.6200 
 10 N        5.0520     0.1300    -0.7750 N.pl3 1 <1>  -0.8690 
 11 C        2.1150    -4.7300     0.4600 C.3   1 <1>   0.0400 
 12 C        6.4490    -0.3350    -0.9500 C.3   1 <1>   0.2090 
 13 C        7.2080    -0.2070     0.3710 C.3   1 <1>  -0.0220 
 14 C        8.6590    -0.6500     0.2280 C.2   1 <1>  -0.2760 
 15 C        9.6770     0.2160     0.1770 C.2   1 <1>  -0.2880 
 16 C        8.8620    -2.1620     0.1670 C.3   1 <1>  -0.0220 
 17 C       11.1400    -0.1820     0.0690 C.3   1 <1>  -0.0220 
 18 C       10.2730    -2.5290    -0.3160 C.3   1 <1>  -0.1600 
 19 C       11.3390    -1.6720     0.3800 C.3   1 <1>  -0.1600 
 20 H       -0.5780     1.4370     0.2860 H     1 <1>   0.0800 
 21 H        0.7070     1.5210    -0.9180 H     1 <1>   0.0800 
 22 H        1.0810     1.7410     0.7960 H     1 <1>   0.0800 
 23 H        4.8830     1.1340    -0.7850 H     1 <1>   0.4000 
 24 H        2.4750    -5.7410     0.5060 H     1 <1>   0.0800 
 25 H        1.3560    -4.6410    -0.2970 H     1 <1>   0.0800 
 26 H        1.7270    -4.4310     1.4190 H     1 <1>   0.0800 
 27 H        6.9320     0.2620    -1.7050 H     1 <1>   0.0800 
 28 H        6.4530    -1.3580    -1.2830 H     1 <1>   0.0800 
 29 H        6.7240    -0.7990     1.1270 H     1 <1>   0.0800 
 30 H        7.1810     0.8220     0.6830 H     1 <1>   0.0800 
 31 H        9.5400     1.2840     0.2070 H     1 <1>   0.1500 
 32 H        8.1470    -2.6170    -0.4950 H     1 <1>   0.0800 
 33 H        8.7020    -2.5680     1.1510 H     1 <1>   0.0800 
 34 H       11.7250     0.4010     0.7580 H     1 <1>   0.0800 
 35 H       11.4840     0.0320    -0.9280 H     1 <1>   0.0800 
 36 H       10.3330    -2.3670    -1.3780 H     1 <1>   0.0800 
 37 H       10.4570    -3.5720    -0.1270 H     1 <1>   0.0800 
 38 H       11.2660    -1.8210     1.4440 H     1 <1>   0.0800 
 39 H       12.3220    -1.9780     0.0680 H     1 <1>   0.0800 
@<TRIPOS>BOND
  1   1   2  1   
  2   1   3  1   
  3   2   4  ar  
  4   2   5  ar  
  5   3  20  1   
  6   3  21  1   
  7   3  22  1   
  8   4   6  ar  
  9   5   7  ar  
 10   6   8  1   
 11   6   9  ar  
 12   7   9  ar  
 13   7  10  1   
 14   8  11  1   
 15  10  12  1   
 16  10  23  1   
 17  11  24  1   
 18  11  25  1   
 19  11  26  1   
 20  12  13  1   
 21  12  27  1   
 22  12  28  1   
 23  13  14  1   
 24  13  29  1   
 25  13  30  1   
 26  14  15  2   
 27  14  16  1   
 28  15  17  1   
 29  15  31  1   
 30  16  18  1   
 31  16  32  1   
 32  16  33  1   
 33  17  19  1   
 34  17  34  1   
 35  17  35  1   
 36  18  19  1   
 37  18  36  1   
 38  18  37  1   
 39  19  38  1   
 40  19  39  1   
@<TRIPOS>SUBSTRUCTURE
  1 ****   9 GROUP 4 **** **** 0

# MOE 2024.06 (io_trps.svl 2023.06)
