@<TRIPOS>MOLECULE
NONAME
36 37 1 0 0 
SMALL
USER_CHARGES


@<TRIPOS>ATOM
  1 S       -0.0690    -0.2670    -0.8170 S.3   1 <1>  -0.4600 
  2 C       -1.1440    -0.2880     0.6390 C.3   1 <1>   0.5940 
  3 C        0.9600    -1.6860    -0.3670 C.3   1 <1>   0.2110 
  4 N       -0.5310    -1.2940     1.5090 N.am  1 <1>  -0.7300 
  5 C       -2.5860    -0.6290     0.2600 C.ar  1 <1>  -0.1440 
  6 C        0.4560    -2.0680     1.0200 C.2   1 <1>   0.5690 
  7 C        2.4230    -1.2350    -0.4220 C.3   1 <1>  -0.2400 
  8 C       -2.9470    -1.8340    -0.3440 C.ar  1 <1>   0.0830 
  9 C       -3.5820     0.3040     0.5390 C.ar  1 <1>   0.0830 
 10 O        0.8850    -3.0180     1.6280 O.2   1 <1>  -0.5700 
 11 O       -2.0140    -2.7730    -0.6230 O.3   1 <1>  -0.3630 
 12 C       -4.2680    -2.0920    -0.6830 C.ar  1 <1>  -0.1500 
 13 O       -3.2120     1.4660     1.1430 O.3   1 <1>  -0.3630 
 14 C       -4.9060     0.0340     0.2080 C.ar  1 <1>  -0.1500 
 15 C       -2.1470    -4.0350    -0.0040 C.3   1 <1>   0.0400 
 16 C       -5.2530    -1.1550    -0.4040 C.ar  1 <1>   0.0830 
 17 C       -4.1260     2.5230     1.3420 C.3   1 <1>   0.0400 
 18 O       -6.5660    -1.3290    -0.6990 O.3   1 <1>  -0.3630 
 19 C       -7.0140    -2.4670    -1.4020 C.3   1 <1>   0.0400 
 20 H       -1.0560     0.6850     1.0880 H     1 <1>   0.0800 
 21 H        0.7520    -2.4720    -1.0700 H     1 <1>   0.0800 
 22 H       -1.0160    -1.5470     2.3660 H     1 <1>   0.3700 
 23 H        2.5860    -0.4170     0.2560 H     1 <1>   0.0800 
 24 H        2.6760    -0.9240    -1.4190 H     1 <1>   0.0800 
 25 H        3.0630    -2.0500    -0.1380 H     1 <1>   0.0800 
 26 H       -4.5030    -3.0170    -1.1680 H     1 <1>   0.1500 
 27 H       -5.6960     0.7300     0.4120 H     1 <1>   0.1500 
 28 H       -2.2900    -3.8910     1.0520 H     1 <1>   0.0800 
 29 H       -1.2410    -4.5880    -0.1750 H     1 <1>   0.0800 
 30 H       -2.9820    -4.5560    -0.4340 H     1 <1>   0.0800 
 31 H       -3.5940     3.3490     1.7780 H     1 <1>   0.0800 
 32 H       -4.9010     2.1950     2.0120 H     1 <1>   0.0800 
 33 H       -4.5360     2.8150     0.3910 H     1 <1>   0.0800 
 34 H       -8.0740    -2.3710    -1.5520 H     1 <1>   0.0800 
 35 H       -6.8060    -3.3440    -0.8160 H     1 <1>   0.0800 
 36 H       -6.5130    -2.5090    -2.3540 H     1 <1>   0.0800 
@<TRIPOS>BOND
  1   1   2  1   
  2   1   3  1   
  3   2   4  1   
  4   2   5  1   
  5   2  20  1   
  6   3   6  1   
  7   3   7  1   
  8   3  21  1   
  9   4   6  am  
 10   4  22  1   
 11   5   8  ar  
 12   5   9  ar  
 13   6  10  2   
 14   7  23  1   
 15   7  24  1   
 16   7  25  1   
 17   8  11  1   
 18   8  12  ar  
 19   9  13  1   
 20   9  14  ar  
 21  11  15  1   
 22  12  16  ar  
 23  12  26  1   
 24  13  17  1   
 25  14  16  ar  
 26  14  27  1   
 27  15  28  1   
 28  15  29  1   
 29  15  30  1   
 30  16  18  1   
 31  17  31  1   
 32  17  32  1   
 33  17  33  1   
 34  18  19  1   
 35  19  34  1   
 36  19  35  1   
 37  19  36  1   
@<TRIPOS>SUBSTRUCTURE
  1 ****   5 GROUP 4 **** **** 0

# MOE 2024.06 (io_trps.svl 2023.06)
