@<TRIPOS>MOLECULE
NONAME
45 47 1 0 0 
SMALL
USER_CHARGES


@<TRIPOS>ATOM
  1 O        0.2660     0.0850    -1.0470 O.2   1 <1>  -0.5700 
  2 C        0.7190     1.1090    -0.5730 C.2   1 <1>   0.5440 
  3 N       -0.0670     2.2270    -0.4630 N.am  1 <1>  -0.5470 
  4 C        2.1040     1.1680    -0.1370 C.ar  1 <1>   0.0860 
  5 C       -1.4110     2.5280    -0.7310 C.ar  1 <1>   0.1170 
  6 C        3.0680     0.3290    -0.6960 C.ar  1 <1>  -0.1500 
  7 C        2.5360     2.0610     0.8480 C.ar  1 <1>  -0.1500 
  8 C       -1.7890     3.8710    -0.5770 C.ar  1 <1>   0.1000 
  9 C       -2.3580     1.5910    -1.1240 C.ar  1 <1>  -0.1500 
 10 C        4.3940     0.3820    -0.3050 C.ar  1 <1>  -0.1500 
 11 C        3.8600     2.1190     1.2410 C.ar  1 <1>  -0.1500 
 12 N       -0.8350     4.8270    -0.1750 N.pl3 1 <1>  -0.8380 
 13 C       -3.1050     4.2340    -0.8310 C.ar  1 <1>  -0.1500 
 14 C       -3.6660     1.9690    -1.3690 C.ar  1 <1>  -0.1500 
 15 C        4.8000     1.2800     0.6670 C.ar  1 <1>  -0.1430 
 16 C       -1.0410     5.5110     1.1410 C.3   1 <1>   0.2090 
 17 C       -0.2900     5.7250    -1.2400 C.3   1 <1>   0.2090 
 18 C       -4.0410     3.2930    -1.2230 C.ar  1 <1>  -0.1500 
 19 C        6.2570     1.3440     1.0970 C.3   1 <1>  -0.0170 
 20 C       -1.6400     6.9230     0.9940 C.3   1 <1>   0.1200 
 21 C       -0.9620     7.1100    -1.2380 C.3   1 <1>   0.1200 
 22 C        7.0210     2.3670     0.2540 C.3   1 <1>  -0.2400 
 23 O       -0.9440     7.6770     0.0410 O.3   1 <1>  -0.5600 
 24 H        0.4060     3.0860    -0.1720 H     1 <1>   0.3700 
 25 H        2.7660    -0.3770    -1.4510 H     1 <1>   0.1500 
 26 H        1.8280     2.7160     1.3220 H     1 <1>   0.1500 
 27 H       -2.0810     0.5600    -1.2400 H     1 <1>   0.1500 
 28 H        5.1090    -0.2790    -0.7630 H     1 <1>   0.1500 
 29 H        4.1610     2.8210     2.0000 H     1 <1>   0.1500 
 30 H       -3.4030     5.2590    -0.7240 H     1 <1>   0.1500 
 31 H       -4.3890     1.2320    -1.6740 H     1 <1>   0.1500 
 32 H       -0.0930     5.5880     1.6430 H     1 <1>   0.0800 
 33 H       -1.6880     4.9120     1.7600 H     1 <1>   0.0800 
 34 H       -0.4260     5.2640    -2.2040 H     1 <1>   0.0800 
 35 H        0.7670     5.8510    -1.0840 H     1 <1>   0.0800 
 36 H       -5.0570     3.5880    -1.4160 H     1 <1>   0.1500 
 37 H        6.7110     0.3740     0.9870 H     1 <1>   0.0800 
 38 H        6.3170     1.6150     2.1370 H     1 <1>   0.0800 
 39 H       -1.5790     7.4460     1.9320 H     1 <1>   0.0800 
 40 H       -2.6730     6.8700     0.7020 H     1 <1>   0.0800 
 41 H       -1.9830     7.0340    -1.5690 H     1 <1>   0.0800 
 42 H       -0.4360     7.7750    -1.8990 H     1 <1>   0.0800 
 43 H        6.9800     2.0950    -0.7860 H     1 <1>   0.0800 
 44 H        8.0510     2.4050     0.5610 H     1 <1>   0.0800 
 45 H        6.5870     3.3440     0.3720 H     1 <1>   0.0800 
@<TRIPOS>BOND
  1   1   2  2   
  2   2   3  am  
  3   2   4  1   
  4   3   5  1   
  5   3  24  1   
  6   4   6  ar  
  7   4   7  ar  
  8   5   8  ar  
  9   5   9  ar  
 10   6  10  ar  
 11   6  25  1   
 12   7  11  ar  
 13   7  26  1   
 14   8  12  1   
 15   8  13  ar  
 16   9  14  ar  
 17   9  27  1   
 18  10  15  ar  
 19  10  28  1   
 20  11  15  ar  
 21  11  29  1   
 22  12  16  1   
 23  12  17  1   
 24  13  18  ar  
 25  13  30  1   
 26  14  18  ar  
 27  14  31  1   
 28  15  19  1   
 29  16  20  1   
 30  16  32  1   
 31  16  33  1   
 32  17  21  1   
 33  17  34  1   
 34  17  35  1   
 35  18  36  1   
 36  19  22  1   
 37  19  37  1   
 38  19  38  1   
 39  20  23  1   
 40  20  39  1   
 41  20  40  1   
 42  21  23  1   
 43  21  41  1   
 44  21  42  1   
 45  22  43  1   
 46  22  44  1   
 47  22  45  1   
@<TRIPOS>SUBSTRUCTURE
  1 ****   3 GROUP 4 **** **** 0

# MOE 2024.06 (io_trps.svl 2023.06)
