@<TRIPOS>MOLECULE
NONAME
37 38 1 0 0 
SMALL
USER_CHARGES


@<TRIPOS>ATOM
  1 BR      -0.3630     0.8840    -0.1590 Br    1 <1>  -0.1110 
  2 C        1.5500     1.0410    -0.0640 C.ar  1 <1>   0.1110 
  3 C        2.3180     0.4930    -1.0720 C.ar  1 <1>  -0.1500 
  4 C        2.1150     1.6980     1.0110 C.ar  1 <1>  -0.1500 
  5 C        3.6940     0.6110    -0.9960 C.ar  1 <1>  -0.1500 
  6 C        3.4930     1.8060     1.0720 C.ar  1 <1>  -0.1500 
  7 C        4.3140     1.2670     0.0740 C.ar  1 <1>   0.0530 
  8 C        5.7540     1.3900     0.1550 C.2   1 <1>   0.4250 
  9 O        6.5220     0.8850    -0.7700 O.3   1 <1>  -0.2800 
 10 N        6.4600     1.9680     1.0770 N.2   1 <1>  -0.3380 
 11 C        7.7050     1.1850    -0.3680 C.2   1 <1>   0.5340 
 12 N        7.7390     1.8320     0.7300 N.2   1 <1>  -0.3380 
 13 S        9.1080     0.6740    -1.3440 S.3   1 <1>  -0.2860 
 14 C       10.5400     1.3710    -0.3920 C.3   1 <1>   0.1310 
 15 C       11.8570     0.8640    -0.9630 C.2   1 <1>   0.5690 
 16 O       12.4430     1.6050    -1.7190 O.2   1 <1>  -0.5700 
 17 N       12.3680    -0.3660    -0.6110 N.am  1 <1>  -0.6600 
 18 C       13.6620    -0.8240    -1.1890 C.3   1 <1>   0.1400 
 19 C       11.6310    -1.3720     0.2040 C.3   1 <1>   0.1400 
 20 C       14.8300    -0.2530    -0.3870 C.3   1 <1>  -0.2400 
 21 C       12.0320    -1.2600     1.6720 C.3   1 <1>  -0.2400 
 22 H        1.8450    -0.0120    -1.8960 H     1 <1>   0.1500 
 23 H        1.4890     2.1140     1.7810 H     1 <1>   0.1500 
 24 H        4.2960     0.1850    -1.7810 H     1 <1>   0.1500 
 25 H        3.9410     2.3170     1.9070 H     1 <1>   0.1500 
 26 H       10.4250     1.0850     0.6350 H     1 <1>   0.0800 
 27 H       10.4840     2.4400    -0.4780 H     1 <1>   0.0800 
 28 H       13.7340    -0.4870    -2.2110 H     1 <1>   0.0800 
 29 H       13.7100    -1.8990    -1.1950 H     1 <1>   0.0800 
 30 H       11.8440    -2.3630    -0.1590 H     1 <1>   0.0800 
 31 H       10.5700    -1.2240     0.1090 H     1 <1>   0.0800 
 32 H       14.7960     0.8220    -0.4020 H     1 <1>   0.0800 
 33 H       15.7570    -0.5670    -0.8290 H     1 <1>   0.0800 
 34 H       14.8030    -0.5970     0.6290 H     1 <1>   0.0800 
 35 H       13.0610    -1.5370     1.8030 H     1 <1>   0.0800 
 36 H       11.4290    -1.9270     2.2620 H     1 <1>   0.0800 
 37 H       11.8830    -0.2580     2.0320 H     1 <1>   0.0800 
@<TRIPOS>BOND
  1   1   2  1   
  2   2   3  ar  
  3   2   4  ar  
  4   3   5  ar  
  5   3  22  1   
  6   4   6  ar  
  7   4  23  1   
  8   5   7  ar  
  9   5  24  1   
 10   6   7  ar  
 11   6  25  1   
 12   7   8  1   
 13   8   9  1   
 14   8  10  2   
 15   9  11  1   
 16  10  12  1   
 17  11  12  2   
 18  11  13  1   
 19  13  14  1   
 20  14  15  1   
 21  14  26  1   
 22  14  27  1   
 23  15  16  2   
 24  15  17  am  
 25  17  18  1   
 26  17  19  1   
 27  18  20  1   
 28  18  28  1   
 29  18  29  1   
 30  19  21  1   
 31  19  30  1   
 32  19  31  1   
 33  20  32  1   
 34  20  33  1   
 35  20  34  1   
 36  21  35  1   
 37  21  36  1   
 38  21  37  1   
@<TRIPOS>SUBSTRUCTURE
  1 ****  11 GROUP 4 **** **** 0

# MOE 2024.06 (io_trps.svl 2023.06)
