@<TRIPOS>MOLECULE
NONAME
33 34 1 0 0 
SMALL
USER_CHARGES


@<TRIPOS>ATOM
  1 O       -0.6420     0.3080    -1.3610 O.2   1 <1>  -0.5700 
  2 C       -0.9270     1.3420    -0.8250 C.2   1 <1>   0.5690 
  3 N       -0.5850     2.5270    -1.3910 N.am  1 <1>  -0.4900 
  4 C       -1.6780     1.4270     0.5040 C.3   1 <1>   0.1810 
  5 C       -0.9260     3.7450    -0.8930 C.2   1 <1>   0.5690 
  6 C       -1.8550     0.0550     1.1120 C.1   1 <1>   0.3570 
  7 C       -2.8540     2.5780     0.3440 C.3   1 <1>   0.0000 
  8 O       -0.6260     4.7390    -1.4940 O.2   1 <1>  -0.5700 
  9 C       -1.6940     3.7610     0.4370 C.3   1 <1>   0.1810 
 10 N       -1.9990    -0.9430     1.6380 N.1   1 <1>  -0.5570 
 11 C       -4.0070     3.7130     0.3010 C.3   1 <1>  -0.1600 
 12 C       -3.9490     1.4110     0.1230 C.3   1 <1>  -0.1600 
 13 C       -1.8450     5.1940     0.9000 C.1   1 <1>   0.3570 
 14 C       -5.5020     3.7360    -0.0950 C.3   1 <1>  -0.1600 
 15 C       -5.3230     1.4470    -0.5590 C.3   1 <1>  -0.1600 
 16 N       -1.9720     6.2420     1.3230 N.1   1 <1>  -0.5570 
 17 C       -6.2080     2.4340     0.1490 C.3   1 <1>  -0.0800 
 18 C       -7.6290     2.4420    -0.4270 C.3   1 <1>  -0.2400 
 19 H       -0.0900     2.5020    -2.2830 H     1 <1>   0.3700 
 20 H       -0.9170     1.6860     1.2080 H     1 <1>   0.0800 
 21 H       -0.9550     3.5590     1.1830 H     1 <1>   0.0800 
 22 H       -3.7050     4.4770    -0.3980 H     1 <1>   0.0800 
 23 H       -4.0510     4.1140     1.3020 H     1 <1>   0.0800 
 24 H       -4.1730     1.0010     1.0960 H     1 <1>   0.0800 
 25 H       -3.5440     0.6330    -0.5060 H     1 <1>   0.0800 
 26 H       -5.5830     3.9770    -1.1430 H     1 <1>   0.0800 
 27 H       -6.0060     4.5240     0.4390 H     1 <1>   0.0800 
 28 H       -5.7720     0.4690    -0.5020 H     1 <1>   0.0800 
 29 H       -5.2210     1.6950    -1.6030 H     1 <1>   0.0800 
 30 H       -6.2490     2.2200     1.2050 H     1 <1>   0.0800 
 31 H       -7.6150     2.6410    -1.4840 H     1 <1>   0.0800 
 32 H       -8.2210     3.1980     0.0580 H     1 <1>   0.0800 
 33 H       -8.0990     1.4890    -0.2640 H     1 <1>   0.0800 
@<TRIPOS>BOND
  1   1   2  2   
  2   2   3  am  
  3   2   4  1   
  4   3   5  am  
  5   3  19  1   
  6   4   6  1   
  7   4   7  1   
  8   4  20  1   
  9   5   8  2   
 10   5   9  1   
 11   6  10  3   
 12   7   9  1   
 13   7  11  1   
 14   7  12  1   
 15   9  13  1   
 16   9  21  1   
 17  11  14  1   
 18  11  22  1   
 19  11  23  1   
 20  12  15  1   
 21  12  24  1   
 22  12  25  1   
 23  13  16  3   
 24  14  17  1   
 25  14  26  1   
 26  14  27  1   
 27  15  17  1   
 28  15  28  1   
 29  15  29  1   
 30  17  18  1   
 31  17  30  1   
 32  18  31  1   
 33  18  32  1   
 34  18  33  1   
@<TRIPOS>SUBSTRUCTURE
  1 ****   7 GROUP 4 **** **** 0

# MOE 2024.06 (io_trps.svl 2023.06)
