@<TRIPOS>MOLECULE
NONAME
33 34 1 0 0 
SMALL
USER_CHARGES


@<TRIPOS>ATOM
  1 S        0.0440     0.1670    -0.6900 S.3   1 <1>  -0.0800 
  2 C        1.2820    -0.1580     0.4840 C.2   1 <1>   0.4420 
  3 C       -1.1030    -0.3950     0.4770 C.2   1 <1>   0.1980 
  4 N        0.8020    -0.6260     1.5780 N.2   1 <1>  -0.3380 
  5 N        2.6170     0.0770     0.2350 N.am  1 <1>  -0.4940 
  6 N       -0.5580    -0.7640     1.5660 N.2   1 <1>  -0.3380 
  7 C       -2.5700    -0.4050     0.0930 C.3   1 <1>   0.1640 
  8 C        3.2750     0.4960    -0.8830 C.2   1 <1>   0.5690 
  9 C       -3.1010     0.9990    -0.1890 C.ar  1 <1>  -0.1440 
 10 O        2.7370     0.7200    -1.9360 O.2   1 <1>  -0.5700 
 11 C        4.7810     0.6720    -0.7850 C.3   1 <1>  -0.0990 
 12 C       -3.4240     1.8900     0.8330 C.ar  1 <1>  -0.1430 
 13 C       -3.2620     1.3930    -1.5110 C.ar  1 <1>  -0.1500 
 14 C        5.1910     1.8220     0.1510 C.3   1 <1>  -0.2400 
 15 C       -3.9060     3.1510     0.5120 C.ar  1 <1>  -0.1500 
 16 C       -3.2590     1.5280     2.3040 C.3   1 <1>  -0.0970 
 17 C       -3.7420     2.6520    -1.8210 C.ar  1 <1>  -0.1500 
 18 C       -4.0660     3.5320    -0.8070 C.ar  1 <1>  -0.1500 
 19 H        3.2020    -0.1010     1.0460 H     1 <1>   0.3700 
 20 H       -3.1380    -0.8590     0.8840 H     1 <1>   0.0800 
 21 H       -2.6910    -1.0260    -0.7750 H     1 <1>   0.0800 
 22 H        5.1640     0.8700    -1.7700 H     1 <1>   0.0800 
 23 H        5.2190    -0.2490    -0.4470 H     1 <1>   0.0800 
 24 H       -3.0100     0.7230    -2.3140 H     1 <1>   0.1500 
 25 H        4.7550     2.7460    -0.1890 H     1 <1>   0.0800 
 26 H        6.2620     1.9310     0.1530 H     1 <1>   0.0800 
 27 H        4.8640     1.6360     1.1580 H     1 <1>   0.0800 
 28 H       -4.1600     3.8490     1.2900 H     1 <1>   0.1500 
 29 H       -3.8530     0.6670     2.5470 H     1 <1>   0.0800 
 30 H       -3.5730     2.3380     2.9370 H     1 <1>   0.0800 
 31 H       -2.2270     1.3190     2.5210 H     1 <1>   0.0800 
 32 H       -3.8610     2.9460    -2.8490 H     1 <1>   0.1500 
 33 H       -4.4390     4.5130    -1.0430 H     1 <1>   0.1500 
@<TRIPOS>BOND
  1   1   2  1   
  2   1   3  1   
  3   2   4  2   
  4   2   5  1   
  5   3   6  2   
  6   3   7  1   
  7   4   6  1   
  8   5   8  am  
  9   5  19  1   
 10   7   9  1   
 11   7  20  1   
 12   7  21  1   
 13   8  10  2   
 14   8  11  1   
 15   9  12  ar  
 16   9  13  ar  
 17  11  14  1   
 18  11  22  1   
 19  11  23  1   
 20  12  15  ar  
 21  12  16  1   
 22  13  17  ar  
 23  13  24  1   
 24  14  25  1   
 25  14  26  1   
 26  14  27  1   
 27  15  18  ar  
 28  15  28  1   
 29  16  29  1   
 30  16  30  1   
 31  16  31  1   
 32  17  18  ar  
 33  17  32  1   
 34  18  33  1   
@<TRIPOS>SUBSTRUCTURE
  1 ****   1 GROUP 4 **** **** 0

# MOE 2024.06 (io_trps.svl 2023.06)
