@<TRIPOS>MOLECULE
NONAME
47 49 1 0 0 
SMALL
USER_CHARGES


@<TRIPOS>ATOM
  1 BR       1.2450    -0.7460    -2.1500 Br    1 <1>  -0.1110 
  2 C        0.2280    -1.7520    -0.8560 C.ar  1 <1>   0.1110 
  3 C        0.5360    -1.6670     0.4950 C.ar  1 <1>   0.0820 
  4 C       -0.8080    -2.5390    -1.3220 C.ar  1 <1>  -0.1500 
  5 O        1.5330    -0.8810     0.9520 O.3   1 <1>  -0.3630 
  6 C       -0.2250    -2.3920     1.3960 C.ar  1 <1>  -0.1500 
  7 C       -1.5720    -3.2580    -0.4110 C.ar  1 <1>  -0.1430 
  8 C        2.8230    -1.4490     0.9640 C.3   1 <1>   0.0400 
  9 C       -1.2700    -3.1850     0.9460 C.ar  1 <1>  -0.1500 
 10 C       -2.7350    -4.1040    -0.8940 C.3   1 <1>   0.4870 
 11 N       -4.0020    -3.4160    -0.5350 N.4   1 <1>  -0.9590 
 12 C       -5.1930    -4.2680    -0.7990 C.3   1 <1>   0.4860 
 13 C       -4.1570    -2.0860    -1.1990 C.3   1 <1>   0.3430 
 14 C       -6.4550    -3.5470    -0.3600 C.ar  1 <1>  -0.1430 
 15 C       -5.2930    -1.3000    -0.5390 C.3   1 <1>  -0.0170 
 16 C       -6.5140    -2.1640    -0.2490 C.ar  1 <1>  -0.1430 
 17 C       -7.5820    -4.2960    -0.0710 C.ar  1 <1>  -0.1500 
 18 C       -7.6940    -1.5560     0.1460 C.ar  1 <1>  -0.1500 
 19 C       -8.7690    -3.7040     0.3250 C.ar  1 <1>   0.0830 
 20 C       -8.8340    -2.3040     0.4390 C.ar  1 <1>   0.0830 
 21 O       -9.7700    -4.6010     0.5650 O.3   1 <1>  -0.3630 
 22 O       -9.9900    -1.6950     0.8320 O.3   1 <1>  -0.3620 
 23 C      -11.0850    -4.2320     0.9170 C.3   1 <1>   0.0400 
 24 C      -10.1200    -0.2950     0.9520 C.3   1 <1>   0.0400 
 25 H       -0.9970    -2.5720    -2.3810 H     1 <1>   0.1500 
 26 H        0.0060    -2.3280     2.4460 H     1 <1>   0.1500 
 27 H        3.5080    -0.7160     1.3500 H     1 <1>   0.0800 
 28 H        3.1000    -1.7180    -0.0390 H     1 <1>   0.0800 
 29 H        2.8170    -2.3170     1.5990 H     1 <1>   0.0800 
 30 H       -1.8380    -3.7420     1.6720 H     1 <1>   0.1500 
 31 H       -2.6890    -5.0720    -0.4210 H     1 <1>   0.0800 
 32 H       -2.6730    -4.2420    -1.9610 H     1 <1>   0.0800 
 33 H       -3.9870    -3.2380     0.4770 H     1 <1>   0.4500 
 34 H       -5.1110    -5.1970    -0.2590 H     1 <1>   0.0800 
 35 H       -5.2630    -4.4910    -1.8520 H     1 <1>   0.0800 
 36 H       -4.3820    -2.2280    -2.2440 H     1 <1>   0.0800 
 37 H       -3.2460    -1.5150    -1.1220 H     1 <1>   0.0800 
 38 H       -5.5690    -0.4830    -1.1830 H     1 <1>   0.0800 
 39 H       -4.9370    -0.8760     0.3830 H     1 <1>   0.0800 
 40 H       -7.5680    -5.3700    -0.1500 H     1 <1>   0.1500 
 41 H       -7.7110    -0.4860     0.2260 H     1 <1>   0.1500 
 42 H      -11.6710    -5.1280     1.0080 H     1 <1>   0.0800 
 43 H      -11.4910    -3.6070     0.1420 H     1 <1>   0.0800 
 44 H      -11.0620    -3.7140     1.8580 H     1 <1>   0.0800 
 45 H      -11.1250    -0.0800     1.2690 H     1 <1>   0.0800 
 46 H       -9.9360     0.1580    -0.0060 H     1 <1>   0.0800 
 47 H       -9.4240     0.0590     1.6910 H     1 <1>   0.0800 
@<TRIPOS>BOND
  1   1   2  1   
  2   2   3  ar  
  3   2   4  ar  
  4   3   5  1   
  5   3   6  ar  
  6   4   7  ar  
  7   4  25  1   
  8   5   8  1   
  9   6   9  ar  
 10   6  26  1   
 11   7   9  ar  
 12   7  10  1   
 13   8  27  1   
 14   8  28  1   
 15   8  29  1   
 16   9  30  1   
 17  10  11  1   
 18  10  31  1   
 19  10  32  1   
 20  11  12  1   
 21  11  13  1   
 22  11  33  1   
 23  12  14  1   
 24  12  34  1   
 25  12  35  1   
 26  13  15  1   
 27  13  36  1   
 28  13  37  1   
 29  14  16  ar  
 30  14  17  ar  
 31  15  16  1   
 32  15  38  1   
 33  15  39  1   
 34  16  18  ar  
 35  17  19  ar  
 36  17  40  1   
 37  18  20  ar  
 38  18  41  1   
 39  19  20  ar  
 40  19  21  1   
 41  20  22  1   
 42  21  23  1   
 43  22  24  1   
 44  23  42  1   
 45  23  43  1   
 46  23  44  1   
 47  24  45  1   
 48  24  46  1   
 49  24  47  1   
@<TRIPOS>SUBSTRUCTURE
  1 ****  11 GROUP 4 **** **** 0

# MOE 2024.06 (io_trps.svl 2023.06)
