@<TRIPOS>MOLECULE
NONAME
32 32 1 0 0 
SMALL
USER_CHARGES


@<TRIPOS>ATOM
  1 F       -3.1800     1.4530    -0.1300 F     1 <1>  -0.3400 
  2 C       -1.9530     1.9620    -0.1510 C.3   1 <1>   0.8800 
  3 F       -1.1330     0.9440     0.0650 F     1 <1>  -0.3400 
  4 O       -1.8390     2.8500     0.9350 O.3   1 <1>  -0.3630 
  5 C       -1.6640     4.1490     0.5940 C.ar  1 <1>   0.0830 
  6 C       -2.6990     4.8890     0.0110 C.ar  1 <1>   0.1170 
  7 C       -0.4270     4.7210     0.8380 C.ar  1 <1>  -0.1500 
  8 N       -3.9680     4.3090    -0.1700 N.am  1 <1>  -0.5470 
  9 C       -2.4390     6.2070    -0.3490 C.ar  1 <1>  -0.1500 
 10 C       -0.1910     6.0360     0.4770 C.ar  1 <1>  -0.1500 
 11 C       -4.9130     4.5280    -1.1290 C.2   1 <1>   0.5690 
 12 C       -1.1970     6.7760    -0.1210 C.ar  1 <1>  -0.1500 
 13 O       -4.7550     5.2850    -2.0540 O.2   1 <1>  -0.5700 
 14 C       -6.2100     3.7460    -1.0340 C.3   1 <1>  -0.0990 
 15 C       -7.0390     4.0730     0.2240 C.3   1 <1>  -0.0800 
 16 C       -8.2900     3.1890     0.2750 C.3   1 <1>  -0.2400 
 17 C       -7.4490     5.5510     0.2560 C.3   1 <1>  -0.2400 
 18 H       -1.7470     2.4140    -1.1060 H     1 <1>   0.0800 
 19 H        0.3480     4.1400     1.3050 H     1 <1>   0.1500 
 20 H       -4.1910     3.5700     0.4990 H     1 <1>   0.3700 
 21 H       -3.2120     6.7980    -0.8050 H     1 <1>   0.1500 
 22 H        0.7710     6.4830     0.6610 H     1 <1>   0.1500 
 23 H       -1.0170     7.7980    -0.4070 H     1 <1>   0.1500 
 24 H       -5.9700     2.6990    -1.0480 H     1 <1>   0.0800 
 25 H       -6.7960     3.9530    -1.9120 H     1 <1>   0.0800 
 26 H       -6.4480     3.8650     1.1000 H     1 <1>   0.0800 
 27 H       -8.9190     3.3700    -0.5800 H     1 <1>   0.0800 
 28 H       -8.8570     3.3950     1.1650 H     1 <1>   0.0800 
 29 H       -8.0160     2.1490     0.2850 H     1 <1>   0.0800 
 30 H       -8.0270     5.8040    -0.6160 H     1 <1>   0.0800 
 31 H       -6.5820     6.1880     0.2850 H     1 <1>   0.0800 
 32 H       -8.0410     5.7570     1.1300 H     1 <1>   0.0800 
@<TRIPOS>BOND
  1   1   2  1   
  2   2   3  1   
  3   2   4  1   
  4   2  18  1   
  5   4   5  1   
  6   5   6  ar  
  7   5   7  ar  
  8   6   8  1   
  9   6   9  ar  
 10   7  10  ar  
 11   7  19  1   
 12   8  11  am  
 13   8  20  1   
 14   9  12  ar  
 15   9  21  1   
 16  10  12  ar  
 17  10  22  1   
 18  11  13  2   
 19  11  14  1   
 20  12  23  1   
 21  14  15  1   
 22  14  24  1   
 23  14  25  1   
 24  15  16  1   
 25  15  17  1   
 26  15  26  1   
 27  16  27  1   
 28  16  28  1   
 29  16  29  1   
 30  17  30  1   
 31  17  31  1   
 32  17  32  1   
@<TRIPOS>SUBSTRUCTURE
  1 ****   8 GROUP 4 **** **** 0

# MOE 2024.06 (io_trps.svl 2023.06)
