@<TRIPOS>MOLECULE
NONAME
46 46 1 0 0 
SMALL
USER_CHARGES


@<TRIPOS>ATOM
  1 O        3.1190    -4.3060    -0.0230 O.3   1 <1>  -0.3630 
  2 C        1.9180    -4.9350     0.0300 C.ar  1 <1>   0.0830 
  3 C        4.3220    -5.0210     0.0880 C.3   1 <1>   0.1200 
  4 C        1.7620    -6.3060     0.1950 C.ar  1 <1>  -0.1500 
  5 C        0.7920    -4.1410    -0.0900 C.ar  1 <1>  -0.1500 
  6 C        5.4570    -4.0020    -0.0150 C.3   1 <1>   0.3430 
  7 C        0.4950    -6.8620     0.2390 C.ar  1 <1>  -0.1500 
  8 C       -0.4710    -4.7040    -0.0460 C.ar  1 <1>  -0.1500 
  9 N        6.8030    -4.6530     0.0910 N.4   1 <1>  -0.9060 
 10 C       -0.6480    -6.0740     0.1190 C.ar  1 <1>  -0.1430 
 11 C        7.9630    -3.7610     0.0040 C.3   1 <1>   0.5030 
 12 C       -2.0800    -6.6530     0.1610 C.3   1 <1>   0.1440 
 13 C        9.1950    -4.6500     0.1370 C.3   1 <1>  -0.2400 
 14 C        7.9270    -2.7490     1.1480 C.3   1 <1>  -0.2400 
 15 C        7.9760    -3.0580    -1.3530 C.3   1 <1>  -0.2400 
 16 C       -2.8530    -6.0270     1.3320 C.3   1 <1>  -0.2400 
 17 C       -2.8030    -6.3330    -1.1560 C.3   1 <1>  -0.2400 
 18 C       -2.1130    -8.1790     0.3480 C.3   1 <1>  -0.2400 
 19 H        4.3620    -5.7320    -0.7190 H     1 <1>   0.0800 
 20 H        4.3280    -5.5150     1.0440 H     1 <1>   0.0800 
 21 H        2.6030    -6.9630     0.2930 H     1 <1>   0.1500 
 22 H        0.9030    -3.0800    -0.2180 H     1 <1>   0.1500 
 23 H        5.3390    -3.2790     0.7750 H     1 <1>   0.0800 
 24 H        5.3720    -3.4920    -0.9610 H     1 <1>   0.0800 
 25 H        0.4240    -7.9250     0.3680 H     1 <1>   0.1500 
 26 H       -1.3220    -4.0540    -0.1430 H     1 <1>   0.1500 
 27 H        6.9080    -5.3510    -0.6520 H     1 <1>   0.4500 
 28 H        6.8760    -5.1490     0.9840 H     1 <1>   0.4500 
 29 H        9.2420    -5.3740    -0.6570 H     1 <1>   0.0800 
 30 H        9.2080    -5.1590     1.0850 H     1 <1>   0.0800 
 31 H       10.0870    -4.0490     0.0810 H     1 <1>   0.0800 
 32 H        7.8660    -3.2420     2.1020 H     1 <1>   0.0800 
 33 H        7.1050    -2.0640     1.0480 H     1 <1>   0.0800 
 34 H        8.8290    -2.1620     1.1410 H     1 <1>   0.0800 
 35 H        7.9500    -3.7680    -2.1600 H     1 <1>   0.0800 
 36 H        8.8800    -2.4820    -1.4530 H     1 <1>   0.0800 
 37 H        7.1530    -2.3730    -1.4540 H     1 <1>   0.0800 
 38 H       -2.3360    -6.2160     2.2560 H     1 <1>   0.0800 
 39 H       -3.8410    -6.4440     1.4010 H     1 <1>   0.0800 
 40 H       -2.9480    -4.9640     1.2110 H     1 <1>   0.0800 
 41 H       -2.8970    -5.2730    -1.3000 H     1 <1>   0.0800 
 42 H       -3.7900    -6.7590    -1.1610 H     1 <1>   0.0800 
 43 H       -2.2510    -6.7380    -1.9850 H     1 <1>   0.0800 
 44 H       -1.6420    -8.4570     1.2750 H     1 <1>   0.0800 
 45 H       -1.6070    -8.6700    -0.4640 H     1 <1>   0.0800 
 46 H       -3.1270    -8.5360     0.3720 H     1 <1>   0.0800 
@<TRIPOS>BOND
  1   1   2  1   
  2   1   3  1   
  3   2   4  ar  
  4   2   5  ar  
  5   3   6  1   
  6   3  19  1   
  7   3  20  1   
  8   4   7  ar  
  9   4  21  1   
 10   5   8  ar  
 11   5  22  1   
 12   6   9  1   
 13   6  23  1   
 14   6  24  1   
 15   7  10  ar  
 16   7  25  1   
 17   8  10  ar  
 18   8  26  1   
 19   9  11  1   
 20   9  27  1   
 21   9  28  1   
 22  10  12  1   
 23  11  13  1   
 24  11  14  1   
 25  11  15  1   
 26  12  16  1   
 27  12  17  1   
 28  12  18  1   
 29  13  29  1   
 30  13  30  1   
 31  13  31  1   
 32  14  32  1   
 33  14  33  1   
 34  14  34  1   
 35  15  35  1   
 36  15  36  1   
 37  15  37  1   
 38  16  38  1   
 39  16  39  1   
 40  16  40  1   
 41  17  41  1   
 42  17  42  1   
 43  17  43  1   
 44  18  44  1   
 45  18  45  1   
 46  18  46  1   
@<TRIPOS>SUBSTRUCTURE
  1 ****   2 GROUP 4 **** **** 0

# MOE 2024.06 (io_trps.svl 2023.06)
