@<TRIPOS>MOLECULE
NONAME
44 44 1 0 0 
SMALL
USER_CHARGES


@<TRIPOS>ATOM
  1 O       -0.8290    -6.9420    -0.1080 O.3   1 <1>  -0.3630 
  2 C       -2.0590    -6.3710    -0.0900 C.ar  1 <1>   0.0830 
  3 C        0.3360    -6.1680     0.0180 C.3   1 <1>   0.1200 
  4 C       -3.1440    -7.2190    -0.2200 C.ar  1 <1>  -0.1500 
  5 C       -2.2820    -5.0060     0.0500 C.ar  1 <1>  -0.1500 
  6 C        1.5200    -7.1340    -0.0450 C.3   1 <1>   0.3430 
  7 C       -4.4340    -6.7200    -0.2120 C.ar  1 <1>  -0.1500 
  8 C       -3.5760    -4.5150     0.0580 C.ar  1 <1>  -0.1500 
  9 N        2.8300    -6.4220     0.0790 N.4   1 <1>  -0.9060 
 10 C       -4.6770    -5.3550    -0.0730 C.ar  1 <1>  -0.1430 
 11 C        3.9730    -7.3840     0.0160 C.3   1 <1>   0.3430 
 12 C       -6.1000    -4.7520    -0.0580 C.3   1 <1>   0.1430 
 13 C        5.3250    -6.6770     0.1410 C.3   1 <1>   0.1200 
 14 C       -6.2470    -3.7540    -1.2170 C.3   1 <1>  -0.2400 
 15 C       -6.3350    -4.0240     1.2750 C.3   1 <1>  -0.2400 
 16 C       -7.2080    -5.8070    -0.2110 C.3   1 <1>  -0.2400 
 17 O        6.2980    -7.6600     0.0700 O.3   1 <1>  -0.5600 
 18 C        7.6070    -7.1890     0.1680 C.3   1 <1>   0.0400 
 19 H        0.2960    -5.6600     0.9650 H     1 <1>   0.0800 
 20 H        0.3590    -5.4690    -0.8000 H     1 <1>   0.0800 
 21 H       -2.9800    -8.2750    -0.3290 H     1 <1>   0.1500 
 22 H       -1.4760    -4.3070     0.1550 H     1 <1>   0.1500 
 23 H        1.4830    -7.6630    -0.9840 H     1 <1>   0.0800 
 24 H        1.4210    -7.8520     0.7540 H     1 <1>   0.0800 
 25 H       -5.2370    -7.4240    -0.3170 H     1 <1>   0.1500 
 26 H       -3.7190    -3.4550     0.1680 H     1 <1>   0.1500 
 27 H        2.8640    -5.9130     0.9720 H     1 <1>   0.4500 
 28 H        2.9240    -5.7340    -0.6790 H     1 <1>   0.4500 
 29 H        3.9510    -7.9150    -0.9220 H     1 <1>   0.0800 
 30 H        3.8880    -8.1030     0.8150 H     1 <1>   0.0800 
 31 H        5.4170    -6.1780     1.0910 H     1 <1>   0.0800 
 32 H        5.4800    -5.9880    -0.6710 H     1 <1>   0.0800 
 33 H       -6.0490    -4.2470    -2.1520 H     1 <1>   0.0800 
 34 H       -5.5590    -2.9350    -1.1150 H     1 <1>   0.0800 
 35 H       -7.2430    -3.3500    -1.2460 H     1 <1>   0.0800 
 36 H       -5.6490    -3.2080     1.3990 H     1 <1>   0.0800 
 37 H       -6.2000    -4.7070     2.0940 H     1 <1>   0.0800 
 38 H       -7.3340    -3.6290     1.3200 H     1 <1>   0.0800 
 39 H       -7.1060    -6.3290    -1.1460 H     1 <1>   0.0800 
 40 H       -8.1780    -5.3420    -0.1950 H     1 <1>   0.0800 
 41 H       -7.1670    -6.5180     0.5940 H     1 <1>   0.0800 
 42 H        8.2730    -8.0320     0.1000 H     1 <1>   0.0800 
 43 H        7.7430    -6.7000     1.1170 H     1 <1>   0.0800 
 44 H        7.8070    -6.5090    -0.6430 H     1 <1>   0.0800 
@<TRIPOS>BOND
  1   1   2  1   
  2   1   3  1   
  3   2   4  ar  
  4   2   5  ar  
  5   3   6  1   
  6   3  19  1   
  7   3  20  1   
  8   4   7  ar  
  9   4  21  1   
 10   5   8  ar  
 11   5  22  1   
 12   6   9  1   
 13   6  23  1   
 14   6  24  1   
 15   7  10  ar  
 16   7  25  1   
 17   8  10  ar  
 18   8  26  1   
 19   9  11  1   
 20   9  27  1   
 21   9  28  1   
 22  10  12  1   
 23  11  13  1   
 24  11  29  1   
 25  11  30  1   
 26  12  14  1   
 27  12  15  1   
 28  12  16  1   
 29  13  17  1   
 30  13  31  1   
 31  13  32  1   
 32  14  33  1   
 33  14  34  1   
 34  14  35  1   
 35  15  36  1   
 36  15  37  1   
 37  15  38  1   
 38  16  39  1   
 39  16  40  1   
 40  16  41  1   
 41  17  18  1   
 42  18  42  1   
 43  18  43  1   
 44  18  44  1   
@<TRIPOS>SUBSTRUCTURE
  1 ****   1 GROUP 4 **** **** 0

# MOE 2024.06 (io_trps.svl 2023.06)
