@<TRIPOS>MOLECULE
NONAME
35 36 1 0 0 
SMALL
USER_CHARGES


@<TRIPOS>ATOM
  1 S        0.0680     0.3600    -0.4690 S.o2  1 <1>   1.3830 
  2 O        0.4420    -0.4810    -1.5840 O.2   1 <1>  -0.6500 
  3 O       -0.2620     1.7430    -0.7230 O.2   1 <1>  -0.6500 
  4 N        1.3110     0.3290     0.6390 N.2   1 <1>  -0.6380 
  5 C       -1.2750    -0.4020     0.4200 C.3   1 <1>  -0.1350 
  6 C        2.4470     0.6420     0.1930 C.2   1 <1>   0.6410 
  7 S        3.8390     0.7290     1.2570 S.3   1 <1>  -0.2820 
  8 N        2.9170     0.9630    -1.0620 N.pl3 1 <1>  -0.4080 
  9 C        4.8760     1.1960    -0.1010 C.2   1 <1>   0.5300 
 10 N        4.2630     1.2670    -1.2110 N.2   1 <1>  -0.4920 
 11 C        6.3340     1.4420     0.2310 C.3   1 <1>  -0.0990 
 12 C        7.1590     1.8450    -0.9980 C.3   1 <1>  -0.0160 
 13 C        8.6080     2.0750    -0.6050 C.ar  1 <1>  -0.1440 
 14 C        9.0400     3.3370    -0.2240 C.ar  1 <1>  -0.1500 
 15 C        9.5110     1.0240    -0.6190 C.ar  1 <1>  -0.1500 
 16 C       10.3580     3.5480     0.1410 C.ar  1 <1>  -0.1500 
 17 C       10.8290     1.2320    -0.2540 C.ar  1 <1>  -0.1500 
 18 C       11.2630     2.4910     0.1270 C.ar  1 <1>   0.0820 
 19 O       12.5710     2.6090     0.4690 O.3   1 <1>  -0.3630 
 20 C       13.1190     3.8510     0.8520 C.3   1 <1>   0.0400 
 21 H       -1.0110    -1.4010     0.7040 H     1 <1>   0.0800 
 22 H       -2.1510    -0.4380    -0.1980 H     1 <1>   0.0800 
 23 H       -1.4990     0.1620     1.3040 H     1 <1>   0.0800 
 24 H        2.2930     0.8890    -1.8790 H     1 <1>   0.4000 
 25 H        6.7450     0.5460     0.6580 H     1 <1>   0.0800 
 26 H        6.3910     2.2210     0.9690 H     1 <1>   0.0800 
 27 H        6.7530     2.7430    -1.4330 H     1 <1>   0.0800 
 28 H        7.1050     1.0710    -1.7440 H     1 <1>   0.0800 
 29 H        8.3490     4.1620    -0.2090 H     1 <1>   0.1500 
 30 H        9.1930     0.0380    -0.9120 H     1 <1>   0.1500 
 31 H       10.6600     4.5360     0.4310 H     1 <1>   0.1500 
 32 H       11.5310     0.4190    -0.2640 H     1 <1>   0.1500 
 33 H       14.1620     3.7030     1.0660 H     1 <1>   0.0800 
 34 H       12.6100     4.2000     1.7330 H     1 <1>   0.0800 
 35 H       13.0080     4.5470     0.0390 H     1 <1>   0.0800 
@<TRIPOS>BOND
  1   1   2  2   
  2   1   3  2   
  3   1   4  1   
  4   1   5  1   
  5   4   6  2   
  6   5  21  1   
  7   5  22  1   
  8   5  23  1   
  9   6   7  1   
 10   6   8  1   
 11   7   9  1   
 12   8  10  1   
 13   8  24  1   
 14   9  10  2   
 15   9  11  1   
 16  11  12  1   
 17  11  25  1   
 18  11  26  1   
 19  12  13  1   
 20  12  27  1   
 21  12  28  1   
 22  13  14  ar  
 23  13  15  ar  
 24  14  16  ar  
 25  14  29  1   
 26  15  17  ar  
 27  15  30  1   
 28  16  18  ar  
 29  16  31  1   
 30  17  18  ar  
 31  17  32  1   
 32  18  19  1   
 33  19  20  1   
 34  20  33  1   
 35  20  34  1   
 36  20  35  1   
@<TRIPOS>SUBSTRUCTURE
  1 ****  11 GROUP 4 **** **** 0

# MOE 2024.06 (io_trps.svl 2023.06)
