@<TRIPOS>MOLECULE
NONAME
30 30 1 0 0 
SMALL
USER_CHARGES


@<TRIPOS>ATOM
  1 O       -0.7400     1.3930     2.1910 O.2   1 <1>  -0.5700 
  2 C       -0.4970     1.4350     1.0250 C.2   1 <1>   0.4480 
  3 C       -1.5160     0.9530     0.0090 C.3   1 <1>  -0.0190 
  4 C        0.8330     1.9540     0.5190 C.3   1 <1>  -0.1790 
  5 C       -2.6940     1.9330    -0.1440 C.3   1 <1>   0.2800 
  6 C       -2.0380    -0.4130     0.4640 C.3   1 <1>   0.3430 
  7 O       -3.3340     2.0580     1.0690 O.3   1 <1>  -0.6800 
  8 C       -3.7290     1.3510    -1.1110 C.3   1 <1>  -0.1600 
  9 C       -2.2730     3.3410    -0.5720 C.3   1 <1>  -0.2400 
 10 N       -3.0740    -0.9560    -0.4800 N.4   1 <1>  -0.9590 
 11 C       -4.2240    -0.0090    -0.6210 C.3   1 <1>   0.3430 
 12 C       -3.5640    -2.2820     0.0060 C.3   1 <1>   0.2630 
 13 H       -1.0220     0.8350    -0.9380 H     1 <1>   0.0800 
 14 H        0.6850     2.7760    -0.1570 H     1 <1>   0.0800 
 15 H        1.3710     1.1720     0.0180 H     1 <1>   0.0800 
 16 H        1.4240     2.2980     1.3500 H     1 <1>   0.0800 
 17 H       -2.4720    -0.3000     1.4460 H     1 <1>   0.0800 
 18 H       -1.2140    -1.1030     0.5450 H     1 <1>   0.0800 
 19 H       -2.7100     2.3830     1.7580 H     1 <1>   0.4000 
 20 H       -3.3130     1.2540    -2.0970 H     1 <1>   0.0800 
 21 H       -4.5680     2.0220    -1.1820 H     1 <1>   0.0800 
 22 H       -1.7570     3.3090    -1.5150 H     1 <1>   0.0800 
 23 H       -1.6260     3.7960     0.1560 H     1 <1>   0.0800 
 24 H       -3.1400     3.9680    -0.6910 H     1 <1>   0.0800 
 25 H       -2.6490    -1.0840    -1.4090 H     1 <1>   0.4500 
 26 H       -4.9490    -0.4030    -1.3150 H     1 <1>   0.0800 
 27 H       -4.7070     0.1210     0.3360 H     1 <1>   0.0800 
 28 H       -4.0220    -2.1780     0.9760 H     1 <1>   0.0800 
 29 H       -2.7450    -2.9790     0.0840 H     1 <1>   0.0800 
 30 H       -4.2930    -2.6860    -0.6780 H     1 <1>   0.0800 
@<TRIPOS>BOND
  1   1   2  2   
  2   2   3  1   
  3   2   4  1   
  4   3   5  1   
  5   3   6  1   
  6   3  13  1   
  7   4  14  1   
  8   4  15  1   
  9   4  16  1   
 10   5   7  1   
 11   5   8  1   
 12   5   9  1   
 13   6  10  1   
 14   6  17  1   
 15   6  18  1   
 16   7  19  1   
 17   8  11  1   
 18   8  20  1   
 19   8  21  1   
 20   9  22  1   
 21   9  23  1   
 22   9  24  1   
 23  10  11  1   
 24  10  12  1   
 25  10  25  1   
 26  11  26  1   
 27  11  27  1   
 28  12  28  1   
 29  12  29  1   
 30  12  30  1   
@<TRIPOS>SUBSTRUCTURE
  1 ****   3 GROUP 4 **** **** 0

# MOE 2024.06 (io_trps.svl 2023.06)
