@<TRIPOS>MOLECULE
NONAME
47 48 1 0 0 
SMALL
USER_CHARGES


@<TRIPOS>ATOM
  1 O        7.7440    -2.5000     0.9690 O.2   1 <1>  -0.5700 
  2 C        8.0690    -3.4730     0.3420 C.2   1 <1>   0.6590 
  3 O        9.3330    -3.7810     0.1000 O.3   1 <1>  -0.4300 
  4 C        7.0340    -4.4310    -0.2230 C.3   1 <1>  -0.0190 
  5 C       10.3930    -2.9820     0.5750 C.3   1 <1>   0.1200 
  6 C        5.6630    -3.7300    -0.2800 C.3   1 <1>   0.3430 
  7 C        6.9740    -5.7490     0.5750 C.3   1 <1>  -0.1600 
  8 C       11.7030    -3.6200     0.1260 C.3   1 <1>  -0.2400 
  9 N        4.5060    -4.6670    -0.0480 N.4   1 <1>  -0.9590 
 10 C        5.9100    -6.7010    -0.0060 C.3   1 <1>  -0.1600 
 11 C        4.7350    -5.9920    -0.6950 C.3   1 <1>   0.3430 
 12 C        3.2240    -4.0140    -0.4770 C.3   1 <1>   0.3430 
 13 C        1.9790    -4.7610     0.0120 C.3   1 <1>   0.1200 
 14 O        0.8600    -4.0510    -0.4560 O.3   1 <1>  -0.3630 
 15 C       -0.4030    -4.4690    -0.1920 C.ar  1 <1>   0.0820 
 16 C       -1.4330    -3.7180    -0.7320 C.ar  1 <1>  -0.1500 
 17 C       -0.7050    -5.5910     0.5760 C.ar  1 <1>  -0.1500 
 18 C       -2.7520    -4.0760    -0.5130 C.ar  1 <1>  -0.1500 
 19 C       -2.0260    -5.9450     0.7920 C.ar  1 <1>  -0.1500 
 20 C       -3.0550    -5.1910     0.2510 C.ar  1 <1>  -0.1430 
 21 C       -4.5010    -5.5840     0.4900 C.3   1 <1>  -0.0970 
 22 H        7.3350    -4.6530    -1.2310 H     1 <1>   0.0800 
 23 H       10.3350    -2.9380     1.6500 H     1 <1>   0.0800 
 24 H       10.2870    -1.9910     0.1670 H     1 <1>   0.0800 
 25 H        5.5640    -3.2520    -1.2410 H     1 <1>   0.0800 
 26 H        5.6240    -2.9530     0.4690 H     1 <1>   0.0800 
 27 H        6.7360    -5.5250     1.6020 H     1 <1>   0.0800 
 28 H        7.9380    -6.2330     0.5680 H     1 <1>   0.0800 
 29 H       11.7940    -4.6110     0.5330 H     1 <1>   0.0800 
 30 H       12.5310    -3.0300     0.4760 H     1 <1>   0.0800 
 31 H       11.7470    -3.6660    -0.9480 H     1 <1>   0.0800 
 32 H        4.4640    -4.8310     0.9680 H     1 <1>   0.4500 
 33 H        5.5350    -7.3340     0.7800 H     1 <1>   0.0800 
 34 H        6.3700    -7.3510    -0.7310 H     1 <1>   0.0800 
 35 H        4.9650    -5.8440    -1.7380 H     1 <1>   0.0800 
 36 H        3.8550    -6.6110    -0.6300 H     1 <1>   0.0800 
 37 H        3.1920    -3.9530    -1.5520 H     1 <1>   0.0800 
 38 H        3.1850    -3.0120    -0.0810 H     1 <1>   0.0800 
 39 H        1.9360    -4.7770     1.0870 H     1 <1>   0.0800 
 40 H        1.9290    -5.7550    -0.3940 H     1 <1>   0.0800 
 41 H       -1.2030    -2.8520    -1.3250 H     1 <1>   0.1500 
 42 H        0.0590    -6.2010     1.0160 H     1 <1>   0.1500 
 43 H       -3.5410    -3.4830    -0.9410 H     1 <1>   0.1500 
 44 H       -2.2540    -6.8130     1.3860 H     1 <1>   0.1500 
 45 H       -5.1330    -4.7140     0.4890 H     1 <1>   0.0800 
 46 H       -4.6060    -6.0770     1.4390 H     1 <1>   0.0800 
 47 H       -4.8290    -6.2520    -0.2870 H     1 <1>   0.0800 
@<TRIPOS>BOND
  1   1   2  2   
  2   2   3  1   
  3   2   4  1   
  4   3   5  1   
  5   4   6  1   
  6   4   7  1   
  7   4  22  1   
  8   5   8  1   
  9   5  23  1   
 10   5  24  1   
 11   6   9  1   
 12   6  25  1   
 13   6  26  1   
 14   7  10  1   
 15   7  27  1   
 16   7  28  1   
 17   8  29  1   
 18   8  30  1   
 19   8  31  1   
 20   9  11  1   
 21   9  12  1   
 22   9  32  1   
 23  10  11  1   
 24  10  33  1   
 25  10  34  1   
 26  11  35  1   
 27  11  36  1   
 28  12  13  1   
 29  12  37  1   
 30  12  38  1   
 31  13  14  1   
 32  13  39  1   
 33  13  40  1   
 34  14  15  1   
 35  15  16  ar  
 36  15  17  ar  
 37  16  18  ar  
 38  16  41  1   
 39  17  19  ar  
 40  17  42  1   
 41  18  20  ar  
 42  18  43  1   
 43  19  20  ar  
 44  19  44  1   
 45  20  21  1   
 46  21  45  1   
 47  21  46  1   
 48  21  47  1   
@<TRIPOS>SUBSTRUCTURE
  1 ****  12 GROUP 4 **** **** 0

# MOE 2024.06 (io_trps.svl 2023.06)
