@<TRIPOS>MOLECULE
NONAME
42 44 1 0 0 
SMALL
USER_CHARGES


@<TRIPOS>ATOM
  1 F       -0.8610    -0.5330    -0.0830 F     1 <1>  -0.3400 
  2 C       -1.7850    -0.7660    -1.0070 C.3   1 <1>   1.1640 
  3 F       -2.0830     0.4090    -1.5450 F     1 <1>  -0.3400 
  4 F       -1.1900    -1.4750    -1.9580 F     1 <1>  -0.3400 
  5 C       -3.0350    -1.4620    -0.4380 C.ar  1 <1>  -0.1440 
  6 C       -3.7950    -2.3190    -1.2260 C.ar  1 <1>  -0.1500 
  7 C       -3.4360    -1.2420     0.8760 C.ar  1 <1>  -0.1500 
  8 C       -4.9230    -2.9390    -0.7180 C.ar  1 <1>  -0.1500 
  9 C       -4.5640    -1.8590     1.3860 C.ar  1 <1>  -0.1500 
 10 C       -5.3200    -2.7060     0.5900 C.ar  1 <1>  -0.1430 
 11 C       -6.5700    -3.3620     1.1450 C.3   1 <1>   0.4870 
 12 N       -7.7600    -2.7040     0.5420 N.4   1 <1>  -0.9590 
 13 C       -7.8120    -1.2280     0.8600 C.3   1 <1>   0.3430 
 14 C       -9.0440    -3.3820     0.9430 C.3   1 <1>   0.3430 
 15 C       -9.0380    -0.5360     0.2330 C.3   1 <1>   0.2090 
 16 C      -10.2830    -2.7070     0.3200 C.3   1 <1>   0.2090 
 17 N      -10.3060    -1.2380     0.5920 N.pl3 1 <1>  -0.8380 
 18 C      -11.4390    -0.6030     0.1320 C.ar  1 <1>   0.4100 
 19 N      -11.6240    -0.6200    -1.1810 N.ar  1 <1>  -0.6200 
 20 C      -12.3060     0.0090     1.0300 C.ar  1 <1>  -0.1500 
 21 C      -12.7150    -0.0040    -1.6100 C.ar  1 <1>   0.1600 
 22 C      -13.4340     0.6450     0.5690 C.ar  1 <1>  -0.1500 
 23 C      -13.6360     0.6320    -0.7970 C.ar  1 <1>  -0.1500 
 24 H       -3.5080    -2.5120    -2.2480 H     1 <1>   0.1500 
 25 H       -2.8650    -0.5840     1.5130 H     1 <1>   0.1500 
 26 H       -5.4790    -3.6030    -1.3580 H     1 <1>   0.1500 
 27 H       -4.8390    -1.6680     2.4110 H     1 <1>   0.1500 
 28 H       -6.5920    -3.2610     2.2180 H     1 <1>   0.0800 
 29 H       -6.5600    -4.4120     0.9000 H     1 <1>   0.0800 
 30 H       -7.6650    -2.7760    -0.4780 H     1 <1>   0.4500 
 31 H       -6.9200    -0.7420     0.5000 H     1 <1>   0.0800 
 32 H       -7.8580    -1.0890     1.9270 H     1 <1>   0.0800 
 33 H       -9.1520    -3.3480     2.0150 H     1 <1>   0.0800 
 34 H       -9.0250    -4.4170     0.6440 H     1 <1>   0.0800 
 35 H       -8.9320    -0.5090    -0.8380 H     1 <1>   0.0800 
 36 H       -9.0890     0.4820     0.5810 H     1 <1>   0.0800 
 37 H      -11.1750    -3.1530     0.7270 H     1 <1>   0.0800 
 38 H      -10.2920    -2.8770    -0.7440 H     1 <1>   0.0800 
 39 H      -12.0800    -0.0240     2.0780 H     1 <1>   0.1500 
 40 H      -12.8860    -0.0050    -2.6740 H     1 <1>   0.1500 
 41 H      -14.1270     1.1290     1.2360 H     1 <1>   0.1500 
 42 H      -14.4980     1.1100    -1.2250 H     1 <1>   0.1500 
@<TRIPOS>BOND
  1   1   2  1   
  2   2   3  1   
  3   2   4  1   
  4   2   5  1   
  5   5   6  ar  
  6   5   7  ar  
  7   6   8  ar  
  8   6  24  1   
  9   7   9  ar  
 10   7  25  1   
 11   8  10  ar  
 12   8  26  1   
 13   9  10  ar  
 14   9  27  1   
 15  10  11  1   
 16  11  12  1   
 17  11  28  1   
 18  11  29  1   
 19  12  13  1   
 20  12  14  1   
 21  12  30  1   
 22  13  15  1   
 23  13  31  1   
 24  13  32  1   
 25  14  16  1   
 26  14  33  1   
 27  14  34  1   
 28  15  17  1   
 29  15  35  1   
 30  15  36  1   
 31  16  17  1   
 32  16  37  1   
 33  16  38  1   
 34  17  18  1   
 35  18  19  ar  
 36  18  20  ar  
 37  19  21  ar  
 38  20  22  ar  
 39  20  39  1   
 40  21  23  ar  
 41  21  40  1   
 42  22  23  ar  
 43  22  41  1   
 44  23  42  1   
@<TRIPOS>SUBSTRUCTURE
  1 ****  13 GROUP 4 **** **** 0

# MOE 2024.06 (io_trps.svl 2023.06)
