@<TRIPOS>MOLECULE
NONAME
56 59 1 0 0 
SMALL
USER_CHARGES


@<TRIPOS>ATOM
  1 O        0.4240     0.5960    -1.1760 O.2   1 <1>  -0.5700 
  2 C        0.8720    -0.4380    -0.7140 C.2   1 <1>   0.5440 
  3 N        0.0110    -1.4450    -0.3630 N.am  1 <1>  -0.5470 
  4 C        2.3100    -0.5930    -0.5470 C.ar  1 <1>   0.0860 
  5 C       -1.3820    -1.6480    -0.4330 C.ar  1 <1>   0.1170 
  6 C        2.9130    -1.5540     0.2840 C.ar  1 <1>   0.0830 
  7 C        3.1770     0.2510    -1.2510 C.ar  1 <1>  -0.1500 
  8 C       -1.8950    -2.7980     0.1930 C.ar  1 <1>   0.1000 
  9 C       -2.2500    -0.7820    -1.0850 C.ar  1 <1>  -0.1500 
 10 O        2.1890    -2.4160     1.0230 O.3   1 <1>  -0.3630 
 11 C        4.2930    -1.6670     0.3740 C.ar  1 <1>  -0.1500 
 12 C        4.5520     0.1460    -1.1530 C.ar  1 <1>  -0.1500 
 13 N       -1.0240    -3.7000     0.8460 N.pl3 1 <1>  -0.8380 
 14 C       -3.2620    -3.0330     0.1430 C.ar  1 <1>  -0.1500 
 15 C       -3.6090    -1.0380    -1.1190 C.ar  1 <1>  -0.1500 
 16 C        1.8080    -1.9830     2.3110 C.3   1 <1>   0.0400 
 17 C        5.1150    -0.8200    -0.3400 C.ar  1 <1>  -0.1500 
 18 C       -1.4150    -4.2840     2.1690 C.3   1 <1>   0.2090 
 19 C       -0.2770    -4.6610    -0.0230 C.3   1 <1>   0.2090 
 20 C       -4.1290    -2.1640    -0.5050 C.ar  1 <1>   0.1000 
 21 C       -1.9530    -5.7250     2.0500 C.3   1 <1>   0.1200 
 22 C       -0.9300    -6.0540    -0.0270 C.3   1 <1>   0.1200 
 23 N       -5.5030    -2.3970    -0.5550 N.pl3 1 <1>  -0.8380 
 24 O       -1.1060    -6.5280     1.2790 O.3   1 <1>  -0.5600 
 25 C       -5.9260    -3.6200    -1.2990 C.3   1 <1>   0.2090 
 26 C       -6.2200    -2.2690     0.7470 C.3   1 <1>   0.2090 
 27 C       -7.4600    -3.7130    -1.3810 C.3   1 <1>   0.1200 
 28 C       -7.7390    -2.4330     0.5600 C.3   1 <1>   0.1200 
 29 O       -8.0360    -3.6310    -0.1050 O.3   1 <1>  -0.5600 
 30 H        0.4500    -2.2160     0.1550 H     1 <1>   0.3700 
 31 H        2.7590     1.0080    -1.8930 H     1 <1>   0.1500 
 32 H       -1.8760     0.0970    -1.5720 H     1 <1>   0.1500 
 33 H        4.7190    -2.4250     1.0080 H     1 <1>   0.1500 
 34 H        5.1850     0.8140    -1.7120 H     1 <1>   0.1500 
 35 H       -3.6710    -3.9050     0.6050 H     1 <1>   0.1500 
 36 H       -4.2770    -0.3650    -1.6220 H     1 <1>   0.1500 
 37 H        1.2500    -2.7730     2.7800 H     1 <1>   0.0800 
 38 H        1.1940    -1.1040     2.2210 H     1 <1>   0.0800 
 39 H        2.6930    -1.7650     2.8830 H     1 <1>   0.0800 
 40 H        6.1860    -0.9080    -0.2650 H     1 <1>   0.1500 
 41 H       -2.1560    -3.6590     2.6360 H     1 <1>   0.0800 
 42 H       -0.5510    -4.2950     2.8090 H     1 <1>   0.0800 
 43 H        0.7350    -4.7470     0.3340 H     1 <1>   0.0800 
 44 H       -0.2390    -4.2850    -1.0320 H     1 <1>   0.0800 
 45 H       -2.9300    -5.7330     1.6010 H     1 <1>   0.0800 
 46 H       -2.0260    -6.1700     3.0260 H     1 <1>   0.0800 
 47 H       -0.3030    -6.7540    -0.5490 H     1 <1>   0.0800 
 48 H       -1.8880    -6.0160    -0.5150 H     1 <1>   0.0800 
 49 H       -5.5450    -4.4970    -0.8070 H     1 <1>   0.0800 
 50 H       -5.5150    -3.5880    -2.2930 H     1 <1>   0.0800 
 51 H       -6.0130    -1.3010     1.1700 H     1 <1>   0.0800 
 52 H       -5.8650    -3.0180     1.4330 H     1 <1>   0.0800 
 53 H       -7.7530    -4.6520    -1.8140 H     1 <1>   0.0800 
 54 H       -7.8500    -2.9140    -1.9870 H     1 <1>   0.0800 
 55 H       -8.1330    -1.6130    -0.0150 H     1 <1>   0.0800 
 56 H       -8.2300    -2.4560     1.5150 H     1 <1>   0.0800 
@<TRIPOS>BOND
  1   1   2  2   
  2   2   3  am  
  3   2   4  1   
  4   3   5  1   
  5   3  30  1   
  6   4   6  ar  
  7   4   7  ar  
  8   5   8  ar  
  9   5   9  ar  
 10   6  10  1   
 11   6  11  ar  
 12   7  12  ar  
 13   7  31  1   
 14   8  13  1   
 15   8  14  ar  
 16   9  15  ar  
 17   9  32  1   
 18  10  16  1   
 19  11  17  ar  
 20  11  33  1   
 21  12  17  ar  
 22  12  34  1   
 23  13  18  1   
 24  13  19  1   
 25  14  20  ar  
 26  14  35  1   
 27  15  20  ar  
 28  15  36  1   
 29  16  37  1   
 30  16  38  1   
 31  16  39  1   
 32  17  40  1   
 33  18  21  1   
 34  18  41  1   
 35  18  42  1   
 36  19  22  1   
 37  19  43  1   
 38  19  44  1   
 39  20  23  1   
 40  21  24  1   
 41  21  45  1   
 42  21  46  1   
 43  22  24  1   
 44  22  47  1   
 45  22  48  1   
 46  23  25  1   
 47  23  26  1   
 48  25  27  1   
 49  25  49  1   
 50  25  50  1   
 51  26  28  1   
 52  26  51  1   
 53  26  52  1   
 54  27  29  1   
 55  27  53  1   
 56  27  54  1   
 57  28  29  1   
 58  28  55  1   
 59  28  56  1   
@<TRIPOS>SUBSTRUCTURE
  1 ****   8 GROUP 4 **** **** 0

# MOE 2024.06 (io_trps.svl 2023.06)
