@<TRIPOS>MOLECULE
NONAME
33 33 1 0 0 
SMALL
USER_CHARGES


@<TRIPOS>ATOM
  1 O        0.1640     0.3210     0.2210 O.2   1 <1>  -0.5700 
  2 C        0.0680     1.4380    -0.2540 C.2   1 <1>   0.6900 
  3 N        1.1840     2.1520    -0.6130 N.am  1 <1>  -0.6600 
  4 N       -1.1620     1.9760    -0.4500 N.am  1 <1>  -0.7300 
  5 C        2.5360     1.5240    -0.5900 C.3   1 <1>   0.1400 
  6 C        1.1980     3.6130    -0.8980 C.3   1 <1>   0.1400 
  7 C       -2.4400     1.3190    -0.1170 C.3   1 <1>   0.1400 
  8 C        3.4270     2.2200     0.4510 C.3   1 <1>  -0.0800 
  9 C        2.0720     4.3310     0.1350 C.3   1 <1>  -0.1600 
 10 C       -3.4180     2.3700     0.4100 C.3   1 <1>  -0.1600 
 11 C        3.4860     3.7360     0.1970 C.3   1 <1>  -0.1600 
 12 C        4.8400     1.6220     0.4440 C.3   1 <1>  -0.2400 
 13 C       -4.7680     1.7420     0.7730 C.3   1 <1>  -0.2400 
 14 H       -1.2170     2.8160    -1.0150 H     1 <1>   0.3700 
 15 H        2.9760     1.6140    -1.5680 H     1 <1>   0.0800 
 16 H        2.4640     0.4750    -0.3590 H     1 <1>   0.0800 
 17 H        0.2070     4.0260    -0.8670 H     1 <1>   0.0800 
 18 H        1.5970     3.7700    -1.8860 H     1 <1>   0.0800 
 19 H       -2.2770     0.5610     0.6320 H     1 <1>   0.0800 
 20 H       -2.8360     0.8470    -1.0000 H     1 <1>   0.0800 
 21 H        2.9930     2.0450     1.4210 H     1 <1>   0.0800 
 22 H        1.6030     4.2480     1.1010 H     1 <1>   0.0800 
 23 H        2.1310     5.3750    -0.1120 H     1 <1>   0.0800 
 24 H       -3.5730     3.1260    -0.3400 H     1 <1>   0.0800 
 25 H       -2.9980     2.8330     1.2870 H     1 <1>   0.0800 
 26 H        3.9920     3.9260    -0.7340 H     1 <1>   0.0800 
 27 H        4.0430     4.2150     0.9840 H     1 <1>   0.0800 
 28 H        5.3100     1.7640    -0.5130 H     1 <1>   0.0800 
 29 H        4.7960     0.5670     0.6530 H     1 <1>   0.0800 
 30 H        5.4460     2.0900     1.1990 H     1 <1>   0.0800 
 31 H       -5.2160     1.2830    -0.0910 H     1 <1>   0.0800 
 32 H       -5.4380     2.4970     1.1450 H     1 <1>   0.0800 
 33 H       -4.6400     0.9930     1.5360 H     1 <1>   0.0800 
@<TRIPOS>BOND
  1   1   2  2   
  2   2   3  am  
  3   2   4  am  
  4   3   5  1   
  5   3   6  1   
  6   4   7  1   
  7   4  14  1   
  8   5   8  1   
  9   5  15  1   
 10   5  16  1   
 11   6   9  1   
 12   6  17  1   
 13   6  18  1   
 14   7  10  1   
 15   7  19  1   
 16   7  20  1   
 17   8  11  1   
 18   8  12  1   
 19   8  21  1   
 20   9  11  1   
 21   9  22  1   
 22   9  23  1   
 23  10  13  1   
 24  10  24  1   
 25  10  25  1   
 26  11  26  1   
 27  11  27  1   
 28  12  28  1   
 29  12  29  1   
 30  12  30  1   
 31  13  31  1   
 32  13  32  1   
 33  13  33  1   
@<TRIPOS>SUBSTRUCTURE
  1 ****   3 GROUP 4 **** **** 0

# MOE 2024.06 (io_trps.svl 2023.06)
