@<TRIPOS>MOLECULE
NONAME
52 54 1 0 0 
SMALL
USER_CHARGES


@<TRIPOS>ATOM
  1 S        0.4350    -0.2170    -0.4740 S.o2  1 <1>   1.4470 
  2 O       -0.2490    -0.4790     0.7740 O.2   1 <1>  -0.6500 
  3 O        0.0680    -0.9620    -1.6590 O.2   1 <1>  -0.6500 
  4 N        0.2010     1.4230    -0.8320 N.am  1 <1>  -0.8490 
  5 C        2.2280    -0.3330    -0.2340 C.ar  1 <1>  -0.0090 
  6 C       -1.1180     1.6560    -1.4390 C.3   1 <1>   0.1960 
  7 C        0.3490     2.2900     0.3490 C.3   1 <1>   0.1960 
  8 C        3.1080     0.1530    -1.1940 C.ar  1 <1>  -0.1500 
  9 C        2.7670    -0.9150     0.9090 C.ar  1 <1>  -0.1500 
 10 C       -1.3310     3.1480    -1.7550 C.3   1 <1>   0.1200 
 11 C        0.1120     3.7670    -0.0180 C.3   1 <1>   0.1200 
 12 C        4.4770     0.0650    -1.0190 C.ar  1 <1>  -0.1500 
 13 C        4.1360    -1.0090     1.0940 C.ar  1 <1>  -0.1500 
 14 O       -1.1470     3.9290    -0.6080 O.3   1 <1>  -0.5600 
 15 C        5.0010    -0.5150     0.1230 C.ar  1 <1>   0.0830 
 16 O        6.3480    -0.5650     0.2150 O.3   1 <1>  -0.3630 
 17 C        6.9950    -1.1570     1.3320 C.3   1 <1>   0.1810 
 18 C        8.5120    -1.1120     1.1780 C.2   1 <1>   0.5690 
 19 O        9.0790    -2.1810     1.1160 O.2   1 <1>  -0.5700 
 20 N        9.2080     0.0770     1.1380 N.am  1 <1>  -0.6600 
 21 C       10.6720     0.0640     0.8740 C.3   1 <1>   0.1400 
 22 C        8.5830     1.4230     1.2960 C.3   1 <1>   0.1400 
 23 C       10.9250    -0.0060    -0.6370 C.3   1 <1>  -0.1600 
 24 C        9.0310     2.4390     0.2340 C.3   1 <1>  -0.1600 
 25 C       10.6230     1.2920    -1.4050 C.3   1 <1>  -0.1600 
 26 C        9.2120     1.8600    -1.1810 C.3   1 <1>  -0.1600 
 27 H       -1.8960     1.3200    -0.7730 H     1 <1>   0.0800 
 28 H       -1.1990     1.0950    -2.3550 H     1 <1>   0.0800 
 29 H        1.3410     2.1840     0.7540 H     1 <1>   0.0800 
 30 H       -0.3570     2.0080     1.1130 H     1 <1>   0.0800 
 31 H        2.7130     0.6020    -2.0900 H     1 <1>   0.1500 
 32 H        2.1040    -1.3030     1.6640 H     1 <1>   0.1500 
 33 H       -2.3330     3.3140    -2.1090 H     1 <1>   0.0800 
 34 H       -0.6370     3.4750    -2.5100 H     1 <1>   0.0800 
 35 H        0.8630     4.1110    -0.7070 H     1 <1>   0.0800 
 36 H        0.1410     4.3800     0.8650 H     1 <1>   0.0800 
 37 H        5.1490     0.4420    -1.7710 H     1 <1>   0.1500 
 38 H        4.5030    -1.4690     1.9910 H     1 <1>   0.1500 
 39 H        6.6780    -2.1820     1.3960 H     1 <1>   0.0800 
 40 H        6.7060    -0.6290     2.2200 H     1 <1>   0.0800 
 41 H       11.1080    -0.8030     1.3430 H     1 <1>   0.0800 
 42 H       11.1400     0.9340     1.2990 H     1 <1>   0.0800 
 43 H        8.8250     1.8060     2.2730 H     1 <1>   0.0800 
 44 H        7.5140     1.3430     1.2410 H     1 <1>   0.0800 
 45 H       10.3460    -0.8140    -1.0490 H     1 <1>   0.0800 
 46 H       11.9600    -0.2520    -0.7910 H     1 <1>   0.0800 
 47 H        9.9400     2.9150     0.5550 H     1 <1>   0.0800 
 48 H        8.2830     3.2100     0.1950 H     1 <1>   0.0800 
 49 H       10.7440     1.0910    -2.4550 H     1 <1>   0.0800 
 50 H       11.3520     2.0380    -1.1400 H     1 <1>   0.0800 
 51 H        9.0630     2.6560    -1.8900 H     1 <1>   0.0800 
 52 H        8.4670     1.1080    -1.3800 H     1 <1>   0.0800 
@<TRIPOS>BOND
  1   1   2  2   
  2   1   3  2   
  3   1   4  am  
  4   1   5  1   
  5   4   6  1   
  6   4   7  1   
  7   5   8  ar  
  8   5   9  ar  
  9   6  10  1   
 10   6  27  1   
 11   6  28  1   
 12   7  11  1   
 13   7  29  1   
 14   7  30  1   
 15   8  12  ar  
 16   8  31  1   
 17   9  13  ar  
 18   9  32  1   
 19  10  14  1   
 20  10  33  1   
 21  10  34  1   
 22  11  14  1   
 23  11  35  1   
 24  11  36  1   
 25  12  15  ar  
 26  12  37  1   
 27  13  15  ar  
 28  13  38  1   
 29  15  16  1   
 30  16  17  1   
 31  17  18  1   
 32  17  39  1   
 33  17  40  1   
 34  18  19  2   
 35  18  20  am  
 36  20  21  1   
 37  20  22  1   
 38  21  23  1   
 39  21  41  1   
 40  21  42  1   
 41  22  24  1   
 42  22  43  1   
 43  22  44  1   
 44  23  25  1   
 45  23  45  1   
 46  23  46  1   
 47  24  26  1   
 48  24  47  1   
 49  24  48  1   
 50  25  26  1   
 51  25  49  1   
 52  25  50  1   
 53  26  51  1   
 54  26  52  1   
@<TRIPOS>SUBSTRUCTURE
  1 ****  12 GROUP 4 **** **** 0

# MOE 2024.06 (io_trps.svl 2023.06)
