@<TRIPOS>MOLECULE
NONAME
37 37 1 0 0 
SMALL
USER_CHARGES


@<TRIPOS>ATOM
  1 CL       0.6840    -0.6440    -0.6200 Cl    1 <1>  -0.1770 
  2 C       -0.5160     0.5900    -0.2710 C.ar  1 <1>   0.1770 
  3 C       -0.2080     1.9130     0.0800 C.ar  1 <1>   0.0830 
  4 C       -1.8320     0.1710    -0.3630 C.ar  1 <1>  -0.1500 
  5 O        1.0270     2.4790     0.2120 O.3   1 <1>  -0.3630 
  6 C       -1.2610     2.7810     0.3310 C.ar  1 <1>  -0.1500 
  7 C       -2.8700     1.0510    -0.1080 C.ar  1 <1>  -0.1430 
  8 C        2.2300     1.7950    -0.0230 C.3   1 <1>   0.1200 
  9 C       -2.5760     2.3580     0.2380 C.ar  1 <1>  -0.1500 
 10 C       -4.3140     0.5920    -0.2100 C.3   1 <1>  -0.0960 
 11 C        3.3820     2.7750     0.2110 C.3   1 <1>   0.3430 
 12 N        4.7280     2.1810    -0.1020 N.4   1 <1>  -0.9590 
 13 C        5.0730     1.0520     0.8070 C.3   1 <1>   0.3430 
 14 C        5.7630     3.2490    -0.0720 C.3   1 <1>   0.3430 
 15 C        5.0200    -0.2440     0.0090 C.3   1 <1>  -0.2400 
 16 C        7.0090     2.7750    -0.8130 C.3   1 <1>  -0.2400 
 17 H       -2.0400    -0.8480    -0.6360 H     1 <1>   0.1500 
 18 H       -1.0510     3.8000     0.6010 H     1 <1>   0.1500 
 19 H        2.2250     1.4550    -1.0440 H     1 <1>   0.0800 
 20 H        2.2810     0.9740     0.6690 H     1 <1>   0.0800 
 21 H       -3.3720     3.0550     0.4370 H     1 <1>   0.1500 
 22 H       -4.3880    -0.4680    -0.0440 H     1 <1>   0.0800 
 23 H       -4.7000     0.8160    -1.1890 H     1 <1>   0.0800 
 24 H       -4.9190     1.0920     0.5240 H     1 <1>   0.0800 
 25 H        3.3590     3.1000     1.2380 H     1 <1>   0.0800 
 26 H        3.2190     3.6340    -0.4190 H     1 <1>   0.0800 
 27 H        4.7040     1.8120    -1.0620 H     1 <1>   0.4500 
 28 H        4.3840     1.0070     1.6360 H     1 <1>   0.0800 
 29 H        6.0670     1.1820     1.2060 H     1 <1>   0.0800 
 30 H        6.0090     3.5050     0.9470 H     1 <1>   0.0800 
 31 H        5.3870     4.1350    -0.5610 H     1 <1>   0.0800 
 32 H        4.0350    -0.4260    -0.3820 H     1 <1>   0.0800 
 33 H        5.7330    -0.2270    -0.7960 H     1 <1>   0.0800 
 34 H        5.2730    -1.0660     0.6550 H     1 <1>   0.0800 
 35 H        7.7310     3.5730    -0.8310 H     1 <1>   0.0800 
 36 H        7.4650     1.9340    -0.3240 H     1 <1>   0.0800 
 37 H        6.7750     2.5200    -1.8310 H     1 <1>   0.0800 
@<TRIPOS>BOND
  1   1   2  1   
  2   2   3  ar  
  3   2   4  ar  
  4   3   5  1   
  5   3   6  ar  
  6   4   7  ar  
  7   4  17  1   
  8   5   8  1   
  9   6   9  ar  
 10   6  18  1   
 11   7   9  ar  
 12   7  10  1   
 13   8  11  1   
 14   8  19  1   
 15   8  20  1   
 16   9  21  1   
 17  10  22  1   
 18  10  23  1   
 19  10  24  1   
 20  11  12  1   
 21  11  25  1   
 22  11  26  1   
 23  12  13  1   
 24  12  14  1   
 25  12  27  1   
 26  13  15  1   
 27  13  28  1   
 28  13  29  1   
 29  14  16  1   
 30  14  30  1   
 31  14  31  1   
 32  15  32  1   
 33  15  33  1   
 34  15  34  1   
 35  16  35  1   
 36  16  36  1   
 37  16  37  1   
@<TRIPOS>SUBSTRUCTURE
  1 ****   8 GROUP 4 **** **** 0

# MOE 2024.06 (io_trps.svl 2023.06)
