@<TRIPOS>MOLECULE
NONAME
46 47 1 0 0 
SMALL
USER_CHARGES


@<TRIPOS>ATOM
  1 F        0.4070    -0.4410     0.5600 F     1 <1>  -0.1900 
  2 C        1.1600    -1.4510     0.2180 C.ar  1 <1>   0.1900 
  3 C        0.9390    -2.6780     0.8110 C.ar  1 <1>  -0.1500 
  4 C        2.1510    -1.2550    -0.7240 C.ar  1 <1>  -0.1500 
  5 C        1.7440    -3.7460     0.4490 C.ar  1 <1>  -0.1500 
  6 C        2.9500    -2.3280    -1.0800 C.ar  1 <1>  -0.1500 
  7 C        2.7550    -3.5730    -0.4910 C.ar  1 <1>  -0.1430 
  8 C        3.6480    -4.7390    -0.8750 C.3   1 <1>   0.4870 
  9 N        4.6180    -4.9840     0.2260 N.4   1 <1>  -0.9590 
 10 C        5.5170    -3.7860     0.4350 C.3   1 <1>   0.3430 
 11 C        5.4120    -6.2400    -0.0360 C.3   1 <1>   0.3430 
 12 C        6.6050    -4.0400     1.4980 C.3   1 <1>   0.1400 
 13 C        6.5080    -6.4720     1.0240 C.3   1 <1>   0.1400 
 14 N        7.3720    -5.2630     1.1440 N.am  1 <1>  -0.6600 
 15 C        8.3670    -5.1110     0.2270 C.2   1 <1>   0.6900 
 16 O        8.1990    -5.5050    -0.9110 O.2   1 <1>  -0.5700 
 17 N        9.4890    -4.4640     0.6000 N.am  1 <1>  -0.7300 
 18 C       10.6630    -4.2340    -0.2670 C.3   1 <1>   0.1400 
 19 C       11.2130    -2.8330    -0.0020 C.3   1 <1>  -0.1600 
 20 C       12.4320    -2.5410    -0.8850 C.3   1 <1>  -0.1600 
 21 C       12.9820    -1.1370    -0.6180 C.3   1 <1>  -0.2400 
 22 H        0.1490    -2.7870     1.5350 H     1 <1>   0.1500 
 23 H        2.2830    -0.2830    -1.1660 H     1 <1>   0.1500 
 24 H        1.5640    -4.7050     0.9060 H     1 <1>   0.1500 
 25 H        3.7180    -2.1770    -1.8210 H     1 <1>   0.1500 
 26 H        4.1730    -4.5160    -1.7900 H     1 <1>   0.0800 
 27 H        3.0400    -5.6150    -1.0370 H     1 <1>   0.0800 
 28 H        4.0740    -5.1090     1.0880 H     1 <1>   0.4500 
 29 H        4.9280    -2.9320     0.7300 H     1 <1>   0.0800 
 30 H        6.0090    -3.5420    -0.4930 H     1 <1>   0.0800 
 31 H        5.8950    -6.1670    -0.9980 H     1 <1>   0.0800 
 32 H        4.7570    -7.0950    -0.0600 H     1 <1>   0.0800 
 33 H        6.1590    -4.1570     2.4710 H     1 <1>   0.0800 
 34 H        7.2680    -3.1920     1.5380 H     1 <1>   0.0800 
 35 H        7.1130    -7.3150     0.7300 H     1 <1>   0.0800 
 36 H        6.0670    -6.7010     1.9780 H     1 <1>   0.0800 
 37 H        9.6470    -4.3500     1.6000 H     1 <1>   0.3700 
 38 H       10.3790    -4.3270    -1.3030 H     1 <1>   0.0800 
 39 H       11.4140    -4.9760    -0.0520 H     1 <1>   0.0800 
 40 H       11.4980    -2.7510     1.0330 H     1 <1>   0.0800 
 41 H       10.4450    -2.1080    -0.2090 H     1 <1>   0.0800 
 42 H       12.1560    -2.6200    -1.9230 H     1 <1>   0.0800 
 43 H       13.2050    -3.2660    -0.6890 H     1 <1>   0.0800 
 44 H       12.2340    -0.3930    -0.8280 H     1 <1>   0.0800 
 45 H       13.8340    -0.9500    -1.2480 H     1 <1>   0.0800 
 46 H       13.2890    -1.0410     0.4090 H     1 <1>   0.0800 
@<TRIPOS>BOND
  1   1   2  1   
  2   2   3  ar  
  3   2   4  ar  
  4   3   5  ar  
  5   3  22  1   
  6   4   6  ar  
  7   4  23  1   
  8   5   7  ar  
  9   5  24  1   
 10   6   7  ar  
 11   6  25  1   
 12   7   8  1   
 13   8   9  1   
 14   8  26  1   
 15   8  27  1   
 16   9  10  1   
 17   9  11  1   
 18   9  28  1   
 19  10  12  1   
 20  10  29  1   
 21  10  30  1   
 22  11  13  1   
 23  11  31  1   
 24  11  32  1   
 25  12  14  1   
 26  12  33  1   
 27  12  34  1   
 28  13  14  1   
 29  13  35  1   
 30  13  36  1   
 31  14  15  am  
 32  15  16  2   
 33  15  17  am  
 34  17  18  1   
 35  17  37  1   
 36  18  19  1   
 37  18  38  1   
 38  18  39  1   
 39  19  20  1   
 40  19  40  1   
 41  19  41  1   
 42  20  21  1   
 43  20  42  1   
 44  20  43  1   
 45  21  44  1   
 46  21  45  1   
 47  21  46  1   
@<TRIPOS>SUBSTRUCTURE
  1 ****  10 GROUP 4 **** **** 0

# MOE 2024.06 (io_trps.svl 2023.06)
