@<TRIPOS>MOLECULE
NONAME
52 52 1 0 0 
SMALL
USER_CHARGES


@<TRIPOS>ATOM
  1 O        0.0220    -0.6360    -0.7770 O.2   1 <1>  -0.5700 
  2 C       -0.0880    -1.7120    -0.2500 C.2   1 <1>   0.6590 
  3 O       -1.2470    -2.1850     0.1810 O.3   1 <1>  -0.4300 
  4 C        1.1230    -2.6150    -0.0400 C.3   1 <1>  -0.0190 
  5 C       -2.4380    -1.4440     0.0450 C.3   1 <1>   0.1200 
  6 C        2.1610    -1.9420     0.8770 C.3   1 <1>  -0.1600 
  7 C        1.7690    -2.9940    -1.3870 C.3   1 <1>  -0.1600 
  8 C       -3.5770    -2.2670     0.6380 C.3   1 <1>  -0.2400 
  9 C        3.4370    -2.7710     1.0090 C.3   1 <1>   0.3430 
 10 C        3.0530    -3.8000    -1.2020 C.3   1 <1>   0.3430 
 11 N        4.0020    -3.0340    -0.3470 N.4   1 <1>  -0.9590 
 12 C        5.3260    -3.7200    -0.2880 C.3   1 <1>   0.3430 
 13 C        6.4350    -2.8090     0.2730 C.3   1 <1>  -0.0800 
 14 C        7.7630    -3.5920     0.2340 C.3   1 <1>  -0.1600 
 15 C        6.5410    -1.4820    -0.5070 C.3   1 <1>  -0.2400 
 16 C        8.9290    -2.8980     0.9510 C.3   1 <1>  -0.0220 
 17 C       10.1320    -3.8260     0.9640 C.2   1 <1>  -0.2880 
 18 C       11.2570    -3.7440     0.2420 C.2   1 <1>  -0.2760 
 19 C       12.3740    -4.7630     0.4000 C.3   1 <1>  -0.1020 
 20 C       11.5930    -2.6850    -0.8000 C.3   1 <1>  -0.1020 
 21 H        0.7800    -3.5170     0.4380 H     1 <1>   0.0800 
 22 H       -2.3230    -0.5100     0.5690 H     1 <1>   0.0800 
 23 H       -2.6050    -1.2520    -1.0020 H     1 <1>   0.0800 
 24 H        1.7320    -1.7990     1.8550 H     1 <1>   0.0800 
 25 H        2.4130    -0.9660     0.4960 H     1 <1>   0.0800 
 26 H        1.9880    -2.1050    -1.9540 H     1 <1>   0.0800 
 27 H        1.0700    -3.5750    -1.9650 H     1 <1>   0.0800 
 28 H       -3.3950    -2.4580     1.6810 H     1 <1>   0.0800 
 29 H       -3.6770    -3.1990     0.1120 H     1 <1>   0.0800 
 30 H       -4.5010    -1.7240     0.5480 H     1 <1>   0.0800 
 31 H        3.2150    -3.7040     1.5010 H     1 <1>   0.0800 
 32 H        4.1490    -2.2300     1.6110 H     1 <1>   0.0800 
 33 H        3.4960    -3.9920    -2.1660 H     1 <1>   0.0800 
 34 H        2.8240    -4.7470    -0.7380 H     1 <1>   0.0800 
 35 H        4.1560    -2.1230    -0.8000 H     1 <1>   0.4500 
 36 H        5.2520    -4.6100     0.3150 H     1 <1>   0.0800 
 37 H        5.6140    -4.0210    -1.2830 H     1 <1>   0.0800 
 38 H        6.2200    -2.5930     1.3050 H     1 <1>   0.0800 
 39 H        7.6190    -4.5520     0.7020 H     1 <1>   0.0800 
 40 H        8.0540    -3.7750    -0.7870 H     1 <1>   0.0800 
 41 H        6.7770    -1.6640    -1.5410 H     1 <1>   0.0800 
 42 H        7.3140    -0.8580    -0.0940 H     1 <1>   0.0800 
 43 H        5.6300    -0.9160    -0.4530 H     1 <1>   0.0800 
 44 H        8.6610    -2.6670     1.9670 H     1 <1>   0.0800 
 45 H        9.1750    -1.9750     0.4650 H     1 <1>   0.0800 
 46 H        9.9900    -4.6280     1.6700 H     1 <1>   0.1500 
 47 H       12.5480    -5.2700    -0.5320 H     1 <1>   0.0800 
 48 H       12.1210    -5.4980     1.1430 H     1 <1>   0.0800 
 49 H       13.2820    -4.2730     0.7040 H     1 <1>   0.0800 
 50 H       12.4470    -2.1160    -0.4810 H     1 <1>   0.0800 
 51 H       10.7810    -2.0050    -0.9700 H     1 <1>   0.0800 
 52 H       11.8260    -3.1560    -1.7380 H     1 <1>   0.0800 
@<TRIPOS>BOND
  1   1   2  2   
  2   2   3  1   
  3   2   4  1   
  4   3   5  1   
  5   4   6  1   
  6   4   7  1   
  7   4  21  1   
  8   5   8  1   
  9   5  22  1   
 10   5  23  1   
 11   6   9  1   
 12   6  24  1   
 13   6  25  1   
 14   7  10  1   
 15   7  26  1   
 16   7  27  1   
 17   8  28  1   
 18   8  29  1   
 19   8  30  1   
 20   9  11  1   
 21   9  31  1   
 22   9  32  1   
 23  10  11  1   
 24  10  33  1   
 25  10  34  1   
 26  11  12  1   
 27  11  35  1   
 28  12  13  1   
 29  12  36  1   
 30  12  37  1   
 31  13  14  1   
 32  13  15  1   
 33  13  38  1   
 34  14  16  1   
 35  14  39  1   
 36  14  40  1   
 37  15  41  1   
 38  15  42  1   
 39  15  43  1   
 40  16  17  1   
 41  16  44  1   
 42  16  45  1   
 43  17  18  2   
 44  17  46  1   
 45  18  19  1   
 46  18  20  1   
 47  19  47  1   
 48  19  48  1   
 49  19  49  1   
 50  20  50  1   
 51  20  51  1   
 52  20  52  1   
@<TRIPOS>SUBSTRUCTURE
  1 ****  11 GROUP 4 **** **** 0

# MOE 2024.06 (io_trps.svl 2023.06)
