@<TRIPOS>MOLECULE
NONAME
42 43 1 0 0 
SMALL
USER_CHARGES


@<TRIPOS>ATOM
  1 CL      -1.3730     2.1020     2.7050 Cl    1 <1>  -0.1770 
  2 C       -2.6130     1.7540     1.5210 C.ar  1 <1>   0.1770 
  3 C       -2.9970     0.4430     1.2740 C.ar  1 <1>  -0.1440 
  4 C       -3.1920     2.8150     0.8480 C.ar  1 <1>  -0.1500 
  5 C       -3.9850     0.2130     0.3290 C.ar  1 <1>  -0.1500 
  6 C       -2.3540    -0.7200     2.0150 C.3   1 <1>  -0.0960 
  7 C       -4.1770     2.5740    -0.0940 C.ar  1 <1>  -0.1500 
  8 C       -4.5800     1.2650    -0.3540 C.ar  1 <1>   0.0830 
  9 O       -5.5440     0.9300    -1.2490 O.3   1 <1>  -0.3630 
 10 C       -6.3370     1.9040    -1.9160 C.3   1 <1>   0.2610 
 11 C       -7.2160     2.7460    -0.9630 C.2   1 <1>   0.5690 
 12 C       -7.1530     1.1830    -2.9950 C.3   1 <1>  -0.2400 
 13 O       -7.2320     3.9360    -1.1950 O.2   1 <1>  -0.5700 
 14 N       -7.9490     2.2220     0.0850 N.am  1 <1>  -0.6600 
 15 C       -8.7320     3.1350     0.9630 C.3   1 <1>   0.1400 
 16 C       -7.9440     0.7790     0.4710 C.3   1 <1>   0.1400 
 17 C      -10.1570     3.2820     0.4200 C.3   1 <1>  -0.1600 
 18 C       -9.2930     0.2600     0.9910 C.3   1 <1>  -0.1600 
 19 C      -11.0690     2.0730     0.6810 C.3   1 <1>  -0.1600 
 20 C      -10.5140     0.7300     0.1820 C.3   1 <1>  -0.1600 
 21 H       -2.8720     3.8180     1.0620 H     1 <1>   0.1500 
 22 H       -4.3070    -0.7880     0.1090 H     1 <1>   0.1500 
 23 H       -2.5180    -0.6160     3.0730 H     1 <1>   0.0800 
 24 H       -1.2950    -0.7340     1.8280 H     1 <1>   0.0800 
 25 H       -2.7690    -1.6590     1.6950 H     1 <1>   0.0800 
 26 H       -4.6100     3.4130    -0.6050 H     1 <1>   0.1500 
 27 H       -5.6550     2.5690    -2.4140 H     1 <1>   0.0800 
 28 H       -7.8570     0.5010    -2.5560 H     1 <1>   0.0800 
 29 H       -7.7010     1.9070    -3.5710 H     1 <1>   0.0800 
 30 H       -6.4970     0.6470    -3.6570 H     1 <1>   0.0800 
 31 H       -8.2620     4.1040     0.9800 H     1 <1>   0.0800 
 32 H       -8.7430     2.7690     1.9750 H     1 <1>   0.0800 
 33 H       -7.1870     0.6230     1.2210 H     1 <1>   0.0800 
 34 H       -7.6810     0.1790    -0.3790 H     1 <1>   0.0800 
 35 H      -10.1080     3.4850    -0.6360 H     1 <1>   0.0800 
 36 H      -10.6040     4.1420     0.8860 H     1 <1>   0.0800 
 37 H       -9.4080     0.5220     2.0270 H     1 <1>   0.0800 
 38 H       -9.2530    -0.8150     0.9530 H     1 <1>   0.0800 
 39 H      -12.0120     2.2540     0.1930 H     1 <1>   0.0800 
 40 H      -11.2700     2.0020     1.7360 H     1 <1>   0.0800 
 41 H      -11.2920    -0.0060     0.2900 H     1 <1>   0.0800 
 42 H      -10.2710     0.7920    -0.8650 H     1 <1>   0.0800 
@<TRIPOS>BOND
  1   1   2  1   
  2   2   3  ar  
  3   2   4  ar  
  4   3   5  ar  
  5   3   6  1   
  6   4   7  ar  
  7   4  21  1   
  8   5   8  ar  
  9   5  22  1   
 10   6  23  1   
 11   6  24  1   
 12   6  25  1   
 13   7   8  ar  
 14   7  26  1   
 15   8   9  1   
 16   9  10  1   
 17  10  11  1   
 18  10  12  1   
 19  10  27  1   
 20  11  13  2   
 21  11  14  am  
 22  12  28  1   
 23  12  29  1   
 24  12  30  1   
 25  14  15  1   
 26  14  16  1   
 27  15  17  1   
 28  15  31  1   
 29  15  32  1   
 30  16  18  1   
 31  16  33  1   
 32  16  34  1   
 33  17  19  1   
 34  17  35  1   
 35  17  36  1   
 36  18  20  1   
 37  18  37  1   
 38  18  38  1   
 39  19  20  1   
 40  19  39  1   
 41  19  40  1   
 42  20  41  1   
 43  20  42  1   
@<TRIPOS>SUBSTRUCTURE
  1 ****   9 GROUP 4 **** **** 0

# MOE 2024.06 (io_trps.svl 2023.06)
