@<TRIPOS>MOLECULE
NONAME
29 30 1 0 0 
SMALL
USER_CHARGES


@<TRIPOS>ATOM
  1 CL       0.5710     0.2650     1.8870 Cl    1 <1>  -0.1770 
  2 C        1.6810     0.9710     0.7360 C.ar  1 <1>   0.1770 
  3 C        1.3440     2.1420     0.0710 C.ar  1 <1>  -0.1440 
  4 C        2.8860     0.3350     0.5150 C.ar  1 <1>  -0.1500 
  5 C        2.2520     2.6650    -0.8360 C.ar  1 <1>  -0.1500 
  6 C        0.0140     2.8370     0.3200 C.3   1 <1>  -0.0960 
  7 C        3.8100     0.8590    -0.3840 C.ar  1 <1>   0.0860 
  8 C        3.4620     2.0300    -1.0590 C.ar  1 <1>  -0.1500 
  9 C        5.0820     0.1990    -0.6070 C.2   1 <1>   0.5440 
 10 O        5.0980    -0.9670    -0.9530 O.2   1 <1>  -0.5700 
 11 N        6.2760     0.8580    -0.4230 N.am  1 <1>  -0.6600 
 12 C        6.4290     2.1400     0.3010 C.3   1 <1>   0.1400 
 13 C        7.5870     0.1960    -0.6090 C.3   1 <1>   0.1400 
 14 C        7.9350     2.3610     0.3970 C.3   1 <1>  -0.1600 
 15 C        8.5420     0.9650     0.2960 C.3   1 <1>  -0.1600 
 16 H        3.1140    -0.5750     1.0400 H     1 <1>   0.1500 
 17 H        2.0210     3.5680    -1.3760 H     1 <1>   0.1500 
 18 H       -0.0700     3.1110     1.3560 H     1 <1>   0.0800 
 19 H       -0.7970     2.1760     0.0710 H     1 <1>   0.0800 
 20 H       -0.0760     3.7270    -0.2770 H     1 <1>   0.0800 
 21 H        4.1540     2.4390    -1.7740 H     1 <1>   0.1500 
 22 H        6.0000     2.0440     1.2840 H     1 <1>   0.0800 
 23 H        5.9530     2.9460    -0.2280 H     1 <1>   0.0800 
 24 H        7.8810     0.2890    -1.6400 H     1 <1>   0.0800 
 25 H        7.5410    -0.8470    -0.3400 H     1 <1>   0.0800 
 26 H        8.2090     2.8620     1.3090 H     1 <1>   0.0800 
 27 H        8.2540     2.9580    -0.4400 H     1 <1>   0.0800 
 28 H        9.5430     0.9770    -0.0980 H     1 <1>   0.0800 
 29 H        8.5520     0.4980     1.2660 H     1 <1>   0.0800 
@<TRIPOS>BOND
  1   1   2  1   
  2   2   3  ar  
  3   2   4  ar  
  4   3   5  ar  
  5   3   6  1   
  6   4   7  ar  
  7   4  16  1   
  8   5   8  ar  
  9   5  17  1   
 10   6  18  1   
 11   6  19  1   
 12   6  20  1   
 13   7   8  ar  
 14   7   9  1   
 15   8  21  1   
 16   9  10  2   
 17   9  11  am  
 18  11  12  1   
 19  11  13  1   
 20  12  14  1   
 21  12  22  1   
 22  12  23  1   
 23  13  15  1   
 24  13  24  1   
 25  13  25  1   
 26  14  15  1   
 27  14  26  1   
 28  14  27  1   
 29  15  28  1   
 30  15  29  1   
@<TRIPOS>SUBSTRUCTURE
  1 ****   7 GROUP 4 **** **** 0

# MOE 2024.06 (io_trps.svl 2023.06)
