@<TRIPOS>MOLECULE
NONAME
43 44 1 0 0 
SMALL
USER_CHARGES


@<TRIPOS>ATOM
  1 O       -3.0080    -1.7740     1.9130 O.2   1 <1>  -0.5700 
  2 C       -1.8720    -1.6590     1.5240 C.2   1 <1>   0.5690 
  3 N       -1.5720    -0.9790     0.3910 N.am  1 <1>  -0.7300 
  4 C       -0.7510    -2.2980     2.3290 C.3   1 <1>   0.0440 
  5 C       -2.5490    -0.4540    -0.5820 C.3   1 <1>   0.3200 
  6 C        0.5840    -2.2940     1.5880 C.ar  1 <1>  -0.1440 
  7 C       -2.0780    -0.7390    -1.9990 C.2   1 <1>  -0.0400 
  8 C        0.7880    -3.1650     0.5300 C.ar  1 <1>  -0.1500 
  9 C        1.5910    -1.4120     1.9380 C.ar  1 <1>  -0.1500 
 10 O       -2.7540    -0.2030    -2.9980 O.3   1 <1>  -0.2800 
 11 C       -1.0450    -1.4730    -2.4730 C.2   1 <1>  -0.1500 
 12 C        1.9710    -3.1590    -0.1890 C.ar  1 <1>   0.0820 
 13 C        2.7810    -1.3920     1.2310 C.ar  1 <1>  -0.1500 
 14 C       -2.1740    -0.5770    -4.1210 C.2   1 <1>  -0.0100 
 15 C       -1.1080    -1.3660    -3.8680 C.2   1 <1>  -0.1500 
 16 O        2.0230    -4.0610    -1.2090 O.3   1 <1>  -0.3630 
 17 C        2.9870    -2.2520     0.1540 C.ar  1 <1>   0.0820 
 18 C        3.2370    -4.6830    -1.5700 C.3   1 <1>   0.0400 
 19 O        4.1380    -2.2130    -0.5780 O.3   1 <1>  -0.3630 
 20 C        5.1430    -1.2520    -0.3520 C.3   1 <1>   0.1200 
 21 C        6.2470    -1.4670    -1.3880 C.3   1 <1>  -0.1600 
 22 C        7.3850    -0.4570    -1.2090 C.3   1 <1>  -0.2400 
 23 H       -0.5960    -0.9380     0.0860 H     1 <1>   0.3700 
 24 H       -1.0320    -3.3110     2.5530 H     1 <1>   0.0800 
 25 H       -0.6640    -1.7710     3.2610 H     1 <1>   0.0800 
 26 H       -2.6440     0.6090    -0.4450 H     1 <1>   0.0800 
 27 H       -3.5130    -0.9070    -0.4230 H     1 <1>   0.0800 
 28 H        0.0200    -3.8620     0.2450 H     1 <1>   0.1500 
 29 H        1.4550    -0.7310     2.7610 H     1 <1>   0.1500 
 30 H       -0.3050    -2.0420    -1.9360 H     1 <1>   0.1500 
 31 H        3.5320    -0.6900     1.5390 H     1 <1>   0.1500 
 32 H       -2.5840    -0.2380    -5.0560 H     1 <1>   0.1500 
 33 H       -0.4300    -1.8310    -4.5600 H     1 <1>   0.1500 
 34 H        3.0060    -5.5890    -2.0990 H     1 <1>   0.0800 
 35 H        3.7970    -4.9080    -0.6790 H     1 <1>   0.0800 
 36 H        3.7900    -4.0200    -2.2100 H     1 <1>   0.0800 
 37 H        5.5270    -1.3870     0.6440 H     1 <1>   0.0800 
 38 H        4.7080    -0.2730    -0.4580 H     1 <1>   0.0800 
 39 H        5.8300    -1.3600    -2.3750 H     1 <1>   0.0800 
 40 H        6.6380    -2.4640    -1.2850 H     1 <1>   0.0800 
 41 H        7.0190     0.5490    -1.3230 H     1 <1>   0.0800 
 42 H        8.1470    -0.6270    -1.9500 H     1 <1>   0.0800 
 43 H        7.8300    -0.5570    -0.2350 H     1 <1>   0.0800 
@<TRIPOS>BOND
  1   1   2  2   
  2   2   3  am  
  3   2   4  1   
  4   3   5  1   
  5   3  23  1   
  6   4   6  1   
  7   4  24  1   
  8   4  25  1   
  9   5   7  1   
 10   5  26  1   
 11   5  27  1   
 12   6   8  ar  
 13   6   9  ar  
 14   7  10  1   
 15   7  11  2   
 16   8  12  ar  
 17   8  28  1   
 18   9  13  ar  
 19   9  29  1   
 20  10  14  1   
 21  11  15  1   
 22  11  30  1   
 23  12  16  1   
 24  12  17  ar  
 25  13  17  ar  
 26  13  31  1   
 27  14  15  2   
 28  14  32  1   
 29  15  33  1   
 30  16  18  1   
 31  17  19  1   
 32  18  34  1   
 33  18  35  1   
 34  18  36  1   
 35  19  20  1   
 36  20  21  1   
 37  20  37  1   
 38  20  38  1   
 39  21  22  1   
 40  21  39  1   
 41  21  40  1   
 42  22  41  1   
 43  22  42  1   
 44  22  43  1   
@<TRIPOS>SUBSTRUCTURE
  1 ****   8 GROUP 4 **** **** 0

# MOE 2024.06 (io_trps.svl 2023.06)
