@<TRIPOS>MOLECULE
NONAME
53 55 1 0 0 
SMALL
USER_CHARGES


@<TRIPOS>ATOM
  1 S        0.5970     0.5380     0.7210 S.o2  1 <1>   1.4470 
  2 O        1.4480     0.6290     1.8860 O.2   1 <1>  -0.6500 
  3 O        1.1580     0.1780    -0.5600 O.2   1 <1>  -0.6500 
  4 N       -0.1230     2.1010     0.5480 N.am  1 <1>  -0.6930 
  5 C       -0.8360    -0.5080     1.1080 C.ar  1 <1>  -0.0090 
  6 C       -1.2520     2.2480    -0.2450 C.ar  1 <1>   0.1990 
  7 C        0.8050     3.2710     0.6540 C.3   1 <1>   0.2570 
  8 C       -1.2010    -0.7650     2.4290 C.ar  1 <1>  -0.1500 
  9 C       -1.6210    -1.0460     0.0890 C.ar  1 <1>  -0.1500 
 10 C       -1.1840     2.1600    -1.6300 C.ar  1 <1>  -0.1500 
 11 C       -2.4880     2.4630     0.3490 C.ar  1 <1>  -0.1500 
 12 C        1.8270     3.3900    -0.4910 C.2   1 <1>   0.5690 
 13 C       -2.3100    -1.5380     2.7310 C.ar  1 <1>  -0.1500 
 14 C       -2.7350    -1.8200     0.3700 C.ar  1 <1>  -0.1500 
 15 C       -2.3260     2.2760    -2.4010 C.ar  1 <1>  -0.1500 
 16 C       -3.6320     2.5780    -0.4190 C.ar  1 <1>  -0.1500 
 17 O        1.4530     3.9790    -1.4810 O.2   1 <1>  -0.5700 
 18 N        3.1040     2.8760    -0.4150 N.am  1 <1>  -0.6600 
 19 C       -3.0590    -2.0520     1.6920 C.ar  1 <1>   0.1900 
 20 C       -3.5570     2.4830    -1.8000 C.ar  1 <1>  -0.1430 
 21 C        3.9450     2.7660    -1.6410 C.3   1 <1>   0.1400 
 22 C        3.7510     2.2930     0.7960 C.3   1 <1>   0.1400 
 23 F       -4.1070    -2.7790     1.9670 F     1 <1>  -0.1900 
 24 C       -4.8100     2.6120    -2.6460 C.3   1 <1>  -0.0970 
 25 C        5.2950     3.4520    -1.4150 C.3   1 <1>  -0.1600 
 26 C        5.1050     2.9660     1.0430 C.3   1 <1>  -0.1600 
 27 C        6.0180     2.8770    -0.1890 C.3   1 <1>  -0.0800 
 28 C        7.3370     3.6180     0.0600 C.3   1 <1>  -0.2400 
 29 H        1.3000     3.2480     1.6040 H     1 <1>   0.0800 
 30 H        0.2120     4.1680     0.6390 H     1 <1>   0.0800 
 31 H       -0.6090    -0.3540     3.2310 H     1 <1>   0.1500 
 32 H       -1.3580    -0.8510    -0.9380 H     1 <1>   0.1500 
 33 H       -0.2310     2.0020    -2.1050 H     1 <1>   0.1500 
 34 H       -2.5490     2.5350     1.4190 H     1 <1>   0.1500 
 35 H       -2.5920    -1.7380     3.7500 H     1 <1>   0.1500 
 36 H       -3.3400    -2.2330    -0.4160 H     1 <1>   0.1500 
 37 H       -2.2490     2.2090    -3.4720 H     1 <1>   0.1500 
 38 H       -4.5810     2.7430     0.0600 H     1 <1>   0.1500 
 39 H        3.4540     3.2140    -2.4880 H     1 <1>   0.0800 
 40 H        4.0960     1.7230    -1.8640 H     1 <1>   0.0800 
 41 H        3.8890     1.2360     0.6430 H     1 <1>   0.0800 
 42 H        3.1450     2.4240     1.6710 H     1 <1>   0.0800 
 43 H       -4.7120     2.0430    -3.5530 H     1 <1>   0.0800 
 44 H       -4.9710     3.6440    -2.9000 H     1 <1>   0.0800 
 45 H       -5.6670     2.2480    -2.1090 H     1 <1>   0.0800 
 46 H        5.1260     4.5070    -1.2880 H     1 <1>   0.0800 
 47 H        5.9040     3.3200    -2.2920 H     1 <1>   0.0800 
 48 H        5.5820     2.4920     1.8820 H     1 <1>   0.0800 
 49 H        4.9360     3.9970     1.3000 H     1 <1>   0.0800 
 50 H        6.2390     1.8390    -0.3770 H     1 <1>   0.0800 
 51 H        7.1560     4.6610     0.2500 H     1 <1>   0.0800 
 52 H        7.9790     3.5320    -0.7990 H     1 <1>   0.0800 
 53 H        7.8470     3.1970     0.9080 H     1 <1>   0.0800 
@<TRIPOS>BOND
  1   1   2  2   
  2   1   3  2   
  3   1   4  am  
  4   1   5  1   
  5   4   6  1   
  6   4   7  1   
  7   5   8  ar  
  8   5   9  ar  
  9   6  10  ar  
 10   6  11  ar  
 11   7  12  1   
 12   7  29  1   
 13   7  30  1   
 14   8  13  ar  
 15   8  31  1   
 16   9  14  ar  
 17   9  32  1   
 18  10  15  ar  
 19  10  33  1   
 20  11  16  ar  
 21  11  34  1   
 22  12  17  2   
 23  12  18  am  
 24  13  19  ar  
 25  13  35  1   
 26  14  19  ar  
 27  14  36  1   
 28  15  20  ar  
 29  15  37  1   
 30  16  20  ar  
 31  16  38  1   
 32  18  21  1   
 33  18  22  1   
 34  19  23  1   
 35  20  24  1   
 36  21  25  1   
 37  21  39  1   
 38  21  40  1   
 39  22  26  1   
 40  22  41  1   
 41  22  42  1   
 42  24  43  1   
 43  24  44  1   
 44  24  45  1   
 45  25  27  1   
 46  25  46  1   
 47  25  47  1   
 48  26  27  1   
 49  26  48  1   
 50  26  49  1   
 51  27  28  1   
 52  27  50  1   
 53  28  51  1   
 54  28  52  1   
 55  28  53  1   
@<TRIPOS>SUBSTRUCTURE
  1 ****   4 GROUP 4 **** **** 0

# MOE 2024.06 (io_trps.svl 2023.06)
