@<TRIPOS>MOLECULE
NONAME
38 40 1 0 0 
SMALL
USER_CHARGES


@<TRIPOS>ATOM
  1 F        3.1810     0.8540     3.2330 F     1 <1>  -0.3400 
  2 C        2.7470     1.6940     2.2960 C.3   1 <1>   1.2010 
  3 F        1.4240     1.5510     2.2680 F     1 <1>  -0.3400 
  4 F        2.9740     2.9170     2.7680 F     1 <1>  -0.3400 
  5 C        3.3980     1.4220     0.9090 C.2   1 <1>   0.1080 
  6 N        4.0220     2.2960     0.1480 N.2   1 <1>  -0.7070 
  7 C        3.3900     0.1650     0.2980 C.2   1 <1>  -0.1810 
  8 N        4.4060     1.6170    -0.9510 N.pl3 1 <1>   0.3140 
  9 C        4.0430     0.3230    -0.8680 C.2   1 <1>  -0.3320 
 10 C        2.8120    -1.1610     0.7670 C.3   1 <1>   0.0210 
 11 C        5.1690     2.2770    -2.0170 C.3   1 <1>   0.1570 
 12 C        4.3060    -0.7790    -1.8810 C.3   1 <1>   0.0200 
 13 C        2.7350    -2.1540    -0.4080 C.3   1 <1>  -0.1600 
 14 C        6.6220     2.3710    -1.6140 C.2   1 <1>   0.5690 
 15 C        4.0300    -2.1530    -1.2450 C.3   1 <1>  -0.1600 
 16 O        7.4560     2.1110    -2.4490 O.2   1 <1>  -0.5700 
 17 N        6.9320     2.7550    -0.3440 N.am  1 <1>  -0.4930 
 18 C        8.1690     2.9230     0.2750 C.2   1 <1>   0.3520 
 19 N        8.2630     3.2360     1.5190 N.2   1 <1>  -0.4100 
 20 C        9.4360     2.7930    -0.2970 C.2   1 <1>  -0.1500 
 21 O        9.5450     3.3130     1.7770 O.3   1 <1>  -0.0190 
 22 C       10.2680     3.0560     0.7190 C.2   1 <1>  -0.0400 
 23 C       11.7780     3.0930     0.8080 C.3   1 <1>  -0.0600 
 24 H        1.8290    -1.0170     1.1790 H     1 <1>   0.0800 
 25 H        3.4480    -1.5630     1.5360 H     1 <1>   0.0800 
 26 H        4.7720     3.2620    -2.1690 H     1 <1>   0.0800 
 27 H        5.0750     1.7140    -2.9250 H     1 <1>   0.0800 
 28 H        5.3270    -0.7440    -2.2210 H     1 <1>   0.0800 
 29 H        3.6580    -0.6380    -2.7290 H     1 <1>   0.0800 
 30 H        1.9100    -1.8800    -1.0430 H     1 <1>   0.0800 
 31 H        2.5460    -3.1420    -0.0270 H     1 <1>   0.0800 
 32 H        4.8560    -2.4120    -0.6050 H     1 <1>   0.0800 
 33 H        3.9670    -2.8980    -2.0180 H     1 <1>   0.0800 
 34 H        6.1360     2.8730     0.2950 H     1 <1>   0.3700 
 35 H        9.6500     2.5400    -1.3180 H     1 <1>   0.1500 
 36 H       12.2120     2.8570    -0.1470 H     1 <1>   0.0800 
 37 H       12.1170     2.3750     1.5330 H     1 <1>   0.0800 
 38 H       12.1010     4.0730     1.1080 H     1 <1>   0.0800 
@<TRIPOS>BOND
  1   1   2  1   
  2   2   3  1   
  3   2   4  1   
  4   2   5  1   
  5   5   6  2   
  6   5   7  1   
  7   6   8  1   
  8   7   9  2   
  9   7  10  1   
 10   8   9  1   
 11   8  11  1   
 12   9  12  1   
 13  10  13  1   
 14  10  24  1   
 15  10  25  1   
 16  11  14  1   
 17  11  26  1   
 18  11  27  1   
 19  12  15  1   
 20  12  28  1   
 21  12  29  1   
 22  13  15  1   
 23  13  30  1   
 24  13  31  1   
 25  14  16  2   
 26  14  17  am  
 27  15  32  1   
 28  15  33  1   
 29  17  18  1   
 30  17  34  1   
 31  18  19  2   
 32  18  20  1   
 33  19  21  1   
 34  20  22  2   
 35  20  35  1   
 36  21  22  1   
 37  22  23  1   
 38  23  36  1   
 39  23  37  1   
 40  23  38  1   
@<TRIPOS>SUBSTRUCTURE
  1 ****   8 GROUP 4 **** **** 0

# MOE 2024.06 (io_trps.svl 2023.06)
