@<TRIPOS>MOLECULE
NONAME
43 44 1 0 0 
SMALL
USER_CHARGES


@<TRIPOS>ATOM
  1 O        0.3730    -1.0780     0.4030 O.2   1 <1>  -0.5700 
  2 C       -0.3640    -1.5950    -0.4100 C.2   1 <1>   0.6340 
  3 O       -0.0680    -1.4900    -1.7090 O.3   1 <1>  -0.4300 
  4 C       -1.5630    -2.3280    -0.0380 C.ar  1 <1>   0.0860 
  5 C        1.0830    -0.7990    -2.1580 C.3   1 <1>   0.0400 
  6 C       -2.4340    -2.8660    -0.9880 C.ar  1 <1>  -0.1500 
  7 C       -1.8940    -2.5270     1.3030 C.ar  1 <1>  -0.1500 
  8 C       -3.5720    -3.5620    -0.6210 C.ar  1 <1>  -0.1500 
  9 C       -3.0290    -3.2210     1.6800 C.ar  1 <1>  -0.1500 
 10 C       -3.8810    -3.7420     0.7190 C.ar  1 <1>  -0.1440 
 11 C       -5.1310    -4.4990     1.1330 C.3   1 <1>   0.4860 
 12 N       -6.3270    -3.6560     0.8730 N.4   1 <1>  -0.9590 
 13 C       -6.2950    -2.3150     1.5470 C.3   1 <1>   0.3430 
 14 C       -7.6280    -4.3540     1.1290 C.3   1 <1>   0.3430 
 15 C       -7.4980    -1.4440     1.1070 C.3   1 <1>   0.1100 
 16 C       -8.8370    -3.4520     0.7720 C.3   1 <1>   0.1100 
 17 N       -8.4160    -2.1560     0.1820 N.3   1 <1>  -0.8100 
 18 C       -9.5610    -1.2930    -0.1840 C.3   1 <1>   0.1100 
 19 C      -10.2610    -1.7870    -1.4560 C.3   1 <1>   0.1200 
 20 O      -11.2710    -0.9000    -1.7950 O.3   1 <1>  -0.6800 
 21 H        1.1130    -0.8470    -3.2310 H     1 <1>   0.0800 
 22 H        1.9560    -1.2690    -1.7400 H     1 <1>   0.0800 
 23 H        1.0220     0.2250    -1.8330 H     1 <1>   0.0800 
 24 H       -2.2120    -2.7400    -2.0350 H     1 <1>   0.1500 
 25 H       -1.2400    -2.1280     2.0630 H     1 <1>   0.1500 
 26 H       -4.2060    -3.9620    -1.3950 H     1 <1>   0.1500 
 27 H       -3.2310    -3.3510     2.7300 H     1 <1>   0.1500 
 28 H       -5.0740    -4.7490     2.1790 H     1 <1>   0.0800 
 29 H       -5.1950    -5.4150     0.5680 H     1 <1>   0.0800 
 30 H       -6.3550    -3.4120    -0.1280 H     1 <1>   0.4500 
 31 H       -5.3840    -1.7960     1.2960 H     1 <1>   0.0800 
 32 H       -6.3180    -2.4380     2.6170 H     1 <1>   0.0800 
 33 H       -7.6990    -4.6400     2.1660 H     1 <1>   0.0800 
 34 H       -7.6830    -5.2530     0.5380 H     1 <1>   0.0800 
 35 H       -7.1200    -0.5610     0.6180 H     1 <1>   0.0800 
 36 H       -8.0360    -1.1200     1.9820 H     1 <1>   0.0800 
 37 H       -9.4200    -3.2760     1.6600 H     1 <1>   0.0800 
 38 H       -9.4630    -3.9830     0.0760 H     1 <1>   0.0800 
 39 H       -9.2020    -0.2970    -0.3830 H     1 <1>   0.0800 
 40 H      -10.2640    -1.2470     0.6310 H     1 <1>   0.0800 
 41 H      -10.7010    -2.7580    -1.3230 H     1 <1>   0.0800 
 42 H       -9.5630    -1.8120    -2.2760 H     1 <1>   0.0800 
 43 H      -12.0160    -0.9460    -1.1640 H     1 <1>   0.4000 
@<TRIPOS>BOND
  1   1   2  2   
  2   2   3  1   
  3   2   4  1   
  4   3   5  1   
  5   4   6  ar  
  6   4   7  ar  
  7   5  21  1   
  8   5  22  1   
  9   5  23  1   
 10   6   8  ar  
 11   6  24  1   
 12   7   9  ar  
 13   7  25  1   
 14   8  10  ar  
 15   8  26  1   
 16   9  10  ar  
 17   9  27  1   
 18  10  11  1   
 19  11  12  1   
 20  11  28  1   
 21  11  29  1   
 22  12  13  1   
 23  12  14  1   
 24  12  30  1   
 25  13  15  1   
 26  13  31  1   
 27  13  32  1   
 28  14  16  1   
 29  14  33  1   
 30  14  34  1   
 31  15  17  1   
 32  15  35  1   
 33  15  36  1   
 34  16  17  1   
 35  16  37  1   
 36  16  38  1   
 37  17  18  1   
 38  18  19  1   
 39  18  39  1   
 40  18  40  1   
 41  19  20  1   
 42  19  41  1   
 43  19  42  1   
 44  20  43  1   
@<TRIPOS>SUBSTRUCTURE
  1 ****  10 GROUP 4 **** **** 0

# MOE 2024.06 (io_trps.svl 2023.06)
