@<TRIPOS>MOLECULE
NONAME
31 31 1 0 0 
SMALL
USER_CHARGES


@<TRIPOS>ATOM
  1 O        0.4470     0.1200     0.4670 O.2   1 <1>  -0.5700 
  2 C        1.2670    -0.6860     0.0820 C.2   1 <1>   0.4950 
  3 C        0.9120    -2.0280    -0.2380 C.2   1 <1>  -0.1360 
  4 C        2.7270    -0.1580    -0.0380 C.3   1 <1>   0.0610 
  5 C       -0.2920    -2.6780    -0.1990 C.2   1 <1>   0.0720 
  6 C        2.7640     1.0340    -1.0140 C.3   1 <1>  -0.2400 
  7 C        3.2090     0.3330     1.3420 C.3   1 <1>  -0.2400 
  8 C        3.7600    -1.1900    -0.5410 C.3   1 <1>  -0.2400 
  9 N       -0.3140    -4.0200    -0.5180 N.pl3 1 <1>  -0.9000 
 10 C       -1.5770    -2.0960     0.1670 C.ar  1 <1>   0.3380 
 11 N       -2.2890    -2.7220     1.1150 N.ar  1 <1>  -0.6200 
 12 C       -2.0640    -0.9660    -0.4890 C.ar  1 <1>  -0.1500 
 13 C       -3.4610    -2.1970     1.4210 C.ar  1 <1>   0.1600 
 14 C       -3.2900    -0.4310    -0.1640 C.ar  1 <1>  -0.1500 
 15 C       -4.0020    -1.0720     0.8250 C.ar  1 <1>  -0.1500 
 16 H        1.7280    -2.6390    -0.5520 H     1 <1>   0.1500 
 17 H        3.7580     1.4350    -1.0970 H     1 <1>   0.0800 
 18 H        2.1120     1.8200    -0.6710 H     1 <1>   0.0800 
 19 H        2.4330     0.7290    -1.9910 H     1 <1>   0.0800 
 20 H        3.1960    -0.4750     2.0520 H     1 <1>   0.0800 
 21 H        2.5620     1.1110     1.7100 H     1 <1>   0.0800 
 22 H        4.2080     0.7260     1.2850 H     1 <1>   0.0800 
 23 H        4.7380    -0.7450    -0.5990 H     1 <1>   0.0800 
 24 H        3.5000    -1.5420    -1.5230 H     1 <1>   0.0800 
 25 H        3.8210    -2.0280     0.1310 H     1 <1>   0.0800 
 26 H        0.5230    -4.6010    -0.6070 H     1 <1>   0.4000 
 27 H       -1.1670    -4.5460    -0.2850 H     1 <1>   0.4000 
 28 H       -1.4640    -0.5080    -1.2520 H     1 <1>   0.1500 
 29 H       -4.0260    -2.6900     2.1930 H     1 <1>   0.1500 
 30 H       -3.6690     0.4470    -0.6570 H     1 <1>   0.1500 
 31 H       -4.9640    -0.7050     1.1330 H     1 <1>   0.1500 
@<TRIPOS>BOND
  1   1   2  2   
  2   2   3  1   
  3   2   4  1   
  4   3   5  2   
  5   3  16  1   
  6   4   6  1   
  7   4   7  1   
  8   4   8  1   
  9   5   9  1   
 10   5  10  1   
 11   6  17  1   
 12   6  18  1   
 13   6  19  1   
 14   7  20  1   
 15   7  21  1   
 16   7  22  1   
 17   8  23  1   
 18   8  24  1   
 19   8  25  1   
 20   9  26  1   
 21   9  27  1   
 22  10  11  ar  
 23  10  12  ar  
 24  11  13  ar  
 25  12  14  ar  
 26  12  28  1   
 27  13  15  ar  
 28  13  29  1   
 29  14  15  ar  
 30  14  30  1   
 31  15  31  1   
@<TRIPOS>SUBSTRUCTURE
  1 ****   3 GROUP 4 **** **** 0

# MOE 2024.06 (io_trps.svl 2023.06)
