@<TRIPOS>MOLECULE
NONAME
37 39 1 0 0 
SMALL
USER_CHARGES


@<TRIPOS>ATOM
  1 S        0.8580     1.3730    -0.4220 S.3   1 <1>  -0.3320 
  2 C       -0.9230     1.6180    -0.5340 C.ar  1 <1>   0.1020 
  3 C        1.1540     0.3140     1.0840 C.3   1 <1>   0.1310 
  4 C       -1.3830     2.3880    -1.5870 C.ar  1 <1>  -0.1500 
  5 C       -1.8060     1.0690     0.3840 C.ar  1 <1>  -0.1500 
  6 C        2.6330     0.0320     1.3030 C.2   1 <1>   0.5690 
  7 C       -2.7420     2.6130    -1.7280 C.ar  1 <1>  -0.1500 
  8 C       -3.1640     1.2990     0.2380 C.ar  1 <1>  -0.1500 
  9 O        2.9510    -0.6210     2.2680 O.2   1 <1>  -0.5700 
 10 N        3.5500     0.5100     0.4230 N.am  1 <1>  -0.7300 
 11 C       -3.6300     2.0690    -0.8160 C.ar  1 <1>  -0.1500 
 12 C        5.0100     0.3310     0.5090 C.3   1 <1>   0.2200 
 13 C        5.7080     1.7030     0.4880 C.3   1 <1>  -0.0800 
 14 C        5.5350    -0.3370    -0.7740 C.3   1 <1>  -0.1600 
 15 C        5.7740     2.0130    -1.0020 C.3   1 <1>  -0.1600 
 16 C        7.1960     1.4820     0.8120 C.3   1 <1>  -0.1600 
 17 C        6.4870     0.7210    -1.3620 C.3   1 <1>  -0.0800 
 18 C        7.7310     0.8020    -0.4610 C.3   1 <1>  -0.1600 
 19 H        0.6250    -0.6080     0.9370 H     1 <1>   0.0800 
 20 H        0.7560     0.8420     1.9300 H     1 <1>   0.0800 
 21 H       -0.6840     2.8050    -2.2890 H     1 <1>   0.1500 
 22 H       -1.4650     0.4710     1.2050 H     1 <1>   0.1500 
 23 H       -3.1070     3.2110    -2.5460 H     1 <1>   0.1500 
 24 H       -3.8610     0.8790     0.9430 H     1 <1>   0.1500 
 25 H        3.2220     1.0670    -0.3680 H     1 <1>   0.3700 
 26 H       -4.6860     2.2440    -0.9260 H     1 <1>   0.1500 
 27 H        5.2710    -0.2330     1.3900 H     1 <1>   0.0800 
 28 H        5.2350     2.4450     1.1070 H     1 <1>   0.0800 
 29 H        4.7350    -0.5480    -1.4610 H     1 <1>   0.0800 
 30 H        6.0550    -1.2510    -0.5490 H     1 <1>   0.0800 
 31 H        6.3620     2.8890    -1.2200 H     1 <1>   0.0800 
 32 H        4.8040     2.0960    -1.4620 H     1 <1>   0.0800 
 33 H        7.3300     0.8680     1.6860 H     1 <1>   0.0800 
 34 H        7.6890     2.4270     0.9650 H     1 <1>   0.0800 
 35 H        6.7070     0.5870    -2.4080 H     1 <1>   0.0800 
 36 H        8.1450    -0.1700    -0.2560 H     1 <1>   0.0800 
 37 H        8.4850     1.4170    -0.9210 H     1 <1>   0.0800 
@<TRIPOS>BOND
  1   1   2  1   
  2   1   3  1   
  3   2   4  ar  
  4   2   5  ar  
  5   3   6  1   
  6   3  19  1   
  7   3  20  1   
  8   4   7  ar  
  9   4  21  1   
 10   5   8  ar  
 11   5  22  1   
 12   6   9  2   
 13   6  10  am  
 14   7  11  ar  
 15   7  23  1   
 16   8  11  ar  
 17   8  24  1   
 18  10  12  1   
 19  10  25  1   
 20  11  26  1   
 21  12  13  1   
 22  12  14  1   
 23  12  27  1   
 24  13  15  1   
 25  13  16  1   
 26  13  28  1   
 27  14  17  1   
 28  14  29  1   
 29  14  30  1   
 30  15  17  1   
 31  15  31  1   
 32  15  32  1   
 33  16  18  1   
 34  16  33  1   
 35  16  34  1   
 36  17  18  1   
 37  17  35  1   
 38  18  36  1   
 39  18  37  1   
@<TRIPOS>SUBSTRUCTURE
  1 ****  10 GROUP 4 **** **** 0

# MOE 2024.06 (io_trps.svl 2023.06)
