@<TRIPOS>MOLECULE
NONAME
41 41 1 0 0 
SMALL
USER_CHARGES


@<TRIPOS>ATOM
  1 BR       0.1200     0.4920     1.7190 Br    1 <1>  -0.1110 
  2 C        1.7610     1.0910     0.9070 C.ar  1 <1>   0.1110 
  3 C        2.5440     0.1710     0.2380 C.ar  1 <1>  -0.1500 
  4 C        2.1060     2.4240     1.0140 C.ar  1 <1>  -0.1500 
  5 C        3.7270     0.5960    -0.3450 C.ar  1 <1>  -0.1440 
  6 C        3.2870     2.8590     0.4340 C.ar  1 <1>  -0.1440 
  7 C        4.0990     1.9370    -0.2280 C.ar  1 <1>   0.0830 
  8 C        4.5860    -0.4070    -1.1030 C.3   1 <1>  -0.0960 
  9 C        3.6650     4.3310     0.5290 C.3   1 <1>  -0.0960 
 10 O        5.2630     2.3520    -0.7780 O.3   1 <1>  -0.3630 
 11 C        6.3940     2.2830     0.0590 C.3   1 <1>   0.1200 
 12 C        7.6020     2.7700    -0.7350 C.3   1 <1>   0.1200 
 13 O        8.7330     2.7090     0.0830 O.3   1 <1>  -0.5600 
 14 C        9.9070     3.1240    -0.5310 C.3   1 <1>   0.1200 
 15 C       11.0360     2.9770     0.4970 C.3   1 <1>   0.3430 
 16 N       12.3880     3.3350    -0.0560 N.4   1 <1>  -0.9590 
 17 C       13.4550     2.9410     0.9160 C.3   1 <1>   0.2630 
 18 C       12.5000     4.7940    -0.3800 C.3   1 <1>   0.2630 
 19 H        2.2260    -0.8540     0.1770 H     1 <1>   0.1500 
 20 H        1.4570     3.1000     1.5390 H     1 <1>   0.1500 
 21 H        4.0080    -1.2710    -1.3800 H     1 <1>   0.0800 
 22 H        5.4070    -0.7250    -0.4880 H     1 <1>   0.0800 
 23 H        4.9740     0.0390    -2.0010 H     1 <1>   0.0800 
 24 H        2.8030     4.9310     0.7570 H     1 <1>   0.0800 
 25 H        4.0720     4.6710    -0.4060 H     1 <1>   0.0800 
 26 H        4.3980     4.4720     1.3020 H     1 <1>   0.0800 
 27 H        6.5280     1.2610     0.3670 H     1 <1>   0.0800 
 28 H        6.2220     2.9090     0.9160 H     1 <1>   0.0800 
 29 H        7.4490     3.7910    -1.0430 H     1 <1>   0.0800 
 30 H        7.7560     2.1370    -1.5920 H     1 <1>   0.0800 
 31 H        9.7840     4.1500    -0.8320 H     1 <1>   0.0800 
 32 H       10.0830     2.4940    -1.3860 H     1 <1>   0.0800 
 33 H       11.0480     1.9520     0.8290 H     1 <1>   0.0800 
 34 H       10.8140     3.6020     1.3460 H     1 <1>   0.0800 
 35 H       12.5350     2.7910    -0.9210 H     1 <1>   0.4500 
 36 H       13.3380     3.4800     1.8420 H     1 <1>   0.0800 
 37 H       14.4300     3.1590     0.5110 H     1 <1>   0.0800 
 38 H       13.4000     1.8840     1.1240 H     1 <1>   0.0800 
 39 H       12.3350     5.3880     0.5050 H     1 <1>   0.0800 
 40 H       11.7710     5.0740    -1.1230 H     1 <1>   0.0800 
 41 H       13.4820     5.0170    -0.7660 H     1 <1>   0.0800 
@<TRIPOS>BOND
  1   1   2  1   
  2   2   3  ar  
  3   2   4  ar  
  4   3   5  ar  
  5   3  19  1   
  6   4   6  ar  
  7   4  20  1   
  8   5   7  ar  
  9   5   8  1   
 10   6   7  ar  
 11   6   9  1   
 12   7  10  1   
 13   8  21  1   
 14   8  22  1   
 15   8  23  1   
 16   9  24  1   
 17   9  25  1   
 18   9  26  1   
 19  10  11  1   
 20  11  12  1   
 21  11  27  1   
 22  11  28  1   
 23  12  13  1   
 24  12  29  1   
 25  12  30  1   
 26  13  14  1   
 27  14  15  1   
 28  14  31  1   
 29  14  32  1   
 30  15  16  1   
 31  15  33  1   
 32  15  34  1   
 33  16  17  1   
 34  16  18  1   
 35  16  35  1   
 36  17  36  1   
 37  17  37  1   
 38  17  38  1   
 39  18  39  1   
 40  18  40  1   
 41  18  41  1   
@<TRIPOS>SUBSTRUCTURE
  1 ****  11 GROUP 4 **** **** 0

# MOE 2024.06 (io_trps.svl 2023.06)
