@<TRIPOS>MOLECULE
NONAME
31 33 1 0 0 
SMALL
USER_CHARGES


@<TRIPOS>ATOM
  1 S       -0.2490     0.5270     0.4940 S.3   1 <1>  -0.9360 
  2 C       -1.7870     0.0650     0.7080 C.cat 1 <1>   0.7360 
  3 N       -2.7190     0.8460     1.1980 N.pl3 1 <1>  -0.3930 
  4 N       -2.3180    -1.1090     0.4300 N.pl3 1 <1>  -0.7640 
  5 N       -3.9100     0.1990     1.2530 N.2   1 <1>  -0.2600 
  6 C       -3.6530    -0.9810     0.7810 C.2   1 <1>   0.6120 
  7 C       -1.5290    -2.2210    -0.1470 C.3   1 <1>   0.4340 
  8 C       -4.6440    -2.0200     0.6460 C.ar  1 <1>   0.0410 
  9 C       -1.9330    -2.4970    -1.5990 C.3   1 <1>  -0.1600 
 10 C       -1.7120    -3.5400     0.6140 C.3   1 <1>  -0.1600 
 11 C       -5.3460    -2.2390    -0.5310 C.ar  1 <1>  -0.1500 
 12 C       -4.9820    -2.8620     1.6970 C.ar  1 <1>  -0.1500 
 13 C       -2.0550    -4.0160    -1.7320 C.3   1 <1>  -0.1600 
 14 C       -2.4230    -4.5070    -0.3360 C.3   1 <1>  -0.1600 
 15 C       -6.2820    -3.2520    -0.6060 C.ar  1 <1>   0.1600 
 16 C       -5.9350    -3.8470     1.5220 C.ar  1 <1>   0.1600 
 17 N       -6.5870    -4.0650     0.3920 N.ar  1 <1>  -0.6200 
 18 H       -2.5000     1.8030     1.4750 H     1 <1>   0.4500 
 19 H       -0.4790    -1.9780    -0.1260 H     1 <1>   0.0800 
 20 H       -1.1900    -2.1100    -2.2750 H     1 <1>   0.0800 
 21 H       -2.8750    -2.0380    -1.8260 H     1 <1>   0.0800 
 22 H       -2.2310    -3.4190     1.5460 H     1 <1>   0.0800 
 23 H       -0.7330    -3.9330     0.8270 H     1 <1>   0.0800 
 24 H       -5.1660    -1.6190    -1.3900 H     1 <1>   0.1500 
 25 H       -4.5010    -2.7510     2.6520 H     1 <1>   0.1500 
 26 H       -1.0990    -4.4280    -2.0120 H     1 <1>   0.0800 
 27 H       -2.7880    -4.3030    -2.4670 H     1 <1>   0.0800 
 28 H       -3.4880    -4.4450    -0.2030 H     1 <1>   0.0800 
 29 H       -2.1160    -5.5270    -0.1760 H     1 <1>   0.0800 
 30 H       -6.8110    -3.4060    -1.5320 H     1 <1>   0.1500 
 31 H       -6.1770    -4.4910     2.3510 H     1 <1>   0.1500 
@<TRIPOS>BOND
  1   1   2  1   
  2   2   3  ar  
  3   2   4  ar  
  4   3   5  1   
  5   3  18  1   
  6   4   6  1   
  7   4   7  1   
  8   5   6  2   
  9   6   8  1   
 10   7   9  1   
 11   7  10  1   
 12   7  19  1   
 13   8  11  ar  
 14   8  12  ar  
 15   9  13  1   
 16   9  20  1   
 17   9  21  1   
 18  10  14  1   
 19  10  22  1   
 20  10  23  1   
 21  11  15  ar  
 22  11  24  1   
 23  12  16  ar  
 24  12  25  1   
 25  13  14  1   
 26  13  26  1   
 27  13  27  1   
 28  14  28  1   
 29  14  29  1   
 30  15  17  ar  
 31  15  30  1   
 32  16  17  ar  
 33  16  31  1   
@<TRIPOS>SUBSTRUCTURE
  1 ****   6 GROUP 4 **** **** 0

# MOE 2024.06 (io_trps.svl 2023.06)
