@<TRIPOS>MOLECULE
NONAME
27 28 1 0 0 
SMALL
USER_CHARGES


@<TRIPOS>ATOM
  1 O       -0.2350     0.3330    -1.1360 O.3   1 <1>  -0.4190 
  2 N       -1.2210     1.2410    -0.7990 N.pl3 1 <1>   0.7090 
  3 C        0.8130     0.3390    -0.1900 C.3   1 <1>   0.1200 
  4 N       -1.0270     2.5280    -0.9270 N.2   1 <1>  -0.4180 
  5 C       -2.4370     1.0120    -0.3090 C.2   1 <1>   0.1330 
  6 C        1.7770    -0.7940    -0.5430 C.3   1 <1>  -0.1600 
  7 N       -2.1110     3.0810    -0.5090 N.2   1 <1>   0.0000 
  8 N       -2.9930     2.1690    -0.1220 N.2   1 <1>  -0.3380 
  9 C       -3.0690    -0.2680    -0.0480 C.ar  1 <1>   0.0530 
 10 C        2.9380    -0.8660     0.4550 C.3   1 <1>  -0.2400 
 11 C       -2.3600    -1.4430     0.2140 C.ar  1 <1>  -0.1500 
 12 C       -4.4620    -0.3610    -0.0480 C.ar  1 <1>  -0.1500 
 13 C       -3.0050    -2.6420     0.4560 C.ar  1 <1>  -0.1500 
 14 C       -5.1150    -1.5550     0.1930 C.ar  1 <1>  -0.1500 
 15 C       -4.3860    -2.7020     0.4450 C.ar  1 <1>  -0.1500 
 16 H        0.4020     0.1960     0.7950 H     1 <1>   0.0800 
 17 H        1.3150     1.2920    -0.2400 H     1 <1>   0.0800 
 18 H        2.1710    -0.6280    -1.5310 H     1 <1>   0.0800 
 19 H        1.2480    -1.7310    -0.5370 H     1 <1>   0.0800 
 20 H        3.4950     0.0550     0.4530 H     1 <1>   0.0800 
 21 H        3.6040    -1.6670     0.1850 H     1 <1>   0.0800 
 22 H        2.5720    -1.0490     1.4500 H     1 <1>   0.0800 
 23 H       -1.2880    -1.4410     0.2380 H     1 <1>   0.1500 
 24 H       -5.0490     0.5210    -0.2420 H     1 <1>   0.1500 
 25 H       -2.4340    -3.5330     0.6530 H     1 <1>   0.1500 
 26 H       -6.1910    -1.5930     0.1850 H     1 <1>   0.1500 
 27 H       -4.8910    -3.6340     0.6330 H     1 <1>   0.1500 
@<TRIPOS>BOND
  1   1   2  1   
  2   1   3  1   
  3   2   4  1   
  4   2   5  1   
  5   3   6  1   
  6   3  16  1   
  7   3  17  1   
  8   4   7  2   
  9   5   8  2   
 10   5   9  1   
 11   6  10  1   
 12   6  18  1   
 13   6  19  1   
 14   7   8  1   
 15   9  11  ar  
 16   9  12  ar  
 17  10  20  1   
 18  10  21  1   
 19  10  22  1   
 20  11  13  ar  
 21  11  23  1   
 22  12  14  ar  
 23  12  24  1   
 24  13  15  ar  
 25  13  25  1   
 26  14  15  ar  
 27  14  26  1   
 28  15  27  1   
@<TRIPOS>SUBSTRUCTURE
  1 ****   5 GROUP 4 **** **** 0

# MOE 2024.06 (io_trps.svl 2023.06)
