@<TRIPOS>MOLECULE
NONAME
46 46 1 0 0 
SMALL
USER_CHARGES


@<TRIPOS>ATOM
  1 S        0.1310    -0.2630     0.2980 S.o2  1 <1>   1.3330 
  2 O        1.2460    -0.9870    -0.2700 O.2   1 <1>  -0.6500 
  3 O       -1.0860    -0.9540     0.6400 O.2   1 <1>  -0.6500 
  4 N       -0.2480     1.0250    -0.7960 N.am  1 <1>  -0.6930 
  5 C        0.7140     0.6380     1.7180 C.3   1 <1>  -0.1350 
  6 C       -1.2640     1.9450    -0.5420 C.ar  1 <1>   0.1990 
  7 C        0.6640     1.2420    -1.9630 C.3   1 <1>   0.2570 
  8 C       -0.9860     3.3040    -0.4450 C.ar  1 <1>  -0.1500 
  9 C       -2.5800     1.5330    -0.3770 C.ar  1 <1>  -0.1500 
 10 C        2.0350     1.8230    -1.5980 C.2   1 <1>   0.5690 
 11 C       -1.9890     4.2200    -0.1870 C.ar  1 <1>  -0.1500 
 12 C       -3.5850     2.4460    -0.1170 C.ar  1 <1>  -0.1500 
 13 O        2.2310     3.0060    -1.7430 O.2   1 <1>  -0.5700 
 14 N        3.0050     1.0020    -1.1130 N.am  1 <1>  -0.7300 
 15 C       -3.3010     3.8010    -0.0190 C.ar  1 <1>  -0.1430 
 16 C        4.4020     1.4050    -0.8110 C.3   1 <1>   0.1400 
 17 C       -4.3980     4.8250     0.2650 C.3   1 <1>   0.0630 
 18 C        4.4790     2.0980     0.5490 C.3   1 <1>   0.1200 
 19 C       -5.0550     4.5620     1.6240 C.3   1 <1>  -0.2400 
 20 C       -5.4450     4.8270    -0.8540 C.3   1 <1>  -0.2400 
 21 O        5.8190     2.3100     0.8600 O.3   1 <1>  -0.5600 
 22 C        6.0190     3.0180     2.0400 C.3   1 <1>   0.0400 
 23 H        1.0240    -0.0440     2.4850 H     1 <1>   0.0800 
 24 H       -0.0700     1.2580     2.1060 H     1 <1>   0.0800 
 25 H        1.5440     1.2610     1.4490 H     1 <1>   0.0800 
 26 H        0.1910     1.9150    -2.6560 H     1 <1>   0.0800 
 27 H        0.8080     0.3070    -2.4740 H     1 <1>   0.0800 
 28 H        0.0220     3.6540    -0.5680 H     1 <1>   0.1500 
 29 H       -2.8220     0.4880    -0.4570 H     1 <1>   0.1500 
 30 H       -1.7410     5.2640    -0.1190 H     1 <1>   0.1500 
 31 H       -4.5940     2.0940     0.0070 H     1 <1>   0.1500 
 32 H        2.7630     0.0160    -0.9220 H     1 <1>   0.3700 
 33 H        4.7490     2.0840    -1.5720 H     1 <1>   0.0800 
 34 H        5.0290     0.5310    -0.8090 H     1 <1>   0.0800 
 35 H       -3.9550     5.8060     0.3000 H     1 <1>   0.0800 
 36 H        4.0490     1.4740     1.3130 H     1 <1>   0.0800 
 37 H        3.9750     3.0480     0.5050 H     1 <1>   0.0800 
 38 H       -5.5580     3.6120     1.6300 H     1 <1>   0.0800 
 39 H       -5.7720     5.3310     1.8470 H     1 <1>   0.0800 
 40 H       -4.3060     4.5570     2.3960 H     1 <1>   0.0800 
 41 H       -5.9570     3.8830    -0.9020 H     1 <1>   0.0800 
 42 H       -4.9660     5.0060    -1.8000 H     1 <1>   0.0800 
 43 H       -6.1700     5.6040    -0.6840 H     1 <1>   0.0800 
 44 H        7.0790     3.1270     2.1890 H     1 <1>   0.0800 
 45 H        5.5910     2.4690     2.8620 H     1 <1>   0.0800 
 46 H        5.5640     3.9900     1.9530 H     1 <1>   0.0800 
@<TRIPOS>BOND
  1   1   2  2   
  2   1   3  2   
  3   1   4  am  
  4   1   5  1   
  5   4   6  1   
  6   4   7  1   
  7   5  23  1   
  8   5  24  1   
  9   5  25  1   
 10   6   8  ar  
 11   6   9  ar  
 12   7  10  1   
 13   7  26  1   
 14   7  27  1   
 15   8  11  ar  
 16   8  28  1   
 17   9  12  ar  
 18   9  29  1   
 19  10  13  2   
 20  10  14  am  
 21  11  15  ar  
 22  11  30  1   
 23  12  15  ar  
 24  12  31  1   
 25  14  16  1   
 26  14  32  1   
 27  15  17  1   
 28  16  18  1   
 29  16  33  1   
 30  16  34  1   
 31  17  19  1   
 32  17  20  1   
 33  17  35  1   
 34  18  21  1   
 35  18  36  1   
 36  18  37  1   
 37  19  38  1   
 38  19  39  1   
 39  19  40  1   
 40  20  41  1   
 41  20  42  1   
 42  20  43  1   
 43  21  22  1   
 44  22  44  1   
 45  22  45  1   
 46  22  46  1   
@<TRIPOS>SUBSTRUCTURE
  1 ****   4 GROUP 4 **** **** 0

# MOE 2024.06 (io_trps.svl 2023.06)
