@<TRIPOS>MOLECULE
NONAME
47 48 1 0 0 
SMALL
USER_CHARGES


@<TRIPOS>ATOM
  1 O        1.5750    -3.7540     1.7220 O.2   1 <1>  -0.5700 
  2 C        1.2100    -3.2260     0.7020 C.2   1 <1>   0.5690 
  3 N        1.9880    -2.2440     0.1870 N.am  1 <1>  -0.7300 
  4 C       -0.0630    -3.7160    -0.0100 C.3   1 <1>  -0.0190 
  5 C        1.7020    -1.2520    -0.8570 C.3   1 <1>   0.2780 
  6 C       -1.3870    -3.4320     0.7500 C.3   1 <1>  -0.0190 
  7 C        0.0450    -5.2240    -0.3340 C.3   1 <1>  -0.0220 
  8 C        2.2370     0.0740    -0.3670 C.2   1 <1>  -0.2880 
  9 C       -1.7210    -1.9510     0.9370 C.2   1 <1>   0.5690 
 10 C       -1.4570    -4.1950     2.0860 C.3   1 <1>  -0.0220 
 11 C       -0.4520    -6.1120     0.7990 C.2   1 <1>  -0.2880 
 12 C        3.2340     0.7680    -0.9260 C.2   1 <1>  -0.3000 
 13 O       -0.8470    -1.1290     1.0160 O.2   1 <1>  -0.5700 
 14 N       -3.0060    -1.5220     0.9900 N.am  1 <1>  -0.7300 
 15 C       -1.1040    -5.6580     1.8740 C.2   1 <1>  -0.2880 
 16 C       -4.2760    -2.2840     0.9090 C.3   1 <1>   0.1400 
 17 C       -4.8540    -2.1860    -0.5030 C.3   1 <1>  -0.0170 
 18 C       -6.1260    -3.0110    -0.5990 C.ar  1 <1>  -0.1440 
 19 C       -7.3630    -2.4190    -0.3910 C.ar  1 <1>  -0.1500 
 20 C       -6.0590    -4.3650    -0.8890 C.ar  1 <1>  -0.1500 
 21 C       -8.5200    -3.1740    -0.4720 C.ar  1 <1>  -0.1500 
 22 C       -7.2160    -5.1200    -0.9690 C.ar  1 <1>  -0.1500 
 23 C       -8.4480    -4.5250    -0.7610 C.ar  1 <1>  -0.1500 
 24 H        2.7980    -2.0020     0.7590 H     1 <1>   0.3700 
 25 H       -0.1220    -3.2130    -0.9550 H     1 <1>   0.0800 
 26 H        0.6450    -1.1690    -1.0370 H     1 <1>   0.0800 
 27 H        2.1950    -1.5410    -1.7690 H     1 <1>   0.0800 
 28 H       -2.1620    -3.8380     0.1260 H     1 <1>   0.0800 
 29 H        1.0700    -5.4700    -0.5550 H     1 <1>   0.0800 
 30 H       -0.5380    -5.4440    -1.2110 H     1 <1>   0.0800 
 31 H        1.7090     0.4130     0.5100 H     1 <1>   0.1500 
 32 H       -2.4500    -4.1270     2.4900 H     1 <1>   0.0800 
 33 H       -0.7810    -3.7630     2.8040 H     1 <1>   0.0800 
 34 H       -0.2160    -7.1530     0.6580 H     1 <1>   0.1500 
 35 H        3.5880     1.7120    -0.5490 H     1 <1>   0.1500 
 36 H        3.7790     0.4550    -1.7990 H     1 <1>   0.1500 
 37 H       -3.1060    -0.5110     1.1170 H     1 <1>   0.3700 
 38 H       -1.4200    -6.2960     2.6820 H     1 <1>   0.1500 
 39 H       -4.9790    -1.8810     1.6180 H     1 <1>   0.0800 
 40 H       -4.1140    -3.3180     1.1590 H     1 <1>   0.0800 
 41 H       -4.1370    -2.5530    -1.2160 H     1 <1>   0.0800 
 42 H       -5.0670    -1.1580    -0.7380 H     1 <1>   0.0800 
 43 H       -7.4340    -1.3700    -0.1670 H     1 <1>   0.1500 
 44 H       -5.1080    -4.8410    -1.0530 H     1 <1>   0.1500 
 45 H       -9.4780    -2.7100    -0.3110 H     1 <1>   0.1500 
 46 H       -7.1590    -6.1710    -1.1940 H     1 <1>   0.1500 
 47 H       -9.3480    -5.1120    -0.8240 H     1 <1>   0.1500 
@<TRIPOS>BOND
  1   1   2  2   
  2   2   3  am  
  3   2   4  1   
  4   3   5  1   
  5   3  24  1   
  6   4   6  1   
  7   4   7  1   
  8   4  25  1   
  9   5   8  1   
 10   5  26  1   
 11   5  27  1   
 12   6   9  1   
 13   6  10  1   
 14   6  28  1   
 15   7  11  1   
 16   7  29  1   
 17   7  30  1   
 18   8  12  2   
 19   8  31  1   
 20   9  13  2   
 21   9  14  am  
 22  10  15  1   
 23  10  32  1   
 24  10  33  1   
 25  11  15  2   
 26  11  34  1   
 27  12  35  1   
 28  12  36  1   
 29  14  16  1   
 30  14  37  1   
 31  15  38  1   
 32  16  17  1   
 33  16  39  1   
 34  16  40  1   
 35  17  18  1   
 36  17  41  1   
 37  17  42  1   
 38  18  19  ar  
 39  18  20  ar  
 40  19  21  ar  
 41  19  43  1   
 42  20  22  ar  
 43  20  44  1   
 44  21  23  ar  
 45  21  45  1   
 46  22  23  ar  
 47  22  46  1   
 48  23  47  1   
@<TRIPOS>SUBSTRUCTURE
  1 ****   6 GROUP 4 **** **** 0

# MOE 2024.06 (io_trps.svl 2023.06)
