@<TRIPOS>MOLECULE
NONAME
49 50 1 0 0 
SMALL
USER_CHARGES


@<TRIPOS>ATOM
  1 O       -0.1180    -0.9630    -2.4040 O.2   1 <1>  -0.5700 
  2 C       -0.1590    -1.6630    -1.4210 C.2   1 <1>   0.5690 
  3 N        0.8840    -1.8010    -0.5410 N.am  1 <1>  -0.5470 
  4 C       -1.4540    -2.4330    -1.1270 C.3   1 <1>   0.1710 
  5 C        2.1260    -1.1490    -0.4640 C.ar  1 <1>   0.1170 
  6 N       -2.5690    -1.5900    -0.6010 N.3   1 <1>  -0.8100 
  7 C        3.1730    -1.7450     0.2430 C.ar  1 <1>  -0.1430 
  8 C        2.3430     0.0950    -1.0490 C.ar  1 <1>  -0.1500 
  9 C       -3.8380    -2.3340    -0.4380 C.3   1 <1>   0.1100 
 10 C       -2.2280    -0.8220     0.6220 C.3   1 <1>   0.1100 
 11 C        4.3930    -1.0950     0.3510 C.ar  1 <1>  -0.1500 
 12 C        3.0150    -3.1110     0.9030 C.3   1 <1>  -0.0970 
 13 C        3.5630     0.7340    -0.9380 C.ar  1 <1>  -0.1500 
 14 C       -5.0050    -1.4030    -0.0190 C.3   1 <1>   0.3430 
 15 C       -3.3860     0.1030     1.0710 C.3   1 <1>   0.3430 
 16 C        4.5970     0.1430    -0.2340 C.ar  1 <1>  -0.1440 
 17 N       -4.5450     0.0200     0.1180 N.4   1 <1>  -0.9590 
 18 C        5.9400     0.8390    -0.1100 C.3   1 <1>  -0.0970 
 19 C       -5.6560     0.9660     0.3940 C.3   1 <1>   0.3430 
 20 C       -5.2060     2.4070     0.1430 C.3   1 <1>  -0.1600 
 21 C       -6.3780     3.3820     0.3000 C.3   1 <1>  -0.2400 
 22 H        0.7780    -2.5310     0.1570 H     1 <1>   0.3700 
 23 H       -1.2440    -3.2260    -0.4320 H     1 <1>   0.0800 
 24 H       -1.7690    -2.8830    -2.0520 H     1 <1>   0.0800 
 25 H        1.5580     0.5790    -1.5990 H     1 <1>   0.1500 
 26 H       -3.7170    -3.1090     0.2990 H     1 <1>   0.0800 
 27 H       -4.0940    -2.8090    -1.3710 H     1 <1>   0.0800 
 28 H       -1.3630    -0.2070     0.4330 H     1 <1>   0.0800 
 29 H       -1.9780    -1.4960     1.4240 H     1 <1>   0.0800 
 30 H        5.2010    -1.5540     0.8930 H     1 <1>   0.1500 
 31 H        2.6900    -3.8360     0.1780 H     1 <1>   0.0800 
 32 H        2.2990    -3.0550     1.7020 H     1 <1>   0.0800 
 33 H        3.9500    -3.4490     1.3130 H     1 <1>   0.0800 
 34 H        3.7020     1.6930    -1.4050 H     1 <1>   0.1500 
 35 H       -5.4170    -1.7490     0.9140 H     1 <1>   0.0800 
 36 H       -5.7820    -1.4650    -0.7630 H     1 <1>   0.0800 
 37 H       -3.0180     1.1150     1.1180 H     1 <1>   0.0800 
 38 H       -3.7020    -0.1760     2.0620 H     1 <1>   0.0800 
 39 H       -4.1200     0.2300    -0.8010 H     1 <1>   0.4500 
 40 H        6.3850     0.6280     0.8460 H     1 <1>   0.0800 
 41 H        5.8230     1.9040    -0.2000 H     1 <1>   0.0800 
 42 H        6.6000     0.4950    -0.8850 H     1 <1>   0.0800 
 43 H       -5.9930     0.8580     1.4130 H     1 <1>   0.0800 
 44 H       -6.4850     0.7460    -0.2590 H     1 <1>   0.0800 
 45 H       -4.8170     2.4970    -0.8570 H     1 <1>   0.0800 
 46 H       -4.4380     2.6870     0.8410 H     1 <1>   0.0800 
 47 H       -7.1620     3.1570    -0.4030 H     1 <1>   0.0800 
 48 H       -6.0450     4.3900     0.1170 H     1 <1>   0.0800 
 49 H       -6.7830     3.3390     1.2970 H     1 <1>   0.0800 
@<TRIPOS>BOND
  1   1   2  2   
  2   2   3  am  
  3   2   4  1   
  4   3   5  1   
  5   3  22  1   
  6   4   6  1   
  7   4  23  1   
  8   4  24  1   
  9   5   7  ar  
 10   5   8  ar  
 11   6   9  1   
 12   6  10  1   
 13   7  11  ar  
 14   7  12  1   
 15   8  13  ar  
 16   8  25  1   
 17   9  14  1   
 18   9  26  1   
 19   9  27  1   
 20  10  15  1   
 21  10  28  1   
 22  10  29  1   
 23  11  16  ar  
 24  11  30  1   
 25  12  31  1   
 26  12  32  1   
 27  12  33  1   
 28  13  16  ar  
 29  13  34  1   
 30  14  17  1   
 31  14  35  1   
 32  14  36  1   
 33  15  17  1   
 34  15  37  1   
 35  15  38  1   
 36  16  18  1   
 37  17  19  1   
 38  17  39  1   
 39  18  40  1   
 40  18  41  1   
 41  18  42  1   
 42  19  20  1   
 43  19  43  1   
 44  19  44  1   
 45  20  21  1   
 46  20  45  1   
 47  20  46  1   
 48  21  47  1   
 49  21  48  1   
 50  21  49  1   
@<TRIPOS>SUBSTRUCTURE
  1 ****   2 GROUP 4 **** **** 0

# MOE 2024.06 (io_trps.svl 2023.06)
