@<TRIPOS>MOLECULE
NONAME
41 42 1 0 0 
SMALL
USER_CHARGES


@<TRIPOS>ATOM
  1 O       -0.1980    -1.6810    -0.3680 O.3   1 <1>  -0.3630 
  2 C       -1.4680    -1.5960     0.1120 C.ar  1 <1>   0.0830 
  3 C        0.9080    -1.2450     0.3820 C.3   1 <1>   0.1200 
  4 C       -2.4980    -2.0530    -0.7060 C.ar  1 <1>  -0.1440 
  5 C       -1.7680    -1.0780     1.3700 C.ar  1 <1>  -0.1500 
  6 C        2.1610    -1.4890    -0.4610 C.3   1 <1>  -0.1600 
  7 C       -3.8090    -1.9880    -0.2600 C.ar  1 <1>  -0.1500 
  8 C       -2.2000    -2.6240    -2.0850 C.3   1 <1>  -0.0970 
  9 C       -3.0800    -1.0170     1.8050 C.ar  1 <1>  -0.1500 
 10 C        3.4380    -1.0510     0.2710 C.3   1 <1>  -0.1600 
 11 C       -4.1000    -1.4720     0.9900 C.ar  1 <1>  -0.1500 
 12 C        4.6690    -1.3030    -0.6030 C.3   1 <1>   0.3430 
 13 N        5.8980    -0.8080     0.0750 N.4   1 <1>  -0.9590 
 14 C        7.0820    -0.8100    -0.8190 C.3   1 <1>   0.3430 
 15 C        6.2970    -1.5950     1.2690 C.3   1 <1>   0.3430 
 16 C        8.2710    -0.7320     0.1280 C.3   1 <1>  -0.1600 
 17 C        7.7660    -1.2520     1.4770 C.3   1 <1>  -0.1600 
 18 H        0.9390    -1.8130     1.2970 H     1 <1>   0.0800 
 19 H        0.7800    -0.1970     0.5930 H     1 <1>   0.0800 
 20 H       -1.0000    -0.7170     2.0260 H     1 <1>   0.1500 
 21 H        2.0630    -0.9410    -1.3820 H     1 <1>   0.0800 
 22 H        2.2170    -2.5400    -0.6920 H     1 <1>   0.0800 
 23 H       -4.6120    -2.3380    -0.8840 H     1 <1>   0.1500 
 24 H       -1.7060    -1.8820    -2.6860 H     1 <1>   0.0800 
 25 H       -3.1020    -2.9270    -2.5850 H     1 <1>   0.0800 
 26 H       -1.5550    -3.4800    -1.9920 H     1 <1>   0.0800 
 27 H       -3.3080    -0.6160     2.7770 H     1 <1>   0.1500 
 28 H        3.5160    -1.6050     1.1900 H     1 <1>   0.0800 
 29 H        3.3650    -0.0010     0.4990 H     1 <1>   0.0800 
 30 H       -5.1210    -1.4250     1.3280 H     1 <1>   0.1500 
 31 H        4.5410    -0.7850    -1.5400 H     1 <1>   0.0800 
 32 H        4.7590    -2.3570    -0.8120 H     1 <1>   0.0800 
 33 H        5.7470     0.1630     0.3780 H     1 <1>   0.4500 
 34 H        7.0660     0.0180    -1.5100 H     1 <1>   0.0800 
 35 H        7.1230    -1.7360    -1.3700 H     1 <1>   0.0800 
 36 H        6.2000    -2.6490     1.0610 H     1 <1>   0.0800 
 37 H        5.7020    -1.3440     2.1330 H     1 <1>   0.0800 
 38 H        8.5990     0.2890     0.2180 H     1 <1>   0.0800 
 39 H        9.0900    -1.3210    -0.2470 H     1 <1>   0.0800 
 40 H        8.3110    -2.1220     1.8000 H     1 <1>   0.0800 
 41 H        7.8600    -0.4910     2.2330 H     1 <1>   0.0800 
@<TRIPOS>BOND
  1   1   2  1   
  2   1   3  1   
  3   2   4  ar  
  4   2   5  ar  
  5   3   6  1   
  6   3  18  1   
  7   3  19  1   
  8   4   7  ar  
  9   4   8  1   
 10   5   9  ar  
 11   5  20  1   
 12   6  10  1   
 13   6  21  1   
 14   6  22  1   
 15   7  11  ar  
 16   7  23  1   
 17   8  24  1   
 18   8  25  1   
 19   8  26  1   
 20   9  11  ar  
 21   9  27  1   
 22  10  12  1   
 23  10  28  1   
 24  10  29  1   
 25  11  30  1   
 26  12  13  1   
 27  12  31  1   
 28  12  32  1   
 29  13  14  1   
 30  13  15  1   
 31  13  33  1   
 32  14  16  1   
 33  14  34  1   
 34  14  35  1   
 35  15  17  1   
 36  15  36  1   
 37  15  37  1   
 38  16  17  1   
 39  16  38  1   
 40  16  39  1   
 41  17  40  1   
 42  17  41  1   
@<TRIPOS>SUBSTRUCTURE
  1 ****   3 GROUP 4 **** **** 0

# MOE 2024.06 (io_trps.svl 2023.06)
