@<TRIPOS>MOLECULE
NONAME
37 40 1 0 0 
SMALL
USER_CHARGES


@<TRIPOS>ATOM
  1 F       -1.0250     0.0190    -0.2420 F     1 <1>  -0.3400 
  2 C       -0.4620    -1.1420    -0.5570 C.3   1 <1>   1.1640 
  3 F        0.7030    -1.1680     0.0830 F     1 <1>  -0.3400 
  4 F       -0.1710    -1.0780    -1.8500 F     1 <1>  -0.3400 
  5 C       -1.3490    -2.3510    -0.2230 C.ar  1 <1>  -0.1440 
  6 C       -2.7330    -2.2610    -0.3290 C.ar  1 <1>  -0.1500 
  7 C       -0.7910    -3.5590     0.1830 C.ar  1 <1>  -0.1500 
  8 C       -3.5600    -3.3420    -0.0400 C.ar  1 <1>   0.1170 
  9 C       -1.5990    -4.6420     0.4790 C.ar  1 <1>  -0.1500 
 10 N       -4.9580    -3.2800    -0.1280 N.am  1 <1>  -0.5470 
 11 C       -2.9720    -4.5320     0.3700 C.ar  1 <1>  -0.1500 
 12 C       -5.7860    -2.4380    -0.8130 C.2   1 <1>   0.6300 
 13 O       -5.4030    -1.5550    -1.5400 O.2   1 <1>  -0.5700 
 14 C       -7.2800    -2.6650    -0.6520 C.3   1 <1>  -0.1000 
 15 C       -8.1300    -1.6360     0.0320 C.3   1 <1>  -0.1950 
 16 C       -7.8770    -2.9690     0.6950 C.3   1 <1>  -0.1950 
 17 C       -9.6650    -1.5030     0.0510 C.3   1 <1>   0.0150 
 18 C       -9.2920    -3.4810     1.0290 C.3   1 <1>   0.0150 
 19 C       -9.9860    -2.1740     1.3770 C.3   1 <1>  -0.1600 
 20 C      -10.2900    -2.5030    -0.9390 C.3   1 <1>  -0.1600 
 21 C      -10.0300    -3.8680    -0.2650 C.3   1 <1>  -0.1600 
 22 H       -3.1780    -1.3330    -0.6410 H     1 <1>   0.1500 
 23 H        0.2780    -3.6670     0.2710 H     1 <1>   0.1500 
 24 H       -1.1560    -5.5720     0.7940 H     1 <1>   0.1500 
 25 H       -5.4570    -4.0030     0.3860 H     1 <1>   0.3700 
 26 H       -3.5890    -5.3810     0.6000 H     1 <1>   0.1500 
 27 H       -7.6740    -3.1440    -1.5280 H     1 <1>   0.1000 
 28 H       -7.6330    -0.7780     0.4520 H     1 <1>   0.1000 
 29 H       -7.2440    -2.9330     1.5660 H     1 <1>   0.1000 
 30 H      -10.0210    -0.4920    -0.0490 H     1 <1>   0.0800 
 31 H       -9.3210    -4.2310     1.8010 H     1 <1>   0.0800 
 32 H      -11.0430    -2.2910     1.5430 H     1 <1>   0.0800 
 33 H       -9.5310    -1.6720     2.2150 H     1 <1>   0.0800 
 34 H       -9.8440    -2.4290    -1.9150 H     1 <1>   0.0800 
 35 H      -11.3480    -2.3260    -1.0250 H     1 <1>   0.0800 
 36 H      -10.9650    -4.3480    -0.0300 H     1 <1>   0.0800 
 37 H       -9.4440    -4.5270    -0.8800 H     1 <1>   0.0800 
@<TRIPOS>BOND
  1   1   2  1   
  2   2   3  1   
  3   2   4  1   
  4   2   5  1   
  5   5   6  ar  
  6   5   7  ar  
  7   6   8  ar  
  8   6  22  1   
  9   7   9  ar  
 10   7  23  1   
 11   8  10  1   
 12   8  11  ar  
 13   9  11  ar  
 14   9  24  1   
 15  10  12  am  
 16  10  25  1   
 17  11  26  1   
 18  12  13  2   
 19  12  14  1   
 20  14  15  1   
 21  14  16  1   
 22  14  27  1   
 23  15  16  1   
 24  15  17  1   
 25  15  28  1   
 26  16  18  1   
 27  16  29  1   
 28  17  19  1   
 29  17  20  1   
 30  17  30  1   
 31  18  19  1   
 32  18  21  1   
 33  18  31  1   
 34  19  32  1   
 35  19  33  1   
 36  20  21  1   
 37  20  34  1   
 38  20  35  1   
 39  21  36  1   
 40  21  37  1   
@<TRIPOS>SUBSTRUCTURE
  1 ****  10 GROUP 4 **** **** 0

# MOE 2024.06 (io_trps.svl 2023.06)
