@<TRIPOS>MOLECULE
NONAME
40 40 1 0 0 
SMALL
USER_CHARGES


@<TRIPOS>ATOM
  1 O       -1.5960     6.7770     0.0890 O.3   1 <1>  -0.3630 
  2 C       -2.7630     6.1900     0.4530 C.ar  1 <1>   0.0830 
  3 C       -0.3620     6.1350     0.2890 C.3   1 <1>   0.1200 
  4 C       -3.9260     6.8880     0.1680 C.ar  1 <1>  -0.1500 
  5 C       -2.8440     4.9500     1.0810 C.ar  1 <1>  -0.1500 
  6 C        0.7240     7.0660    -0.2590 C.3   1 <1>   0.3430 
  7 C       -5.1650     6.3680     0.5000 C.ar  1 <1>  -0.1440 
  8 C       -4.0820     4.4260     1.4130 C.ar  1 <1>  -0.1500 
  9 N        2.1160     6.5310    -0.0730 N.4   1 <1>  -0.9590 
 10 C       -5.2370     5.1320     1.1230 C.ar  1 <1>  -0.1500 
 11 C       -6.4340     7.1420     0.1830 C.3   1 <1>  -0.0170 
 12 C        3.1020     7.5970    -0.3990 C.3   1 <1>   0.3430 
 13 C        2.3580     5.2970    -0.8730 C.3   1 <1>   0.3430 
 14 C       -6.9630     6.7630    -1.2020 C.3   1 <1>  -0.2400 
 15 C        4.4590     7.2400     0.1980 C.3   1 <1>  -0.2400 
 16 C        2.4780     4.1190     0.0840 C.3   1 <1>  -0.2400 
 17 H       -0.3870     5.2030    -0.2470 H     1 <1>   0.0800 
 18 H       -0.2370     5.9750     1.3450 H     1 <1>   0.0800 
 19 H       -3.8540     7.8440    -0.3180 H     1 <1>   0.1500 
 20 H       -1.9710     4.3760     1.3220 H     1 <1>   0.1500 
 21 H        0.6360     8.0100     0.2530 H     1 <1>   0.0800 
 22 H        0.5390     7.2330    -1.3080 H     1 <1>   0.0800 
 23 H       -4.1520     3.4680     1.8980 H     1 <1>   0.1500 
 24 H        2.2480     6.2960     0.9190 H     1 <1>   0.4500 
 25 H       -6.1940     4.7140     1.3840 H     1 <1>   0.1500 
 26 H       -6.2320     8.1990     0.2150 H     1 <1>   0.0800 
 27 H       -7.1840     6.9320     0.9260 H     1 <1>   0.0800 
 28 H        2.7760     8.5360     0.0220 H     1 <1>   0.0800 
 29 H        3.1840     7.7180    -1.4680 H     1 <1>   0.0800 
 30 H        3.2720     5.3900    -1.4390 H     1 <1>   0.0800 
 31 H        1.5500     5.1320    -1.5680 H     1 <1>   0.0800 
 32 H       -6.2270     6.9850    -1.9530 H     1 <1>   0.0800 
 33 H       -7.8600     7.3150    -1.4200 H     1 <1>   0.0800 
 34 H       -7.1860     5.7110    -1.2380 H     1 <1>   0.0800 
 35 H        4.3890     7.1200     1.2640 H     1 <1>   0.0800 
 36 H        5.1500     8.0410     0.0020 H     1 <1>   0.0800 
 37 H        4.8640     6.3470    -0.2430 H     1 <1>   0.0800 
 38 H        3.3080     4.2540     0.7530 H     1 <1>   0.0800 
 39 H        2.6550     3.2220    -0.4840 H     1 <1>   0.0800 
 40 H        1.5750     3.9780     0.6490 H     1 <1>   0.0800 
@<TRIPOS>BOND
  1   1   2  1   
  2   1   3  1   
  3   2   4  ar  
  4   2   5  ar  
  5   3   6  1   
  6   3  17  1   
  7   3  18  1   
  8   4   7  ar  
  9   4  19  1   
 10   5   8  ar  
 11   5  20  1   
 12   6   9  1   
 13   6  21  1   
 14   6  22  1   
 15   7  10  ar  
 16   7  11  1   
 17   8  10  ar  
 18   8  23  1   
 19   9  12  1   
 20   9  13  1   
 21   9  24  1   
 22  10  25  1   
 23  11  14  1   
 24  11  26  1   
 25  11  27  1   
 26  12  15  1   
 27  12  28  1   
 28  12  29  1   
 29  13  16  1   
 30  13  30  1   
 31  13  31  1   
 32  14  32  1   
 33  14  33  1   
 34  14  34  1   
 35  15  35  1   
 36  15  36  1   
 37  15  37  1   
 38  16  38  1   
 39  16  39  1   
 40  16  40  1   
@<TRIPOS>SUBSTRUCTURE
  1 ****   1 GROUP 4 **** **** 0

# MOE 2024.06 (io_trps.svl 2023.06)
