@<TRIPOS>MOLECULE
NONAME
49 51 1 0 0 
SMALL
USER_CHARGES


@<TRIPOS>ATOM
  1 S        0.1170    -0.2040    -1.1760 S.o2  1 <1>   1.4470 
  2 O        0.5220    -0.5750    -2.5140 O.2   1 <1>  -0.6500 
  3 O        0.5660     1.0460    -0.6100 O.2   1 <1>  -0.6500 
  4 N        0.7830    -1.4110    -0.1820 N.am  1 <1>  -0.8490 
  5 C       -1.6730    -0.3980    -0.9650 C.ar  1 <1>  -0.0090 
  6 C        0.5510    -2.7730    -0.7090 C.3   1 <1>   0.1960 
  7 C        2.2340    -1.1740     0.0020 C.3   1 <1>   0.1960 
  8 C       -2.4950    -0.7350    -2.0350 C.ar  1 <1>  -0.1500 
  9 C       -2.2750    -0.2220     0.2750 C.ar  1 <1>  -0.1500 
 10 C        1.1070    -3.8740     0.2320 C.3   1 <1>   0.3430 
 11 C        2.9540    -2.3110     0.7690 C.3   1 <1>   0.3430 
 12 C       -3.8600    -0.8900    -1.8710 C.ar  1 <1>  -0.1500 
 13 C       -3.6390    -0.3800     0.4430 C.ar  1 <1>  -0.1500 
 14 N        1.9800    -3.3130     1.3250 N.4   1 <1>  -0.9590 
 15 C       -4.4590    -0.7130    -0.6300 C.ar  1 <1>   0.1170 
 16 C        2.6380    -4.3740     2.1460 C.3   1 <1>   0.2630 
 17 N       -5.8460    -0.8840    -0.5210 N.am  1 <1>  -0.5470 
 18 C       -6.7500    -0.4710     0.4170 C.2   1 <1>   0.6900 
 19 O       -6.4130     0.2100     1.3670 O.2   1 <1>  -0.5700 
 20 N       -8.0630    -0.8270     0.2630 N.am  1 <1>  -0.6600 
 21 C       -9.0950    -0.4480     1.2530 C.3   1 <1>   0.1400 
 22 C       -8.6190    -1.7400    -0.7600 C.3   1 <1>   0.1400 
 23 C      -10.2670    -1.3800     0.9700 C.3   1 <1>  -0.1600 
 24 C      -10.1230    -1.7430    -0.5050 C.3   1 <1>  -0.1600 
 25 H        1.0190    -2.8770    -1.6750 H     1 <1>   0.0800 
 26 H       -0.5050    -2.9380    -0.8470 H     1 <1>   0.0800 
 27 H        2.3740    -0.2540     0.5470 H     1 <1>   0.0800 
 28 H        2.7110    -1.0460    -0.9570 H     1 <1>   0.0800 
 29 H       -2.0640    -0.8710    -3.0130 H     1 <1>   0.1500 
 30 H       -1.6690     0.0490     1.1240 H     1 <1>   0.1500 
 31 H        1.6640    -4.5830    -0.3590 H     1 <1>   0.0800 
 32 H        0.2780    -4.4030     0.6720 H     1 <1>   0.0800 
 33 H        3.5380    -1.8790     1.5660 H     1 <1>   0.0800 
 34 H        3.6380    -2.8040     0.0970 H     1 <1>   0.0800 
 35 H       -4.4680    -1.1450    -2.7210 H     1 <1>   0.1500 
 36 H       -4.0640    -0.2390     1.4200 H     1 <1>   0.1500 
 37 H        1.3420    -2.7560     1.9180 H     1 <1>   0.4500 
 38 H        3.3080    -4.9590     1.5370 H     1 <1>   0.0800 
 39 H        1.8960    -5.0310     2.5710 H     1 <1>   0.0800 
 40 H        3.2020    -3.9300     2.9500 H     1 <1>   0.0800 
 41 H       -6.2990    -1.3170    -1.3160 H     1 <1>   0.3700 
 42 H       -9.3750     0.5790     1.0890 H     1 <1>   0.0800 
 43 H       -8.7270    -0.5640     2.2590 H     1 <1>   0.0800 
 44 H       -8.2140    -2.7270    -0.6090 H     1 <1>   0.0800 
 45 H       -8.3960    -1.3930    -1.7540 H     1 <1>   0.0800 
 46 H      -11.2110    -0.9120     1.1900 H     1 <1>   0.0800 
 47 H      -10.1640    -2.2620     1.5770 H     1 <1>   0.0800 
 48 H      -10.5680    -2.6940    -0.7390 H     1 <1>   0.0800 
 49 H      -10.5810    -0.9820    -1.1130 H     1 <1>   0.0800 
@<TRIPOS>BOND
  1   1   2  2   
  2   1   3  2   
  3   1   4  am  
  4   1   5  1   
  5   4   6  1   
  6   4   7  1   
  7   5   8  ar  
  8   5   9  ar  
  9   6  10  1   
 10   6  25  1   
 11   6  26  1   
 12   7  11  1   
 13   7  27  1   
 14   7  28  1   
 15   8  12  ar  
 16   8  29  1   
 17   9  13  ar  
 18   9  30  1   
 19  10  14  1   
 20  10  31  1   
 21  10  32  1   
 22  11  14  1   
 23  11  33  1   
 24  11  34  1   
 25  12  15  ar  
 26  12  35  1   
 27  13  15  ar  
 28  13  36  1   
 29  14  16  1   
 30  14  37  1   
 31  15  17  1   
 32  16  38  1   
 33  16  39  1   
 34  16  40  1   
 35  17  18  am  
 36  17  41  1   
 37  18  19  2   
 38  18  20  am  
 39  20  21  1   
 40  20  22  1   
 41  21  23  1   
 42  21  42  1   
 43  21  43  1   
 44  22  24  1   
 45  22  44  1   
 46  22  45  1   
 47  23  24  1   
 48  23  46  1   
 49  23  47  1   
 50  24  48  1   
 51  24  49  1   
@<TRIPOS>SUBSTRUCTURE
  1 ****  13 GROUP 4 **** **** 0

# MOE 2024.06 (io_trps.svl 2023.06)
