@<TRIPOS>MOLECULE
NONAME
35 35 1 0 0 
SMALL
USER_CHARGES


@<TRIPOS>ATOM
  1 O       -5.7310     2.7530     0.2070 O.3   1 <1>  -0.3630 
  2 C       -4.4820     2.2450     0.0410 C.ar  1 <1>   0.0830 
  3 C       -6.9010     2.0200    -0.0580 C.3   1 <1>   0.1200 
  4 C       -3.4030     3.0720     0.3620 C.ar  1 <1>   0.0730 
  5 C       -4.2570     0.9540    -0.4310 C.ar  1 <1>  -0.1500 
  6 C       -8.0840     2.9400     0.2630 C.3   1 <1>   0.3430 
  7 C       -3.6160     4.4050     0.8490 C.1   1 <1>   0.4840 
  8 C       -2.1120     2.5810     0.2040 C.ar  1 <1>  -0.1500 
  9 C       -2.9640     0.4860    -0.5810 C.ar  1 <1>  -0.1500 
 10 N       -9.4230     2.3220    -0.0250 N.4   1 <1>  -0.9590 
 11 N       -3.7990     5.4620     1.2360 N.1   1 <1>  -0.5570 
 12 C       -1.8920     1.2990    -0.2640 C.ar  1 <1>  -0.1500 
 13 C      -10.4780     3.3660     0.0770 C.3   1 <1>   0.3430 
 14 C       -9.7150     1.1620     0.8640 C.3   1 <1>   0.3430 
 15 C      -11.7400     2.8920    -0.6350 C.3   1 <1>  -0.2400 
 16 C       -9.6600    -0.1110     0.0310 C.3   1 <1>  -0.2400 
 17 H       -6.8970     1.1500     0.5750 H     1 <1>   0.0800 
 18 H       -6.8950     1.7450    -1.0980 H     1 <1>   0.0800 
 19 H       -5.0640     0.2950    -0.6880 H     1 <1>   0.1500 
 20 H       -7.9740     3.8350    -0.3280 H     1 <1>   0.0800 
 21 H       -8.0330     3.2200     1.3030 H     1 <1>   0.0800 
 22 H       -1.2700     3.2070     0.4480 H     1 <1>   0.1500 
 23 H       -2.7880    -0.5130    -0.9460 H     1 <1>   0.1500 
 24 H       -9.4310     1.9860    -0.9980 H     1 <1>   0.4500 
 25 H       -0.8850     0.9320    -0.3820 H     1 <1>   0.1500 
 26 H      -10.1370     4.2760    -0.3940 H     1 <1>   0.0800 
 27 H      -10.6920     3.5840     1.1120 H     1 <1>   0.0800 
 28 H      -10.6980     1.2600     1.2970 H     1 <1>   0.0800 
 29 H       -8.9990     1.1120     1.6690 H     1 <1>   0.0800 
 30 H      -11.5380     2.6760    -1.6690 H     1 <1>   0.0800 
 31 H      -12.4770     3.6740    -0.6000 H     1 <1>   0.0800 
 32 H      -12.1620     2.0250    -0.1600 H     1 <1>   0.0800 
 33 H      -10.4020    -0.0900    -0.7480 H     1 <1>   0.0800 
 34 H       -9.8730    -0.9550     0.6630 H     1 <1>   0.0800 
 35 H       -8.6870    -0.2590    -0.4000 H     1 <1>   0.0800 
@<TRIPOS>BOND
  1   1   2  1   
  2   1   3  1   
  3   2   4  ar  
  4   2   5  ar  
  5   3   6  1   
  6   3  17  1   
  7   3  18  1   
  8   4   7  1   
  9   4   8  ar  
 10   5   9  ar  
 11   5  19  1   
 12   6  10  1   
 13   6  20  1   
 14   6  21  1   
 15   7  11  3   
 16   8  12  ar  
 17   8  22  1   
 18   9  12  ar  
 19   9  23  1   
 20  10  13  1   
 21  10  14  1   
 22  10  24  1   
 23  12  25  1   
 24  13  15  1   
 25  13  26  1   
 26  13  27  1   
 27  14  16  1   
 28  14  28  1   
 29  14  29  1   
 30  15  30  1   
 31  15  31  1   
 32  15  32  1   
 33  16  33  1   
 34  16  34  1   
 35  16  35  1   
@<TRIPOS>SUBSTRUCTURE
  1 ****   1 GROUP 4 **** **** 0

# MOE 2024.06 (io_trps.svl 2023.06)
