@<TRIPOS>MOLECULE
NONAME
41 41 1 0 0 
SMALL
USER_CHARGES


@<TRIPOS>ATOM
  1 O        0.3620     0.5100    -0.7630 O.3   1 <1>  -0.6800 
  2 C        1.5240     1.2300    -0.5490 C.3   1 <1>   0.1200 
  3 C        2.6660     0.2250    -0.3380 C.3   1 <1>   0.3430 
  4 N        3.9750     0.8990    -0.0860 N.4   1 <1>  -0.9590 
  5 C        5.1270    -0.0180    -0.3060 C.3   1 <1>   0.4860 
  6 C        4.0280     1.6220     1.2250 C.3   1 <1>   0.3430 
  7 C        6.4210     0.7590    -0.1670 C.ar  1 <1>  -0.1430 
  8 C        4.4630     3.0830     0.9910 C.3   1 <1>   0.1200 
  9 C        6.8050     1.6620    -1.1470 C.ar  1 <1>  -0.1500 
 10 C        7.2260     0.5860     0.9490 C.ar  1 <1>  -0.1500 
 11 O        3.9410     3.5430    -0.2230 O.3   1 <1>  -0.6800 
 12 C        7.9690     2.3940    -1.0010 C.ar  1 <1>  -0.1500 
 13 C        8.3900     1.3200     1.0890 C.ar  1 <1>  -0.1500 
 14 C        8.7710     2.2340     0.1190 C.ar  1 <1>  -0.1430 
 15 C       10.0600     3.0360     0.2910 C.3   1 <1>   0.0630 
 16 C        9.7650     4.5380     0.3600 C.3   1 <1>  -0.2400 
 17 C       11.0520     2.7280    -0.8350 C.3   1 <1>  -0.2400 
 18 H       -0.4020     1.1010    -0.9350 H     1 <1>   0.4000 
 19 H        1.3760     1.8500     0.3180 H     1 <1>   0.0800 
 20 H        1.7050     1.8410    -1.4170 H     1 <1>   0.0800 
 21 H        2.7390    -0.3800    -1.2270 H     1 <1>   0.0800 
 22 H        2.4200    -0.4180     0.4910 H     1 <1>   0.0800 
 23 H        4.0700     1.6790    -0.7640 H     1 <1>   0.4500 
 24 H        5.0760    -0.4460    -1.2940 H     1 <1>   0.0800 
 25 H        5.1050    -0.8210     0.4130 H     1 <1>   0.0800 
 26 H        4.7080     1.1390     1.9070 H     1 <1>   0.0800 
 27 H        3.0520     1.6270     1.6820 H     1 <1>   0.0800 
 28 H        5.5380     3.1520     0.9460 H     1 <1>   0.0800 
 29 H        4.1090     3.7150     1.7870 H     1 <1>   0.0800 
 30 H        6.2080     1.8100    -2.0300 H     1 <1>   0.1500 
 31 H        6.9640    -0.1190     1.7200 H     1 <1>   0.1500 
 32 H        4.1950     4.4810    -0.3720 H     1 <1>   0.4000 
 33 H        8.2530     3.0920    -1.7700 H     1 <1>   0.1500 
 34 H        9.0050     1.1740     1.9610 H     1 <1>   0.1500 
 35 H       10.5250     2.7510     1.2210 H     1 <1>   0.0800 
 36 H        9.3460     4.8900    -0.5650 H     1 <1>   0.0800 
 37 H       10.6710     5.0840     0.5550 H     1 <1>   0.0800 
 38 H        9.0690     4.7390     1.1540 H     1 <1>   0.0800 
 39 H       10.6640     3.0420    -1.7870 H     1 <1>   0.0800 
 40 H       11.2430     1.6700    -0.8750 H     1 <1>   0.0800 
 41 H       11.9830     3.2360    -0.6600 H     1 <1>   0.0800 
@<TRIPOS>BOND
  1   1   2  1   
  2   1  18  1   
  3   2   3  1   
  4   2  19  1   
  5   2  20  1   
  6   3   4  1   
  7   3  21  1   
  8   3  22  1   
  9   4   5  1   
 10   4   6  1   
 11   4  23  1   
 12   5   7  1   
 13   5  24  1   
 14   5  25  1   
 15   6   8  1   
 16   6  26  1   
 17   6  27  1   
 18   7   9  ar  
 19   7  10  ar  
 20   8  11  1   
 21   8  28  1   
 22   8  29  1   
 23   9  12  ar  
 24   9  30  1   
 25  10  13  ar  
 26  10  31  1   
 27  11  32  1   
 28  12  14  ar  
 29  12  33  1   
 30  13  14  ar  
 31  13  34  1   
 32  14  15  1   
 33  15  16  1   
 34  15  17  1   
 35  15  35  1   
 36  16  36  1   
 37  16  37  1   
 38  16  38  1   
 39  17  39  1   
 40  17  40  1   
 41  17  41  1   
@<TRIPOS>SUBSTRUCTURE
  1 ****   7 GROUP 4 **** **** 0

# MOE 2024.06 (io_trps.svl 2023.06)
