@<TRIPOS>MOLECULE
NONAME
32 33 1 0 0 
SMALL
USER_CHARGES


@<TRIPOS>ATOM
  1 CL      -0.2290    -0.3110    -1.0070 Cl    1 <1>  -0.1770 
  2 C        0.8290    -1.5890    -0.4660 C.ar  1 <1>   0.1770 
  3 C        2.1780    -1.3350    -0.3220 C.ar  1 <1>  -0.1500 
  4 C        0.2940    -2.8330    -0.1890 C.ar  1 <1>  -0.1500 
  5 C        3.0330    -2.3440     0.1100 C.ar  1 <1>   0.1170 
  6 C        1.1360    -3.8420     0.2450 C.ar  1 <1>  -0.1500 
  7 N        4.4140    -2.1560     0.2940 N.am  1 <1>  -0.5470 
  8 C        2.4900    -3.5950     0.3920 C.ar  1 <1>  -0.1500 
  9 C        5.2600    -1.2430    -0.2870 C.2   1 <1>   0.5690 
 10 O        4.9060    -0.4420    -1.1190 O.2   1 <1>  -0.5700 
 11 C        6.7470    -1.2120     0.1170 C.3   1 <1>   0.4040 
 12 N        7.4410     0.0800    -0.2510 N.4   1 <1>  -0.9590 
 13 C        8.9180     0.0650    -0.1510 C.3   1 <1>   0.3430 
 14 C        6.9680     1.2540     0.5210 C.3   1 <1>   0.3430 
 15 C        9.3050     1.5380    -0.1220 C.3   1 <1>  -0.1600 
 16 C        8.0450     2.3040     0.2950 C.3   1 <1>  -0.1600 
 17 H        2.5390    -0.3500    -0.5460 H     1 <1>   0.1500 
 18 H       -0.7610    -3.0030    -0.3110 H     1 <1>   0.1500 
 19 H        0.7340    -4.8180     0.4650 H     1 <1>   0.1500 
 20 H        4.8270    -2.8520     0.9140 H     1 <1>   0.3700 
 21 H        3.1270    -4.3940     0.7270 H     1 <1>   0.1500 
 22 H        7.2360    -2.0300    -0.3840 H     1 <1>   0.0800 
 23 H        6.8230    -1.3730     1.1780 H     1 <1>   0.0800 
 24 H        7.1740     0.2780    -1.2310 H     1 <1>   0.4500 
 25 H        9.3720    -0.4500    -0.9820 H     1 <1>   0.0800 
 26 H        9.2190    -0.4030     0.7730 H     1 <1>   0.0800 
 27 H        6.9160     1.0100     1.5700 H     1 <1>   0.0800 
 28 H        6.0010     1.5910     0.1800 H     1 <1>   0.0800 
 29 H        9.6260     1.8500    -1.1010 H     1 <1>   0.0800 
 30 H       10.1170     1.6980     0.5680 H     1 <1>   0.0800 
 31 H        8.2040     2.8800     1.1910 H     1 <1>   0.0800 
 32 H        7.7370     2.9740    -0.4900 H     1 <1>   0.0800 
@<TRIPOS>BOND
  1   1   2  1   
  2   2   3  ar  
  3   2   4  ar  
  4   3   5  ar  
  5   3  17  1   
  6   4   6  ar  
  7   4  18  1   
  8   5   7  1   
  9   5   8  ar  
 10   6   8  ar  
 11   6  19  1   
 12   7   9  am  
 13   7  20  1   
 14   8  21  1   
 15   9  10  2   
 16   9  11  1   
 17  11  12  1   
 18  11  22  1   
 19  11  23  1   
 20  12  13  1   
 21  12  14  1   
 22  12  24  1   
 23  13  15  1   
 24  13  25  1   
 25  13  26  1   
 26  14  16  1   
 27  14  27  1   
 28  14  28  1   
 29  15  16  1   
 30  15  29  1   
 31  15  30  1   
 32  16  31  1   
 33  16  32  1   
@<TRIPOS>SUBSTRUCTURE
  1 ****   9 GROUP 4 **** **** 0

# MOE 2024.06 (io_trps.svl 2023.06)
