@<TRIPOS>MOLECULE
NONAME
33 33 1 0 0 
SMALL
USER_CHARGES


@<TRIPOS>ATOM
  1 SI       0.2200    -0.2270    -0.6370 Si    1 <1>   0.5160 
  2 C       -0.9550    -1.4610    -0.0320 C.2   1 <1>  -0.4260 
  3 C        1.5840    -1.0840    -1.4450 C.3   1 <1>  -0.3200 
  4 C        0.8860     0.7120     0.7460 C.3   1 <1>  -0.3210 
  5 C       -0.5350     0.8750    -1.8430 C.3   1 <1>  -0.3200 
  6 N       -0.5740    -2.7520     0.0810 N.pl3 1 <1>   0.3000 
  7 C       -2.2500    -1.4270     0.4080 C.2   1 <1>  -0.2750 
  8 N       -1.5290    -3.5510     0.5490 N.2   1 <1>  -0.7070 
  9 SI      -3.4970    -0.1140     0.5700 Si    1 <1>   0.5170 
 10 C       -2.5220    -2.7540     0.7380 C.2   1 <1>   0.1390 
 11 C       -4.1900     0.2840    -1.0450 C.3   1 <1>  -0.3210 
 12 C       -4.8420    -0.6860     1.6250 C.3   1 <1>  -0.3210 
 13 C       -2.8060     1.3680     1.3270 C.3   1 <1>  -0.3210 
 14 H        1.2490    -1.6940    -2.2640 H     1 <1>   0.0800 
 15 H        2.1220    -1.7270    -0.7730 H     1 <1>   0.0800 
 16 H        2.3040    -0.3970    -1.8500 H     1 <1>   0.0800 
 17 H        1.3790     0.0770     1.4590 H     1 <1>   0.0800 
 18 H        0.1260     1.2390     1.2880 H     1 <1>   0.0800 
 19 H        1.6070     1.4440     0.4320 H     1 <1>   0.0800 
 20 H       -1.0050     0.3310    -2.6410 H     1 <1>   0.0800 
 21 H        0.1850     1.5290    -2.2970 H     1 <1>   0.0800 
 22 H       -1.2870     1.5060    -1.4140 H     1 <1>   0.0800 
 23 H        0.3540    -3.1170    -0.1650 H     1 <1>   0.2700 
 24 H       -3.4680    -3.1020     1.1170 H     1 <1>   0.1500 
 25 H       -4.6500    -0.5720    -1.5010 H     1 <1>   0.0800 
 26 H       -3.4480     0.6310    -1.7370 H     1 <1>   0.0800 
 27 H       -4.9430     1.0470    -0.9890 H     1 <1>   0.0800 
 28 H       -4.4940    -0.9760     2.5990 H     1 <1>   0.0800 
 29 H       -5.3490    -1.5380     1.2120 H     1 <1>   0.0800 
 30 H       -5.5880     0.0710     1.7760 H     1 <1>   0.0800 
 31 H       -2.3270     1.1500     2.2630 H     1 <1>   0.0800 
 32 H       -3.5610     2.1040     1.5310 H     1 <1>   0.0800 
 33 H       -2.0750     1.8480     0.7090 H     1 <1>   0.0800 
@<TRIPOS>BOND
  1   1   2  1   
  2   1   3  1   
  3   1   4  1   
  4   1   5  1   
  5   2   6  1   
  6   2   7  2   
  7   3  14  1   
  8   3  15  1   
  9   3  16  1   
 10   4  17  1   
 11   4  18  1   
 12   4  19  1   
 13   5  20  1   
 14   5  21  1   
 15   5  22  1   
 16   6   8  1   
 17   6  23  1   
 18   7   9  1   
 19   7  10  1   
 20   8  10  2   
 21   9  11  1   
 22   9  12  1   
 23   9  13  1   
 24  10  24  1   
 25  11  25  1   
 26  11  26  1   
 27  11  27  1   
 28  12  28  1   
 29  12  29  1   
 30  12  30  1   
 31  13  31  1   
 32  13  32  1   
 33  13  33  1   
@<TRIPOS>SUBSTRUCTURE
  1 ****   2 GROUP 4 **** **** 0

# MOE 2024.06 (io_trps.svl 2023.06)
