@<TRIPOS>MOLECULE
NONAME
46 48 1 0 0 
SMALL
USER_CHARGES


@<TRIPOS>ATOM
  1 F       -0.1250     0.9560     0.9310 F     1 <1>  -0.1900 
  2 C        1.0200     1.4390     0.5050 C.ar  1 <1>   0.1900 
  3 C        1.0810     2.7460     0.0060 C.ar  1 <1>   0.1000 
  4 C        2.1230     0.6110     0.5750 C.ar  1 <1>  -0.1500 
  5 N       -0.0070     3.6230    -0.0860 N.pl3 1 <1>  -0.8380 
  6 C        2.3240     3.1920    -0.4270 C.ar  1 <1>  -0.1500 
  7 C        3.3470     1.0870     0.1350 C.ar  1 <1>  -0.1500 
  8 C       -0.5620     4.1070     1.2180 C.3   1 <1>   0.2090 
  9 C       -1.0850     3.2270    -1.0440 C.3   1 <1>   0.2090 
 10 C        3.4430     2.3770    -0.3650 C.ar  1 <1>  -0.1500 
 11 C       -1.5730     5.2500     1.0140 C.3   1 <1>   0.1400 
 12 C       -2.0910     4.3700    -1.2590 C.3   1 <1>   0.1400 
 13 N       -2.6340     4.8580     0.0430 N.am  1 <1>  -0.6600 
 14 C       -3.9200     5.3050     0.1840 C.2   1 <1>   0.6900 
 15 O       -4.1300     6.3220     0.8240 O.2   1 <1>  -0.5700 
 16 N       -4.9690     4.6200    -0.3800 N.am  1 <1>  -0.6600 
 17 C       -6.2170     5.3440    -0.7340 C.3   1 <1>   0.1400 
 18 C       -5.0400     3.1350    -0.3180 C.3   1 <1>   0.1400 
 19 C       -7.3410     5.1060     0.2810 C.3   1 <1>  -0.1600 
 20 C       -5.6560     2.6940     1.0140 C.3   1 <1>  -0.1600 
 21 C       -7.9370     3.6910     0.2030 C.3   1 <1>  -0.1600 
 22 C       -7.1940     2.6360     1.0390 C.3   1 <1>  -0.1600 
 23 H        2.0250    -0.3850     0.9670 H     1 <1>   0.1500 
 24 H        2.4020     4.1910    -0.8140 H     1 <1>   0.1500 
 25 H        4.2200     0.4590     0.1810 H     1 <1>   0.1500 
 26 H        0.2440     4.4530     1.8400 H     1 <1>   0.0800 
 27 H       -1.0520     3.2950     1.7250 H     1 <1>   0.0800 
 28 H       -1.6060     2.3650    -0.6660 H     1 <1>   0.0800 
 29 H       -0.6390     2.9610    -1.9870 H     1 <1>   0.0800 
 30 H        4.3940     2.7480    -0.7070 H     1 <1>   0.1500 
 31 H       -1.0580     6.1180     0.6420 H     1 <1>   0.0800 
 32 H       -2.0200     5.5040     1.9590 H     1 <1>   0.0800 
 33 H       -2.8890     4.0390    -1.8990 H     1 <1>   0.0800 
 34 H       -1.5900     5.1840    -1.7520 H     1 <1>   0.0800 
 35 H       -6.5340     5.0400    -1.7160 H     1 <1>   0.0800 
 36 H       -6.0090     6.4000    -0.7780 H     1 <1>   0.0800 
 37 H       -4.0480     2.7270    -0.3790 H     1 <1>   0.0800 
 38 H       -5.6060     2.7530    -1.1500 H     1 <1>   0.0800 
 39 H       -8.1250     5.8060     0.0540 H     1 <1>   0.0800 
 40 H       -6.9950     5.3300     1.2750 H     1 <1>   0.0800 
 41 H       -5.3060     3.3520     1.7910 H     1 <1>   0.0800 
 42 H       -5.2860     1.7130     1.2510 H     1 <1>   0.0800 
 43 H       -7.9730     3.3760    -0.8250 H     1 <1>   0.0800 
 44 H       -8.9540     3.7270     0.5530 H     1 <1>   0.0800 
 45 H       -7.5090     2.7230     2.0640 H     1 <1>   0.0800 
 46 H       -7.5090     1.6650     0.6970 H     1 <1>   0.0800 
@<TRIPOS>BOND
  1   1   2  1   
  2   2   3  ar  
  3   2   4  ar  
  4   3   5  1   
  5   3   6  ar  
  6   4   7  ar  
  7   4  23  1   
  8   5   8  1   
  9   5   9  1   
 10   6  10  ar  
 11   6  24  1   
 12   7  10  ar  
 13   7  25  1   
 14   8  11  1   
 15   8  26  1   
 16   8  27  1   
 17   9  12  1   
 18   9  28  1   
 19   9  29  1   
 20  10  30  1   
 21  11  13  1   
 22  11  31  1   
 23  11  32  1   
 24  12  13  1   
 25  12  33  1   
 26  12  34  1   
 27  13  14  am  
 28  14  15  2   
 29  14  16  am  
 30  16  17  1   
 31  16  18  1   
 32  17  19  1   
 33  17  35  1   
 34  17  36  1   
 35  18  20  1   
 36  18  37  1   
 37  18  38  1   
 38  19  21  1   
 39  19  39  1   
 40  19  40  1   
 41  20  22  1   
 42  20  41  1   
 43  20  42  1   
 44  21  22  1   
 45  21  43  1   
 46  21  44  1   
 47  22  45  1   
 48  22  46  1   
@<TRIPOS>SUBSTRUCTURE
  1 ****  13 GROUP 4 **** **** 0

# MOE 2024.06 (io_trps.svl 2023.06)
