@<TRIPOS>MOLECULE
NONAME
34 36 1 0 0 
SMALL
USER_CHARGES


@<TRIPOS>ATOM
  1 F       -1.0550     0.5540    -0.6620 F     1 <1>  -0.3400 
  2 C        0.1620     1.0130    -0.9330 C.3   1 <1>   1.0200 
  3 F        0.9290    -0.0700    -1.0480 F     1 <1>  -0.3400 
  4 F        0.0920     1.5220    -2.1630 F     1 <1>  -0.3400 
  5 C        0.7420     2.0490     0.1210 C.3   1 <1>   0.5800 
  6 O        0.7170     1.5960     1.4440 O.3   1 <1>  -0.6800 
  7 N        0.0530     3.3790     0.1210 N.am  1 <1>  -0.2980 
  8 C        2.1970     2.4320    -0.2040 C.3   1 <1>  -0.0990 
  9 N        0.9140     4.3750    -0.2940 N.2   1 <1>  -0.5120 
 10 C       -1.2540     3.5420     0.5640 C.2   1 <1>   0.5440 
 11 C        2.0680     3.9050    -0.4680 C.2   1 <1>   0.3890 
 12 O       -1.8010     2.5940     1.0990 O.2   1 <1>  -0.5700 
 13 C       -1.9790     4.7920     0.4110 C.ar  1 <1>   0.0860 
 14 C        3.3020     4.6760    -0.9080 C.3   1 <1>  -0.1000 
 15 C       -3.2840     4.7840    -0.0840 C.ar  1 <1>  -0.1500 
 16 C       -1.4380     6.0310     0.7590 C.ar  1 <1>  -0.1500 
 17 C        4.3290     5.1100     0.0910 C.3   1 <1>  -0.2000 
 18 C        3.4690     6.1320    -0.5950 C.3   1 <1>  -0.2000 
 19 C       -4.0090     5.9510    -0.2390 C.ar  1 <1>  -0.1500 
 20 C       -2.1560     7.2030     0.6070 C.ar  1 <1>  -0.1500 
 21 C       -3.4440     7.1660     0.1060 C.ar  1 <1>  -0.1500 
 22 H       -0.2200     1.6700     1.7460 H     1 <1>   0.4000 
 23 H        2.5680     1.9360    -1.0810 H     1 <1>   0.0800 
 24 H        2.8580     2.2510     0.6240 H     1 <1>   0.0800 
 25 H        3.6520     4.3510    -1.8720 H     1 <1>   0.1000 
 26 H       -3.7330     3.8410    -0.3480 H     1 <1>   0.1500 
 27 H       -0.4390     6.0750     1.1560 H     1 <1>   0.1500 
 28 H        5.3710     5.0520    -0.1730 H     1 <1>   0.1000 
 29 H        4.1580     4.9270     1.1380 H     1 <1>   0.1000 
 30 H        2.6990     6.6290    -0.0290 H     1 <1>   0.1000 
 31 H        3.9110     6.7720    -1.3380 H     1 <1>   0.1000 
 32 H       -5.0130     5.9160    -0.6260 H     1 <1>   0.1500 
 33 H       -1.7120     8.1450     0.8790 H     1 <1>   0.1500 
 34 H       -4.0050     8.0770    -0.0140 H     1 <1>   0.1500 
@<TRIPOS>BOND
  1   1   2  1   
  2   2   3  1   
  3   2   4  1   
  4   2   5  1   
  5   5   6  1   
  6   5   7  1   
  7   5   8  1   
  8   6  22  1   
  9   7   9  1   
 10   7  10  am  
 11   8  11  1   
 12   8  23  1   
 13   8  24  1   
 14   9  11  2   
 15  10  12  2   
 16  10  13  1   
 17  11  14  1   
 18  13  15  ar  
 19  13  16  ar  
 20  14  17  1   
 21  14  18  1   
 22  14  25  1   
 23  15  19  ar  
 24  15  26  1   
 25  16  20  ar  
 26  16  27  1   
 27  17  18  1   
 28  17  28  1   
 29  17  29  1   
 30  18  30  1   
 31  18  31  1   
 32  19  21  ar  
 33  19  32  1   
 34  20  21  ar  
 35  20  33  1   
 36  21  34  1   
@<TRIPOS>SUBSTRUCTURE
  1 ****   7 GROUP 4 **** **** 0

# MOE 2024.06 (io_trps.svl 2023.06)
