@<TRIPOS>MOLECULE
NONAME
39 39 1 0 0 
SMALL
USER_CHARGES


@<TRIPOS>ATOM
  1 O       -1.7720    -2.9740    -0.0890 O.2   1 <1>  -0.5700 
  2 C       -1.9100    -1.7790    -0.0700 C.2   1 <1>   0.4950 
  3 C       -3.2050    -1.1440     0.0820 C.2   1 <1>  -0.1240 
  4 C       -0.6360    -0.9570    -0.2030 C.3   1 <1>  -0.0990 
  5 C       -4.3340    -1.8410     0.3270 C.2   1 <1>  -0.2880 
  6 C       -3.2770     0.3850    -0.0380 C.3   1 <1>  -0.0220 
  7 C        0.5850    -1.8720    -0.0860 C.3   1 <1>   0.3430 
  8 C       -5.7260    -1.2610     0.5280 C.3   1 <1>  -0.0220 
  9 C       -4.7070     0.9100    -0.2380 C.3   1 <1>  -0.1600 
 10 N        1.8500    -1.0940    -0.2260 N.4   1 <1>  -0.9060 
 11 C       -5.6750     0.2540     0.7500 C.3   1 <1>  -0.1600 
 12 C        3.0930    -1.8660    -0.1360 C.3   1 <1>   0.5030 
 13 C        3.1910    -2.5350     1.2350 C.3   1 <1>  -0.2400 
 14 C        4.2300    -0.8650    -0.3070 C.3   1 <1>  -0.2400 
 15 C        3.1410    -2.9030    -1.2590 C.3   1 <1>  -0.2400 
 16 H       -0.6120    -0.2220     0.5800 H     1 <1>   0.0800 
 17 H       -0.6400    -0.4770    -1.1630 H     1 <1>   0.0800 
 18 H       -4.3300    -2.9170     0.4000 H     1 <1>   0.1500 
 19 H       -2.6920     0.7230    -0.8740 H     1 <1>   0.0800 
 20 H       -2.8710     0.8210     0.8580 H     1 <1>   0.0800 
 21 H        0.5270    -2.6280    -0.8540 H     1 <1>   0.0800 
 22 H        0.5570    -2.3720     0.8690 H     1 <1>   0.0800 
 23 H       -6.1930    -1.7260     1.3790 H     1 <1>   0.0800 
 24 H       -6.3210    -1.4830    -0.3410 H     1 <1>   0.0800 
 25 H       -5.0300     0.6920    -1.2420 H     1 <1>   0.0800 
 26 H       -4.7220     1.9780    -0.1090 H     1 <1>   0.0800 
 27 H        1.8940    -0.3720     0.4990 H     1 <1>   0.4500 
 28 H        1.8600    -0.6160    -1.1320 H     1 <1>   0.4500 
 29 H       -5.3470     0.4550     1.7560 H     1 <1>   0.0800 
 30 H       -6.6610     0.6680     0.6330 H     1 <1>   0.0800 
 31 H        3.1050    -1.8130     2.0270 H     1 <1>   0.0800 
 32 H        4.1480    -3.0170     1.3340 H     1 <1>   0.0800 
 33 H        2.4410    -3.2950     1.3610 H     1 <1>   0.0800 
 34 H        5.1770    -1.3750    -0.2510 H     1 <1>   0.0800 
 35 H        4.2160    -0.1220     0.4710 H     1 <1>   0.0800 
 36 H        4.1810    -0.3780    -1.2650 H     1 <1>   0.0800 
 37 H        4.0970    -3.3990    -1.2520 H     1 <1>   0.0800 
 38 H        3.0200    -2.4400    -2.2220 H     1 <1>   0.0800 
 39 H        2.3910    -3.6620    -1.1310 H     1 <1>   0.0800 
@<TRIPOS>BOND
  1   1   2  2   
  2   2   3  1   
  3   2   4  1   
  4   3   5  2   
  5   3   6  1   
  6   4   7  1   
  7   4  16  1   
  8   4  17  1   
  9   5   8  1   
 10   5  18  1   
 11   6   9  1   
 12   6  19  1   
 13   6  20  1   
 14   7  10  1   
 15   7  21  1   
 16   7  22  1   
 17   8  11  1   
 18   8  23  1   
 19   8  24  1   
 20   9  11  1   
 21   9  25  1   
 22   9  26  1   
 23  10  12  1   
 24  10  27  1   
 25  10  28  1   
 26  11  29  1   
 27  11  30  1   
 28  12  13  1   
 29  12  14  1   
 30  12  15  1   
 31  13  31  1   
 32  13  32  1   
 33  13  33  1   
 34  14  34  1   
 35  14  35  1   
 36  14  36  1   
 37  15  37  1   
 38  15  38  1   
 39  15  39  1   
@<TRIPOS>SUBSTRUCTURE
  1 ****   4 GROUP 4 **** **** 0

# MOE 2024.06 (io_trps.svl 2023.06)
