@<TRIPOS>MOLECULE
NONAME
53 55 1 0 0 
SMALL
USER_CHARGES


@<TRIPOS>ATOM
  1 S        0.3510     0.6070     0.3900 S.o2  1 <1>   1.3330 
  2 O       -0.8810     1.1950     0.8600 O.2   1 <1>  -0.6500 
  3 O        1.6230     1.2290     0.6630 O.2   1 <1>  -0.6500 
  4 N        0.3930    -1.0250     0.9830 N.am  1 <1>  -0.6930 
  5 C        0.2000     0.3410    -1.3620 C.3   1 <1>  -0.1350 
  6 C        1.4550    -1.8860     0.7530 C.ar  1 <1>   0.1990 
  7 C       -0.8020    -1.5080     1.7190 C.3   1 <1>   0.1160 
  8 C        2.7470    -1.5750     1.1610 C.ar  1 <1>  -0.1500 
  9 C        1.2550    -3.1010     0.1080 C.ar  1 <1>  -0.1500 
 10 C        3.8000    -2.4360     0.9230 C.ar  1 <1>  -0.1500 
 11 C        2.3080    -3.9620    -0.1300 C.ar  1 <1>  -0.1500 
 12 C        3.6150    -3.6560     0.2620 C.ar  1 <1>   0.0860 
 13 C        4.7080    -4.5710    -0.0120 C.2   1 <1>   0.5440 
 14 O        4.4830    -5.7370    -0.2630 O.2   1 <1>  -0.5700 
 15 N        6.0020    -4.0930    -0.0070 N.am  1 <1>  -0.4940 
 16 C        7.2560    -4.6750    -0.1070 C.2   1 <1>   0.1040 
 17 S        7.4270    -6.4170    -0.2650 S.3   1 <1>  -0.0800 
 18 C        8.4820    -4.0560    -0.1000 C.2   1 <1>  -0.0860 
 19 C        9.1700    -6.2880    -0.3150 C.2   1 <1>  -0.1400 
 20 C        9.5680    -5.0120    -0.2000 C.2   1 <1>  -0.1810 
 21 C        8.6180    -2.6240    -0.0090 C.2   1 <1>   0.8060 
 22 C       10.0070    -7.5380    -0.4660 C.3   1 <1>   0.0200 
 23 C       11.0580    -4.6800    -0.1870 C.3   1 <1>   0.0210 
 24 O        7.6750    -1.8840     0.2230 O.2   1 <1>  -0.5700 
 25 O        9.8180    -2.0640    -0.1990 O.3   1 <1>  -0.4300 
 26 C       11.4500    -7.1350    -0.8140 C.3   1 <1>  -0.1600 
 27 C       11.9240    -5.9380     0.0320 C.3   1 <1>  -0.1600 
 28 C       10.0080    -0.6680    -0.1390 C.3   1 <1>   0.1200 
 29 C       11.4870    -0.3840    -0.3840 C.3   1 <1>  -0.2400 
 30 H        0.1460     1.2830    -1.8720 H     1 <1>   0.0800 
 31 H       -0.6880    -0.2190    -1.5770 H     1 <1>   0.0800 
 32 H        1.0500    -0.2000    -1.7280 H     1 <1>   0.0800 
 33 H       -1.0000    -0.8530     2.5510 H     1 <1>   0.0800 
 34 H       -0.6370    -2.5030     2.0940 H     1 <1>   0.0800 
 35 H       -1.6580    -1.5090     1.0660 H     1 <1>   0.0800 
 36 H        2.9230    -0.6480     1.6780 H     1 <1>   0.1500 
 37 H        0.2650    -3.3690    -0.2120 H     1 <1>   0.1500 
 38 H        4.7770    -2.1490     1.2700 H     1 <1>   0.1500 
 39 H        2.1260    -4.8980    -0.6330 H     1 <1>   0.1500 
 40 H        6.0560    -3.0750     0.0930 H     1 <1>   0.3700 
 41 H        9.6030    -8.1620    -1.2420 H     1 <1>   0.0800 
 42 H        9.9860    -8.0840     0.4610 H     1 <1>   0.0800 
 43 H       11.2740    -3.9820     0.6020 H     1 <1>   0.0800 
 44 H       11.3180    -4.2220    -1.1250 H     1 <1>   0.0800 
 45 H       11.4930    -6.8630    -1.8550 H     1 <1>   0.0800 
 46 H       12.1030    -7.9760    -0.6640 H     1 <1>   0.0800 
 47 H       11.8790    -6.2120     1.0720 H     1 <1>   0.0800 
 48 H       12.9490    -5.7090    -0.2020 H     1 <1>   0.0800 
 49 H        9.7040    -0.3210     0.8340 H     1 <1>   0.0800 
 50 H        9.3960    -0.2060    -0.8970 H     1 <1>   0.0800 
 51 H       12.0860    -0.8570     0.3740 H     1 <1>   0.0800 
 52 H       11.6640     0.6760    -0.3460 H     1 <1>   0.0800 
 53 H       11.7790    -0.7460    -1.3530 H     1 <1>   0.0800 
@<TRIPOS>BOND
  1   1   2  2   
  2   1   3  2   
  3   1   4  am  
  4   1   5  1   
  5   4   6  1   
  6   4   7  1   
  7   5  30  1   
  8   5  31  1   
  9   5  32  1   
 10   6   8  ar  
 11   6   9  ar  
 12   7  33  1   
 13   7  34  1   
 14   7  35  1   
 15   8  10  ar  
 16   8  36  1   
 17   9  11  ar  
 18   9  37  1   
 19  10  12  ar  
 20  10  38  1   
 21  11  12  ar  
 22  11  39  1   
 23  12  13  1   
 24  13  14  2   
 25  13  15  am  
 26  15  16  1   
 27  15  40  1   
 28  16  17  1   
 29  16  18  2   
 30  17  19  1   
 31  18  20  1   
 32  18  21  1   
 33  19  20  2   
 34  19  22  1   
 35  20  23  1   
 36  21  24  2   
 37  21  25  1   
 38  22  26  1   
 39  22  41  1   
 40  22  42  1   
 41  23  27  1   
 42  23  43  1   
 43  23  44  1   
 44  25  28  1   
 45  26  27  1   
 46  26  45  1   
 47  26  46  1   
 48  27  47  1   
 49  27  48  1   
 50  28  29  1   
 51  28  49  1   
 52  28  50  1   
 53  29  51  1   
 54  29  52  1   
 55  29  53  1   
@<TRIPOS>SUBSTRUCTURE
  1 ****  15 GROUP 4 **** **** 0

# MOE 2024.06 (io_trps.svl 2023.06)
