@<TRIPOS>MOLECULE
NONAME
46 47 1 0 0 
SMALL
USER_CHARGES


@<TRIPOS>ATOM
  1 O        1.0350    -0.2640    -1.6500 O.co2 1 <1>  -0.9000 
  2 C        1.2300    -0.4430    -0.4400 C.2   1 <1>   0.9060 
  3 O        1.3970     0.5080     0.3270 O.co2 1 <1>  -0.9000 
  4 C        1.2210    -1.8700     0.0990 C.3   1 <1>  -0.1860 
  5 C        0.2400    -2.8090    -0.6610 C.3   1 <1>  -0.0190 
  6 C        0.9490    -1.9070     1.6170 C.3   1 <1>  -0.0220 
  7 C       -1.2190    -2.3290    -0.5930 C.2   1 <1>   0.5690 
  8 C        0.4240    -4.2690    -0.1880 C.3   1 <1>  -0.0220 
  9 C        0.7980    -3.3340     2.1210 C.2   1 <1>  -0.2880 
 10 O       -2.0660    -2.9560     0.0020 O.2   1 <1>  -0.5700 
 11 N       -1.5220    -1.1790    -1.2400 N.am  1 <1>  -0.7300 
 12 C        0.5770    -4.3810     1.3220 C.2   1 <1>  -0.2880 
 13 C       -2.7270    -0.3590    -1.0310 C.3   1 <1>   0.1400 
 14 C       -2.4170     0.7260     0.0000 C.3   1 <1>  -0.0170 
 15 C       -3.5930     1.6830     0.1320 C.ar  1 <1>  -0.1430 
 16 C       -4.7130     1.3220     0.8620 C.ar  1 <1>  -0.1500 
 17 C       -3.5590     2.9230    -0.4820 C.ar  1 <1>  -0.1500 
 18 C       -5.7990     2.1750     0.9820 C.ar  1 <1>   0.0830 
 19 C       -4.6280     3.7940    -0.3640 C.ar  1 <1>  -0.1500 
 20 O       -6.8410     1.6860     1.7140 O.3   1 <1>  -0.3630 
 21 C       -5.7570     3.4410     0.3730 C.ar  1 <1>   0.0830 
 22 C       -8.1730     1.9870     1.3630 C.3   1 <1>   0.0400 
 23 O       -6.8030     4.3060     0.5240 O.3   1 <1>  -0.3630 
 24 C       -6.7010     5.6670     0.1670 C.3   1 <1>   0.0400 
 25 H        2.2150    -2.2420    -0.0600 H     1 <1>   0.0800 
 26 H        0.5050    -2.7870    -1.7030 H     1 <1>   0.0800 
 27 H        0.0520    -1.3550     1.8430 H     1 <1>   0.0800 
 28 H        1.7660    -1.4260     2.1270 H     1 <1>   0.0800 
 29 H        1.3090    -4.6760    -0.6440 H     1 <1>   0.0800 
 30 H       -0.4130    -4.8620    -0.5140 H     1 <1>   0.0800 
 31 H        0.8810    -3.4150     3.1910 H     1 <1>   0.1500 
 32 H       -0.7030    -0.6610    -1.6280 H     1 <1>   0.3700 
 33 H        0.4820    -5.3890     1.6870 H     1 <1>   0.1500 
 34 H       -3.5360    -0.9790    -0.6840 H     1 <1>   0.0800 
 35 H       -3.0120     0.0910    -1.9660 H     1 <1>   0.0800 
 36 H       -1.5340     1.2650    -0.3000 H     1 <1>   0.0800 
 37 H       -2.2150     0.2670     0.9510 H     1 <1>   0.0800 
 38 H       -4.7530     0.3630     1.3450 H     1 <1>   0.1500 
 39 H       -2.6930     3.2120    -1.0530 H     1 <1>   0.1500 
 40 H       -4.5550     4.7430    -0.8570 H     1 <1>   0.1500 
 41 H       -8.8090     1.2300     1.7830 H     1 <1>   0.0800 
 42 H       -8.2630     1.9940     0.2910 H     1 <1>   0.0800 
 43 H       -8.4310     2.9470     1.7740 H     1 <1>   0.0800 
 44 H       -7.6010     6.1630     0.4840 H     1 <1>   0.0800 
 45 H       -6.6010     5.7420    -0.9010 H     1 <1>   0.0800 
 46 H       -5.8520     6.0970     0.6680 H     1 <1>   0.0800 
@<TRIPOS>BOND
  1   1   2  ar  
  2   2   3  ar  
  3   2   4  1   
  4   4   5  1   
  5   4   6  1   
  6   4  25  1   
  7   5   7  1   
  8   5   8  1   
  9   5  26  1   
 10   6   9  1   
 11   6  27  1   
 12   6  28  1   
 13   7  10  2   
 14   7  11  am  
 15   8  12  1   
 16   8  29  1   
 17   8  30  1   
 18   9  12  2   
 19   9  31  1   
 20  11  13  1   
 21  11  32  1   
 22  12  33  1   
 23  13  14  1   
 24  13  34  1   
 25  13  35  1   
 26  14  15  1   
 27  14  36  1   
 28  14  37  1   
 29  15  16  ar  
 30  15  17  ar  
 31  16  18  ar  
 32  16  38  1   
 33  17  19  ar  
 34  17  39  1   
 35  18  20  1   
 36  18  21  ar  
 37  19  21  ar  
 38  19  40  1   
 39  20  22  1   
 40  21  23  1   
 41  22  41  1   
 42  22  42  1   
 43  22  43  1   
 44  23  24  1   
 45  24  44  1   
 46  24  45  1   
 47  24  46  1   
@<TRIPOS>SUBSTRUCTURE
  1 ****  14 GROUP 4 **** **** 0

# MOE 2024.06 (io_trps.svl 2023.06)
