@<TRIPOS>MOLECULE
NONAME
28 29 1 0 0 
SMALL
USER_CHARGES


@<TRIPOS>ATOM
  1 O       -0.2860    -0.3470     0.7420 O.2   1 <1>  -0.5700 
  2 C       -0.9260    -1.3050     0.3670 C.2   1 <1>   0.7060 
  3 O       -0.2770    -2.4420     0.1030 O.3   1 <1>  -0.4300 
  4 C       -2.3610    -1.3240     0.2040 C.2   1 <1>   0.0290 
  5 C        1.1220    -2.5530     0.2450 C.3   1 <1>   0.1200 
  6 C       -3.1200    -0.1330    -0.0950 C.2   1 <1>   0.3750 
  7 C       -3.0590    -2.4990     0.3290 C.2   1 <1>  -0.1810 
  8 C        1.5240    -3.9750    -0.1320 C.3   1 <1>  -0.2400 
  9 N       -4.4060    -0.1250    -0.2290 N.2   1 <1>  -0.5760 
 10 C       -2.4450     1.2140    -0.2990 C.3   1 <1>  -0.1790 
 11 N       -4.4170    -2.4820     0.1840 N.pl3 1 <1>   0.6010 
 12 C       -5.0650    -1.3180    -0.0820 C.2   1 <1>   0.3120 
 13 N       -5.3050    -3.4620     0.2680 N.2   1 <1>  -0.7070 
 14 N       -6.3390    -1.5190    -0.1710 N.2   1 <1>  -0.5650 
 15 C       -6.4140    -2.8310     0.0500 C.2   1 <1>   0.3350 
 16 C       -7.7540    -3.5240     0.0400 C.3   1 <1>  -0.0590 
 17 H        1.3810    -2.3370     1.2690 H     1 <1>   0.0800 
 18 H        1.5910    -1.8330    -0.4050 H     1 <1>   0.0800 
 19 H       -2.6150    -3.4540     0.5410 H     1 <1>   0.1500 
 20 H        1.0440    -4.6820     0.5200 H     1 <1>   0.0800 
 21 H        2.5890    -4.0880    -0.0340 H     1 <1>   0.0800 
 22 H        1.2520    -4.1800    -1.1510 H     1 <1>   0.0800 
 23 H       -1.6510     1.1330    -1.0190 H     1 <1>   0.0800 
 24 H       -2.0480     1.5720     0.6330 H     1 <1>   0.0800 
 25 H       -3.1530     1.9390    -0.6620 H     1 <1>   0.0800 
 26 H       -7.6290    -4.5730     0.2340 H     1 <1>   0.0800 
 27 H       -8.2170    -3.3950    -0.9200 H     1 <1>   0.0800 
 28 H       -8.3840    -3.0970     0.7970 H     1 <1>   0.0800 
@<TRIPOS>BOND
  1   1   2  2   
  2   2   3  1   
  3   2   4  1   
  4   3   5  1   
  5   4   6  1   
  6   4   7  2   
  7   5   8  1   
  8   5  17  1   
  9   5  18  1   
 10   6   9  2   
 11   6  10  1   
 12   7  11  1   
 13   7  19  1   
 14   8  20  1   
 15   8  21  1   
 16   8  22  1   
 17   9  12  1   
 18  10  23  1   
 19  10  24  1   
 20  10  25  1   
 21  11  12  1   
 22  11  13  1   
 23  12  14  2   
 24  13  15  2   
 25  14  15  1   
 26  15  16  1   
 27  16  26  1   
 28  16  27  1   
 29  16  28  1   
@<TRIPOS>SUBSTRUCTURE
  1 ****   7 GROUP 4 **** **** 0

# MOE 2024.06 (io_trps.svl 2023.06)
