@<TRIPOS>MOLECULE
NONAME
51 52 1 0 0 
SMALL
USER_CHARGES


@<TRIPOS>ATOM
  1 S        0.3960     0.0360     0.2850 S.o2  1 <1>   1.4470 
  2 O       -0.0410     0.7570     1.4610 O.2   1 <1>  -0.6500 
  3 O        0.6840     0.7720    -0.9260 O.2   1 <1>  -0.6500 
  4 N        1.8310    -0.7620     0.7150 N.am  1 <1>  -0.8490 
  5 C       -0.7460    -1.3160    -0.1080 C.ar  1 <1>  -0.0090 
  6 C        2.9680     0.2000     0.7620 C.3   1 <1>   0.2570 
  7 C        1.7350    -1.5180     1.9740 C.3   1 <1>   0.1960 
  8 C       -0.5520    -2.0980    -1.2410 C.ar  1 <1>  -0.1500 
  9 C       -1.8210    -1.6260     0.7200 C.ar  1 <1>  -0.1500 
 10 C        4.3400    -0.4770     0.7130 C.2   1 <1>   0.5690 
 11 C        1.6350    -3.0090     1.6660 C.3   1 <1>  -0.2400 
 12 C       -1.3940    -3.1560    -1.5340 C.ar  1 <1>  -0.1500 
 13 C       -2.6690    -2.6830     0.4360 C.ar  1 <1>  -0.1500 
 14 O        5.2620     0.0160     1.3190 O.2   1 <1>  -0.5700 
 15 N        4.4260    -1.6290    -0.0140 N.am  1 <1>  -0.5470 
 16 C       -2.4550    -3.4590    -0.6980 C.ar  1 <1>   0.0830 
 17 C        5.4440    -2.5640    -0.2640 C.ar  1 <1>   0.1170 
 18 O       -3.2280    -4.5140    -1.0500 O.3   1 <1>  -0.3630 
 19 C        5.0930    -3.7650    -0.8900 C.ar  1 <1>   0.0830 
 20 C        6.7730    -2.3470     0.0810 C.ar  1 <1>  -0.1500 
 21 C       -4.3580    -4.8840    -0.2930 C.3   1 <1>   0.0400 
 22 O        3.7760    -3.9340    -1.2140 O.3   1 <1>  -0.3630 
 23 C        6.0670    -4.7230    -1.1550 C.ar  1 <1>  -0.1500 
 24 C        7.7370    -3.3030    -0.1840 C.ar  1 <1>  -0.1500 
 25 C        3.2990    -5.1450    -1.7520 C.3   1 <1>   0.1200 
 26 C        7.3850    -4.4900    -0.8010 C.ar  1 <1>  -0.1500 
 27 C        1.7910    -5.0120    -1.9390 C.3   1 <1>  -0.2400 
 28 H        2.9010     0.8070     1.6480 H     1 <1>   0.0800 
 29 H        2.9310     0.8600    -0.0860 H     1 <1>   0.0800 
 30 H        0.8830    -1.2080     2.5570 H     1 <1>   0.0800 
 31 H        2.6110    -1.3610     2.5830 H     1 <1>   0.0800 
 32 H        0.2710    -1.8750    -1.8990 H     1 <1>   0.1500 
 33 H       -1.9960    -1.0320     1.6020 H     1 <1>   0.1500 
 34 H        0.7560    -3.2330     1.0940 H     1 <1>   0.0800 
 35 H        1.5830    -3.5600     2.5880 H     1 <1>   0.0800 
 36 H        2.5040    -3.3410     1.1300 H     1 <1>   0.0800 
 37 H       -1.2340    -3.7540    -2.4130 H     1 <1>   0.1500 
 38 H       -3.4850    -2.8860     1.1030 H     1 <1>   0.1500 
 39 H        3.5180    -1.9400    -0.3750 H     1 <1>   0.3700 
 40 H        7.0630    -1.4290     0.5590 H     1 <1>   0.1500 
 41 H       -4.8170    -5.7310    -0.7700 H     1 <1>   0.0800 
 42 H       -5.0490    -4.0590    -0.2700 H     1 <1>   0.0800 
 43 H       -4.0430    -5.1510     0.7000 H     1 <1>   0.0800 
 44 H        5.8270    -5.6510    -1.6350 H     1 <1>   0.1500 
 45 H        8.7620    -3.1200     0.0910 H     1 <1>   0.1500 
 46 H        3.5290    -5.9400    -1.0620 H     1 <1>   0.0800 
 47 H        3.7860    -5.3150    -2.6970 H     1 <1>   0.0800 
 48 H        8.1380    -5.2310    -1.0050 H     1 <1>   0.1500 
 49 H        1.3130    -4.8250    -0.9940 H     1 <1>   0.0800 
 50 H        1.3930    -5.9230    -2.3480 H     1 <1>   0.0800 
 51 H        1.5730    -4.2080    -2.6190 H     1 <1>   0.0800 
@<TRIPOS>BOND
  1   1   2  2   
  2   1   3  2   
  3   1   4  am  
  4   1   5  1   
  5   4   6  1   
  6   4   7  1   
  7   5   8  ar  
  8   5   9  ar  
  9   6  10  1   
 10   6  28  1   
 11   6  29  1   
 12   7  11  1   
 13   7  30  1   
 14   7  31  1   
 15   8  12  ar  
 16   8  32  1   
 17   9  13  ar  
 18   9  33  1   
 19  10  14  2   
 20  10  15  am  
 21  11  34  1   
 22  11  35  1   
 23  11  36  1   
 24  12  16  ar  
 25  12  37  1   
 26  13  16  ar  
 27  13  38  1   
 28  15  17  1   
 29  15  39  1   
 30  16  18  1   
 31  17  19  ar  
 32  17  20  ar  
 33  18  21  1   
 34  19  22  1   
 35  19  23  ar  
 36  20  24  ar  
 37  20  40  1   
 38  21  41  1   
 39  21  42  1   
 40  21  43  1   
 41  22  25  1   
 42  23  26  ar  
 43  23  44  1   
 44  24  26  ar  
 45  24  45  1   
 46  25  27  1   
 47  25  46  1   
 48  25  47  1   
 49  26  48  1   
 50  27  49  1   
 51  27  50  1   
 52  27  51  1   
@<TRIPOS>SUBSTRUCTURE
  1 ****   4 GROUP 4 **** **** 0

# MOE 2024.06 (io_trps.svl 2023.06)
