@<TRIPOS>MOLECULE
NONAME
53 55 1 0 0 
SMALL
USER_CHARGES


@<TRIPOS>ATOM
  1 S        1.2650     0.8410    -1.0310 S.o2  1 <1>   1.3330 
  2 O        1.6920     0.6250     0.3280 O.2   1 <1>  -0.6500 
  3 O        2.2260     0.8380    -2.1080 O.2   1 <1>  -0.6500 
  4 N        0.4460     2.3590    -1.1070 N.am  1 <1>  -0.6930 
  5 C       -0.0240    -0.3150    -1.4430 C.3   1 <1>  -0.1350 
  6 C       -0.7490     2.5170    -0.4110 C.ar  1 <1>   0.1990 
  7 C        1.3540     3.5370    -1.2860 C.3   1 <1>   0.3370 
  8 C       -0.7900     2.5230     0.9770 C.ar  1 <1>  -0.1500 
  9 C       -1.9400     2.6470    -1.1140 C.ar  1 <1>  -0.1500 
 10 C        2.1950     3.8870    -0.0280 C.2   1 <1>   0.5690 
 11 C        0.5520     4.7450    -1.7950 C.3   1 <1>  -0.2400 
 12 C       -1.9910     2.6510     1.6530 C.ar  1 <1>  -0.1440 
 13 C       -3.1490     2.7760    -0.4530 C.ar  1 <1>  -0.1440 
 14 O        1.6860     4.5020     0.8800 O.2   1 <1>  -0.5700 
 15 N        3.5080     3.5630     0.0940 N.am  1 <1>  -0.7300 
 16 C       -3.1680     2.7770     0.9320 C.ar  1 <1>  -0.1500 
 17 C       -2.0220     2.6640     3.1700 C.3   1 <1>  -0.0970 
 18 C       -4.4480     2.9220    -1.2240 C.3   1 <1>  -0.0970 
 19 C        4.4280     2.8300    -0.7990 C.3   1 <1>   0.2200 
 20 C        5.0170     1.5650    -0.1390 C.3   1 <1>  -0.0800 
 21 C        5.6780     3.6740    -1.0950 C.3   1 <1>  -0.1600 
 22 C        6.3000     1.3960    -0.9390 C.3   1 <1>  -0.1600 
 23 C        5.5970     1.8770     1.2550 C.3   1 <1>  -0.1600 
 24 C        6.8320     2.7810    -0.6080 C.3   1 <1>  -0.0800 
 25 C        6.8160     2.7580     0.9300 C.3   1 <1>  -0.1600 
 26 H        0.3720    -1.3110    -1.4730 H     1 <1>   0.0800 
 27 H       -0.4400    -0.0800    -2.4030 H     1 <1>   0.0800 
 28 H       -0.8050    -0.2780    -0.7080 H     1 <1>   0.0800 
 29 H        2.0400     3.2980    -2.0750 H     1 <1>   0.0800 
 30 H        0.1310     2.4300     1.5260 H     1 <1>   0.1500 
 31 H       -1.9050     2.6470    -2.1870 H     1 <1>   0.1500 
 32 H       -0.1370     5.0870    -1.0430 H     1 <1>   0.0800 
 33 H        0.0140     4.4870    -2.6890 H     1 <1>   0.0800 
 34 H        1.2240     5.5530    -2.0200 H     1 <1>   0.0800 
 35 H        3.9230     3.8050     0.9940 H     1 <1>   0.3700 
 36 H       -4.1030     2.8810     1.4540 H     1 <1>   0.1500 
 37 H       -1.0790     2.3390     3.5730 H     1 <1>   0.0800 
 38 H       -2.7920     2.0070     3.5310 H     1 <1>   0.0800 
 39 H       -2.2190     3.6610     3.5200 H     1 <1>   0.0800 
 40 H       -4.2850     2.8080    -2.2800 H     1 <1>   0.0800 
 41 H       -4.8700     3.8940    -1.0440 H     1 <1>   0.0800 
 42 H       -5.1500     2.1730    -0.9030 H     1 <1>   0.0800 
 43 H        3.9510     2.5660    -1.7250 H     1 <1>   0.0800 
 44 H        4.3610     0.7130    -0.1680 H     1 <1>   0.0800 
 45 H        5.6680     4.6270    -0.5970 H     1 <1>   0.0800 
 46 H        5.7630     3.8290    -2.1560 H     1 <1>   0.0800 
 47 H        6.1200     1.2550    -1.9920 H     1 <1>   0.0800 
 48 H        6.9270     0.6050    -0.5620 H     1 <1>   0.0800 
 49 H        5.9190     0.9640     1.7250 H     1 <1>   0.0800 
 50 H        4.8940     2.3620     1.9090 H     1 <1>   0.0800 
 51 H        7.7900     3.0230    -1.0360 H     1 <1>   0.0800 
 52 H        7.7150     2.3010     1.3080 H     1 <1>   0.0800 
 53 H        6.7220     3.7470     1.3450 H     1 <1>   0.0800 
@<TRIPOS>BOND
  1   1   2  2   
  2   1   3  2   
  3   1   4  am  
  4   1   5  1   
  5   4   6  1   
  6   4   7  1   
  7   5  26  1   
  8   5  27  1   
  9   5  28  1   
 10   6   8  ar  
 11   6   9  ar  
 12   7  10  1   
 13   7  11  1   
 14   7  29  1   
 15   8  12  ar  
 16   8  30  1   
 17   9  13  ar  
 18   9  31  1   
 19  10  14  2   
 20  10  15  am  
 21  11  32  1   
 22  11  33  1   
 23  11  34  1   
 24  12  16  ar  
 25  12  17  1   
 26  13  16  ar  
 27  13  18  1   
 28  15  19  1   
 29  15  35  1   
 30  16  36  1   
 31  17  37  1   
 32  17  38  1   
 33  17  39  1   
 34  18  40  1   
 35  18  41  1   
 36  18  42  1   
 37  19  20  1   
 38  19  21  1   
 39  19  43  1   
 40  20  22  1   
 41  20  23  1   
 42  20  44  1   
 43  21  24  1   
 44  21  45  1   
 45  21  46  1   
 46  22  24  1   
 47  22  47  1   
 48  22  48  1   
 49  23  25  1   
 50  23  49  1   
 51  23  50  1   
 52  24  25  1   
 53  24  51  1   
 54  25  52  1   
 55  25  53  1   
@<TRIPOS>SUBSTRUCTURE
  1 ****   4 GROUP 4 **** **** 0

# MOE 2024.06 (io_trps.svl 2023.06)
