@<TRIPOS>MOLECULE
NONAME
42 42 1 0 0 
SMALL
USER_CHARGES


@<TRIPOS>ATOM
  1 O        0.8060     2.2240     2.0570 O.2   1 <1>  -0.5700 
  2 C        0.3640     2.5130     0.9600 C.2   1 <1>   0.5440 
  3 N        1.1740     2.3820    -0.1520 N.am  1 <1>  -0.6600 
  4 C       -1.0050     2.9820     0.8500 C.ar  1 <1>   0.0860 
  5 C        2.0270     1.1800    -0.3690 C.3   1 <1>   0.2200 
  6 C        1.4810     3.5180    -1.0680 C.3   1 <1>   0.2200 
  7 C       -1.8610     2.4970    -0.1350 C.ar  1 <1>  -0.1500 
  8 C       -1.5150     3.9280     1.7340 C.ar  1 <1>  -0.1500 
  9 C        1.2630    -0.1060    -0.0480 C.3   1 <1>  -0.2400 
 10 C        3.3210     1.2840     0.4390 C.3   1 <1>  -0.2400 
 11 C        1.3980     4.8730    -0.3610 C.3   1 <1>  -0.2400 
 12 C        0.5730     3.4730    -2.2950 C.3   1 <1>  -0.2400 
 13 C       -3.1640     2.9460    -0.2540 C.ar  1 <1>   0.0830 
 14 C       -2.8150     4.3920     1.6340 C.ar  1 <1>   0.0830 
 15 O       -3.8990     2.4080    -1.2590 O.3   1 <1>  -0.3630 
 16 C       -3.6470     3.9020     0.6340 C.ar  1 <1>  -0.1500 
 17 O       -3.1980     5.3220     2.5450 O.3   1 <1>  -0.3630 
 18 C       -5.2500     2.7630    -1.4580 C.3   1 <1>   0.0400 
 19 C       -4.5140     5.8290     2.5760 C.3   1 <1>   0.0400 
 20 H        2.2880     1.1390    -1.4140 H     1 <1>   0.0800 
 21 H        2.4980     3.4060    -1.4060 H     1 <1>   0.0800 
 22 H       -1.5030     1.7530    -0.8220 H     1 <1>   0.1500 
 23 H       -0.8820     4.3070     2.5160 H     1 <1>   0.1500 
 24 H        1.0420    -0.1700     1.0030 H     1 <1>   0.0800 
 25 H        1.8580    -0.9590    -0.3160 H     1 <1>   0.0800 
 26 H        0.3460    -0.1410    -0.6080 H     1 <1>   0.0800 
 27 H        3.1110     1.2690     1.4930 H     1 <1>   0.0800 
 28 H        3.8420     2.1920     0.1990 H     1 <1>   0.0800 
 29 H        3.9620     0.4520     0.2120 H     1 <1>   0.0800 
 30 H        0.3840     5.1280    -0.1150 H     1 <1>   0.0800 
 31 H        1.7820     5.6410    -1.0090 H     1 <1>   0.0800 
 32 H        1.9940     4.8590     0.5340 H     1 <1>   0.0800 
 33 H       -0.4390     3.7200    -2.0350 H     1 <1>   0.0800 
 34 H        0.5980     2.4970    -2.7450 H     1 <1>   0.0800 
 35 H        0.9110     4.1900    -3.0200 H     1 <1>   0.0800 
 36 H       -4.6520     4.2570     0.5470 H     1 <1>   0.1500 
 37 H       -5.6220     2.2020    -2.2960 H     1 <1>   0.0800 
 38 H       -5.3070     3.8160    -1.6700 H     1 <1>   0.0800 
 39 H       -5.8100     2.5150    -0.5740 H     1 <1>   0.0800 
 40 H       -4.5820     6.5280     3.3900 H     1 <1>   0.0800 
 41 H       -5.1980     5.0150     2.7350 H     1 <1>   0.0800 
 42 H       -4.7170     6.3310     1.6470 H     1 <1>   0.0800 
@<TRIPOS>BOND
  1   1   2  2   
  2   2   3  am  
  3   2   4  1   
  4   3   5  1   
  5   3   6  1   
  6   4   7  ar  
  7   4   8  ar  
  8   5   9  1   
  9   5  10  1   
 10   5  20  1   
 11   6  11  1   
 12   6  12  1   
 13   6  21  1   
 14   7  13  ar  
 15   7  22  1   
 16   8  14  ar  
 17   8  23  1   
 18   9  24  1   
 19   9  25  1   
 20   9  26  1   
 21  10  27  1   
 22  10  28  1   
 23  10  29  1   
 24  11  30  1   
 25  11  31  1   
 26  11  32  1   
 27  12  33  1   
 28  12  34  1   
 29  12  35  1   
 30  13  15  1   
 31  13  16  ar  
 32  14  16  ar  
 33  14  17  1   
 34  15  18  1   
 35  16  36  1   
 36  17  19  1   
 37  18  37  1   
 38  18  38  1   
 39  18  39  1   
 40  19  40  1   
 41  19  41  1   
 42  19  42  1   
@<TRIPOS>SUBSTRUCTURE
  1 ****   4 GROUP 4 **** **** 0

# MOE 2024.06 (io_trps.svl 2023.06)
