@<TRIPOS>MOLECULE
NONAME
48 50 1 0 0 
SMALL
USER_CHARGES


@<TRIPOS>ATOM
  1 F        3.5590    -6.0200     1.3490 F     1 <1>  -0.1900 
  2 C        2.4860    -5.3370     1.0690 C.ar  1 <1>   0.1900 
  3 C        1.5340    -5.8940     0.2380 C.ar  1 <1>  -0.1500 
  4 C        2.3340    -4.0760     1.6080 C.ar  1 <1>  -0.1500 
  5 C        0.3960    -5.1630    -0.0550 C.ar  1 <1>  -0.1500 
  6 C        1.1890    -3.3610     1.3060 C.ar  1 <1>  -0.1500 
  7 C        0.1880    -3.8810     0.4750 C.ar  1 <1>   0.0860 
  8 C       -0.9970    -3.0940     0.1930 C.2   1 <1>   0.4230 
  9 O       -1.0410    -1.9040     0.3820 O.2   1 <1>  -0.5700 
 10 C       -2.2490    -3.7710    -0.3670 C.3   1 <1>  -0.0990 
 11 C       -3.5490    -2.9890    -0.0970 C.3   1 <1>  -0.1600 
 12 C       -4.7720    -3.7020    -0.6820 C.3   1 <1>   0.1100 
 13 N       -6.0090    -3.0440    -0.2370 N.3   1 <1>  -0.8100 
 14 C       -6.2690    -1.7560    -0.9220 C.3   1 <1>   0.1100 
 15 C       -7.1780    -3.9410    -0.3830 C.3   1 <1>   0.1100 
 16 C       -7.4200    -0.9820    -0.2280 C.3   1 <1>   0.4230 
 17 C       -8.5330    -3.2160    -0.1880 C.3   1 <1>   0.3430 
 18 N       -8.3710    -1.8980     0.5080 N.4   1 <1>  -0.9590 
 19 C       -8.1960    -0.0800    -1.1940 C.3   1 <1>  -0.1600 
 20 C       -9.6960    -1.3010     0.8660 C.3   1 <1>   0.3430 
 21 C       -9.2030     0.8170    -0.4480 C.3   1 <1>  -0.1600 
 22 C       -9.6210     0.2270     0.9110 C.3   1 <1>  -0.1600 
 23 H        1.6900    -6.8780    -0.1680 H     1 <1>   0.1500 
 24 H        3.0960    -3.6670     2.2490 H     1 <1>   0.1500 
 25 H       -0.3310    -5.6040    -0.7120 H     1 <1>   0.1500 
 26 H        1.0620    -2.3740     1.7200 H     1 <1>   0.1500 
 27 H       -2.3440    -4.7460     0.0750 H     1 <1>   0.0800 
 28 H       -2.1190    -3.8880    -1.4280 H     1 <1>   0.0800 
 29 H       -3.4520    -2.0100    -0.5290 H     1 <1>   0.0800 
 30 H       -3.6740    -2.8810     0.9670 H     1 <1>   0.0800 
 31 H       -4.7690    -4.7200    -0.3270 H     1 <1>   0.0800 
 32 H       -4.7200    -3.7200    -1.7580 H     1 <1>   0.0800 
 33 H       -6.5140    -1.9400    -1.9540 H     1 <1>   0.0800 
 34 H       -5.3940    -1.1310    -0.9050 H     1 <1>   0.0800 
 35 H       -7.0980    -4.7310     0.3440 H     1 <1>   0.0800 
 36 H       -7.1710    -4.4000    -1.3580 H     1 <1>   0.0800 
 37 H       -6.9590    -0.3350     0.5000 H     1 <1>   0.0800 
 38 H       -9.1950    -3.8570     0.3700 H     1 <1>   0.0800 
 39 H       -8.9770    -3.0530    -1.1560 H     1 <1>   0.0800 
 40 H       -7.8490    -2.1220     1.3660 H     1 <1>   0.4500 
 41 H       -8.7110    -0.6920    -1.9130 H     1 <1>   0.0800 
 42 H       -7.5080     0.5450    -1.7380 H     1 <1>   0.0800 
 43 H      -10.0270    -1.6830     1.8180 H     1 <1>   0.0800 
 44 H      -10.4260    -1.5780     0.1220 H     1 <1>   0.0800 
 45 H      -10.0720     0.9560    -1.0700 H     1 <1>   0.0800 
 46 H       -8.7710     1.7910    -0.2820 H     1 <1>   0.0800 
 47 H       -8.9230     0.5210     1.6760 H     1 <1>   0.0800 
 48 H      -10.5820     0.6240     1.1900 H     1 <1>   0.0800 
@<TRIPOS>BOND
  1   1   2  1   
  2   2   3  ar  
  3   2   4  ar  
  4   3   5  ar  
  5   3  23  1   
  6   4   6  ar  
  7   4  24  1   
  8   5   7  ar  
  9   5  25  1   
 10   6   7  ar  
 11   6  26  1   
 12   7   8  1   
 13   8   9  2   
 14   8  10  1   
 15  10  11  1   
 16  10  27  1   
 17  10  28  1   
 18  11  12  1   
 19  11  29  1   
 20  11  30  1   
 21  12  13  1   
 22  12  31  1   
 23  12  32  1   
 24  13  14  1   
 25  13  15  1   
 26  14  16  1   
 27  14  33  1   
 28  14  34  1   
 29  15  17  1   
 30  15  35  1   
 31  15  36  1   
 32  16  18  1   
 33  16  19  1   
 34  16  37  1   
 35  17  18  1   
 36  17  38  1   
 37  17  39  1   
 38  18  20  1   
 39  18  40  1   
 40  19  21  1   
 41  19  41  1   
 42  19  42  1   
 43  20  22  1   
 44  20  43  1   
 45  20  44  1   
 46  21  22  1   
 47  21  45  1   
 48  21  46  1   
 49  22  47  1   
 50  22  48  1   
@<TRIPOS>SUBSTRUCTURE
  1 ****  11 GROUP 4 **** **** 0

# MOE 2024.06 (io_trps.svl 2023.06)
