@<TRIPOS>MOLECULE
NONAME
40 41 1 0 0 
SMALL
USER_CHARGES


@<TRIPOS>ATOM
  1 O        1.1860    -0.2840     2.3880 O.3   1 <1>  -0.6800 
  2 C        2.3130    -1.0140     2.0450 C.3   1 <1>   0.1200 
  3 C        2.9390    -0.3740     0.8030 C.3   1 <1>   0.1100 
  4 N        4.1480    -1.1030     0.3550 N.3   1 <1>  -0.8100 
  5 C        3.8110    -2.3640    -0.3540 C.3   1 <1>   0.1100 
  6 C        4.9770    -0.2340    -0.5190 C.3   1 <1>   0.1100 
  7 C        5.0720    -3.1280    -0.8320 C.3   1 <1>   0.3430 
  8 C        6.2300    -0.9560    -1.0700 C.3   1 <1>   0.3430 
  9 N        6.3210    -2.3560    -0.5370 N.4   1 <1>  -0.9590 
 10 C        7.5780    -3.0620    -0.8950 C.3   1 <1>   0.4860 
 11 C        8.7550    -2.2300    -0.4250 C.ar  1 <1>  -0.1440 
 12 C        9.5500    -1.5640    -1.3470 C.ar  1 <1>  -0.1500 
 13 C        9.0400    -2.1160     0.9280 C.ar  1 <1>  -0.1500 
 14 C       10.6090    -0.7840    -0.9170 C.ar  1 <1>  -0.1500 
 15 C       10.1000    -1.3350     1.3530 C.ar  1 <1>  -0.1500 
 16 C       10.8880    -0.6650     0.4330 C.ar  1 <1>  -0.1440 
 17 C       12.0510     0.1930     0.9000 C.3   1 <1>  -0.0970 
 18 H        0.7830    -0.6260     3.2110 H     1 <1>   0.4000 
 19 H        2.0040    -2.0260     1.8540 H     1 <1>   0.0800 
 20 H        3.0020    -0.9820     2.8720 H     1 <1>   0.0800 
 21 H        3.2090     0.6360     1.0640 H     1 <1>   0.0800 
 22 H        2.2130    -0.3350     0.0090 H     1 <1>   0.0800 
 23 H        3.1880    -2.1470    -1.2060 H     1 <1>   0.0800 
 24 H        3.2490    -3.0090     0.2980 H     1 <1>   0.0800 
 25 H        5.2980     0.6280     0.0430 H     1 <1>   0.0800 
 26 H        4.3870     0.1250    -1.3460 H     1 <1>   0.0800 
 27 H        4.9910    -3.3120    -1.8900 H     1 <1>   0.0800 
 28 H        5.1070    -4.0830    -0.3340 H     1 <1>   0.0800 
 29 H        7.1050    -0.3940    -0.7830 H     1 <1>   0.0800 
 30 H        6.1890    -0.9710    -2.1460 H     1 <1>   0.0800 
 31 H        6.3060    -2.2110     0.4840 H     1 <1>   0.4500 
 32 H        7.6340    -3.2030    -1.9620 H     1 <1>   0.0800 
 33 H        7.6120    -4.0280    -0.4180 H     1 <1>   0.0800 
 34 H        9.3610    -1.6420    -2.4040 H     1 <1>   0.1500 
 35 H        8.4480    -2.6290     1.6660 H     1 <1>   0.1500 
 36 H       11.2210    -0.2700    -1.6390 H     1 <1>   0.1500 
 37 H       10.3120    -1.2510     2.4050 H     1 <1>   0.1500 
 38 H       11.7300     1.2120     1.0190 H     1 <1>   0.0800 
 39 H       12.8520     0.1630     0.1830 H     1 <1>   0.0800 
 40 H       12.4290    -0.1630     1.8420 H     1 <1>   0.0800 
@<TRIPOS>BOND
  1   1   2  1   
  2   1  18  1   
  3   2   3  1   
  4   2  19  1   
  5   2  20  1   
  6   3   4  1   
  7   3  21  1   
  8   3  22  1   
  9   4   5  1   
 10   4   6  1   
 11   5   7  1   
 12   5  23  1   
 13   5  24  1   
 14   6   8  1   
 15   6  25  1   
 16   6  26  1   
 17   7   9  1   
 18   7  27  1   
 19   7  28  1   
 20   8   9  1   
 21   8  29  1   
 22   8  30  1   
 23   9  10  1   
 24   9  31  1   
 25  10  11  1   
 26  10  32  1   
 27  10  33  1   
 28  11  12  ar  
 29  11  13  ar  
 30  12  14  ar  
 31  12  34  1   
 32  13  15  ar  
 33  13  35  1   
 34  14  16  ar  
 35  14  36  1   
 36  15  16  ar  
 37  15  37  1   
 38  16  17  1   
 39  17  38  1   
 40  17  39  1   
 41  17  40  1   
@<TRIPOS>SUBSTRUCTURE
  1 ****   9 GROUP 4 **** **** 0

# MOE 2024.06 (io_trps.svl 2023.06)
