@<TRIPOS>MOLECULE
22202
57 58 1 0 0 
SMALL
USER_CHARGES


@<TRIPOS>ATOM
  1 S        0.4060     0.4710     1.6330 S.o2  1 <1>   1.4470 
  2 O        1.1600    -0.3420     2.5660 O.2   1 <1>  -0.6500 
  3 O       -0.1670     1.7170     2.0940 O.2   1 <1>  -0.6500 
  4 N        1.4460     0.8400     0.3440 N.am  1 <1>  -0.8490 
  5 C       -0.9050    -0.5200     0.8630 C.ar  1 <1>  -0.0090 
  6 C        2.0520    -0.3630    -0.2410 C.3   1 <1>   0.1960 
  7 C        2.4510     1.8230     0.7600 C.3   1 <1>   0.1960 
  8 C       -1.1710    -1.8090     1.3000 C.ar  1 <1>  -0.1500 
  9 C       -1.6680    -0.0180    -0.1820 C.ar  1 <1>  -0.1500 
 10 C        1.7280    -0.4040    -1.7310 C.3   1 <1>  -0.2400 
 11 C        3.1660     2.4310    -0.4460 C.3   1 <1>  -0.2400 
 12 C       -2.1410    -2.6090     0.7080 C.ar  1 <1>   0.1170 
 13 C       -2.6620    -0.7790    -0.7740 C.ar  1 <1>  -0.1500 
 14 N       -2.3910    -3.9280     1.1330 N.am  1 <1>  -0.5470 
 15 C       -2.9070    -2.0740    -0.3320 C.ar  1 <1>   0.0820 
 16 C       -1.6020    -4.9440     1.5910 C.2   1 <1>   0.5690 
 17 O       -3.8790    -2.8680    -0.8670 O.3   1 <1>  -0.3630 
 18 O       -2.1130    -6.0020     1.8630 O.2   1 <1>  -0.5700 
 19 C       -0.0940    -4.8040     1.7840 C.3   1 <1>   0.1810 
 20 C       -4.6450    -2.4500    -1.9760 C.3   1 <1>   0.0400 
 21 O        0.5270    -4.3140     0.6040 O.3   1 <1>  -0.3630 
 22 C        1.8100    -3.8810     0.5910 C.ar  1 <1>   0.0820 
 23 C        2.4550    -3.8860    -0.6340 C.ar  1 <1>  -0.1500 
 24 C        2.4860    -3.4160     1.7130 C.ar  1 <1>  -0.1500 
 25 C        3.7590    -3.4340    -0.7600 C.ar  1 <1>  -0.1440 
 26 C        3.7860    -2.9610     1.5920 C.ar  1 <1>  -0.1500 
 27 C        4.4310    -2.9650     0.3640 C.ar  1 <1>  -0.1440 
 28 C        4.4210    -3.4630    -2.1300 C.3   1 <1>  -0.0970 
 29 C        5.8620    -2.4540     0.2800 C.3   1 <1>  -0.0970 
 30 H        1.6550    -1.2530     0.2140 H     1 <1>   0.0800 
 31 H        3.1190    -0.3800    -0.0890 H     1 <1>   0.0800 
 32 H        3.1610     1.3670     1.4320 H     1 <1>   0.0800 
 33 H        1.9670     2.6270     1.2900 H     1 <1>   0.0800 
 34 H       -0.6030    -2.1850     2.1270 H     1 <1>   0.1500 
 35 H       -1.4780     0.9840    -0.5330 H     1 <1>   0.1500 
 36 H        0.6650    -0.4530    -1.8780 H     1 <1>   0.0800 
 37 H        2.1710    -1.2790    -2.1690 H     1 <1>   0.0800 
 38 H        2.1170     0.4630    -2.2310 H     1 <1>   0.0800 
 39 H        3.7820     1.7050    -0.9420 H     1 <1>   0.0800 
 40 H        3.7990     3.2340    -0.1160 H     1 <1>   0.0800 
 41 H        2.4440     2.8290    -1.1370 H     1 <1>   0.0800 
 42 H       -3.2300    -0.3410    -1.5730 H     1 <1>   0.1500 
 43 H       -3.3260    -4.2560     0.8820 H     1 <1>   0.3700 
 44 H        0.3350    -5.7640     2.0050 H     1 <1>   0.0800 
 45 H        0.0890    -4.1390     2.6020 H     1 <1>   0.0800 
 46 H       -5.3150    -3.2490    -2.2390 H     1 <1>   0.0800 
 47 H       -3.9850    -2.2420    -2.7990 H     1 <1>   0.0800 
 48 H       -5.2110    -1.5770    -1.7030 H     1 <1>   0.0800 
 49 H        1.9160    -4.2500    -1.4900 H     1 <1>   0.1500 
 50 H        2.0250    -3.3790     2.6810 H     1 <1>   0.1500 
 51 H        4.2930    -2.5990     2.4690 H     1 <1>   0.1500 
 52 H        3.7460    -3.8390    -2.8770 H     1 <1>   0.0800 
 53 H        5.2860    -4.1010    -2.1060 H     1 <1>   0.0800 
 54 H        4.7230    -2.4720    -2.4170 H     1 <1>   0.0800 
 55 H        6.5100    -3.2330    -0.0790 H     1 <1>   0.0800 
 56 H        6.2170    -2.1390     1.2440 H     1 <1>   0.0800 
 57 H        5.9160    -1.6150    -0.3900 H     1 <1>   0.0800 
@<TRIPOS>BOND
  1   1   2  2   
  2   1   3  2   
  3   1   4  am  
  4   1   5  1   
  5   4   6  1   
  6   4   7  1   
  7   5   8  ar  
  8   5   9  ar  
  9   6  10  1   
 10   6  30  1   
 11   6  31  1   
 12   7  11  1   
 13   7  32  1   
 14   7  33  1   
 15   8  12  ar  
 16   8  34  1   
 17   9  13  ar  
 18   9  35  1   
 19  10  36  1   
 20  10  37  1   
 21  10  38  1   
 22  11  39  1   
 23  11  40  1   
 24  11  41  1   
 25  12  14  1   
 26  12  15  ar  
 27  13  15  ar  
 28  13  42  1   
 29  14  16  am  
 30  14  43  1   
 31  15  17  1   
 32  16  18  2   
 33  16  19  1   
 34  17  20  1   
 35  19  21  1   
 36  19  44  1   
 37  19  45  1   
 38  20  46  1   
 39  20  47  1   
 40  20  48  1   
 41  21  22  1   
 42  22  23  ar  
 43  22  24  ar  
 44  23  25  ar  
 45  23  49  1   
 46  24  26  ar  
 47  24  50  1   
 48  25  27  ar  
 49  25  28  1   
 50  26  27  ar  
 51  26  51  1   
 52  27  29  1   
 53  28  52  1   
 54  28  53  1   
 55  28  54  1   
 56  29  55  1   
 57  29  56  1   
 58  29  57  1   
@<TRIPOS>SUBSTRUCTURE
  1 ****   8 GROUP 4 **** **** 0

# MOE 2024.06 (io_trps.svl 2023.06)
