@<TRIPOS>MOLECULE
NONAME
32 33 1 0 0 
SMALL
USER_CHARGES


@<TRIPOS>ATOM
  1 O       -0.4140     0.6120    -0.8970 O.2   1 <1>  -0.5700 
  2 C       -0.7430     1.6890    -0.4450 C.2   1 <1>   0.5440 
  3 N        0.1360     2.6800    -0.0930 N.am  1 <1>  -0.4200 
  4 C       -2.0800     2.1460    -0.1940 C.ar  1 <1>   0.0860 
  5 C       -0.5830     3.7550     0.3660 C.2   1 <1>   0.5440 
  6 C        1.6100     2.6160    -0.2130 C.3   1 <1>   0.0600 
  7 C       -1.9790     3.4330     0.3100 C.ar  1 <1>   0.0860 
  8 C       -3.3200     1.5490    -0.3650 C.ar  1 <1>  -0.1500 
  9 O       -0.0830     4.7940     0.7450 O.2   1 <1>  -0.5700 
 10 C       -3.1290     4.1360     0.6450 C.ar  1 <1>  -0.1500 
 11 C       -4.4820     2.2380    -0.0310 C.ar  1 <1>   0.1170 
 12 C       -4.3640     3.5380     0.4710 C.ar  1 <1>  -0.1500 
 13 N       -5.7130     1.6020    -0.2260 N.am  1 <1>  -0.5470 
 14 C       -6.9450     1.8380     0.3260 C.2   1 <1>   0.5690 
 15 O       -7.1460     2.6860     1.1610 O.2   1 <1>  -0.5700 
 16 C       -8.1130     0.9630    -0.1440 C.3   1 <1>  -0.0190 
 17 C       -9.2080     1.8030    -0.8210 C.3   1 <1>  -0.2400 
 18 C       -8.7140     0.1520     1.0160 C.3   1 <1>  -0.2400 
 19 H        1.9380     1.5930    -0.1460 H     1 <1>   0.0800 
 20 H        2.0650     3.1860     0.5790 H     1 <1>   0.0800 
 21 H        1.9110     3.0240    -1.1610 H     1 <1>   0.0800 
 22 H       -3.3650     0.5480    -0.7550 H     1 <1>   0.1500 
 23 H       -3.0470     5.1370     1.0350 H     1 <1>   0.1500 
 24 H       -5.2490     4.0940     0.7270 H     1 <1>   0.1500 
 25 H       -5.6840     0.8020    -0.8540 H     1 <1>   0.3700 
 26 H       -7.7420     0.2630    -0.8730 H     1 <1>   0.0800 
 27 H       -9.6220     2.5080    -0.1210 H     1 <1>   0.0800 
 28 H       -9.9990     1.1720    -1.1840 H     1 <1>   0.0800 
 29 H       -8.7970     2.3510    -1.6510 H     1 <1>   0.0800 
 30 H       -9.1170     0.8150     1.7630 H     1 <1>   0.0800 
 31 H       -7.9570    -0.4560     1.4770 H     1 <1>   0.0800 
 32 H       -9.5020    -0.4880     0.6620 H     1 <1>   0.0800 
@<TRIPOS>BOND
  1   1   2  2   
  2   2   3  am  
  3   2   4  1   
  4   3   5  am  
  5   3   6  1   
  6   4   7  ar  
  7   4   8  ar  
  8   5   7  1   
  9   5   9  2   
 10   6  19  1   
 11   6  20  1   
 12   6  21  1   
 13   7  10  ar  
 14   8  11  ar  
 15   8  22  1   
 16  10  12  ar  
 17  10  23  1   
 18  11  12  ar  
 19  11  13  1   
 20  12  24  1   
 21  13  14  am  
 22  13  25  1   
 23  14  15  2   
 24  14  16  1   
 25  16  17  1   
 26  16  18  1   
 27  16  26  1   
 28  17  27  1   
 29  17  28  1   
 30  17  29  1   
 31  18  30  1   
 32  18  31  1   
 33  18  32  1   
@<TRIPOS>SUBSTRUCTURE
  1 ****  11 GROUP 4 **** **** 0

# MOE 2024.06 (io_trps.svl 2023.06)
