@<TRIPOS>MOLECULE
NONAME
61 63 1 0 0 
SMALL
USER_CHARGES


@<TRIPOS>ATOM
  1 S       -1.9300    -0.8970     2.7870 S.3   1 <1>  -0.2860 
  2 C       -1.7740     0.1900     1.3610 C.2   1 <1>   0.2420 
  3 C       -1.0960    -2.4790     2.2750 C.3   1 <1>   0.1310 
  4 N       -1.0210    -0.0550     0.3490 N.2   1 <1>  -0.3380 
  5 N       -2.4580     1.3310     1.2560 N.pl3 1 <1>   0.0480 
  6 C       -2.1180    -3.6060     2.1870 C.2   1 <1>   0.5690 
  7 N       -1.2080     0.9570    -0.4980 N.2   1 <1>  -0.3380 
  8 C       -2.0580     1.7680     0.0440 C.2   1 <1>   0.0060 
  9 C       -3.4120     1.8940     2.2450 C.3   1 <1>   0.0960 
 10 O       -2.1260    -4.4430     3.0540 O.2   1 <1>  -0.5700 
 11 N       -3.0060    -3.7060     1.1670 N.am  1 <1>  -0.7300 
 12 C       -2.5270     3.0410    -0.6560 C.3   1 <1>   0.4000 
 13 C       -2.6720     2.5670     3.4070 C.3   1 <1>  -0.2400 
 14 C       -3.1810    -2.8280    -0.0010 C.3   1 <1>   0.2200 
 15 N       -2.4020     4.1830     0.2750 N.am  1 <1>  -0.7300 
 16 C       -3.9490     2.8570    -1.1970 C.3   1 <1>  -0.2400 
 17 C       -4.4460    -1.9850     0.1880 C.3   1 <1>  -0.1600 
 18 C       -3.2760    -3.6820    -1.2670 C.3   1 <1>  -0.1600 
 19 C       -3.3200     5.1500     0.5320 C.2   1 <1>   0.5440 
 20 C       -4.6870    -1.0890    -1.0350 C.3   1 <1>  -0.1600 
 21 C       -3.5220    -2.7990    -2.5000 C.3   1 <1>  -0.1600 
 22 O       -3.6380     5.2680     1.6960 O.2   1 <1>  -0.5700 
 23 C       -3.9010     5.9880    -0.5030 C.ar  1 <1>   0.0860 
 24 C       -4.7710    -1.9240    -2.3200 C.3   1 <1>  -0.1600 
 25 C       -5.1870     6.5090    -0.3690 C.ar  1 <1>  -0.1500 
 26 C       -3.2030     6.3030    -1.6700 C.ar  1 <1>  -0.1500 
 27 C       -5.7570     7.2900    -1.3570 C.ar  1 <1>  -0.1500 
 28 C       -3.7680     7.0840    -2.6610 C.ar  1 <1>  -0.1500 
 29 C       -5.0520     7.5790    -2.5130 C.ar  1 <1>  -0.1430 
 30 C       -5.6750     8.4390    -3.5980 C.3   1 <1>  -0.0970 
 31 H       -0.3680    -2.7020     3.0310 H     1 <1>   0.0800 
 32 H       -0.6020    -2.3300     1.3360 H     1 <1>   0.0800 
 33 H       -4.0300     1.0980     2.6200 H     1 <1>   0.0800 
 34 H       -4.0510     2.6100     1.7640 H     1 <1>   0.0800 
 35 H       -3.6590    -4.4880     1.2280 H     1 <1>   0.3700 
 36 H       -1.8680     3.2180    -1.4890 H     1 <1>   0.0800 
 37 H       -2.0680     1.8550     3.9410 H     1 <1>   0.0800 
 38 H       -3.3880     2.9830     4.0930 H     1 <1>   0.0800 
 39 H       -2.0490     3.3690     3.0530 H     1 <1>   0.0800 
 40 H       -2.3330    -2.1770    -0.1000 H     1 <1>   0.0800 
 41 H       -1.8450     3.9290     1.0910 H     1 <1>   0.3700 
 42 H       -4.6650     2.7640    -0.4020 H     1 <1>   0.0800 
 43 H       -3.9860     1.9620    -1.7910 H     1 <1>   0.0800 
 44 H       -4.2240     3.6740    -1.8370 H     1 <1>   0.0800 
 45 H       -4.3430    -1.3700     1.0640 H     1 <1>   0.0800 
 46 H       -5.2940    -2.6320     0.3250 H     1 <1>   0.0800 
 47 H       -4.0840    -4.3860    -1.1710 H     1 <1>   0.0800 
 48 H       -2.3580    -4.2280    -1.4000 H     1 <1>   0.0800 
 49 H       -3.8740    -0.3890    -1.1230 H     1 <1>   0.0800 
 50 H       -5.5970    -0.5300    -0.9040 H     1 <1>   0.0800 
 51 H       -3.6370    -3.4190    -3.3730 H     1 <1>   0.0800 
 52 H       -2.6650    -2.1640    -2.6580 H     1 <1>   0.0800 
 53 H       -4.8770    -1.2700    -3.1680 H     1 <1>   0.0800 
 54 H       -5.6430    -2.5540    -2.2800 H     1 <1>   0.0800 
 55 H       -5.7440     6.2950     0.5270 H     1 <1>   0.1500 
 56 H       -2.2010     5.9330    -1.7990 H     1 <1>   0.1500 
 57 H       -6.7530     7.6760    -1.2210 H     1 <1>   0.1500 
 58 H       -3.2030     7.3080    -3.5500 H     1 <1>   0.1500 
 59 H       -6.7420     8.3050    -3.6170 H     1 <1>   0.0800 
 60 H       -5.2830     8.1720    -4.5630 H     1 <1>   0.0800 
 61 H       -5.4590     9.4750    -3.4100 H     1 <1>   0.0800 
@<TRIPOS>BOND
  1   1   2  1   
  2   1   3  1   
  3   2   4  2   
  4   2   5  1   
  5   3   6  1   
  6   3  31  1   
  7   3  32  1   
  8   4   7  1   
  9   5   8  1   
 10   5   9  1   
 11   6  10  2   
 12   6  11  am  
 13   7   8  2   
 14   8  12  1   
 15   9  13  1   
 16   9  33  1   
 17   9  34  1   
 18  11  14  1   
 19  11  35  1   
 20  12  15  1   
 21  12  16  1   
 22  12  36  1   
 23  13  37  1   
 24  13  38  1   
 25  13  39  1   
 26  14  17  1   
 27  14  18  1   
 28  14  40  1   
 29  15  19  am  
 30  15  41  1   
 31  16  42  1   
 32  16  43  1   
 33  16  44  1   
 34  17  20  1   
 35  17  45  1   
 36  17  46  1   
 37  18  21  1   
 38  18  47  1   
 39  18  48  1   
 40  19  22  2   
 41  19  23  1   
 42  20  24  1   
 43  20  49  1   
 44  20  50  1   
 45  21  24  1   
 46  21  51  1   
 47  21  52  1   
 48  23  25  ar  
 49  23  26  ar  
 50  24  53  1   
 51  24  54  1   
 52  25  27  ar  
 53  25  55  1   
 54  26  28  ar  
 55  26  56  1   
 56  27  29  ar  
 57  27  57  1   
 58  28  29  ar  
 59  28  58  1   
 60  29  30  1   
 61  30  59  1   
 62  30  60  1   
 63  30  61  1   
@<TRIPOS>SUBSTRUCTURE
  1 ****   8 GROUP 4 **** **** 0

# MOE 2024.06 (io_trps.svl 2023.06)
