@<TRIPOS>MOLECULE
NONAME
47 48 1 0 0 
SMALL
USER_CHARGES


@<TRIPOS>ATOM
  1 BR       0.1120     0.8930     0.3530 Br    1 <1>  -0.1110 
  2 C       -1.7180     1.4770     0.2100 C.ar  1 <1>   0.1110 
  3 C       -2.7280     0.5470     0.3710 C.ar  1 <1>  -0.1500 
  4 C       -1.9730     2.8100    -0.0490 C.ar  1 <1>  -0.1500 
  5 C       -4.0430     0.9680     0.2680 C.ar  1 <1>  -0.1500 
  6 C       -3.2910     3.2210    -0.1490 C.ar  1 <1>  -0.1500 
  7 C       -4.3280     2.3100     0.0070 C.ar  1 <1>   0.0830 
  8 O       -5.5870     2.8040    -0.1080 O.3   1 <1>  -0.3630 
  9 C       -6.7150     1.9780     0.0340 C.3   1 <1>   0.1200 
 10 C       -7.9450     2.8660    -0.1500 C.3   1 <1>  -0.1600 
 11 C       -9.2300     2.0550     0.0040 C.3   1 <1>   0.3430 
 12 N      -10.4190     2.9030    -0.2920 N.4   1 <1>  -0.9590 
 13 C      -10.6670     3.9290     0.7660 C.3   1 <1>   0.3430 
 14 C      -11.6240     2.0560    -0.5230 C.3   1 <1>   0.3430 
 15 C      -11.8040     4.8500     0.3290 C.3   1 <1>  -0.1600 
 16 C      -12.7830     2.9310    -0.9940 C.3   1 <1>  -0.1600 
 17 C      -13.0900     4.0690    -0.0010 C.3   1 <1>  -0.0190 
 18 C      -14.1660     5.0000    -0.5520 C.2   1 <1>   0.6590 
 19 O      -14.0080     5.5900    -1.5880 O.2   1 <1>  -0.5700 
 20 O      -15.2650     5.1120     0.1780 O.3   1 <1>  -0.4300 
 21 C      -16.3310     5.9430    -0.2240 C.3   1 <1>   0.1200 
 22 C      -17.4300     5.8450     0.8290 C.3   1 <1>  -0.2400 
 23 H       -2.4860    -0.4810     0.5710 H     1 <1>   0.1500 
 24 H       -1.1610     3.5050    -0.1680 H     1 <1>   0.1500 
 25 H       -4.8220     0.2410     0.3940 H     1 <1>   0.1500 
 26 H       -3.5220     4.2520    -0.3500 H     1 <1>   0.1500 
 27 H       -6.6900     1.5420     1.0190 H     1 <1>   0.0800 
 28 H       -6.6670     1.2110    -0.7200 H     1 <1>   0.0800 
 29 H       -7.9050     3.2990    -1.1350 H     1 <1>   0.0800 
 30 H       -7.9040     3.6470     0.5880 H     1 <1>   0.0800 
 31 H       -9.2980     1.6560     1.0040 H     1 <1>   0.0800 
 32 H       -9.2000     1.2270    -0.6870 H     1 <1>   0.0800 
 33 H      -10.2340     3.4110    -1.1700 H     1 <1>   0.4500 
 34 H       -9.7810     4.5200     0.9310 H     1 <1>   0.0800 
 35 H      -10.9290     3.4440     1.6930 H     1 <1>   0.0800 
 36 H      -11.8980     1.5520     0.3910 H     1 <1>   0.0800 
 37 H      -11.4140     1.3090    -1.2730 H     1 <1>   0.0800 
 38 H      -11.4880     5.4180    -0.5300 H     1 <1>   0.0800 
 39 H      -12.0090     5.5540     1.1170 H     1 <1>   0.0800 
 40 H      -13.6600     2.3180    -1.1140 H     1 <1>   0.0800 
 41 H      -12.5460     3.3400    -1.9620 H     1 <1>   0.0800 
 42 H      -13.4680     3.6340     0.9080 H     1 <1>   0.0800 
 43 H      -16.6850     5.6060    -1.1840 H     1 <1>   0.0800 
 44 H      -15.9650     6.9530    -0.3080 H     1 <1>   0.0800 
 45 H      -17.7800     4.8310     0.9090 H     1 <1>   0.0800 
 46 H      -18.2570     6.4700     0.5470 H     1 <1>   0.0800 
 47 H      -17.0620     6.1760     1.7840 H     1 <1>   0.0800 
@<TRIPOS>BOND
  1   1   2  1   
  2   2   3  ar  
  3   2   4  ar  
  4   3   5  ar  
  5   3  23  1   
  6   4   6  ar  
  7   4  24  1   
  8   5   7  ar  
  9   5  25  1   
 10   6   7  ar  
 11   6  26  1   
 12   7   8  1   
 13   8   9  1   
 14   9  10  1   
 15   9  27  1   
 16   9  28  1   
 17  10  11  1   
 18  10  29  1   
 19  10  30  1   
 20  11  12  1   
 21  11  31  1   
 22  11  32  1   
 23  12  13  1   
 24  12  14  1   
 25  12  33  1   
 26  13  15  1   
 27  13  34  1   
 28  13  35  1   
 29  14  16  1   
 30  14  36  1   
 31  14  37  1   
 32  15  17  1   
 33  15  38  1   
 34  15  39  1   
 35  16  17  1   
 36  16  40  1   
 37  16  41  1   
 38  17  18  1   
 39  17  42  1   
 40  18  19  2   
 41  18  20  1   
 42  20  21  1   
 43  21  22  1   
 44  21  43  1   
 45  21  44  1   
 46  22  45  1   
 47  22  46  1   
 48  22  47  1   
@<TRIPOS>SUBSTRUCTURE
  1 ****  10 GROUP 4 **** **** 0

# MOE 2024.06 (io_trps.svl 2023.06)
