@<TRIPOS>MOLECULE
NONAME
53 55 1 0 0 
SMALL
USER_CHARGES


@<TRIPOS>ATOM
  1 O       -0.1960    -0.5200    -1.5240 O.2   1 <1>  -0.5700 
  2 C        0.6090    -0.9540    -0.7150 C.2   1 <1>   0.5440 
  3 N        1.3110    -0.0510     0.0530 N.am  1 <1>  -0.6600 
  4 C        0.7780    -2.3860    -0.5650 C.ar  1 <1>   0.0860 
  5 C        1.9060    -0.3620     1.3870 C.3   1 <1>   0.1400 
  6 C        1.3580     1.4040    -0.2810 C.3   1 <1>   0.1400 
  7 C       -0.3320    -3.2250    -0.3750 C.ar  1 <1>   0.1170 
  8 C        2.0500    -2.9600    -0.6020 C.ar  1 <1>  -0.1500 
  9 C        3.2920     0.2910     1.5220 C.3   1 <1>   0.1200 
 10 C        2.7710     1.9650    -0.0450 C.3   1 <1>   0.1200 
 11 N       -1.6160    -2.6660    -0.4000 N.am  1 <1>  -0.5470 
 12 C       -0.1300    -4.5910    -0.1960 C.ar  1 <1>  -0.1500 
 13 C        2.2350    -4.3170    -0.4260 C.ar  1 <1>  -0.1500 
 14 O        3.2190     1.6620     1.2470 O.3   1 <1>  -0.5600 
 15 C       -2.7940    -2.9970     0.2260 C.2   1 <1>   0.5440 
 16 C        1.1380    -5.1350    -0.2170 C.ar  1 <1>  -0.1500 
 17 O       -2.8500    -3.9960     0.9150 O.2   1 <1>  -0.5700 
 18 C       -3.9570    -2.1390     0.0620 C.ar  1 <1>   0.0860 
 19 C       -3.8590    -0.8100    -0.3550 C.ar  1 <1>  -0.1500 
 20 C       -5.2410    -2.6160     0.3200 C.ar  1 <1>  -0.1500 
 21 C       -4.9790    -0.0160    -0.5130 C.ar  1 <1>  -0.1500 
 22 C       -6.3630    -1.8230     0.1640 C.ar  1 <1>  -0.1500 
 23 C       -6.2570    -0.5020    -0.2590 C.ar  1 <1>  -0.1430 
 24 C       -7.4760     0.4260    -0.4520 C.3   1 <1>   0.1430 
 25 C       -7.3480     1.6430     0.4760 C.3   1 <1>  -0.2400 
 26 C       -7.5340     0.9010    -1.9120 C.3   1 <1>  -0.2400 
 27 C       -8.8160    -0.2610    -0.1350 C.3   1 <1>  -0.2400 
 28 H        1.9900    -1.4220     1.5400 H     1 <1>   0.0800 
 29 H        1.2630     0.0290     2.1560 H     1 <1>   0.0800 
 30 H        0.6550     1.9330     0.3380 H     1 <1>   0.0800 
 31 H        1.0820     1.5600    -1.3090 H     1 <1>   0.0800 
 32 H        2.9030    -2.3260    -0.7720 H     1 <1>   0.1500 
 33 H        3.9940    -0.1600     0.8420 H     1 <1>   0.0800 
 34 H        3.6600     0.1780     2.5260 H     1 <1>   0.0800 
 35 H        2.7660     3.0350    -0.1490 H     1 <1>   0.0800 
 36 H        3.4640     1.5510    -0.7570 H     1 <1>   0.0800 
 37 H       -1.6460    -1.7870    -0.9300 H     1 <1>   0.3700 
 38 H       -0.9760    -5.2380    -0.0460 H     1 <1>   0.1500 
 39 H        3.2240    -4.7420    -0.4530 H     1 <1>   0.1500 
 40 H        1.2720    -6.1940    -0.0750 H     1 <1>   0.1500 
 41 H       -2.8960    -0.3740    -0.5580 H     1 <1>   0.1500 
 42 H       -5.3590    -3.6340     0.6520 H     1 <1>   0.1500 
 43 H       -4.8410     0.9990    -0.8390 H     1 <1>   0.1500 
 44 H       -7.3160    -2.2660     0.3830 H     1 <1>   0.1500 
 45 H       -7.2730     1.3180     1.4990 H     1 <1>   0.0800 
 46 H       -6.4740     2.2200     0.2410 H     1 <1>   0.0800 
 47 H       -8.2060     2.2840     0.3830 H     1 <1>   0.0800 
 48 H       -7.5920     0.0540    -2.5720 H     1 <1>   0.0800 
 49 H       -6.6600     1.4700    -2.1700 H     1 <1>   0.0800 
 50 H       -8.3960     1.5220    -2.0760 H     1 <1>   0.0800 
 51 H       -8.9660    -1.1100    -0.7790 H     1 <1>   0.0800 
 52 H       -9.6350     0.4190    -0.2850 H     1 <1>   0.0800 
 53 H       -8.8380    -0.5890     0.8890 H     1 <1>   0.0800 
@<TRIPOS>BOND
  1   1   2  2   
  2   2   3  am  
  3   2   4  1   
  4   3   5  1   
  5   3   6  1   
  6   4   7  ar  
  7   4   8  ar  
  8   5   9  1   
  9   5  28  1   
 10   5  29  1   
 11   6  10  1   
 12   6  30  1   
 13   6  31  1   
 14   7  11  1   
 15   7  12  ar  
 16   8  13  ar  
 17   8  32  1   
 18   9  14  1   
 19   9  33  1   
 20   9  34  1   
 21  10  14  1   
 22  10  35  1   
 23  10  36  1   
 24  11  15  am  
 25  11  37  1   
 26  12  16  ar  
 27  12  38  1   
 28  13  16  ar  
 29  13  39  1   
 30  15  17  2   
 31  15  18  1   
 32  16  40  1   
 33  18  19  ar  
 34  18  20  ar  
 35  19  21  ar  
 36  19  41  1   
 37  20  22  ar  
 38  20  42  1   
 39  21  23  ar  
 40  21  43  1   
 41  22  23  ar  
 42  22  44  1   
 43  23  24  1   
 44  24  25  1   
 45  24  26  1   
 46  24  27  1   
 47  25  45  1   
 48  25  46  1   
 49  25  47  1   
 50  26  48  1   
 51  26  49  1   
 52  26  50  1   
 53  27  51  1   
 54  27  52  1   
 55  27  53  1   
@<TRIPOS>SUBSTRUCTURE
  1 ****  11 GROUP 4 **** **** 0

# MOE 2024.06 (io_trps.svl 2023.06)
