@<TRIPOS>MOLECULE
NONAME
36 37 1 0 0 
SMALL
USER_CHARGES


@<TRIPOS>ATOM
  1 S        0.0550    -0.0690    -1.4750 S.3   1 <1>  -0.9530 
  2 C       -0.0690    -1.6840    -1.1110 C.ar  1 <1>   0.5730 
  3 N        1.0510    -2.3160    -0.8630 N.ar  1 <1>  -0.6200 
  4 N       -1.2740    -2.1960    -1.0900 N.ar  1 <1>  -0.6200 
  5 C        0.8920    -3.5760    -0.5630 C.ar  1 <1>   0.7200 
  6 C       -1.2870    -3.4540    -0.7620 C.ar  1 <1>   0.7200 
  7 N       -0.2580    -4.2100    -0.4880 N.ar  1 <1>  -0.6200 
  8 N        2.0340    -4.3130    -0.2910 N.pl3 1 <1>  -0.8380 
  9 N       -2.4710    -4.1190    -0.6750 N.pl3 1 <1>  -0.8690 
 10 C        1.9780    -5.6110     0.4430 C.3   1 <1>   0.2090 
 11 C        3.3700    -3.6440    -0.2200 C.3   1 <1>   0.2090 
 12 C       -3.7540    -3.5790    -0.2290 C.3   1 <1>   0.3690 
 13 C        3.2030    -6.4840     0.1190 C.3   1 <1>   0.1200 
 14 C        4.5110    -4.6420    -0.4860 C.3   1 <1>   0.1200 
 15 C       -4.6320    -4.7920     0.0710 C.3   1 <1>  -0.2400 
 16 C       -3.5830    -2.7520     1.0460 C.3   1 <1>  -0.2400 
 17 C       -4.3910    -2.7620    -1.3530 C.3   1 <1>  -0.2400 
 18 O        4.3980    -5.7820     0.3230 O.3   1 <1>  -0.5600 
 19 H       -2.3030    -5.0620    -0.3490 H     1 <1>   0.4000 
 20 H        1.0910    -6.1580     0.1770 H     1 <1>   0.0800 
 21 H        1.9470    -5.4160     1.5000 H     1 <1>   0.0800 
 22 H        3.4930    -3.2050     0.7540 H     1 <1>   0.0800 
 23 H        3.4350    -2.8540    -0.9490 H     1 <1>   0.0800 
 24 H        3.1650    -6.8090    -0.9060 H     1 <1>   0.0800 
 25 H        3.2180    -7.3490     0.7560 H     1 <1>   0.0800 
 26 H        5.4580    -4.1800    -0.2760 H     1 <1>   0.0800 
 27 H        4.4970    -4.9490    -1.5170 H     1 <1>   0.0800 
 28 H       -5.6070    -4.4710     0.3900 H     1 <1>   0.0800 
 29 H       -4.7460    -5.3970    -0.8100 H     1 <1>   0.0800 
 30 H       -4.1990    -5.3850     0.8560 H     1 <1>   0.0800 
 31 H       -3.0690    -3.3210     1.7990 H     1 <1>   0.0800 
 32 H       -4.5420    -2.4570     1.4280 H     1 <1>   0.0800 
 33 H       -3.0230    -1.8560     0.8450 H     1 <1>   0.0800 
 34 H       -3.8130    -1.8760    -1.5490 H     1 <1>   0.0800 
 35 H       -4.4430    -3.3450    -2.2540 H     1 <1>   0.0800 
 36 H       -5.3820    -2.4550    -1.0770 H     1 <1>   0.0800 
@<TRIPOS>BOND
  1   1   2  1   
  2   2   3  ar  
  3   2   4  ar  
  4   3   5  ar  
  5   4   6  ar  
  6   5   7  ar  
  7   5   8  1   
  8   6   7  ar  
  9   6   9  1   
 10   8  10  1   
 11   8  11  1   
 12   9  12  1   
 13   9  19  1   
 14  10  13  1   
 15  10  20  1   
 16  10  21  1   
 17  11  14  1   
 18  11  22  1   
 19  11  23  1   
 20  12  15  1   
 21  12  16  1   
 22  12  17  1   
 23  13  18  1   
 24  13  24  1   
 25  13  25  1   
 26  14  18  1   
 27  14  26  1   
 28  14  27  1   
 29  15  28  1   
 30  15  29  1   
 31  15  30  1   
 32  16  31  1   
 33  16  32  1   
 34  16  33  1   
 35  17  34  1   
 36  17  35  1   
 37  17  36  1   
@<TRIPOS>SUBSTRUCTURE
  1 ****   7 GROUP 4 **** **** 0

# MOE 2024.06 (io_trps.svl 2023.06)
