@<TRIPOS>MOLECULE
NONAME
51 53 1 0 0 
SMALL
USER_CHARGES


@<TRIPOS>ATOM
  1 O       -0.8720    -1.3570    -2.2160 O.2   1 <1>  -0.5700 
  2 C       -1.3450    -1.6330    -1.1310 C.2   1 <1>   0.5440 
  3 N       -0.5040    -2.0250    -0.1270 N.am  1 <1>  -0.7300 
  4 C       -2.7750    -1.5330    -0.9000 C.ar  1 <1>   0.0860 
  5 C        0.9570    -2.1730    -0.2390 C.3   1 <1>   0.2200 
  6 C       -3.5560    -0.6310    -1.6230 C.ar  1 <1>  -0.1500 
  7 C       -3.4330    -2.3230     0.0460 C.ar  1 <1>  -0.1500 
  8 C        1.3480    -3.5800     0.2230 C.3   1 <1>  -0.1600 
  9 C        1.6300    -1.0970     0.6190 C.3   1 <1>  -0.1600 
 10 C       -4.9170    -0.5150    -1.4060 C.ar  1 <1>  -0.1500 
 11 C       -4.7940    -2.2060     0.2640 C.ar  1 <1>  -0.1500 
 12 C        2.8730    -3.7580     0.2320 C.3   1 <1>  -0.1600 
 13 C        3.1570    -1.2700     0.6290 C.3   1 <1>  -0.1600 
 14 C       -5.5560    -1.2990    -0.4580 C.ar  1 <1>   0.0730 
 15 C        3.5530    -2.6800     1.0890 C.3   1 <1>  -0.1600 
 16 C       -6.9640    -1.1720    -0.2360 C.1   1 <1>  -0.0730 
 17 C       -8.1370    -1.0470    -0.0720 C.1   1 <1>  -0.2000 
 18 C       -9.6060    -0.8750     0.1150 C.3   1 <1>   0.4800 
 19 O      -10.0020     0.1200    -0.7460 O.3   1 <1>  -0.6800 
 20 C       -9.9470    -0.4260     1.5500 C.3   1 <1>  -0.1600 
 21 C      -10.3820    -2.1400    -0.2710 C.3   1 <1>  -0.1600 
 22 C      -11.3530    -0.8400     2.0410 C.3   1 <1>  -0.1600 
 23 C      -11.9170    -1.9830    -0.1670 C.3   1 <1>  -0.1600 
 24 C      -12.3670    -0.9620     0.8970 C.3   1 <1>  -0.1600 
 25 H       -0.8720    -2.1410     0.8140 H     1 <1>   0.3700 
 26 H        1.2610    -2.0450    -1.2660 H     1 <1>   0.0800 
 27 H       -3.0810    -0.0140    -2.3680 H     1 <1>   0.1500 
 28 H       -2.8750    -3.0460     0.6130 H     1 <1>   0.1500 
 29 H        0.9100    -4.3050    -0.4410 H     1 <1>   0.0800 
 30 H        0.9710    -3.7520     1.2160 H     1 <1>   0.0800 
 31 H        1.2650    -1.1590     1.6290 H     1 <1>   0.0800 
 32 H        1.3860    -0.1270     0.2240 H     1 <1>   0.0800 
 33 H       -5.4950     0.1910    -1.9790 H     1 <1>   0.1500 
 34 H       -5.2770    -2.8260     0.9980 H     1 <1>   0.1500 
 35 H        3.2440    -3.6950    -0.7770 H     1 <1>   0.0800 
 36 H        3.1220    -4.7330     0.6140 H     1 <1>   0.0800 
 37 H        3.5990    -0.5390     1.2830 H     1 <1>   0.0800 
 38 H        3.5390    -1.0990    -0.3630 H     1 <1>   0.0800 
 39 H        4.6220    -2.7920     1.0270 H     1 <1>   0.0800 
 40 H        3.2680    -2.8120     2.1190 H     1 <1>   0.0800 
 41 H      -10.9690     0.1860    -0.6840 H     1 <1>   0.4000 
 42 H       -9.8280     0.6420     1.6200 H     1 <1>   0.0800 
 43 H       -9.2340    -0.8600     2.2280 H     1 <1>   0.0800 
 44 H      -10.0730    -2.9260     0.3960 H     1 <1>   0.0800 
 45 H      -10.1080    -2.4470    -1.2650 H     1 <1>   0.0800 
 46 H      -11.7030    -0.1290     2.7700 H     1 <1>   0.0800 
 47 H      -11.2830    -1.7960     2.5320 H     1 <1>   0.0800 
 48 H      -12.3400    -2.9460     0.0610 H     1 <1>   0.0800 
 49 H      -12.3120    -1.6820    -1.1230 H     1 <1>   0.0800 
 50 H      -12.4960     0.0050     0.4440 H     1 <1>   0.0800 
 51 H      -13.3250    -1.2570     1.2910 H     1 <1>   0.0800 
@<TRIPOS>BOND
  1   1   2  2   
  2   2   3  am  
  3   2   4  1   
  4   3   5  1   
  5   3  25  1   
  6   4   6  ar  
  7   4   7  ar  
  8   5   8  1   
  9   5   9  1   
 10   5  26  1   
 11   6  10  ar  
 12   6  27  1   
 13   7  11  ar  
 14   7  28  1   
 15   8  12  1   
 16   8  29  1   
 17   8  30  1   
 18   9  13  1   
 19   9  31  1   
 20   9  32  1   
 21  10  14  ar  
 22  10  33  1   
 23  11  14  ar  
 24  11  34  1   
 25  12  15  1   
 26  12  35  1   
 27  12  36  1   
 28  13  15  1   
 29  13  37  1   
 30  13  38  1   
 31  14  16  1   
 32  15  39  1   
 33  15  40  1   
 34  16  17  3   
 35  17  18  1   
 36  18  19  1   
 37  18  20  1   
 38  18  21  1   
 39  19  41  1   
 40  20  22  1   
 41  20  42  1   
 42  20  43  1   
 43  21  23  1   
 44  21  44  1   
 45  21  45  1   
 46  22  24  1   
 47  22  46  1   
 48  22  47  1   
 49  23  24  1   
 50  23  48  1   
 51  23  49  1   
 52  24  50  1   
 53  24  51  1   
@<TRIPOS>SUBSTRUCTURE
  1 ****  11 GROUP 4 **** **** 0

# MOE 2024.06 (io_trps.svl 2023.06)
