@<TRIPOS>MOLECULE
NONAME
36 36 1 0 0 
SMALL
USER_CHARGES


@<TRIPOS>ATOM
  1 O       -0.0460     3.4030     2.7490 O.2   1 <1>  -0.5700 
  2 C        0.2840     3.8630     1.6760 C.2   1 <1>   0.6900 
  3 N        1.4300     4.5820     1.6060 N.am  1 <1>  -0.5470 
  4 N       -0.4790     3.7030     0.5700 N.am  1 <1>  -0.7300 
  5 C        2.0800     5.1410     0.5020 C.ar  1 <1>   0.1170 
  6 C       -1.8230     3.0900     0.5300 C.3   1 <1>   0.1400 
  7 C        2.2950     4.4090    -0.6610 C.ar  1 <1>  -0.1500 
  8 C        2.5340     6.4520     0.5600 C.ar  1 <1>  -0.1500 
  9 C       -2.8220     4.0590    -0.1090 C.3   1 <1>  -0.1600 
 10 C        2.9350     4.9790    -1.7460 C.ar  1 <1>  -0.1500 
 11 C        3.1760     7.0260    -0.5230 C.ar  1 <1>  -0.1500 
 12 C       -2.9750     5.3670     0.6860 C.3   1 <1>  -0.1600 
 13 C        3.3750     6.2900    -1.6790 C.ar  1 <1>  -0.1500 
 14 C       -4.0350     6.2780     0.0550 C.3   1 <1>  -0.1600 
 15 C       -4.1800     7.5830     0.8460 C.3   1 <1>  -0.1600 
 16 C       -5.2390     8.4940     0.2190 C.3   1 <1>  -0.2400 
 17 H        1.8260     4.7570     2.5270 H     1 <1>   0.3700 
 18 H       -0.1920     4.2210    -0.2590 H     1 <1>   0.3700 
 19 H       -1.7760     2.1810    -0.0440 H     1 <1>   0.0800 
 20 H       -2.1420     2.8400     1.5290 H     1 <1>   0.0800 
 21 H        1.9670     3.3850    -0.7110 H     1 <1>   0.1500 
 22 H        2.3780     7.0280     1.4550 H     1 <1>   0.1500 
 23 H       -3.7780     3.5670    -0.1580 H     1 <1>   0.0800 
 24 H       -2.5160     4.2730    -1.1180 H     1 <1>   0.0800 
 25 H        3.0950     4.4040    -2.6420 H     1 <1>   0.1500 
 26 H        3.5200     8.0440    -0.4690 H     1 <1>   0.1500 
 27 H       -2.0340     5.8880     0.7150 H     1 <1>   0.0800 
 28 H       -3.2560     5.1360     1.7000 H     1 <1>   0.0800 
 29 H        3.8740     6.7360    -2.5220 H     1 <1>   0.1500 
 30 H       -4.9820     5.7670     0.0350 H     1 <1>   0.0800 
 31 H       -3.7540     6.5050    -0.9590 H     1 <1>   0.0800 
 32 H       -3.2350     8.1000     0.8670 H     1 <1>   0.0800 
 33 H       -4.4590     7.3610     1.8620 H     1 <1>   0.0800 
 34 H       -4.9670     8.7470    -0.7900 H     1 <1>   0.0800 
 35 H       -5.3250     9.4030     0.7880 H     1 <1>   0.0800 
 36 H       -6.1970     8.0050     0.2090 H     1 <1>   0.0800 
@<TRIPOS>BOND
  1   1   2  2   
  2   2   3  am  
  3   2   4  am  
  4   3   5  1   
  5   3  17  1   
  6   4   6  1   
  7   4  18  1   
  8   5   7  ar  
  9   5   8  ar  
 10   6   9  1   
 11   6  19  1   
 12   6  20  1   
 13   7  10  ar  
 14   7  21  1   
 15   8  11  ar  
 16   8  22  1   
 17   9  12  1   
 18   9  23  1   
 19   9  24  1   
 20  10  13  ar  
 21  10  25  1   
 22  11  13  ar  
 23  11  26  1   
 24  12  14  1   
 25  12  27  1   
 26  12  28  1   
 27  13  29  1   
 28  14  15  1   
 29  14  30  1   
 30  14  31  1   
 31  15  16  1   
 32  15  32  1   
 33  15  33  1   
 34  16  34  1   
 35  16  35  1   
 36  16  36  1   
@<TRIPOS>SUBSTRUCTURE
  1 ****   4 GROUP 4 **** **** 0

# MOE 2024.06 (io_trps.svl 2023.06)
