@<TRIPOS>MOLECULE
NONAME
39 39 1 0 0 
SMALL
USER_CHARGES


@<TRIPOS>ATOM
  1 BR      -0.8950    -0.1750     0.6400 Br    1 <1>  -0.1110 
  2 C       -0.4430    -1.9500     0.0370 C.ar  1 <1>   0.1110 
  3 C       -1.3050    -2.6110    -0.8240 C.ar  1 <1>  -0.1440 
  4 C        0.7340    -2.5080     0.4960 C.ar  1 <1>  -0.1500 
  5 C       -0.9640    -3.8950    -1.2200 C.ar  1 <1>  -0.1500 
  6 C       -2.5760    -1.9610    -1.3180 C.3   1 <1>   0.4870 
  7 C        1.0760    -3.7920     0.0820 C.ar  1 <1>   0.0820 
  8 C        0.2020    -4.4910    -0.7640 C.ar  1 <1>   0.0820 
  9 N       -3.5870    -2.1030    -0.2490 N.4   1 <1>  -0.9060 
 10 O        2.2440    -4.3790     0.4570 O.3   1 <1>  -0.3620 
 11 O        0.4250    -5.7570    -1.2050 O.3   1 <1>  -0.3620 
 12 C       -4.8930    -1.5010    -0.5950 C.3   1 <1>   0.3430 
 13 C        3.3040    -3.6390     1.0510 C.3   1 <1>   0.1810 
 14 C        0.7560    -6.7630    -0.2690 C.3   1 <1>   0.0400 
 15 C       -5.8470    -1.6850     0.5820 C.3   1 <1>  -0.1600 
 16 C        4.5870    -4.4610     1.0780 C.2   1 <1>   0.5690 
 17 C       -7.2200    -1.0750     0.2770 C.3   1 <1>  -0.2400 
 18 O        5.4190    -4.2330     1.9180 O.2   1 <1>  -0.5700 
 19 N        4.7980    -5.4260     0.1590 N.am  1 <1>  -0.8000 
 20 H        1.3540    -1.9350     1.1600 H     1 <1>   0.1500 
 21 H       -1.5890    -4.4620    -1.8890 H     1 <1>   0.1500 
 22 H       -2.9100    -2.4480    -2.2200 H     1 <1>   0.0800 
 23 H       -2.3970    -0.9190    -1.5330 H     1 <1>   0.0800 
 24 H       -3.2150    -1.6610     0.6010 H     1 <1>   0.4500 
 25 H       -3.6990    -3.1010    -0.0320 H     1 <1>   0.4500 
 26 H       -5.3040    -1.9790    -1.4710 H     1 <1>   0.0800 
 27 H       -4.7750    -0.4490    -0.8020 H     1 <1>   0.0800 
 28 H        3.0200    -3.3810     2.0540 H     1 <1>   0.0800 
 29 H        3.4730    -2.7510     0.4710 H     1 <1>   0.0800 
 30 H        0.4910    -7.7150    -0.6920 H     1 <1>   0.0800 
 31 H        0.2070    -6.5990     0.6410 H     1 <1>   0.0800 
 32 H        1.8140    -6.7370    -0.0810 H     1 <1>   0.0800 
 33 H       -5.4470    -1.2040     1.4590 H     1 <1>   0.0800 
 34 H       -5.9770    -2.7340     0.7900 H     1 <1>   0.0800 
 35 H       -7.1390    -0.0180     0.0880 H     1 <1>   0.0800 
 36 H       -7.8790    -1.2150     1.1180 H     1 <1>   0.0800 
 37 H       -7.6690    -1.5470    -0.5810 H     1 <1>   0.0800 
 38 H        5.6570    -5.9760     0.1810 H     1 <1>   0.3700 
 39 H        4.1030    -5.6640    -0.5510 H     1 <1>   0.3700 
@<TRIPOS>BOND
  1   1   2  1   
  2   2   3  ar  
  3   2   4  ar  
  4   3   5  ar  
  5   3   6  1   
  6   4   7  ar  
  7   4  20  1   
  8   5   8  ar  
  9   5  21  1   
 10   6   9  1   
 11   6  22  1   
 12   6  23  1   
 13   7   8  ar  
 14   7  10  1   
 15   8  11  1   
 16   9  12  1   
 17   9  24  1   
 18   9  25  1   
 19  10  13  1   
 20  11  14  1   
 21  12  15  1   
 22  12  26  1   
 23  12  27  1   
 24  13  16  1   
 25  13  28  1   
 26  13  29  1   
 27  14  30  1   
 28  14  31  1   
 29  14  32  1   
 30  15  17  1   
 31  15  33  1   
 32  15  34  1   
 33  16  18  2   
 34  16  19  am  
 35  17  35  1   
 36  17  36  1   
 37  17  37  1   
 38  19  38  1   
 39  19  39  1   
@<TRIPOS>SUBSTRUCTURE
  1 ****   4 GROUP 4 **** **** 0

# MOE 2024.06 (io_trps.svl 2023.06)
