@<TRIPOS>MOLECULE
NONAME
48 50 1 0 0 
SMALL
USER_CHARGES


@<TRIPOS>ATOM
  1 O       -0.7530    -3.4760    -0.8770 O.2   1 <1>  -0.5700 
  2 C       -0.1090    -2.6430    -0.2830 C.2   1 <1>   0.5690 
  3 N       -0.6430    -1.5460     0.3230 N.am  1 <1>  -0.5470 
  4 C        1.4130    -2.7960    -0.1950 C.3   1 <1>   0.1710 
  5 C       -1.9320    -0.9870     0.3870 C.ar  1 <1>   0.1170 
  6 N        2.1250    -1.5380     0.1890 N.3   1 <1>  -0.8100 
  7 C       -2.0620     0.3430     0.8010 C.ar  1 <1>   0.0830 
  8 C       -3.0760    -1.7050     0.0590 C.ar  1 <1>  -0.1500 
  9 C        2.1560    -0.5790    -0.9330 C.3   1 <1>   0.1100 
 10 C        3.4850    -1.8230     0.6680 C.3   1 <1>   0.1100 
 11 O       -0.9120     1.0150     1.1130 O.3   1 <1>  -0.3630 
 12 C       -3.3210     0.9260     0.8780 C.ar  1 <1>  -0.1500 
 13 C       -4.3270    -1.1210     0.1350 C.ar  1 <1>  -0.1500 
 14 C        2.7130     0.7550    -0.4420 C.3   1 <1>  -0.1600 
 15 C        4.1060    -0.5410     1.2230 C.3   1 <1>  -0.1600 
 16 C       -0.9380     2.3680     1.5080 C.3   1 <1>   0.0400 
 17 C       -4.4540     0.2020     0.5460 C.ar  1 <1>   0.0830 
 18 C        4.0980     0.5600     0.1610 C.3   1 <1>   0.5600 
 19 O       -5.6440     0.8530     0.6490 O.3   1 <1>  -0.3630 
 20 O        5.0000     0.2570    -0.8550 O.3   1 <1>  -0.5600 
 21 O        4.5370     1.7620     0.6950 O.3   1 <1>  -0.5600 
 22 C       -6.8540     0.2040     0.3250 C.3   1 <1>   0.0400 
 23 C        6.2100     0.8700    -0.5890 C.3   1 <1>   0.1200 
 24 C        5.9040     1.8570     0.5210 C.3   1 <1>   0.1200 
 25 H        0.0870    -0.9320     0.7060 H     1 <1>   0.3700 
 26 H        1.7830    -3.1540    -1.1400 H     1 <1>   0.0800 
 27 H        1.6050    -3.5530     0.5430 H     1 <1>   0.0800 
 28 H       -2.9910    -2.7280    -0.2560 H     1 <1>   0.1500 
 29 H        1.1630    -0.4200    -1.3190 H     1 <1>   0.0800 
 30 H        2.7710    -0.9620    -1.7310 H     1 <1>   0.0800 
 31 H        4.0890    -2.2070    -0.1390 H     1 <1>   0.0800 
 32 H        3.4480    -2.5610     1.4510 H     1 <1>   0.0800 
 33 H       -3.4560     1.9420     1.1910 H     1 <1>   0.1500 
 34 H       -5.1840    -1.7110    -0.1280 H     1 <1>   0.1500 
 35 H        2.0510     1.1510     0.3060 H     1 <1>   0.0800 
 36 H        2.7710     1.4540    -1.2540 H     1 <1>   0.0800 
 37 H        5.1080    -0.7350     1.5540 H     1 <1>   0.0800 
 38 H        3.5240    -0.2170     2.0660 H     1 <1>   0.0800 
 39 H        0.0740     2.6830     1.6880 H     1 <1>   0.0800 
 40 H       -1.5140     2.4570     2.4130 H     1 <1>   0.0800 
 41 H       -1.3690     2.9550     0.7170 H     1 <1>   0.0800 
 42 H       -7.6570     0.9030     0.4750 H     1 <1>   0.0800 
 43 H       -6.9810    -0.6430     0.9760 H     1 <1>   0.0800 
 44 H       -6.8220    -0.1010    -0.7060 H     1 <1>   0.0800 
 45 H        6.5510     1.3650    -1.4810 H     1 <1>   0.0800 
 46 H        6.9220     0.1280    -0.2770 H     1 <1>   0.0800 
 47 H        6.3930     1.5830     1.4390 H     1 <1>   0.0800 
 48 H        6.1560     2.8670     0.2500 H     1 <1>   0.0800 
@<TRIPOS>BOND
  1   1   2  2   
  2   2   3  am  
  3   2   4  1   
  4   3   5  1   
  5   3  25  1   
  6   4   6  1   
  7   4  26  1   
  8   4  27  1   
  9   5   7  ar  
 10   5   8  ar  
 11   6   9  1   
 12   6  10  1   
 13   7  11  1   
 14   7  12  ar  
 15   8  13  ar  
 16   8  28  1   
 17   9  14  1   
 18   9  29  1   
 19   9  30  1   
 20  10  15  1   
 21  10  31  1   
 22  10  32  1   
 23  11  16  1   
 24  12  17  ar  
 25  12  33  1   
 26  13  17  ar  
 27  13  34  1   
 28  14  18  1   
 29  14  35  1   
 30  14  36  1   
 31  15  18  1   
 32  15  37  1   
 33  15  38  1   
 34  16  39  1   
 35  16  40  1   
 36  16  41  1   
 37  17  19  1   
 38  18  20  1   
 39  18  21  1   
 40  19  22  1   
 41  20  23  1   
 42  21  24  1   
 43  22  42  1   
 44  22  43  1   
 45  22  44  1   
 46  23  24  1   
 47  23  45  1   
 48  23  46  1   
 49  24  47  1   
 50  24  48  1   
@<TRIPOS>SUBSTRUCTURE
  1 ****   3 GROUP 4 **** **** 0

# MOE 2024.06 (io_trps.svl 2023.06)
