@<TRIPOS>MOLECULE
NONAME
47 50 1 0 0 
SMALL
USER_CHARGES


@<TRIPOS>ATOM
  1 S        0.7850    -0.3120    -1.5410 S.3   1 <1>  -0.3710 
  2 C        1.2840     1.3260    -1.0400 C.2   1 <1>   0.5300 
  3 C        2.3460    -1.2610    -1.3080 C.3   1 <1>   0.2140 
  4 N        2.3750     1.8500    -1.3610 N.2   1 <1>  -0.6960 
  5 C        0.3590     2.1110    -0.1340 C.3   1 <1>   0.3370 
  6 C        2.7020    -1.1940     0.1700 C.ar  1 <1>  -0.1440 
  7 C        2.4850     3.1700    -0.7540 C.3   1 <1>   0.2460 
  8 C       -1.0630     2.2690    -0.6940 C.2   1 <1>  -0.2880 
  9 C        0.3130     1.4990     1.2730 C.2   1 <1>  -0.2880 
 10 C        1.0980     3.4500    -0.1220 C.3   1 <1>  -0.1600 
 11 C        3.8420    -0.5230     0.5840 C.ar  1 <1>  -0.1500 
 12 C        1.8810    -1.7860     1.1180 C.ar  1 <1>  -0.1500 
 13 C        2.8060     4.2000    -1.8610 C.3   1 <1>  -0.1600 
 14 C        3.6050     3.0940     0.3120 C.3   1 <1>  -0.1600 
 15 C       -2.1690     1.9390     0.0020 C.2   1 <1>  -0.1360 
 16 C       -0.8360     1.1930     1.9080 C.2   1 <1>  -0.1360 
 17 C        4.1580    -0.4420     1.9290 C.ar  1 <1>  -0.1500 
 18 C        2.1950    -1.7060     2.4630 C.ar  1 <1>  -0.1500 
 19 C        4.3150     4.3260    -2.1090 C.3   1 <1>  -0.1600 
 20 C        4.3500     4.4270     0.4660 C.3   1 <1>  -0.1600 
 21 C       -2.1380     1.4010     1.3360 C.2   1 <1>   0.5410 
 22 C        3.3340    -1.0330     2.8700 C.ar  1 <1>  -0.1500 
 23 C        5.0450     4.8310    -0.8490 C.3   1 <1>  -0.1600 
 24 O       -3.1500     1.1400     1.9410 O.2   1 <1>  -0.5700 
 25 H        3.0960    -0.8030    -1.9290 H     1 <1>   0.0800 
 26 H        2.1620    -2.2710    -1.6270 H     1 <1>   0.0800 
 27 H       -1.0930     2.6620    -1.6960 H     1 <1>   0.1500 
 28 H        1.2850     1.3250     1.7020 H     1 <1>   0.1500 
 29 H        1.1780     3.8610     0.8690 H     1 <1>   0.0800 
 30 H        0.5610     4.1630    -0.7210 H     1 <1>   0.0800 
 31 H        4.4850    -0.0560    -0.1430 H     1 <1>   0.1500 
 32 H        0.9900    -2.3070     0.8100 H     1 <1>   0.1500 
 33 H        2.4470     5.1710    -1.5670 H     1 <1>   0.0800 
 34 H        2.3010     3.9310    -2.7720 H     1 <1>   0.0800 
 35 H        4.3310     2.3570     0.0140 H     1 <1>   0.0800 
 36 H        3.2080     2.7860     1.2610 H     1 <1>   0.0800 
 37 H       -3.1570     2.0560    -0.4030 H     1 <1>   0.1500 
 38 H       -0.8480     0.7620     2.8920 H     1 <1>   0.1500 
 39 H        5.0440     0.0820     2.2410 H     1 <1>   0.1500 
 40 H        1.5530    -2.1680     3.1930 H     1 <1>   0.1500 
 41 H        4.5040     4.9930    -2.9320 H     1 <1>   0.0800 
 42 H        4.6980     3.3560    -2.3800 H     1 <1>   0.0800 
 43 H        5.0820     4.3530     1.2510 H     1 <1>   0.0800 
 44 H        3.6450     5.1910     0.7480 H     1 <1>   0.0800 
 45 H        3.5790    -0.9720     3.9160 H     1 <1>   0.1500 
 46 H        5.1170     5.9050    -0.8820 H     1 <1>   0.0800 
 47 H        6.0480     4.4410    -0.8590 H     1 <1>   0.0800 
@<TRIPOS>BOND
  1   1   2  1   
  2   1   3  1   
  3   2   4  2   
  4   2   5  1   
  5   3   6  1   
  6   3  25  1   
  7   3  26  1   
  8   4   7  1   
  9   5   8  1   
 10   5   9  1   
 11   5  10  1   
 12   6  11  ar  
 13   6  12  ar  
 14   7  10  1   
 15   7  13  1   
 16   7  14  1   
 17   8  15  2   
 18   8  27  1   
 19   9  16  2   
 20   9  28  1   
 21  10  29  1   
 22  10  30  1   
 23  11  17  ar  
 24  11  31  1   
 25  12  18  ar  
 26  12  32  1   
 27  13  19  1   
 28  13  33  1   
 29  13  34  1   
 30  14  20  1   
 31  14  35  1   
 32  14  36  1   
 33  15  21  1   
 34  15  37  1   
 35  16  21  1   
 36  16  38  1   
 37  17  22  ar  
 38  17  39  1   
 39  18  22  ar  
 40  18  40  1   
 41  19  23  1   
 42  19  41  1   
 43  19  42  1   
 44  20  23  1   
 45  20  43  1   
 46  20  44  1   
 47  21  24  2   
 48  22  45  1   
 49  23  46  1   
 50  23  47  1   
@<TRIPOS>SUBSTRUCTURE
  1 ****   2 GROUP 4 **** **** 0

# MOE 2024.06 (io_trps.svl 2023.06)
