@<TRIPOS>MOLECULE
NONAME
35 36 1 0 0 
SMALL
USER_CHARGES


@<TRIPOS>ATOM
  1 O       -8.0310    -1.0630     0.8170 O.3   1 <1>  -0.5600 
  2 C       -7.4310    -0.2230    -0.1160 C.3   1 <1>   0.2800 
  3 C       -7.8980    -2.4430     0.6810 C.3   1 <1>   0.1200 
  4 C       -5.9220    -0.4980    -0.1140 C.3   1 <1>  -0.1600 
  5 C       -8.0820    -0.4190    -1.4930 C.3   1 <1>  -0.2400 
  6 C       -7.7090     1.1980     0.3720 C.3   1 <1>  -0.2400 
  7 C       -6.4150    -2.8100     0.7330 C.3   1 <1>  -0.1600 
  8 C       -5.6370    -1.9860    -0.2940 C.3   1 <1>   0.4230 
  9 N       -4.1860    -2.2030    -0.1290 N.4   1 <1>  -0.9060 
 10 C       -3.7120    -3.5480    -0.5170 C.3   1 <1>   0.5240 
 11 C       -2.2070    -3.5970    -0.3700 C.2   1 <1>  -0.1810 
 12 C       -1.3330    -2.7200     0.1790 C.2   1 <1>  -0.0100 
 13 C       -1.4180    -4.6650    -0.8260 C.2   1 <1>  -0.1500 
 14 O       -0.1010    -3.1710     0.0870 O.3   1 <1>  -0.2800 
 15 C       -0.1460    -4.3400    -0.5150 C.2   1 <1>  -0.0100 
 16 H       -8.3650    -2.7560    -0.2370 H     1 <1>   0.0800 
 17 H       -8.4280    -2.9000     1.5010 H     1 <1>   0.0800 
 18 H       -5.5200    -0.1600     0.8250 H     1 <1>   0.0800 
 19 H       -5.4640     0.0690    -0.9040 H     1 <1>   0.0800 
 20 H       -7.8750    -1.3840    -1.9150 H     1 <1>   0.0800 
 21 H       -7.7170     0.3230    -2.1800 H     1 <1>   0.0800 
 22 H       -9.1480    -0.2960    -1.4120 H     1 <1>   0.0800 
 23 H       -7.3170     1.3420     1.3630 H     1 <1>   0.0800 
 24 H       -8.7690     1.3800     0.3950 H     1 <1>   0.0800 
 25 H       -7.2580     1.9200    -0.2840 H     1 <1>   0.0800 
 26 H       -6.3230    -3.8620     0.5350 H     1 <1>   0.0800 
 27 H       -6.0610    -2.6120     1.7300 H     1 <1>   0.0800 
 28 H       -5.9440    -2.2770    -1.2860 H     1 <1>   0.0800 
 29 H       -3.9280    -2.0370     0.8490 H     1 <1>   0.4500 
 30 H       -3.6690    -1.5190    -0.6930 H     1 <1>   0.4500 
 31 H       -3.9770    -3.7520    -1.5420 H     1 <1>   0.0800 
 32 H       -4.1580    -4.3020     0.1120 H     1 <1>   0.0800 
 33 H       -1.4710    -1.7640     0.6560 H     1 <1>   0.1500 
 34 H       -1.7610    -5.5580    -1.3200 H     1 <1>   0.1500 
 35 H        0.7760    -4.8720    -0.6820 H     1 <1>   0.1500 
@<TRIPOS>BOND
  1   1   2  1   
  2   1   3  1   
  3   2   4  1   
  4   2   5  1   
  5   2   6  1   
  6   3   7  1   
  7   3  16  1   
  8   3  17  1   
  9   4   8  1   
 10   4  18  1   
 11   4  19  1   
 12   5  20  1   
 13   5  21  1   
 14   5  22  1   
 15   6  23  1   
 16   6  24  1   
 17   6  25  1   
 18   7   8  1   
 19   7  26  1   
 20   7  27  1   
 21   8   9  1   
 22   8  28  1   
 23   9  10  1   
 24   9  29  1   
 25   9  30  1   
 26  10  11  1   
 27  10  31  1   
 28  10  32  1   
 29  11  12  2   
 30  11  13  1   
 31  12  14  1   
 32  12  33  1   
 33  13  15  2   
 34  13  34  1   
 35  14  15  1   
 36  15  35  1   
@<TRIPOS>SUBSTRUCTURE
  1 ****   9 GROUP 4 **** **** 0

# MOE 2024.06 (io_trps.svl 2023.06)
