@<TRIPOS>MOLECULE
NONAME
30 33 1 0 0 
SMALL
USER_CHARGES


@<TRIPOS>ATOM
  1 O        0.1080     0.5750     0.4190 O.2   1 <1>  -0.5700 
  2 C       -0.3140     1.5900    -0.0740 C.2   1 <1>   0.5690 
  3 N        0.3820     2.7410    -0.2890 N.am  1 <1>  -0.2370 
  4 C       -1.7460     1.7260    -0.5360 C.3   1 <1>  -0.0190 
  5 C        1.7540     2.8690    -0.1370 C.ar  1 <1>   0.4270 
  6 C       -0.4280     3.7030    -0.8130 C.2   1 <1>   0.5690 
  7 C       -1.8240     3.1720    -1.0420 C.3   1 <1>  -0.0190 
  8 C       -2.7170     1.7690     0.6460 C.3   1 <1>   0.2000 
  9 N        2.5030     2.5430    -1.1850 N.ar  1 <1>  -0.6200 
 10 C        2.2750     3.3200     1.0720 C.ar  1 <1>  -0.1500 
 11 O       -0.1230     4.8390    -1.0720 O.2   1 <1>  -0.5700 
 12 C       -2.8260     3.7790    -0.0580 C.3   1 <1>   0.2000 
 13 O       -2.5380     3.0650     1.0880 O.3   1 <1>  -0.5600 
 14 C       -4.1640     1.8340     0.1470 C.3   1 <1>  -0.1600 
 15 C        3.8090     2.6720    -1.0190 C.ar  1 <1>   0.1600 
 16 C        3.6360     3.4490     1.2290 C.ar  1 <1>  -0.1500 
 17 C       -4.2420     3.2800    -0.3590 C.3   1 <1>  -0.1600 
 18 C        4.4180     3.1120     0.1440 C.ar  1 <1>  -0.1500 
 19 H       -1.9920     0.9820    -1.2720 H     1 <1>   0.0800 
 20 H       -2.1160     3.2690    -2.0710 H     1 <1>   0.0800 
 21 H       -2.5280     1.0510     1.4270 H     1 <1>   0.0800 
 22 H        1.6060     3.5650     1.8770 H     1 <1>   0.1500 
 23 H       -2.7330     4.8420     0.1010 H     1 <1>   0.0800 
 24 H       -4.8410     1.6770     0.9680 H     1 <1>   0.0800 
 25 H       -4.3600     1.1080    -0.6230 H     1 <1>   0.0800 
 26 H        4.4310     2.4130    -1.8580 H     1 <1>   0.1500 
 27 H        4.0690     3.7950     2.1520 H     1 <1>   0.1500 
 28 H       -4.4810     3.3470    -1.4060 H     1 <1>   0.0800 
 29 H       -4.9590     3.8470     0.2090 H     1 <1>   0.0800 
 30 H        5.4890     3.1880     0.1970 H     1 <1>   0.1500 
@<TRIPOS>BOND
  1   1   2  2   
  2   2   3  am  
  3   2   4  1   
  4   3   5  1   
  5   3   6  am  
  6   4   7  1   
  7   4   8  1   
  8   4  19  1   
  9   5   9  ar  
 10   5  10  ar  
 11   6   7  1   
 12   6  11  2   
 13   7  12  1   
 14   7  20  1   
 15   8  13  1   
 16   8  14  1   
 17   8  21  1   
 18   9  15  ar  
 19  10  16  ar  
 20  10  22  1   
 21  12  13  1   
 22  12  17  1   
 23  12  23  1   
 24  14  17  1   
 25  14  24  1   
 26  14  25  1   
 27  15  18  ar  
 28  15  26  1   
 29  16  18  ar  
 30  16  27  1   
 31  17  28  1   
 32  17  29  1   
 33  18  30  1   
@<TRIPOS>SUBSTRUCTURE
  1 ****   3 GROUP 4 **** **** 0

# MOE 2024.06 (io_trps.svl 2023.06)
