@<TRIPOS>MOLECULE
NONAME
29 29 1 0 0 
SMALL
USER_CHARGES


@<TRIPOS>ATOM
  1 CL      -0.0670    -0.1120    -0.0470 Cl    1 <1>  -0.1770 
  2 C        1.6660    -0.3770     0.0140 C.ar  1 <1>   0.1770 
  3 C        2.1590    -1.6670    -0.1350 C.ar  1 <1>  -0.1440 
  4 C        2.5100     0.7090     0.2130 C.ar  1 <1>  -0.1440 
  5 C        3.5300    -1.8640    -0.0850 C.ar  1 <1>  -0.1500 
  6 C        1.2250    -2.8490    -0.3500 C.3   1 <1>  -0.0960 
  7 C        3.8770     0.4900     0.2610 C.ar  1 <1>  -0.1500 
  8 C        1.9590     2.1180     0.3750 C.3   1 <1>  -0.0960 
  9 C        4.3900    -0.7930     0.1060 C.ar  1 <1>   0.0830 
 10 O        5.7210    -1.0620     0.1620 O.3   1 <1>  -0.2330 
 11 C        6.7130    -0.3140    -0.3460 C.2   1 <1>   0.7800 
 12 O        6.4620     0.6580    -1.0330 O.2   1 <1>  -0.5700 
 13 N        8.0070    -0.6940    -0.0640 N.am  1 <1>  -0.6600 
 14 C        9.1780     0.0490    -0.6090 C.3   1 <1>   0.0600 
 15 C        8.3590    -1.8630     0.7900 C.3   1 <1>   0.0600 
 16 H        3.9450    -2.8490    -0.1960 H     1 <1>   0.1500 
 17 H        0.5510    -2.9410     0.4830 H     1 <1>   0.0800 
 18 H        1.7770    -3.7670    -0.4450 H     1 <1>   0.0800 
 19 H        0.6500    -2.7030    -1.2470 H     1 <1>   0.0800 
 20 H        4.5470     1.3160     0.4200 H     1 <1>   0.1500 
 21 H        1.3130     2.1640     1.2330 H     1 <1>   0.0800 
 22 H        1.3960     2.3940    -0.4990 H     1 <1>   0.0800 
 23 H        2.7530     2.8310     0.5060 H     1 <1>   0.0800 
 24 H        8.8590     0.8670    -1.2330 H     1 <1>   0.0800 
 25 H        9.7860    -0.6140    -1.2000 H     1 <1>   0.0800 
 26 H        9.7660     0.4450     0.2000 H     1 <1>   0.0800 
 27 H        7.4810    -2.3260     1.2040 H     1 <1>   0.0800 
 28 H        8.9890    -1.5410     1.6010 H     1 <1>   0.0800 
 29 H        8.8880    -2.5930     0.2020 H     1 <1>   0.0800 
@<TRIPOS>BOND
  1   1   2  1   
  2   2   3  ar  
  3   2   4  ar  
  4   3   5  ar  
  5   3   6  1   
  6   4   7  ar  
  7   4   8  1   
  8   5   9  ar  
  9   5  16  1   
 10   6  17  1   
 11   6  18  1   
 12   6  19  1   
 13   7   9  ar  
 14   7  20  1   
 15   8  21  1   
 16   8  22  1   
 17   8  23  1   
 18   9  10  1   
 19  10  11  1   
 20  11  12  2   
 21  11  13  am  
 22  13  14  1   
 23  13  15  1   
 24  14  24  1   
 25  14  25  1   
 26  14  26  1   
 27  15  27  1   
 28  15  28  1   
 29  15  29  1   
@<TRIPOS>SUBSTRUCTURE
  1 ****   9 GROUP 4 **** **** 0

# MOE 2024.06 (io_trps.svl 2023.06)
