@<TRIPOS>MOLECULE
NONAME
44 46 1 0 0 
SMALL
USER_CHARGES


@<TRIPOS>ATOM
  1 O       -1.0320     0.7250    -3.3770 O.2   1 <1>  -0.5700 
  2 C       -0.3740     1.1060    -2.4390 C.2   1 <1>   0.5690 
  3 N       -0.8600     1.3220    -1.1810 N.am  1 <1>  -0.5470 
  4 C        1.1210     1.3710    -2.6340 C.3   1 <1>   0.1710 
  5 C       -2.1250     1.1790    -0.5940 C.ar  1 <1>   0.1170 
  6 N        1.9060     1.3400    -1.3610 N.3   1 <1>  -0.8100 
  7 C       -2.2320     1.3210     0.7830 C.ar  1 <1>  -0.1500 
  8 C       -3.2790     0.9020    -1.3210 C.ar  1 <1>  -0.1500 
  9 C        3.2060     2.0050    -1.5440 C.3   1 <1>   0.1100 
 10 C        2.0910    -0.0500    -0.8990 C.3   1 <1>   0.1100 
 11 C       -3.4490     1.1900     1.4290 C.ar  1 <1>   0.0830 
 12 C       -4.5010     0.7690    -0.6870 C.ar  1 <1>  -0.1500 
 13 C        3.9360     2.0860    -0.2030 C.3   1 <1>  -0.1600 
 14 C        2.7690    -0.0500     0.4710 C.3   1 <1>  -0.1600 
 15 O       -3.4440     1.3470     2.7770 O.3   1 <1>  -0.3630 
 16 C       -4.5930     0.9110     0.6860 C.ar  1 <1>  -0.1500 
 17 C        4.1010     0.6970     0.3970 C.3   1 <1>   0.5600 
 18 C       -4.6310     1.2360     3.5300 C.3   1 <1>   0.0400 
 19 O        4.6740     0.8060     1.6550 O.3   1 <1>  -0.5600 
 20 O        5.0170    -0.0230    -0.3640 O.3   1 <1>  -0.5600 
 21 C        5.5030    -0.2770     1.8660 C.3   1 <1>   0.1200 
 22 C        5.8000    -0.7980     0.4730 C.3   1 <1>   0.1200 
 23 H       -0.0980     1.5820    -0.5460 H     1 <1>   0.3700 
 24 H        1.2060     2.3440    -3.0820 H     1 <1>   0.0800 
 25 H        1.5160     0.6520    -3.3300 H     1 <1>   0.0800 
 26 H       -1.3600     1.5370     1.3710 H     1 <1>   0.1500 
 27 H       -3.2290     0.7900    -2.3880 H     1 <1>   0.1500 
 28 H        3.0560     3.0040    -1.9190 H     1 <1>   0.0800 
 29 H        3.8050     1.4590    -2.2550 H     1 <1>   0.0800 
 30 H        2.6960    -0.5950    -1.6050 H     1 <1>   0.0800 
 31 H        1.1380    -0.5460    -0.8170 H     1 <1>   0.0800 
 32 H       -5.3820     0.5540    -1.2670 H     1 <1>   0.1500 
 33 H        3.3610     2.6960     0.4680 H     1 <1>   0.0800 
 34 H        4.9020     2.5360    -0.3340 H     1 <1>   0.0800 
 35 H        2.9240    -1.0590     0.8000 H     1 <1>   0.0800 
 36 H        2.1260     0.4450     1.1740 H     1 <1>   0.0800 
 37 H       -5.5520     0.8030     1.1530 H     1 <1>   0.1500 
 38 H       -4.3870     1.3970     4.5640 H     1 <1>   0.0800 
 39 H       -5.0360     0.2480     3.3990 H     1 <1>   0.0800 
 40 H       -5.3270     1.9860     3.1970 H     1 <1>   0.0800 
 41 H        4.9800    -1.0070     2.4580 H     1 <1>   0.0800 
 42 H        6.3910     0.0510     2.3770 H     1 <1>   0.0800 
 43 H        6.8330    -0.6610     0.2070 H     1 <1>   0.0800 
 44 H        5.5190    -1.8300     0.3660 H     1 <1>   0.0800 
@<TRIPOS>BOND
  1   1   2  2   
  2   2   3  am  
  3   2   4  1   
  4   3   5  1   
  5   3  23  1   
  6   4   6  1   
  7   4  24  1   
  8   4  25  1   
  9   5   7  ar  
 10   5   8  ar  
 11   6   9  1   
 12   6  10  1   
 13   7  11  ar  
 14   7  26  1   
 15   8  12  ar  
 16   8  27  1   
 17   9  13  1   
 18   9  28  1   
 19   9  29  1   
 20  10  14  1   
 21  10  30  1   
 22  10  31  1   
 23  11  15  1   
 24  11  16  ar  
 25  12  16  ar  
 26  12  32  1   
 27  13  17  1   
 28  13  33  1   
 29  13  34  1   
 30  14  17  1   
 31  14  35  1   
 32  14  36  1   
 33  15  18  1   
 34  16  37  1   
 35  17  19  1   
 36  17  20  1   
 37  18  38  1   
 38  18  39  1   
 39  18  40  1   
 40  19  21  1   
 41  20  22  1   
 42  21  22  1   
 43  21  41  1   
 44  21  42  1   
 45  22  43  1   
 46  22  44  1   
@<TRIPOS>SUBSTRUCTURE
  1 ****   3 GROUP 4 **** **** 0

# MOE 2024.06 (io_trps.svl 2023.06)
