@<TRIPOS>MOLECULE
NONAME
42 42 1 0 0 
SMALL
USER_CHARGES


@<TRIPOS>ATOM
  1 P        0.3700     0.3800    -0.5410 P.3   1 <1>   1.2420 
  2 O        1.0620     0.3580    -1.8290 O.2   1 <1>  -0.7000 
  3 O       -1.0370     1.1520    -0.5640 O.3   1 <1>  -0.5510 
  4 O        0.0210    -1.0840     0.0170 O.3   1 <1>  -0.5510 
  5 C        1.3180     1.1510     0.7220 C.3   1 <1>  -0.0990 
  6 C       -1.9130     1.1310     0.5090 C.3   1 <1>   0.1200 
  7 C       -0.3310    -2.1200    -0.8380 C.3   1 <1>   0.1200 
  8 C        2.6450     0.4630     0.8420 C.2   1 <1>   0.5690 
  9 C       -3.1740     1.8740     0.0870 C.3   1 <1>  -0.2400 
 10 C       -1.7880    -1.9740    -1.2750 C.3   1 <1>  -0.2400 
 11 O        3.0050     0.1290     1.9500 O.2   1 <1>  -0.5700 
 12 N        3.4170     0.2570    -0.2590 N.am  1 <1>  -0.4300 
 13 N        4.8340    -0.1350    -0.2250 N.am  1 <1>  -0.4300 
 14 C        5.8870     0.7270    -0.2940 C.2   1 <1>   0.6900 
 15 O        5.7150     1.8790    -0.6530 O.2   1 <1>  -0.5700 
 16 N        7.1270     0.2610     0.0570 N.am  1 <1>  -0.5470 
 17 C        8.3930     0.8390    -0.1070 C.ar  1 <1>   0.1170 
 18 C        9.4210     0.4580     0.7490 C.ar  1 <1>  -0.1500 
 19 C        8.6760     1.7650    -1.1060 C.ar  1 <1>  -0.1500 
 20 C       10.6930     0.9860     0.6140 C.ar  1 <1>  -0.1500 
 21 C        9.9450     2.2970    -1.2440 C.ar  1 <1>  -0.1500 
 22 C       10.9570     1.9080    -0.3840 C.ar  1 <1>  -0.1500 
 23 H        0.8240     1.1030     1.6710 H     1 <1>   0.0800 
 24 H        1.5020     2.1820     0.4950 H     1 <1>   0.0800 
 25 H       -1.4510     1.6180     1.3510 H     1 <1>   0.0800 
 26 H       -2.1410     0.1080     0.7580 H     1 <1>   0.0800 
 27 H       -0.2040    -3.0410    -0.2960 H     1 <1>   0.0800 
 28 H        0.3360    -2.1210    -1.6850 H     1 <1>   0.0800 
 29 H       -2.9380     2.8910    -0.1690 H     1 <1>   0.0800 
 30 H       -3.8820     1.8790     0.8960 H     1 <1>   0.0800 
 31 H       -3.6240     1.3860    -0.7590 H     1 <1>   0.0800 
 32 H       -2.4370    -1.9590    -0.4190 H     1 <1>   0.0800 
 33 H       -2.0610    -2.8140    -1.8890 H     1 <1>   0.0800 
 34 H       -1.9270    -1.0800    -1.8570 H     1 <1>   0.0800 
 35 H        3.0290     0.4690    -1.1950 H     1 <1>   0.3700 
 36 H        5.0140    -1.1210    -0.0310 H     1 <1>   0.3700 
 37 H        7.1050    -0.5510     0.6640 H     1 <1>   0.3700 
 38 H        9.2290    -0.2540     1.5300 H     1 <1>   0.1500 
 39 H        7.9000     2.0750    -1.7840 H     1 <1>   0.1500 
 40 H       11.4780     0.6830     1.2850 H     1 <1>   0.1500 
 41 H       10.1440     3.0140    -2.0210 H     1 <1>   0.1500 
 42 H       11.9440     2.3220    -0.4910 H     1 <1>   0.1500 
@<TRIPOS>BOND
  1   1   2  2   
  2   1   3  1   
  3   1   4  1   
  4   1   5  1   
  5   3   6  1   
  6   4   7  1   
  7   5   8  1   
  8   5  23  1   
  9   5  24  1   
 10   6   9  1   
 11   6  25  1   
 12   6  26  1   
 13   7  10  1   
 14   7  27  1   
 15   7  28  1   
 16   8  11  2   
 17   8  12  am  
 18   9  29  1   
 19   9  30  1   
 20   9  31  1   
 21  10  32  1   
 22  10  33  1   
 23  10  34  1   
 24  12  13  1   
 25  12  35  1   
 26  13  14  am  
 27  13  36  1   
 28  14  15  2   
 29  14  16  am  
 30  16  17  1   
 31  16  37  1   
 32  17  18  ar  
 33  17  19  ar  
 34  18  20  ar  
 35  18  38  1   
 36  19  21  ar  
 37  19  39  1   
 38  20  22  ar  
 39  20  40  1   
 40  21  22  ar  
 41  21  41  1   
 42  22  42  1   
@<TRIPOS>SUBSTRUCTURE
  1 ****  12 GROUP 4 **** **** 0

# MOE 2024.06 (io_trps.svl 2023.06)
