@<TRIPOS>MOLECULE
9667
27 27 1 0 0 
SMALL
USER_CHARGES


@<TRIPOS>ATOM
  1 CL      -0.0200     0.1350     0.7390 Cl    1 <1>  -0.1770 
  2 C        1.4800    -0.7310     0.4660 C.ar  1 <1>   0.1770 
  3 C        1.4370    -2.0820     0.1150 C.ar  1 <1>   0.1000 
  4 C        2.6680    -0.0560     0.6150 C.ar  1 <1>  -0.1500 
  5 N        0.2440    -2.7710    -0.0310 N.pl3 1 <1>  -0.9000 
  6 C        2.6460    -2.7280    -0.0940 C.ar  1 <1>  -0.1500 
  7 C        3.8930    -0.7030     0.4220 C.ar  1 <1>   0.0860 
  8 C        3.8580    -2.0570     0.0470 C.ar  1 <1>   0.0830 
  9 C        5.1210     0.0280     0.6110 C.2   1 <1>   0.6340 
 10 O        5.0430    -2.6730    -0.1900 O.3   1 <1>  -0.3630 
 11 O        6.0870    -0.3890     1.2200 O.2   1 <1>  -0.5700 
 12 O        5.1680     1.2700     0.1130 O.3   1 <1>  -0.4300 
 13 C        5.1530    -4.0480    -0.4830 C.3   1 <1>   0.0400 
 14 C        6.3180     2.0740     0.2520 C.3   1 <1>   0.1200 
 15 C        6.0420     3.4150    -0.4220 C.3   1 <1>  -0.2400 
 16 H        2.6520     0.9840     0.8880 H     1 <1>   0.1500 
 17 H        0.2250    -3.7870     0.0940 H     1 <1>   0.4000 
 18 H       -0.6170    -2.3040     0.2810 H     1 <1>   0.4000 
 19 H        2.6120    -3.7600    -0.3800 H     1 <1>   0.1500 
 20 H        6.1970    -4.2830    -0.5810 H     1 <1>   0.0800 
 21 H        4.6440    -4.2510    -1.4090 H     1 <1>   0.0800 
 22 H        4.7270    -4.6130     0.3270 H     1 <1>   0.0800 
 23 H        7.1450     1.5680    -0.2170 H     1 <1>   0.0800 
 24 H        6.5210     2.2020     1.3020 H     1 <1>   0.0800 
 25 H        5.8290     3.2670    -1.4650 H     1 <1>   0.0800 
 26 H        6.9050     4.0490    -0.3330 H     1 <1>   0.0800 
 27 H        5.2080     3.9020     0.0510 H     1 <1>   0.0800 
@<TRIPOS>BOND
  1   1   2  1   
  2   2   3  ar  
  3   2   4  ar  
  4   3   5  1   
  5   3   6  ar  
  6   4   7  ar  
  7   4  16  1   
  8   5  17  1   
  9   5  18  1   
 10   6   8  ar  
 11   6  19  1   
 12   7   8  ar  
 13   7   9  1   
 14   8  10  1   
 15   9  11  2   
 16   9  12  1   
 17  10  13  1   
 18  12  14  1   
 19  13  20  1   
 20  13  21  1   
 21  13  22  1   
 22  14  15  1   
 23  14  23  1   
 24  14  24  1   
 25  15  25  1   
 26  15  26  1   
 27  15  27  1   
@<TRIPOS>SUBSTRUCTURE
  1 ****   7 GROUP 4 **** **** 0

# MOE 2024.06 (io_trps.svl 2023.06)
