@<TRIPOS>MOLECULE
NONAME
40 41 1 0 0 
SMALL
USER_CHARGES


@<TRIPOS>ATOM
  1 S       -0.3640     0.2800    -0.6870 S.3   1 <1>  -0.3320 
  2 C        0.5930     1.6170     0.0850 C.ar  1 <1>   0.1020 
  3 C        0.8020    -1.1250    -0.9740 C.3   1 <1>  -0.0100 
  4 C       -0.0780     2.8040     0.3880 C.ar  1 <1>   0.1170 
  5 C        1.9420     1.4570     0.3610 C.ar  1 <1>  -0.1500 
  6 N       -1.4480     2.9010     0.0810 N.am  1 <1>  -0.5470 
  7 C        0.6520     3.8310     0.9800 C.ar  1 <1>  -0.1500 
  8 C        2.6450     2.4930     0.9510 C.ar  1 <1>  -0.1500 
  9 C       -2.3860     3.8800     0.2590 C.2   1 <1>   0.5690 
 10 C        1.9990     3.6770     1.2580 C.ar  1 <1>  -0.1500 
 11 O       -2.1500     4.9460     0.7730 O.2   1 <1>  -0.5700 
 12 C       -3.8040     3.5710    -0.2240 C.3   1 <1>  -0.0190 
 13 C       -4.6020     4.8390    -0.5950 C.3   1 <1>  -0.1600 
 14 C       -4.5780     2.7550     0.8280 C.3   1 <1>  -0.1600 
 15 C       -6.0220     4.4990    -1.0510 C.3   1 <1>   0.1400 
 16 C       -6.0030     2.4380     0.3650 C.3   1 <1>   0.1400 
 17 N       -6.7050     3.7020     0.0070 N.am  1 <1>  -0.6600 
 18 C       -7.8620     4.0680     0.6460 C.2   1 <1>   0.5690 
 19 O       -8.3900     3.3680     1.4770 O.2   1 <1>  -0.5700 
 20 C       -8.5360     5.3830     0.3320 C.3   1 <1>  -0.1790 
 21 H        0.2450    -1.9200    -1.4370 H     1 <1>   0.0800 
 22 H        1.1890    -1.4370    -0.0200 H     1 <1>   0.0800 
 23 H        1.5860    -0.7800    -1.6240 H     1 <1>   0.0800 
 24 H        2.4590     0.5470     0.1300 H     1 <1>   0.1500 
 25 H       -1.7960     2.0440    -0.3520 H     1 <1>   0.3700 
 26 H        0.1770     4.7610     1.2300 H     1 <1>   0.1500 
 27 H        3.6930     2.3800     1.1700 H     1 <1>   0.1500 
 28 H        2.5450     4.4840     1.7170 H     1 <1>   0.1500 
 29 H       -3.7180     2.9740    -1.1140 H     1 <1>   0.0800 
 30 H       -4.0910     5.3690    -1.3800 H     1 <1>   0.0800 
 31 H       -4.6610     5.4960     0.2560 H     1 <1>   0.0800 
 32 H       -4.6300     3.3100     1.7500 H     1 <1>   0.0800 
 33 H       -4.0630     1.8340     1.0320 H     1 <1>   0.0800 
 34 H       -5.9860     3.9170    -1.9560 H     1 <1>   0.0800 
 35 H       -6.5550     5.4070    -1.2650 H     1 <1>   0.0800 
 36 H       -6.5270     1.9190     1.1500 H     1 <1>   0.0800 
 37 H       -5.9790     1.7950    -0.4980 H     1 <1>   0.0800 
 38 H       -8.8420     5.4000    -0.6960 H     1 <1>   0.0800 
 39 H       -7.8610     6.1940     0.5290 H     1 <1>   0.0800 
 40 H       -9.4050     5.5020     0.9520 H     1 <1>   0.0800 
@<TRIPOS>BOND
  1   1   2  1   
  2   1   3  1   
  3   2   4  ar  
  4   2   5  ar  
  5   3  21  1   
  6   3  22  1   
  7   3  23  1   
  8   4   6  1   
  9   4   7  ar  
 10   5   8  ar  
 11   5  24  1   
 12   6   9  am  
 13   6  25  1   
 14   7  10  ar  
 15   7  26  1   
 16   8  10  ar  
 17   8  27  1   
 18   9  11  2   
 19   9  12  1   
 20  10  28  1   
 21  12  13  1   
 22  12  14  1   
 23  12  29  1   
 24  13  15  1   
 25  13  30  1   
 26  13  31  1   
 27  14  16  1   
 28  14  32  1   
 29  14  33  1   
 30  15  17  1   
 31  15  34  1   
 32  15  35  1   
 33  16  17  1   
 34  16  36  1   
 35  16  37  1   
 36  17  18  am  
 37  18  19  2   
 38  18  20  1   
 39  20  38  1   
 40  20  39  1   
 41  20  40  1   
@<TRIPOS>SUBSTRUCTURE
  1 ****   9 GROUP 4 **** **** 0

# MOE 2024.06 (io_trps.svl 2023.06)
