@<TRIPOS>MOLECULE
NONAME
45 47 1 0 0 
SMALL
USER_CHARGES


@<TRIPOS>ATOM
  1 O       -0.4320    -0.2110    -0.2180 O.2   1 <1>  -0.5700 
  2 C       -0.4930    -1.4110    -0.1050 C.2   1 <1>   0.4950 
  3 C       -1.7040    -2.1210    -0.0780 C.2   1 <1>  -0.1240 
  4 C        0.8080    -2.1830     0.0530 C.3   1 <1>  -0.0990 
  5 C       -1.6780    -3.4500    -0.0660 C.2   1 <1>  -0.0620 
  6 C       -3.0160    -1.3610    -0.0730 C.3   1 <1>   0.1160 
  7 C        1.1270    -3.7570     0.0040 C.3   1 <1>   0.0000 
  8 O       -2.7890    -4.1940    -0.0430 O.3   1 <1>  -0.1530 
  9 C       -0.3940    -4.2560    -0.1050 C.3   1 <1>  -0.0220 
 10 C       -4.2170    -2.3000     0.0060 C.2   1 <1>  -0.1670 
 11 C        1.5940    -5.3000    -0.0240 C.3   1 <1>  -0.2400 
 12 C        2.6960    -3.4000     0.1070 C.3   1 <1>  -0.2400 
 13 C       -4.0330    -3.6540    -0.0060 C.2   1 <1>   0.1770 
 14 C       -5.4790    -1.6200     0.1370 C.ar  1 <1>   0.0280 
 15 N       -5.0430    -4.6160     0.0140 N.pl3 1 <1>  -0.8380 
 16 C       -6.3440    -1.9330     1.1850 C.ar  1 <1>  -0.1500 
 17 C       -5.8870    -0.6280    -0.7570 C.ar  1 <1>  -0.1500 
 18 C       -4.7730    -6.0010     0.4850 C.3   1 <1>   0.1290 
 19 C       -6.2310    -4.4720    -0.8710 C.3   1 <1>   0.1290 
 20 C       -7.5550    -1.2860     1.3430 C.ar  1 <1>  -0.1500 
 21 C       -7.0970     0.0240    -0.6050 C.ar  1 <1>  -0.1500 
 22 C       -7.9350    -0.3020     0.4460 C.ar  1 <1>  -0.1500 
 23 H        1.1320    -1.8230     1.0160 H     1 <1>   0.0800 
 24 H        1.3970    -1.6990    -0.7130 H     1 <1>   0.0800 
 25 H       -3.0700    -0.7670    -0.9670 H     1 <1>   0.0800 
 26 H       -3.0320    -0.6960     0.7730 H     1 <1>   0.0800 
 27 H       -0.5030    -4.7690    -1.0480 H     1 <1>   0.0800 
 28 H       -0.5720    -4.9580     0.6960 H     1 <1>   0.0800 
 29 H        0.9060    -6.0730    -0.3340 H     1 <1>   0.0800 
 30 H        1.8830    -5.6070     0.9690 H     1 <1>   0.0800 
 31 H        2.4160    -5.5030    -0.6950 H     1 <1>   0.0800 
 32 H        3.0110    -2.4170     0.4260 H     1 <1>   0.0800 
 33 H        3.1520    -3.5110    -0.8640 H     1 <1>   0.0800 
 34 H        3.2510    -4.0030     0.8110 H     1 <1>   0.0800 
 35 H       -6.0510    -2.7020     1.8780 H     1 <1>   0.1500 
 36 H       -5.2530    -0.3700    -1.5850 H     1 <1>   0.1500 
 37 H       -4.0310    -5.9870     1.2640 H     1 <1>   0.0800 
 38 H       -4.4150    -6.6010    -0.3330 H     1 <1>   0.0800 
 39 H       -5.6750    -6.4350     0.8800 H     1 <1>   0.0800 
 40 H       -6.1100    -3.6280    -1.5270 H     1 <1>   0.0800 
 41 H       -7.1120    -4.3230    -0.2710 H     1 <1>   0.0800 
 42 H       -6.3560    -5.3550    -1.4720 H     1 <1>   0.0800 
 43 H       -8.2020    -1.5470     2.1620 H     1 <1>   0.1500 
 44 H       -7.3890     0.7860    -1.3070 H     1 <1>   0.1500 
 45 H       -8.8760     0.2050     0.5660 H     1 <1>   0.1500 
@<TRIPOS>BOND
  1   1   2  2   
  2   2   3  1   
  3   2   4  1   
  4   3   5  2   
  5   3   6  1   
  6   4   7  1   
  7   4  23  1   
  8   4  24  1   
  9   5   8  1   
 10   5   9  1   
 11   6  10  1   
 12   6  25  1   
 13   6  26  1   
 14   7   9  1   
 15   7  11  1   
 16   7  12  1   
 17   8  13  1   
 18   9  27  1   
 19   9  28  1   
 20  10  13  2   
 21  10  14  1   
 22  11  29  1   
 23  11  30  1   
 24  11  31  1   
 25  12  32  1   
 26  12  33  1   
 27  12  34  1   
 28  13  15  1   
 29  14  16  ar  
 30  14  17  ar  
 31  15  18  1   
 32  15  19  1   
 33  16  20  ar  
 34  16  35  1   
 35  17  21  ar  
 36  17  36  1   
 37  18  37  1   
 38  18  38  1   
 39  18  39  1   
 40  19  40  1   
 41  19  41  1   
 42  19  42  1   
 43  20  22  ar  
 44  20  43  1   
 45  21  22  ar  
 46  21  44  1   
 47  22  45  1   
@<TRIPOS>SUBSTRUCTURE
  1 ****  10 GROUP 4 **** **** 0

# MOE 2024.06 (io_trps.svl 2023.06)
