@<TRIPOS>MOLECULE
NONAME
33 33 1 0 0 
SMALL
USER_CHARGES


@<TRIPOS>ATOM
  1 O       -1.3010     0.3470    -1.8290 O.3   1 <1>  -0.6500 
  2 N       -1.7530    -0.7680    -1.6550 N.2   1 <1>  -0.8000 
  3 C       -2.7660    -0.8380    -0.8130 C.2   1 <1>   0.3030 
  4 C       -3.3530     0.2510    -0.0910 C.ar  1 <1>   0.0860 
  5 C       -3.2810    -2.2780    -0.5610 C.3   1 <1>   0.3170 
  6 C       -4.7350     0.5060    -0.0710 C.ar  1 <1>  -0.1500 
  7 C       -2.5590     1.1260     0.6660 C.ar  1 <1>  -0.1500 
  8 N       -2.0700    -3.1690    -0.6210 N.4   1 <1>  -0.1220 
  9 C       -4.2370    -2.6790    -1.7050 C.3   1 <1>  -0.2400 
 10 C       -3.9980    -2.4800     0.7950 C.3   1 <1>  -0.2400 
 11 C       -5.2840     1.5210     0.6880 C.ar  1 <1>  -0.1500 
 12 C       -3.0970     2.1440     1.4260 C.ar  1 <1>  -0.1500 
 13 O       -2.3870    -4.5180    -0.6450 O.2   1 <1>  -0.7500 
 14 C       -1.0700    -2.9300     0.4480 C.3   1 <1>   0.0960 
 15 C       -4.4670     2.3410     1.4470 C.ar  1 <1>  -0.1500 
 16 C        0.2630    -3.6080     0.1210 C.3   1 <1>  -0.2400 
 17 H       -5.3800    -0.1040    -0.6720 H     1 <1>   0.1500 
 18 H       -1.4920     0.9810     0.6190 H     1 <1>   0.1500 
 19 H       -1.6230    -2.8640    -1.5060 H     1 <1>   0.3600 
 20 H       -3.7240    -2.5990    -2.6470 H     1 <1>   0.0800 
 21 H       -5.0920    -2.0350    -1.7350 H     1 <1>   0.0800 
 22 H       -4.5780    -3.6900    -1.5770 H     1 <1>   0.0800 
 23 H       -4.9580    -2.0030     0.7980 H     1 <1>   0.0800 
 24 H       -3.4150    -2.0710     1.5990 H     1 <1>   0.0800 
 25 H       -4.1550    -3.5300     0.9720 H     1 <1>   0.0800 
 26 H       -6.3480     1.6820     0.6850 H     1 <1>   0.1500 
 27 H       -2.4480     2.7870     1.9930 H     1 <1>   0.1500 
 28 H       -0.9090    -1.8680     0.5270 H     1 <1>   0.0800 
 29 H       -1.4650    -3.2980     1.3760 H     1 <1>   0.0800 
 30 H       -4.8900     3.1340     2.0390 H     1 <1>   0.1500 
 31 H        0.6510    -3.2200    -0.8040 H     1 <1>   0.0800 
 32 H        0.1270    -4.6720     0.0370 H     1 <1>   0.0800 
 33 H        0.9710    -3.4090     0.9030 H     1 <1>   0.0800 
@<TRIPOS>BOND
  1   1   2  1   
  2   2   3  2   
  3   3   4  1   
  4   3   5  1   
  5   4   6  ar  
  6   4   7  ar  
  7   5   8  1   
  8   5   9  1   
  9   5  10  1   
 10   6  11  ar  
 11   6  17  1   
 12   7  12  ar  
 13   7  18  1   
 14   8  13  2   
 15   8  14  1   
 16   8  19  1   
 17   9  20  1   
 18   9  21  1   
 19   9  22  1   
 20  10  23  1   
 21  10  24  1   
 22  10  25  1   
 23  11  15  ar  
 24  11  26  1   
 25  12  15  ar  
 26  12  27  1   
 27  14  16  1   
 28  14  28  1   
 29  14  29  1   
 30  15  30  1   
 31  16  31  1   
 32  16  32  1   
 33  16  33  1   
@<TRIPOS>SUBSTRUCTURE
  1 ****   3 GROUP 4 **** **** 0

# MOE 2024.06 (io_trps.svl 2023.06)
