@<TRIPOS>MOLECULE
NONAME
35 37 1 0 0 
SMALL
USER_CHARGES


@<TRIPOS>ATOM
  1 CL      -1.0350    -0.2020    -2.6160 Cl    1 <1>  -0.1770 
  2 C       -2.0260    -0.1310    -1.1810 C.ar  1 <1>   0.1770 
  3 C       -2.0230    -1.1920    -0.2800 C.ar  1 <1>   0.0860 
  4 C       -2.7910     1.0060    -0.9810 C.ar  1 <1>  -0.1500 
  5 C       -2.8310    -1.0370     0.8430 C.ar  1 <1>   0.1900 
  6 C       -1.2350    -2.3760    -0.5000 C.2   1 <1>   0.5440 
  7 C       -3.5880     1.1180     0.1480 C.ar  1 <1>  -0.1500 
  8 F       -2.8590    -1.9820     1.7420 F     1 <1>  -0.1900 
  9 C       -3.6070     0.0850     1.0710 C.ar  1 <1>  -0.1500 
 10 O       -1.7710    -3.3620    -0.9680 O.2   1 <1>  -0.5700 
 11 N        0.1120    -2.4110    -0.2030 N.am  1 <1>  -0.6600 
 12 C        0.8090    -1.2760     0.4770 C.3   1 <1>   0.1400 
 13 C        0.9420    -3.5960    -0.5830 C.3   1 <1>   0.1400 
 14 C        2.0690    -1.7700     1.1820 C.3   1 <1>  -0.1600 
 15 C        2.3480    -3.1460    -0.9740 C.3   1 <1>  -0.1600 
 16 C        3.0350    -2.4000     0.1790 C.3   1 <1>   0.5600 
 17 O        3.8840    -3.2550     0.8690 O.3   1 <1>  -0.5600 
 18 O        3.8540    -1.4050    -0.3330 O.3   1 <1>  -0.5600 
 19 C        5.1660    -3.1390     0.3620 C.3   1 <1>   0.1200 
 20 C        5.1070    -1.9370    -0.5600 C.3   1 <1>   0.1200 
 21 H       -2.7620     1.7990    -1.7080 H     1 <1>   0.1500 
 22 H       -4.1860     2.0000     0.3060 H     1 <1>   0.1500 
 23 H       -4.2140     0.1470     1.9570 H     1 <1>   0.1500 
 24 H        0.1550    -0.8240     1.2020 H     1 <1>   0.0800 
 25 H        1.0750    -0.5340    -0.2580 H     1 <1>   0.0800 
 26 H        0.4900    -4.1130    -1.4130 H     1 <1>   0.0800 
 27 H        0.9890    -4.2760     0.2510 H     1 <1>   0.0800 
 28 H        1.7820    -2.5010     1.9150 H     1 <1>   0.0800 
 29 H        2.5560    -0.9570     1.6890 H     1 <1>   0.0800 
 30 H        2.2560    -2.4910    -1.8220 H     1 <1>   0.0800 
 31 H        2.9300    -4.0000    -1.2660 H     1 <1>   0.0800 
 32 H        5.4220    -4.0400    -0.1690 H     1 <1>   0.0800 
 33 H        5.8480    -2.9810     1.1790 H     1 <1>   0.0800 
 34 H        5.8550    -1.2020    -0.3250 H     1 <1>   0.0800 
 35 H        5.1800    -2.2290    -1.5930 H     1 <1>   0.0800 
@<TRIPOS>BOND
  1   1   2  1   
  2   2   3  ar  
  3   2   4  ar  
  4   3   5  ar  
  5   3   6  1   
  6   4   7  ar  
  7   4  21  1   
  8   5   8  1   
  9   5   9  ar  
 10   6  10  2   
 11   6  11  am  
 12   7   9  ar  
 13   7  22  1   
 14   9  23  1   
 15  11  12  1   
 16  11  13  1   
 17  12  14  1   
 18  12  24  1   
 19  12  25  1   
 20  13  15  1   
 21  13  26  1   
 22  13  27  1   
 23  14  16  1   
 24  14  28  1   
 25  14  29  1   
 26  15  16  1   
 27  15  30  1   
 28  15  31  1   
 29  16  17  1   
 30  16  18  1   
 31  17  19  1   
 32  18  20  1   
 33  19  20  1   
 34  19  32  1   
 35  19  33  1   
 36  20  34  1   
 37  20  35  1   
@<TRIPOS>SUBSTRUCTURE
  1 ****  11 GROUP 4 **** **** 0

# MOE 2024.06 (io_trps.svl 2023.06)
