@<TRIPOS>MOLECULE
NONAME
47 48 1 0 0 
SMALL
USER_CHARGES


@<TRIPOS>ATOM
  1 F       -0.8030    -0.8460    -1.5880 F     1 <1>  -0.1900 
  2 C       -1.8740    -1.4710    -1.1570 C.ar  1 <1>   0.1900 
  3 C       -1.7280    -2.6770    -0.4650 C.ar  1 <1>   0.1000 
  4 C       -3.0980    -0.8990    -1.4110 C.ar  1 <1>  -0.1500 
  5 N       -0.5060    -3.2870    -0.1910 N.pl3 1 <1>  -0.8380 
  6 C       -2.9000    -3.2930    -0.0460 C.ar  1 <1>  -0.1500 
  7 C       -4.2710    -1.5140    -0.9690 C.ar  1 <1>   0.0860 
  8 C        0.3820    -2.5850     0.7830 C.3   1 <1>   0.2090 
  9 C        0.2090    -3.8710    -1.3660 C.3   1 <1>   0.2090 
 10 C       -4.1480    -2.7420    -0.2930 C.ar  1 <1>  -0.1430 
 11 C       -5.5270    -0.8630    -1.2390 C.2   1 <1>   0.4230 
 12 C        1.5670    -3.4810     1.2040 C.3   1 <1>   0.3430 
 13 C        1.3980    -4.7480    -0.9190 C.3   1 <1>   0.3430 
 14 C       -5.3750    -3.5230     0.1650 C.3   1 <1>  -0.0970 
 15 O       -5.8860    -0.5880    -2.3560 O.2   1 <1>  -0.5700 
 16 C       -6.4300    -0.4590    -0.0800 C.3   1 <1>  -0.0990 
 17 N        2.3340    -4.0240     0.0230 N.4   1 <1>  -0.9590 
 18 C       -6.6620     1.0590    -0.0280 C.3   1 <1>  -0.1600 
 19 C        3.4580    -4.8830     0.4760 C.3   1 <1>   0.3430 
 20 C       -7.5570     1.4480     1.1530 C.3   1 <1>  -0.2400 
 21 C        4.4290    -5.1100    -0.6760 C.3   1 <1>  -0.2400 
 22 H       -3.1570     0.0270    -1.9550 H     1 <1>   0.1500 
 23 H       -2.8150    -4.2280     0.4770 H     1 <1>   0.1500 
 24 H       -0.1910    -2.3200     1.6550 H     1 <1>   0.0800 
 25 H        0.7540    -1.6750     0.3450 H     1 <1>   0.0800 
 26 H        0.5620    -3.0800    -2.0050 H     1 <1>   0.0800 
 27 H       -0.4800    -4.4700    -1.9360 H     1 <1>   0.0800 
 28 H        1.1740    -4.2990     1.7840 H     1 <1>   0.0800 
 29 H        2.2250    -2.9120     1.8390 H     1 <1>   0.0800 
 30 H        1.9340    -5.0740    -1.7940 H     1 <1>   0.0800 
 31 H        1.0010    -5.6220    -0.4300 H     1 <1>   0.0800 
 32 H       -5.1360    -4.5640     0.2950 H     1 <1>   0.0800 
 33 H       -6.1610    -3.4600    -0.5670 H     1 <1>   0.0800 
 34 H       -5.7340    -3.1410     1.1030 H     1 <1>   0.0800 
 35 H       -5.9890    -0.7740     0.8470 H     1 <1>   0.0800 
 36 H       -7.3730    -0.9630    -0.1960 H     1 <1>   0.0800 
 37 H        2.7270    -3.2210    -0.4860 H     1 <1>   0.4500 
 38 H       -7.1260     1.3810    -0.9460 H     1 <1>   0.0800 
 39 H       -5.7160     1.5650     0.0580 H     1 <1>   0.0800 
 40 H        3.0840    -5.8270     0.8400 H     1 <1>   0.0800 
 41 H        3.9840    -4.3960     1.2820 H     1 <1>   0.0800 
 42 H       -8.5170     0.9700     1.0710 H     1 <1>   0.0800 
 43 H       -7.7070     2.5130     1.1630 H     1 <1>   0.0800 
 44 H       -7.1020     1.1580     2.0840 H     1 <1>   0.0800 
 45 H        3.9780    -5.6790    -1.4680 H     1 <1>   0.0800 
 46 H        5.2740    -5.6700    -0.3160 H     1 <1>   0.0800 
 47 H        4.7950    -4.1750    -1.0610 H     1 <1>   0.0800 
@<TRIPOS>BOND
  1   1   2  1   
  2   2   3  ar  
  3   2   4  ar  
  4   3   5  1   
  5   3   6  ar  
  6   4   7  ar  
  7   4  22  1   
  8   5   8  1   
  9   5   9  1   
 10   6  10  ar  
 11   6  23  1   
 12   7  10  ar  
 13   7  11  1   
 14   8  12  1   
 15   8  24  1   
 16   8  25  1   
 17   9  13  1   
 18   9  26  1   
 19   9  27  1   
 20  10  14  1   
 21  11  15  2   
 22  11  16  1   
 23  12  17  1   
 24  12  28  1   
 25  12  29  1   
 26  13  17  1   
 27  13  30  1   
 28  13  31  1   
 29  14  32  1   
 30  14  33  1   
 31  14  34  1   
 32  16  18  1   
 33  16  35  1   
 34  16  36  1   
 35  17  19  1   
 36  17  37  1   
 37  18  20  1   
 38  18  38  1   
 39  18  39  1   
 40  19  21  1   
 41  19  40  1   
 42  19  41  1   
 43  20  42  1   
 44  20  43  1   
 45  20  44  1   
 46  21  45  1   
 47  21  46  1   
 48  21  47  1   
@<TRIPOS>SUBSTRUCTURE
  1 ****   3 GROUP 4 **** **** 0

# MOE 2024.06 (io_trps.svl 2023.06)
