@<TRIPOS>MOLECULE
NONAME
42 43 1 0 0 
SMALL
USER_CHARGES


@<TRIPOS>ATOM
  1 S        0.1660     3.0560     0.9920 S.3   1 <1>  -0.4600 
  2 C       -1.4170     2.2050     1.2360 C.3   1 <1>   0.2140 
  3 C        1.2980     2.2230     2.1640 C.3   1 <1>   0.1310 
  4 C       -1.2840     0.7850     0.7140 C.ar  1 <1>  -0.1440 
  5 C        2.3430     1.3750     1.4530 C.2   1 <1>   0.5690 
  6 C       -1.2160    -0.2900     1.5860 C.ar  1 <1>  -0.1500 
  7 C       -1.2370     0.5540    -0.6520 C.ar  1 <1>  -0.1500 
  8 O        3.5050     1.5420     1.7400 O.2   1 <1>  -0.5700 
  9 N        1.9530     0.4360     0.5520 N.am  1 <1>  -0.7300 
 10 C       -1.1030    -1.5800     1.0950 C.ar  1 <1>  -0.1500 
 11 C       -1.1310    -0.7350    -1.1400 C.ar  1 <1>  -0.1500 
 12 C        2.8620    -0.4360    -0.2060 C.3   1 <1>   0.2200 
 13 C       -1.0600    -1.8090    -0.2700 C.ar  1 <1>  -0.1430 
 14 C        2.5490    -0.3050    -1.6990 C.3   1 <1>  -0.1600 
 15 C        2.6940    -1.8780     0.2820 C.3   1 <1>  -0.1600 
 16 C       -0.9410    -3.2230    -0.8090 C.3   1 <1>  -0.0970 
 17 C        3.3960    -1.2770    -2.5330 C.3   1 <1>  -0.1600 
 18 C        3.5360    -2.8530    -0.5540 C.3   1 <1>  -0.1600 
 19 C        3.2150    -2.7230    -2.0490 C.3   1 <1>  -0.1600 
 20 H       -2.1600     2.7530     0.6830 H     1 <1>   0.0800 
 21 H       -1.6480     2.2350     2.2850 H     1 <1>   0.0800 
 22 H        0.7090     1.6140     2.8220 H     1 <1>   0.0800 
 23 H        1.7830     2.9980     2.7280 H     1 <1>   0.0800 
 24 H       -1.2530    -0.1350     2.6490 H     1 <1>   0.1500 
 25 H       -1.2840     1.3810    -1.3400 H     1 <1>   0.1500 
 26 H        0.9550     0.3250     0.3340 H     1 <1>   0.3700 
 27 H       -1.0510    -2.4060     1.7830 H     1 <1>   0.1500 
 28 H       -1.1030    -0.8980    -2.2040 H     1 <1>   0.1500 
 29 H        3.8820    -0.1290    -0.0360 H     1 <1>   0.0800 
 30 H        2.7480     0.7040    -2.0150 H     1 <1>   0.0800 
 31 H        1.5100    -0.5170    -1.8680 H     1 <1>   0.0800 
 32 H        1.6600    -2.1600     0.2110 H     1 <1>   0.0800 
 33 H        2.9940    -1.9390     1.3120 H     1 <1>   0.0800 
 34 H       -1.9210    -3.6350    -0.9690 H     1 <1>   0.0800 
 35 H       -0.4110    -3.8490    -0.1130 H     1 <1>   0.0800 
 36 H       -0.4050    -3.2260    -1.7410 H     1 <1>   0.0800 
 37 H        4.4340    -1.0020    -2.4550 H     1 <1>   0.0800 
 38 H        3.1120    -1.2040    -3.5690 H     1 <1>   0.0800 
 39 H        3.3470    -3.8620    -0.2300 H     1 <1>   0.0800 
 40 H        4.5800    -2.6450    -0.3950 H     1 <1>   0.0800 
 41 H        3.8590    -3.3750    -2.6140 H     1 <1>   0.0800 
 42 H        2.1990    -3.0320    -2.2240 H     1 <1>   0.0800 
@<TRIPOS>BOND
  1   1   2  1   
  2   1   3  1   
  3   2   4  1   
  4   2  20  1   
  5   2  21  1   
  6   3   5  1   
  7   3  22  1   
  8   3  23  1   
  9   4   6  ar  
 10   4   7  ar  
 11   5   8  2   
 12   5   9  am  
 13   6  10  ar  
 14   6  24  1   
 15   7  11  ar  
 16   7  25  1   
 17   9  12  1   
 18   9  26  1   
 19  10  13  ar  
 20  10  27  1   
 21  11  13  ar  
 22  11  28  1   
 23  12  14  1   
 24  12  15  1   
 25  12  29  1   
 26  13  16  1   
 27  14  17  1   
 28  14  30  1   
 29  14  31  1   
 30  15  18  1   
 31  15  32  1   
 32  15  33  1   
 33  16  34  1   
 34  16  35  1   
 35  16  36  1   
 36  17  19  1   
 37  17  37  1   
 38  17  38  1   
 39  18  19  1   
 40  18  39  1   
 41  18  40  1   
 42  19  41  1   
 43  19  42  1   
@<TRIPOS>SUBSTRUCTURE
  1 ****   9 GROUP 4 **** **** 0

# MOE 2024.06 (io_trps.svl 2023.06)
