@<TRIPOS>MOLECULE
NONAME
44 45 1 0 0 
SMALL
USER_CHARGES


@<TRIPOS>ATOM
  1 S       -0.0120    -1.0210    -1.1930 S.o2  1 <1>   1.4470 
  2 O        0.3870    -1.8030    -2.3430 O.2   1 <1>  -0.6500 
  3 O       -0.0190     0.4220    -1.3090 O.2   1 <1>  -0.6500 
  4 N        1.0750    -1.3900     0.0530 N.am  1 <1>  -0.8490 
  5 C       -1.6090    -1.6110    -0.5370 C.ar  1 <1>  -0.0090 
  6 C        0.8640    -0.5630     1.2540 C.3   1 <1>   0.1960 
  7 C        2.4680    -1.2410    -0.3950 C.3   1 <1>   0.1960 
  8 C       -1.9390    -2.9640    -0.4130 C.ar  1 <1>  -0.1440 
  9 C       -2.5410    -0.6760    -0.1030 C.ar  1 <1>  -0.1500 
 10 C        1.8830    -0.9140     2.3520 C.3   1 <1>   0.1200 
 11 C        3.4550    -1.5670     0.7410 C.3   1 <1>   0.1200 
 12 C       -3.1650    -3.3340     0.1180 C.ar  1 <1>  -0.1500 
 13 C       -0.9820    -4.0690    -0.8450 C.3   1 <1>  -0.0960 
 14 C       -3.7760    -1.0230     0.4380 C.ar  1 <1>   0.0860 
 15 O        3.1900    -0.7810     1.8690 O.3   1 <1>  -0.5600 
 16 C       -4.0680    -2.3790     0.5390 C.ar  1 <1>  -0.1500 
 17 C       -4.7040    -0.0010     0.8830 C.2   1 <1>   0.5440 
 18 O       -4.2910     1.0210     1.3950 O.2   1 <1>  -0.5700 
 19 N       -6.0490    -0.1700     0.7220 N.am  1 <1>  -0.7300 
 20 C       -7.0840     0.7920     1.1170 C.3   1 <1>   0.2200 
 21 C       -8.1000     0.0630     1.9890 C.3   1 <1>  -0.2400 
 22 C       -7.7300     1.3430    -0.1480 C.3   1 <1>  -0.2400 
 23 H       -0.1290    -0.7240     1.6370 H     1 <1>   0.0800 
 24 H        0.9630     0.4830     1.0120 H     1 <1>   0.0800 
 25 H        2.6410    -0.2330    -0.7360 H     1 <1>   0.0800 
 26 H        2.6560    -1.9070    -1.2190 H     1 <1>   0.0800 
 27 H       -2.3080     0.3730    -0.1820 H     1 <1>   0.1500 
 28 H        1.7410    -1.9260     2.6890 H     1 <1>   0.0800 
 29 H        1.7730    -0.2490     3.1900 H     1 <1>   0.0800 
 30 H        4.4630    -1.3630     0.4280 H     1 <1>   0.0800 
 31 H        3.3790    -2.6040     1.0190 H     1 <1>   0.0800 
 32 H       -3.4220    -4.3750     0.2110 H     1 <1>   0.1500 
 33 H       -0.8840    -4.0750    -1.9160 H     1 <1>   0.0800 
 34 H       -1.3380    -5.0350    -0.5360 H     1 <1>   0.0800 
 35 H       -0.0100    -3.9210    -0.4080 H     1 <1>   0.0800 
 36 H       -5.0080    -2.6900     0.9610 H     1 <1>   0.1500 
 37 H       -6.3910    -0.9700     0.1930 H     1 <1>   0.3700 
 38 H       -6.6420     1.6000     1.6790 H     1 <1>   0.0800 
 39 H       -8.5610    -0.7450     1.4500 H     1 <1>   0.0800 
 40 H       -8.8680     0.7480     2.3010 H     1 <1>   0.0800 
 41 H       -7.6170    -0.3220     2.8690 H     1 <1>   0.0800 
 42 H       -8.1870     0.5570    -0.7220 H     1 <1>   0.0800 
 43 H       -6.9880     1.8390    -0.7480 H     1 <1>   0.0800 
 44 H       -8.4850     2.0620     0.1120 H     1 <1>   0.0800 
@<TRIPOS>BOND
  1   1   2  2   
  2   1   3  2   
  3   1   4  am  
  4   1   5  1   
  5   4   6  1   
  6   4   7  1   
  7   5   8  ar  
  8   5   9  ar  
  9   6  10  1   
 10   6  23  1   
 11   6  24  1   
 12   7  11  1   
 13   7  25  1   
 14   7  26  1   
 15   8  12  ar  
 16   8  13  1   
 17   9  14  ar  
 18   9  27  1   
 19  10  15  1   
 20  10  28  1   
 21  10  29  1   
 22  11  15  1   
 23  11  30  1   
 24  11  31  1   
 25  12  16  ar  
 26  12  32  1   
 27  13  33  1   
 28  13  34  1   
 29  13  35  1   
 30  14  16  ar  
 31  14  17  1   
 32  16  36  1   
 33  17  18  2   
 34  17  19  am  
 35  19  20  1   
 36  19  37  1   
 37  20  21  1   
 38  20  22  1   
 39  20  38  1   
 40  21  39  1   
 41  21  40  1   
 42  21  41  1   
 43  22  42  1   
 44  22  43  1   
 45  22  44  1   
@<TRIPOS>SUBSTRUCTURE
  1 ****   9 GROUP 4 **** **** 0

# MOE 2024.06 (io_trps.svl 2023.06)
