@<TRIPOS>MOLECULE
NONAME
42 43 1 0 0 
SMALL
USER_CHARGES


@<TRIPOS>ATOM
  1 S        0.0470    -0.0970     0.5340 S.o2  1 <1>   1.4470 
  2 O        0.4570    -0.0540     1.9200 O.2   1 <1>  -0.6500 
  3 O        0.1950     1.0690    -0.3070 O.2   1 <1>  -0.6500 
  4 N        1.0030    -1.2470    -0.2240 N.am  1 <1>  -0.9140 
  5 C       -1.6210    -0.7910     0.3930 C.ar  1 <1>  -0.0090 
  6 C        2.4000    -1.1460     0.1440 C.3   1 <1>   0.1960 
  7 C       -1.9450    -1.9990     1.0000 C.ar  1 <1>  -0.1500 
  8 C       -2.6190    -0.1450    -0.3280 C.ar  1 <1>  -0.1500 
  9 C        3.1870    -2.1230    -0.7180 C.3   1 <1>  -0.2400 
 10 C       -3.2130    -2.5400     0.8950 C.ar  1 <1>  -0.1500 
 11 C       -3.8890    -0.6840    -0.4370 C.ar  1 <1>  -0.1500 
 12 C       -4.2090    -1.8900     0.1760 C.ar  1 <1>   0.1170 
 13 N       -5.4750    -2.4790     0.0830 N.am  1 <1>  -0.5470 
 14 C       -6.7070    -1.9430    -0.1590 C.2   1 <1>   0.6900 
 15 O       -6.8700    -0.7380    -0.1970 O.2   1 <1>  -0.5700 
 16 N       -7.7710    -2.7930    -0.3270 N.am  1 <1>  -0.6600 
 17 C       -9.1700    -2.3000    -0.2100 C.3   1 <1>   0.1400 
 18 C       -7.6600    -4.1940    -0.8180 C.3   1 <1>   0.1400 
 19 C       -9.9610    -3.2200     0.7290 C.3   1 <1>  -0.1600 
 20 C       -8.4200    -5.1290     0.1290 C.3   1 <1>  -0.1600 
 21 C       -9.8830    -4.6900     0.2910 C.3   1 <1>  -0.1600 
 22 H        0.9410    -0.9930    -1.2080 H     1 <1>   0.4200 
 23 H        2.5220    -1.3960     1.1860 H     1 <1>   0.0800 
 24 H        2.7560    -0.1400    -0.0150 H     1 <1>   0.0800 
 25 H       -1.1880    -2.5180     1.5640 H     1 <1>   0.1500 
 26 H       -2.4040     0.7940    -0.8100 H     1 <1>   0.1500 
 27 H        2.8320    -3.1260    -0.5590 H     1 <1>   0.0800 
 28 H        4.2270    -2.0840    -0.4470 H     1 <1>   0.0800 
 29 H        3.0970    -1.8700    -1.7580 H     1 <1>   0.0800 
 30 H       -3.4310    -3.4730     1.3800 H     1 <1>   0.1500 
 31 H       -4.6360    -0.1590    -1.0050 H     1 <1>   0.1500 
 32 H       -5.5360    -3.4490     0.3710 H     1 <1>   0.3700 
 33 H       -9.6220    -2.2900    -1.1870 H     1 <1>   0.0800 
 34 H       -9.1870    -1.2950     0.1780 H     1 <1>   0.0800 
 35 H       -6.6320    -4.5020    -0.8950 H     1 <1>   0.0800 
 36 H       -8.0930    -4.2490    -1.8020 H     1 <1>   0.0800 
 37 H      -10.9880    -2.9020     0.7530 H     1 <1>   0.0800 
 38 H       -9.5640    -3.1160     1.7240 H     1 <1>   0.0800 
 39 H       -7.9330    -5.1300     1.0880 H     1 <1>   0.0800 
 40 H       -8.3870    -6.1320    -0.2580 H     1 <1>   0.0800 
 41 H      -10.3970    -4.8080    -0.6480 H     1 <1>   0.0800 
 42 H      -10.3730    -5.3130     1.0190 H     1 <1>   0.0800 
@<TRIPOS>BOND
  1   1   2  2   
  2   1   3  2   
  3   1   4  am  
  4   1   5  1   
  5   4   6  1   
  6   4  22  1   
  7   5   7  ar  
  8   5   8  ar  
  9   6   9  1   
 10   6  23  1   
 11   6  24  1   
 12   7  10  ar  
 13   7  25  1   
 14   8  11  ar  
 15   8  26  1   
 16   9  27  1   
 17   9  28  1   
 18   9  29  1   
 19  10  12  ar  
 20  10  30  1   
 21  11  12  ar  
 22  11  31  1   
 23  12  13  1   
 24  13  14  am  
 25  13  32  1   
 26  14  15  2   
 27  14  16  am  
 28  16  17  1   
 29  16  18  1   
 30  17  19  1   
 31  17  33  1   
 32  17  34  1   
 33  18  20  1   
 34  18  35  1   
 35  18  36  1   
 36  19  21  1   
 37  19  37  1   
 38  19  38  1   
 39  20  21  1   
 40  20  39  1   
 41  20  40  1   
 42  21  41  1   
 43  21  42  1   
@<TRIPOS>SUBSTRUCTURE
  1 ****  12 GROUP 4 **** **** 0

# MOE 2024.06 (io_trps.svl 2023.06)
