@<TRIPOS>MOLECULE
NONAME
26 28 1 0 0 
SMALL
USER_CHARGES


@<TRIPOS>ATOM
  1 O        0.3150     0.7710    -0.8980 O.2   1 <1>  -0.5700 
  2 C        0.4480     1.7700    -0.2450 C.2   1 <1>   0.5690 
  3 N        1.6100     2.3420     0.1850 N.am  1 <1>  -0.4900 
  4 C       -0.6610     2.6000     0.3200 C.3   1 <1>  -0.0190 
  5 C        1.3880     3.5950     0.6790 C.2   1 <1>   0.5690 
  6 C       -2.1150     2.9700    -0.0210 C.3   1 <1>   0.4180 
  7 C        0.0040     3.9730     0.2440 C.3   1 <1>  -0.0190 
  8 O        2.1680     4.2760     1.2850 O.2   1 <1>  -0.5700 
  9 O       -1.9860     4.2680    -0.5250 O.3   1 <1>  -0.5600 
 10 C       -2.7050     3.3690     1.3180 C.2   1 <1>  -0.2880 
 11 C       -2.9120     2.0180    -0.9340 C.3   1 <1>   0.1200 
 12 C       -1.2110     4.8710     0.4650 C.3   1 <1>   0.4180 
 13 C       -2.0980     4.5090     1.6450 C.2   1 <1>  -0.2880 
 14 O       -2.1930     1.6560    -2.0780 O.3   1 <1>  -0.6800 
 15 C       -1.0650     6.3580     0.1740 C.3   1 <1>  -0.2400 
 16 H        2.5260     1.9040     0.1270 H     1 <1>   0.3700 
 17 H       -0.6810     2.2550     1.3410 H     1 <1>   0.0800 
 18 H        0.2230     4.1970    -0.7910 H     1 <1>   0.0800 
 19 H       -3.4280     2.7560     1.8270 H     1 <1>   0.1500 
 20 H       -3.8250     2.4940    -1.2460 H     1 <1>   0.0800 
 21 H       -3.1530     1.1150    -0.4030 H     1 <1>   0.0800 
 22 H       -2.1540     5.1420     2.5130 H     1 <1>   0.1500 
 23 H       -1.3860     1.1350    -1.8510 H     1 <1>   0.4000 
 24 H       -0.4420     6.8120     0.9220 H     1 <1>   0.0800 
 25 H       -2.0300     6.8290     0.1940 H     1 <1>   0.0800 
 26 H       -0.6160     6.5100    -0.7910 H     1 <1>   0.0800 
@<TRIPOS>BOND
  1   1   2  2   
  2   2   3  am  
  3   2   4  1   
  4   3   5  am  
  5   3  16  1   
  6   4   6  1   
  7   4   7  1   
  8   4  17  1   
  9   5   7  1   
 10   5   8  2   
 11   6   9  1   
 12   6  10  1   
 13   6  11  1   
 14   7  12  1   
 15   7  18  1   
 16   9  12  1   
 17  10  13  2   
 18  10  19  1   
 19  11  14  1   
 20  11  20  1   
 21  11  21  1   
 22  12  13  1   
 23  12  15  1   
 24  13  22  1   
 25  14  23  1   
 26  15  24  1   
 27  15  25  1   
 28  15  26  1   
@<TRIPOS>SUBSTRUCTURE
  1 ****   4 GROUP 4 **** **** 0

# MOE 2024.06 (io_trps.svl 2023.06)
