@<TRIPOS>MOLECULE
NONAME
38 39 1 0 0 
SMALL
USER_CHARGES


@<TRIPOS>ATOM
  1 S        0.1940    -1.9460     0.3400 S.3   1 <1>  -0.2860 
  2 C       -1.4920    -1.3280     0.3210 C.2   1 <1>   0.2420 
  3 C        1.1390    -0.5070     1.0520 C.3   1 <1>   0.1310 
  4 N       -1.8150    -0.1370     0.6760 N.2   1 <1>  -0.3380 
  5 N       -2.5280    -2.0690    -0.0700 N.pl3 1 <1>   0.0480 
  6 C        2.6350    -0.7750     1.0710 C.2   1 <1>   0.5690 
  7 N       -3.1400    -0.0590     0.5170 N.2   1 <1>  -0.3380 
  8 C       -3.5440    -1.2040     0.0770 C.2   1 <1>   0.0060 
  9 C       -2.5290    -3.4680    -0.5410 C.3   1 <1>   0.0160 
 10 O        3.3030    -0.1850     1.8850 O.2   1 <1>  -0.5700 
 11 N        3.1470    -1.6650     0.1650 N.am  1 <1>  -0.5470 
 12 C       -4.9940    -1.5210    -0.2340 C.3   1 <1>  -0.0600 
 13 C        4.4550    -2.1100    -0.0920 C.ar  1 <1>   0.1170 
 14 C        4.6450    -3.3220    -0.7620 C.ar  1 <1>  -0.1430 
 15 C        5.5730    -1.3710     0.2830 C.ar  1 <1>  -0.1500 
 16 C        5.9300    -3.7630    -1.0350 C.ar  1 <1>  -0.1500 
 17 C        3.4640    -4.1810    -1.1980 C.3   1 <1>  -0.0970 
 18 C        6.8550    -1.8150     0.0120 C.ar  1 <1>  -0.1430 
 19 C        7.0290    -3.0160    -0.6510 C.ar  1 <1>  -0.1500 
 20 C        8.0600    -0.9940     0.4340 C.3   1 <1>  -0.0970 
 21 H        0.7720    -0.3500     2.0500 H     1 <1>   0.0800 
 22 H        0.9210     0.3520     0.4460 H     1 <1>   0.0800 
 23 H       -2.1460    -3.5040    -1.5440 H     1 <1>   0.0800 
 24 H       -3.5280    -3.8620    -0.5230 H     1 <1>   0.0800 
 25 H       -1.9050    -4.0610     0.1030 H     1 <1>   0.0800 
 26 H        2.4360    -2.1500    -0.3790 H     1 <1>   0.3700 
 27 H       -5.3450    -2.3140     0.4000 H     1 <1>   0.0800 
 28 H       -5.0980    -1.8110    -1.2640 H     1 <1>   0.0800 
 29 H       -5.6010    -0.6500    -0.0610 H     1 <1>   0.0800 
 30 H        5.4420    -0.4340     0.7890 H     1 <1>   0.1500 
 31 H        6.0890    -4.6940    -1.5500 H     1 <1>   0.1500 
 32 H        2.8460    -4.4170    -0.3500 H     1 <1>   0.0800 
 33 H        3.8010    -5.1040    -1.6330 H     1 <1>   0.0800 
 34 H        2.8780    -3.6570    -1.9320 H     1 <1>   0.0800 
 35 H        8.0190    -3.3740    -0.8720 H     1 <1>   0.1500 
 36 H        7.8000    -0.3240     1.2340 H     1 <1>   0.0800 
 37 H        8.4160    -0.4160    -0.4000 H     1 <1>   0.0800 
 38 H        8.8490    -1.6390     0.7750 H     1 <1>   0.0800 
@<TRIPOS>BOND
  1   1   2  1   
  2   1   3  1   
  3   2   4  2   
  4   2   5  1   
  5   3   6  1   
  6   3  21  1   
  7   3  22  1   
  8   4   7  1   
  9   5   8  1   
 10   5   9  1   
 11   6  10  2   
 12   6  11  am  
 13   7   8  2   
 14   8  12  1   
 15   9  23  1   
 16   9  24  1   
 17   9  25  1   
 18  11  13  1   
 19  11  26  1   
 20  12  27  1   
 21  12  28  1   
 22  12  29  1   
 23  13  14  ar  
 24  13  15  ar  
 25  14  16  ar  
 26  14  17  1   
 27  15  18  ar  
 28  15  30  1   
 29  16  19  ar  
 30  16  31  1   
 31  17  32  1   
 32  17  33  1   
 33  17  34  1   
 34  18  19  ar  
 35  18  20  1   
 36  19  35  1   
 37  20  36  1   
 38  20  37  1   
 39  20  38  1   
@<TRIPOS>SUBSTRUCTURE
  1 ****  11 GROUP 4 **** **** 0

# MOE 2024.06 (io_trps.svl 2023.06)
