@<TRIPOS>MOLECULE
NONAME
53 55 1 0 0 
SMALL
USER_CHARGES


@<TRIPOS>ATOM
  1 S        1.4090     0.4520     0.4650 S.o2  1 <1>   1.3330 
  2 O        1.6590     1.0470     1.7530 O.2   1 <1>  -0.6500 
  3 O        2.5220     0.0610    -0.3700 O.2   1 <1>  -0.6500 
  4 N        0.4420     1.5410    -0.4650 N.am  1 <1>  -0.6930 
  5 C        0.3250    -0.9460     0.6490 C.3   1 <1>  -0.1350 
  6 C       -0.6390     2.1710     0.1440 C.ar  1 <1>   0.1990 
  7 C        1.1440     2.2310    -1.5980 C.3   1 <1>   0.3370 
  8 C       -1.9310     1.7310    -0.1090 C.ar  1 <1>  -0.1500 
  9 C       -0.4590     3.2390     1.0100 C.ar  1 <1>  -0.1500 
 10 C        2.2000     3.2620    -1.1270 C.2   1 <1>   0.5690 
 11 C        0.1160     2.8180    -2.5810 C.3   1 <1>  -0.2400 
 12 C       -3.0280     2.3330     0.4860 C.ar  1 <1>  -0.1440 
 13 C       -1.5450     3.8480     1.6080 C.ar  1 <1>  -0.1500 
 14 O        1.9720     4.4500    -1.1910 O.2   1 <1>  -0.5700 
 15 N        3.3850     2.8030    -0.6440 N.am  1 <1>  -0.7300 
 16 C       -2.8330     3.4030     1.3540 C.ar  1 <1>  -0.1430 
 17 C       -4.4230     1.8110     0.1710 C.3   1 <1>  -0.0970 
 18 C        4.4370     3.6250    -0.0270 C.3   1 <1>   0.2200 
 19 C       -4.0020     4.1010     2.0330 C.3   1 <1>  -0.0970 
 20 C        5.8510     3.0510    -0.2650 C.3   1 <1>  -0.0800 
 21 C        4.3120     3.6100     1.5050 C.3   1 <1>  -0.1600 
 22 C        6.6030     3.6450     0.9180 C.3   1 <1>  -0.1600 
 23 C        5.9150     1.5520     0.0960 C.3   1 <1>  -0.1600 
 24 C        5.6710     3.0560     1.9650 C.3   1 <1>  -0.0800 
 25 C        5.7230     1.5570     1.6220 C.3   1 <1>  -0.1600 
 26 H        0.8190    -1.7250     1.1950 H     1 <1>   0.0800 
 27 H        0.0400    -1.3240    -0.3130 H     1 <1>   0.0800 
 28 H       -0.5580    -0.6590     1.1850 H     1 <1>   0.0800 
 29 H        1.6820     1.4830    -2.1510 H     1 <1>   0.0800 
 30 H       -2.0660     0.9090    -0.7860 H     1 <1>   0.1500 
 31 H        0.5370     3.5910     1.2160 H     1 <1>   0.1500 
 32 H       -0.4320     3.6230    -2.1230 H     1 <1>   0.0800 
 33 H       -0.5670     2.0560    -2.9080 H     1 <1>   0.0800 
 34 H        0.6270     3.2130    -3.4390 H     1 <1>   0.0800 
 35 H       -1.3760     4.6750     2.2760 H     1 <1>   0.1500 
 36 H        3.5100     1.7910    -0.5060 H     1 <1>   0.3700 
 37 H       -4.3810     0.9870    -0.5190 H     1 <1>   0.0800 
 38 H       -5.0160     2.5900    -0.2720 H     1 <1>   0.0800 
 39 H       -4.9020     1.4740     1.0720 H     1 <1>   0.0800 
 40 H        4.3780     4.6380    -0.3910 H     1 <1>   0.0800 
 41 H       -4.5490     3.4010     2.6380 H     1 <1>   0.0800 
 42 H       -4.6610     4.5190     1.2940 H     1 <1>   0.0800 
 43 H       -3.6590     4.8980     2.6680 H     1 <1>   0.0800 
 44 H        6.2620     3.2990    -1.2270 H     1 <1>   0.0800 
 45 H        3.4910     3.0080     1.8540 H     1 <1>   0.0800 
 46 H        4.1860     4.6160     1.8620 H     1 <1>   0.0800 
 47 H        6.6020     4.7230     0.9170 H     1 <1>   0.0800 
 48 H        7.6110     3.2760     1.0030 H     1 <1>   0.0800 
 49 H        6.8890     1.1620    -0.1480 H     1 <1>   0.0800 
 50 H        5.1780     0.9540    -0.4080 H     1 <1>   0.0800 
 51 H        5.9150     3.2840     2.9880 H     1 <1>   0.0800 
 52 H        6.5630     1.0880     2.1060 H     1 <1>   0.0800 
 53 H        4.8180     1.0510     1.9140 H     1 <1>   0.0800 
@<TRIPOS>BOND
  1   1   2  2   
  2   1   3  2   
  3   1   4  am  
  4   1   5  1   
  5   4   6  1   
  6   4   7  1   
  7   5  26  1   
  8   5  27  1   
  9   5  28  1   
 10   6   8  ar  
 11   6   9  ar  
 12   7  10  1   
 13   7  11  1   
 14   7  29  1   
 15   8  12  ar  
 16   8  30  1   
 17   9  13  ar  
 18   9  31  1   
 19  10  14  2   
 20  10  15  am  
 21  11  32  1   
 22  11  33  1   
 23  11  34  1   
 24  12  16  ar  
 25  12  17  1   
 26  13  16  ar  
 27  13  35  1   
 28  15  18  1   
 29  15  36  1   
 30  16  19  1   
 31  17  37  1   
 32  17  38  1   
 33  17  39  1   
 34  18  20  1   
 35  18  21  1   
 36  18  40  1   
 37  19  41  1   
 38  19  42  1   
 39  19  43  1   
 40  20  22  1   
 41  20  23  1   
 42  20  44  1   
 43  21  24  1   
 44  21  45  1   
 45  21  46  1   
 46  22  24  1   
 47  22  47  1   
 48  22  48  1   
 49  23  25  1   
 50  23  49  1   
 51  23  50  1   
 52  24  25  1   
 53  24  51  1   
 54  25  52  1   
 55  25  53  1   
@<TRIPOS>SUBSTRUCTURE
  1 ****   4 GROUP 4 **** **** 0

# MOE 2024.06 (io_trps.svl 2023.06)
