@<TRIPOS>MOLECULE
NONAME
58 60 1 0 0 
SMALL
USER_CHARGES


@<TRIPOS>ATOM
  1 O       -0.6560    -2.0500    -1.4720 O.2   1 <1>  -0.5700 
  2 C       -1.2750    -2.3470    -0.4790 C.2   1 <1>   0.5690 
  3 N       -0.6730    -2.8420     0.6310 N.am  1 <1>  -0.7300 
  4 C       -2.7780    -2.1420    -0.4610 C.3   1 <1>  -0.0990 
  5 C        0.7460    -3.1820     0.7470 C.3   1 <1>   0.2200 
  6 C       -3.6240    -3.4080    -0.7360 C.3   1 <1>   0.0000 
  7 C        0.8560    -4.6990     0.8330 C.3   1 <1>  -0.2400 
  8 C        1.2940    -2.5130     2.0030 C.3   1 <1>  -0.2400 
  9 C       -3.4550    -4.4620     0.3840 C.3   1 <1>  -0.1600 
 10 C       -5.1140    -3.0030    -0.8010 C.3   1 <1>  -0.1600 
 11 C       -3.2370    -4.0630    -2.0820 C.3   1 <1>  -0.1600 
 12 C       -4.3360    -5.7060     0.1350 C.3   1 <1>   0.0000 
 13 C       -6.0040    -4.2270    -1.0790 C.3   1 <1>  -0.0800 
 14 C       -4.1190    -5.2940    -2.3610 C.3   1 <1>  -0.0800 
 15 C       -5.8110    -5.2540     0.0500 C.3   1 <1>  -0.1600 
 16 C       -3.9340    -6.3200    -1.2270 C.3   1 <1>  -0.1600 
 17 C       -4.1930    -6.7260     1.2880 C.3   1 <1>  -0.0990 
 18 C       -5.5940    -4.8600    -2.4190 C.3   1 <1>  -0.1600 
 19 C       -2.7940    -7.2780     1.4910 C.2   1 <1>   0.5690 
 20 O       -2.0310    -6.6770     2.2100 O.2   1 <1>  -0.5700 
 21 N       -2.4760    -8.4450     0.8680 N.am  1 <1>  -0.7300 
 22 C       -1.2100    -9.2000     0.9170 C.3   1 <1>   0.2200 
 23 C       -0.9390    -9.6760     2.3410 C.3   1 <1>  -0.2400 
 24 C       -0.0690    -8.3500     0.3670 C.3   1 <1>  -0.2400 
 25 H       -1.2490    -3.1680     1.4070 H     1 <1>   0.3700 
 26 H       -3.0060    -1.4020    -1.2070 H     1 <1>   0.0800 
 27 H       -3.0500    -1.7250     0.4900 H     1 <1>   0.0800 
 28 H        1.2810    -2.8250    -0.1190 H     1 <1>   0.0800 
 29 H        0.3190    -5.0750     1.6860 H     1 <1>   0.0800 
 30 H        1.8870    -4.9890     0.9190 H     1 <1>   0.0800 
 31 H        0.4540    -5.1430    -0.0610 H     1 <1>   0.0800 
 32 H        0.7750    -2.8610     2.8780 H     1 <1>   0.0800 
 33 H        1.1870    -1.4460     1.9230 H     1 <1>   0.0800 
 34 H        2.3390    -2.7410     2.1090 H     1 <1>   0.0800 
 35 H       -2.4280    -4.7750     0.4240 H     1 <1>   0.0800 
 36 H       -3.7040    -4.0270     1.3360 H     1 <1>   0.0800 
 37 H       -5.2620    -2.2750    -1.5800 H     1 <1>   0.0800 
 38 H       -5.4130    -2.5490     0.1280 H     1 <1>   0.0800 
 39 H       -2.2050    -4.3670    -2.0630 H     1 <1>   0.0800 
 40 H       -3.3470    -3.3500    -2.8800 H     1 <1>   0.0800 
 41 H       -7.0360    -3.9230    -1.1220 H     1 <1>   0.0800 
 42 H       -3.8340    -5.7350    -3.3010 H     1 <1>   0.0800 
 43 H       -6.1150    -4.8140     0.9840 H     1 <1>   0.0800 
 44 H       -6.4470    -6.1030    -0.1320 H     1 <1>   0.0800 
 45 H       -4.5320    -7.1900    -1.4310 H     1 <1>   0.0800 
 46 H       -2.9020    -6.6260    -1.2070 H     1 <1>   0.0800 
 47 H       -4.8630    -7.5490     1.1230 H     1 <1>   0.0800 
 48 H       -4.4920    -6.2590     2.2090 H     1 <1>   0.0800 
 49 H       -6.2170    -5.7110    -2.6280 H     1 <1>   0.0800 
 50 H       -5.7330    -4.1500    -3.2160 H     1 <1>   0.0800 
 51 H       -3.1820    -8.8650     0.2660 H     1 <1>   0.3700 
 52 H       -1.3180   -10.0670     0.2860 H     1 <1>   0.0800 
 53 H       -0.7830    -8.8390     2.9990 H     1 <1>   0.0800 
 54 H       -0.0550   -10.2870     2.3600 H     1 <1>   0.0800 
 55 H       -1.7660   -10.2590     2.7020 H     1 <1>   0.0800 
 56 H        0.1260    -7.5170     1.0160 H     1 <1>   0.0800 
 57 H       -0.3120    -7.9860    -0.6150 H     1 <1>   0.0800 
 58 H        0.8270    -8.9400     0.3010 H     1 <1>   0.0800 
@<TRIPOS>BOND
  1   1   2  2   
  2   2   3  am  
  3   2   4  1   
  4   3   5  1   
  5   3  25  1   
  6   4   6  1   
  7   4  26  1   
  8   4  27  1   
  9   5   7  1   
 10   5   8  1   
 11   5  28  1   
 12   6   9  1   
 13   6  10  1   
 14   6  11  1   
 15   7  29  1   
 16   7  30  1   
 17   7  31  1   
 18   8  32  1   
 19   8  33  1   
 20   8  34  1   
 21   9  12  1   
 22   9  35  1   
 23   9  36  1   
 24  10  13  1   
 25  10  37  1   
 26  10  38  1   
 27  11  14  1   
 28  11  39  1   
 29  11  40  1   
 30  12  15  1   
 31  12  16  1   
 32  12  17  1   
 33  13  15  1   
 34  13  18  1   
 35  13  41  1   
 36  14  16  1   
 37  14  18  1   
 38  14  42  1   
 39  15  43  1   
 40  15  44  1   
 41  16  45  1   
 42  16  46  1   
 43  17  19  1   
 44  17  47  1   
 45  17  48  1   
 46  18  49  1   
 47  18  50  1   
 48  19  20  2   
 49  19  21  am  
 50  21  22  1   
 51  21  51  1   
 52  22  23  1   
 53  22  24  1   
 54  22  52  1   
 55  23  53  1   
 56  23  54  1   
 57  23  55  1   
 58  24  56  1   
 59  24  57  1   
 60  24  58  1   
@<TRIPOS>SUBSTRUCTURE
  1 ****   9 GROUP 4 **** **** 0

# MOE 2024.06 (io_trps.svl 2023.06)
