@<TRIPOS>MOLECULE
NONAME
50 51 1 0 0 
SMALL
USER_CHARGES


@<TRIPOS>ATOM
  1 CL      -1.3540     0.6250    -1.7590 Cl    1 <1>  -0.1770 
  2 C       -2.7730    -0.3860    -1.5890 C.ar  1 <1>   0.1770 
  3 C       -3.6690    -0.1890    -0.5450 C.ar  1 <1>  -0.1440 
  4 C       -2.9570    -1.3780    -2.5350 C.ar  1 <1>  -0.1500 
  5 C       -4.7950    -1.0150    -0.4750 C.ar  1 <1>   0.1170 
  6 C       -3.4180     0.9090     0.4890 C.3   1 <1>  -0.0970 
  7 C       -4.0660    -2.1990    -2.4520 C.ar  1 <1>  -0.1500 
  8 N       -5.7690    -0.8990     0.5230 N.am  1 <1>  -0.5470 
  9 C       -4.9740    -2.0120    -1.4280 C.ar  1 <1>  -0.1500 
 10 C       -6.6480     0.1330     0.7210 C.2   1 <1>   0.5690 
 11 O       -6.5530     1.1780     0.1200 O.2   1 <1>  -0.5700 
 12 C       -7.7900    -0.0670     1.7490 C.3   1 <1>   0.3370 
 13 N       -8.9230    -0.8970     1.2200 N.am  1 <1>  -0.6930 
 14 C       -8.3230     1.2540     2.3300 C.3   1 <1>  -0.2400 
 15 S       -8.5530    -2.5590     0.9220 S.o2  1 <1>   1.3330 
 16 C       -9.9180    -0.2820     0.4630 C.ar  1 <1>   0.1990 
 17 O       -8.4440    -2.7440    -0.5010 O.2   1 <1>  -0.6500 
 18 O       -7.4170    -2.8710     1.7590 O.2   1 <1>  -0.6500 
 19 C       -9.9890    -3.4000     1.5520 C.3   1 <1>  -0.1350 
 20 C       -9.6910     0.1130    -0.8500 C.ar  1 <1>  -0.1500 
 21 C      -11.1690    -0.0540     1.0230 C.ar  1 <1>  -0.1500 
 22 C      -10.6930     0.7190    -1.5850 C.ar  1 <1>  -0.1500 
 23 C      -12.1760     0.5510     0.2920 C.ar  1 <1>  -0.1500 
 24 C      -11.9400     0.9420    -1.0240 C.ar  1 <1>   0.0830 
 25 O      -12.8670     1.5410    -1.8170 O.3   1 <1>  -0.3620 
 26 C      -14.1530     1.8420    -1.3280 C.3   1 <1>   0.1200 
 27 C      -14.9360     2.5190    -2.4480 C.3   1 <1>  -0.2400 
 28 H       -2.2400    -1.5000    -3.3260 H     1 <1>   0.1500 
 29 H       -2.3670     1.0440     0.6670 H     1 <1>   0.0800 
 30 H       -3.8720     0.6660     1.4310 H     1 <1>   0.0800 
 31 H       -3.8340     1.8350     0.1360 H     1 <1>   0.0800 
 32 H       -4.2240    -2.9740    -3.1820 H     1 <1>   0.1500 
 33 H       -6.0160    -1.7830     0.9880 H     1 <1>   0.3700 
 34 H       -5.8450    -2.6430    -1.3710 H     1 <1>   0.1500 
 35 H       -7.3590    -0.5940     2.5810 H     1 <1>   0.0800 
 36 H       -8.7240     1.8800     1.5520 H     1 <1>   0.0800 
 37 H       -7.5180     1.7900     2.8000 H     1 <1>   0.0800 
 38 H       -9.0820     1.0620     3.0660 H     1 <1>   0.0800 
 39 H      -10.1340    -3.1630     2.5880 H     1 <1>   0.0800 
 40 H       -9.8650    -4.4610     1.4540 H     1 <1>   0.0800 
 41 H      -10.8600    -3.1050     1.0020 H     1 <1>   0.0800 
 42 H       -8.7260    -0.0560    -1.2970 H     1 <1>   0.1500 
 43 H      -11.3480    -0.3500     2.0400 H     1 <1>   0.1500 
 44 H      -10.5120     1.0230    -2.6000 H     1 <1>   0.1500 
 45 H      -13.1300     0.7110     0.7590 H     1 <1>   0.1500 
 46 H      -14.0520     2.5010    -0.4830 H     1 <1>   0.0800 
 47 H      -14.6300     0.9230    -1.0340 H     1 <1>   0.0800 
 48 H      -14.4410     3.4260    -2.7470 H     1 <1>   0.0800 
 49 H      -15.9250     2.7630    -2.1060 H     1 <1>   0.0800 
 50 H      -15.0170     1.8590    -3.2930 H     1 <1>   0.0800 
@<TRIPOS>BOND
  1   1   2  1   
  2   2   3  ar  
  3   2   4  ar  
  4   3   5  ar  
  5   3   6  1   
  6   4   7  ar  
  7   4  28  1   
  8   5   8  1   
  9   5   9  ar  
 10   6  29  1   
 11   6  30  1   
 12   6  31  1   
 13   7   9  ar  
 14   7  32  1   
 15   8  10  am  
 16   8  33  1   
 17   9  34  1   
 18  10  11  2   
 19  10  12  1   
 20  12  13  1   
 21  12  14  1   
 22  12  35  1   
 23  13  15  am  
 24  13  16  1   
 25  14  36  1   
 26  14  37  1   
 27  14  38  1   
 28  15  17  2   
 29  15  18  2   
 30  15  19  1   
 31  16  20  ar  
 32  16  21  ar  
 33  19  39  1   
 34  19  40  1   
 35  19  41  1   
 36  20  22  ar  
 37  20  42  1   
 38  21  23  ar  
 39  21  43  1   
 40  22  24  ar  
 41  22  44  1   
 42  23  24  ar  
 43  23  45  1   
 44  24  25  1   
 45  25  26  1   
 46  26  27  1   
 47  26  46  1   
 48  26  47  1   
 49  27  48  1   
 50  27  49  1   
 51  27  50  1   
@<TRIPOS>SUBSTRUCTURE
  1 ****  10 GROUP 4 **** **** 0

# MOE 2024.06 (io_trps.svl 2023.06)
