@<TRIPOS>MOLECULE
NONAME
55 57 1 0 0 
SMALL
USER_CHARGES


@<TRIPOS>ATOM
  1 O       -1.0800     2.5540    -1.7080 O.2   1 <1>  -0.5700 
  2 C       -1.1920     1.7230    -0.8390 C.2   1 <1>   0.5690 
  3 N       -2.3450     1.0180    -0.7510 N.am  1 <1>  -0.7300 
  4 C       -0.0030     1.5430     0.1250 C.3   1 <1>   0.4040 
  5 C       -2.9030     0.0500     0.2200 C.3   1 <1>   0.3000 
  6 N        1.2040     2.3780    -0.2420 N.4   1 <1>  -0.9590 
  7 C       -4.2280    -0.4910    -0.3970 C.3   1 <1>   0.0630 
  8 C       -1.9290    -1.1310     0.4230 C.3   1 <1>  -0.1600 
  9 C       -3.1160     0.8130     1.5380 C.3   1 <1>  -0.2400 
 10 C        1.8940     1.8340    -1.4490 C.3   1 <1>   0.3430 
 11 C        2.1270     2.5980     0.9050 C.3   1 <1>   0.3430 
 12 C       -5.2430     0.6100    -0.7340 C.ar  1 <1>  -0.1430 
 13 C       -4.8560    -1.6320     0.4270 C.3   1 <1>  -0.1600 
 14 C       -2.5440    -2.2890     1.2320 C.3   1 <1>  -0.1600 
 15 C        2.9940     2.8010    -1.8900 C.3   1 <1>  -0.1600 
 16 C        3.2290     3.5780     0.4970 C.3   1 <1>  -0.1600 
 17 C       -5.3170     1.0820    -2.0400 C.ar  1 <1>  -0.1500 
 18 C       -6.0900     1.1550     0.2250 C.ar  1 <1>  -0.1500 
 19 C       -3.8580    -2.7820     0.6160 C.3   1 <1>  -0.1600 
 20 C        3.9810     3.1020    -0.7540 C.3   1 <1>  -0.1600 
 21 C       -6.2050     2.0880    -2.3770 C.ar  1 <1>  -0.1500 
 22 C       -6.9820     2.1600    -0.1070 C.ar  1 <1>  -0.1500 
 23 C       -7.0330     2.6250    -1.4100 C.ar  1 <1>   0.0820 
 24 O       -7.8870     3.6020    -1.7480 O.3   1 <1>  -0.5330 
 25 H       -3.0800     1.3560    -1.3850 H     1 <1>   0.3700 
 26 H        0.2750     0.5050     0.1430 H     1 <1>   0.0800 
 27 H       -0.3420     1.8210     1.1070 H     1 <1>   0.0800 
 28 H        0.8200     3.2900    -0.5430 H     1 <1>   0.4500 
 29 H       -3.9550    -0.9490    -1.3330 H     1 <1>   0.0800 
 30 H       -1.0470    -0.8150     0.9430 H     1 <1>   0.0800 
 31 H       -1.6380    -1.5140    -0.5410 H     1 <1>   0.0800 
 32 H       -3.6610     0.2160     2.2430 H     1 <1>   0.0800 
 33 H       -3.6750     1.7160     1.3670 H     1 <1>   0.0800 
 34 H       -2.1810     1.0720     1.9940 H     1 <1>   0.0800 
 35 H        1.1870     1.7100    -2.2550 H     1 <1>   0.0800 
 36 H        2.3290     0.8740    -1.2220 H     1 <1>   0.0800 
 37 H        2.5720     1.6620     1.2010 H     1 <1>   0.0800 
 38 H        1.5850     3.0010     1.7460 H     1 <1>   0.0800 
 39 H       -5.7280    -2.0010    -0.0860 H     1 <1>   0.0800 
 40 H       -5.1740    -1.2790     1.3910 H     1 <1>   0.0800 
 41 H       -2.7250    -1.9730     2.2450 H     1 <1>   0.0800 
 42 H       -1.8460    -3.1080     1.2730 H     1 <1>   0.0800 
 43 H        2.5430     3.7150    -2.2370 H     1 <1>   0.0800 
 44 H        3.5270     2.3720    -2.7210 H     1 <1>   0.0800 
 45 H        3.9250     3.6840     1.3110 H     1 <1>   0.0800 
 46 H        2.7960     4.5470     0.3170 H     1 <1>   0.0800 
 47 H       -4.6880     0.6720    -2.8110 H     1 <1>   0.1500 
 48 H       -6.0640     0.8070     1.2410 H     1 <1>   0.1500 
 49 H       -3.6560    -3.2390    -0.3380 H     1 <1>   0.0800 
 50 H       -4.2940    -3.5350     1.2500 H     1 <1>   0.0800 
 51 H        4.6810     3.8580    -1.0690 H     1 <1>   0.0800 
 52 H        4.5430     2.2130    -0.5200 H     1 <1>   0.0800 
 53 H       -6.2630     2.4580    -3.3850 H     1 <1>   0.1500 
 54 H       -7.6280     2.5720     0.6450 H     1 <1>   0.1500 
 55 H       -8.4330     3.9080    -1.0030 H     1 <1>   0.4500 
@<TRIPOS>BOND
  1   1   2  2   
  2   2   3  am  
  3   2   4  1   
  4   3   5  1   
  5   3  25  1   
  6   4   6  1   
  7   4  26  1   
  8   4  27  1   
  9   5   7  1   
 10   5   8  1   
 11   5   9  1   
 12   6  10  1   
 13   6  11  1   
 14   6  28  1   
 15   7  12  1   
 16   7  13  1   
 17   7  29  1   
 18   8  14  1   
 19   8  30  1   
 20   8  31  1   
 21   9  32  1   
 22   9  33  1   
 23   9  34  1   
 24  10  15  1   
 25  10  35  1   
 26  10  36  1   
 27  11  16  1   
 28  11  37  1   
 29  11  38  1   
 30  12  17  ar  
 31  12  18  ar  
 32  13  19  1   
 33  13  39  1   
 34  13  40  1   
 35  14  19  1   
 36  14  41  1   
 37  14  42  1   
 38  15  20  1   
 39  15  43  1   
 40  15  44  1   
 41  16  20  1   
 42  16  45  1   
 43  16  46  1   
 44  17  21  ar  
 45  17  47  1   
 46  18  22  ar  
 47  18  48  1   
 48  19  49  1   
 49  19  50  1   
 50  20  51  1   
 51  20  52  1   
 52  21  23  ar  
 53  21  53  1   
 54  22  23  ar  
 55  22  54  1   
 56  23  24  1   
 57  24  55  1   
@<TRIPOS>SUBSTRUCTURE
  1 ****   3 GROUP 4 **** **** 0

# MOE 2024.06 (io_trps.svl 2023.06)
