@<TRIPOS>MOLECULE
NONAME
44 46 1 0 0 
SMALL
USER_CHARGES


@<TRIPOS>ATOM
  1 O        0.4570    -0.0200     1.1140 O.3   1 <1>  -0.3630 
  2 C        1.4890     0.7780     0.7140 C.ar  1 <1>   0.0820 
  3 C       -0.8950     0.3780     1.1020 C.3   1 <1>   0.0400 
  4 C        1.4050     2.0830     0.1980 C.ar  1 <1>   0.0820 
  5 C        2.7320     0.1860     0.8550 C.ar  1 <1>  -0.1500 
  6 O        0.1920     2.6880     0.0430 O.3   1 <1>  -0.3630 
  7 C        2.5830     2.7400    -0.1500 C.ar  1 <1>  -0.1500 
  8 C        3.9030     0.8390     0.4990 C.ar  1 <1>  -0.1430 
  9 C        0.0420     3.9930    -0.4740 C.3   1 <1>   0.0400 
 10 C        3.8200     2.1340    -0.0010 C.ar  1 <1>  -0.1430 
 11 C        5.2450     0.1270     0.6910 C.3   1 <1>   0.7100 
 12 C        5.0710     2.9080    -0.3940 C.3   1 <1>  -0.0170 
 13 N        6.3110     0.8090    -0.0580 N.4   1 <1>  -0.9060 
 14 C        5.2710    -1.3030     0.1780 C.ar  1 <1>  -0.1430 
 15 C        6.3390     2.2740     0.1780 C.3   1 <1>   0.3430 
 16 C        5.9770    -2.2610     0.8900 C.ar  1 <1>  -0.1500 
 17 C        4.6270    -1.6750    -0.9980 C.ar  1 <1>  -0.1500 
 18 C        6.0540    -3.5680     0.4410 C.ar  1 <1>   0.0820 
 19 C        4.6980    -2.9810    -1.4500 C.ar  1 <1>  -0.1500 
 20 O        6.7750    -4.4240     1.2030 O.3   1 <1>  -0.3620 
 21 C        5.4100    -3.9290    -0.7370 C.ar  1 <1>  -0.1500 
 22 C        6.8620    -5.7970     0.8840 C.3   1 <1>   0.0400 
 23 H       -1.4870    -0.4320     1.4890 H     1 <1>   0.0800 
 24 H       -1.1870     0.5920     0.0900 H     1 <1>   0.0800 
 25 H       -1.0090     1.2450     1.7280 H     1 <1>   0.0800 
 26 H        2.7580    -0.8150     1.2540 H     1 <1>   0.1500 
 27 H        2.5510     3.7380    -0.5440 H     1 <1>   0.1500 
 28 H       -1.0080     4.2250    -0.4930 H     1 <1>   0.0800 
 29 H        0.4380     4.0220    -1.4740 H     1 <1>   0.0800 
 30 H        0.5540     4.6860     0.1690 H     1 <1>   0.0800 
 31 H        5.4820     0.1290     1.7430 H     1 <1>   0.0800 
 32 H        4.9990     3.9210    -0.0370 H     1 <1>   0.0800 
 33 H        5.1400     2.9480    -1.4670 H     1 <1>   0.0800 
 34 H        6.1120     0.6060    -1.0420 H     1 <1>   0.4500 
 35 H        7.1960     0.3490     0.1720 H     1 <1>   0.4500 
 36 H        6.3910     2.4710     1.2370 H     1 <1>   0.0800 
 37 H        7.2050     2.7130    -0.2920 H     1 <1>   0.0800 
 38 H        6.4820    -2.0230     1.8100 H     1 <1>   0.1500 
 39 H        4.0560    -0.9630    -1.5730 H     1 <1>   0.1500 
 40 H        4.1930    -3.2650    -2.3590 H     1 <1>   0.1500 
 41 H        5.4490    -4.9350    -1.1110 H     1 <1>   0.1500 
 42 H        7.4560    -6.2790     1.6390 H     1 <1>   0.0800 
 43 H        7.3350    -5.9040    -0.0760 H     1 <1>   0.0800 
 44 H        5.8720    -6.2170     0.8750 H     1 <1>   0.0800 
@<TRIPOS>BOND
  1   1   2  1   
  2   1   3  1   
  3   2   4  ar  
  4   2   5  ar  
  5   3  23  1   
  6   3  24  1   
  7   3  25  1   
  8   4   6  1   
  9   4   7  ar  
 10   5   8  ar  
 11   5  26  1   
 12   6   9  1   
 13   7  10  ar  
 14   7  27  1   
 15   8  10  ar  
 16   8  11  1   
 17   9  28  1   
 18   9  29  1   
 19   9  30  1   
 20  10  12  1   
 21  11  13  1   
 22  11  14  1   
 23  11  31  1   
 24  12  15  1   
 25  12  32  1   
 26  12  33  1   
 27  13  15  1   
 28  13  34  1   
 29  13  35  1   
 30  14  16  ar  
 31  14  17  ar  
 32  15  36  1   
 33  15  37  1   
 34  16  18  ar  
 35  16  38  1   
 36  17  19  ar  
 37  17  39  1   
 38  18  20  1   
 39  18  21  ar  
 40  19  21  ar  
 41  19  40  1   
 42  20  22  1   
 43  21  41  1   
 44  22  42  1   
 45  22  43  1   
 46  22  44  1   
@<TRIPOS>SUBSTRUCTURE
  1 ****   8 GROUP 4 **** **** 0

# MOE 2024.06 (io_trps.svl 2023.06)
