@<TRIPOS>MOLECULE
NONAME
37 40 1 0 0 
SMALL
USER_CHARGES


@<TRIPOS>ATOM
  1 S       -0.1100     2.6530    -2.5650 S.3   1 <1>  -0.0800 
  2 C       -1.1480     2.3650    -1.1850 C.2   1 <1>   0.1240 
  3 C        1.3110     2.4210    -1.5490 C.2   1 <1>  -0.1400 
  4 N       -2.5010     2.3750    -1.2050 N.pl3 1 <1>  -0.5340 
  5 C       -0.4540     2.1180    -0.0510 C.2   1 <1>  -0.0860 
  6 C        0.9690     2.1630    -0.2760 C.2   1 <1>  -0.1810 
  7 C        2.7010     2.5240    -2.1370 C.3   1 <1>   0.0200 
  8 C       -3.2150     2.1310    -0.0560 C.2   1 <1>   0.5090 
  9 C       -1.2390     1.8630     1.1170 C.2   1 <1>   0.8670 
 10 C        2.0190     1.9390     0.8010 C.3   1 <1>   0.0210 
 11 C        3.7150     1.9560    -1.1270 C.3   1 <1>  -0.1600 
 12 N       -4.6480     2.1670    -0.1840 N.pl3 1 <1>   0.5610 
 13 N       -2.6100     1.8820     1.0710 N.2   1 <1>  -0.6610 
 14 O       -0.7170     1.6190     2.1950 O.2   1 <1>  -0.5700 
 15 C        3.4100     2.4030     0.3190 C.3   1 <1>  -0.1600 
 16 N       -5.2430     2.4340    -1.3960 N.2   1 <1>  -0.7070 
 17 C       -5.6350     1.9700     0.7520 C.2   1 <1>  -0.3320 
 18 C       -6.5160     2.3960    -1.1890 C.2   1 <1>   0.1080 
 19 C       -6.8250     2.1110     0.1340 C.2   1 <1>  -0.1500 
 20 C       -5.4080     1.6490     2.2230 C.3   1 <1>  -0.0600 
 21 C       -7.5280     2.6400    -2.2840 C.3   1 <1>  -0.0590 
 22 H       -3.0470     2.5620    -2.0570 H     1 <1>   0.4000 
 23 H        2.9170     3.5590    -2.3380 H     1 <1>   0.0800 
 24 H        2.7550     1.9750    -3.0600 H     1 <1>   0.0800 
 25 H        2.0460     0.8910     1.0440 H     1 <1>   0.0800 
 26 H        1.7560     2.4820     1.6920 H     1 <1>   0.0800 
 27 H        4.7080     2.2630    -1.4050 H     1 <1>   0.0800 
 28 H        3.6800     0.8800    -1.1680 H     1 <1>   0.0800 
 29 H        4.1620     2.0210     0.9860 H     1 <1>   0.0800 
 30 H        3.4490     3.4780     0.3620 H     1 <1>   0.0800 
 31 H       -7.8150     2.0270     0.5460 H     1 <1>   0.1500 
 32 H       -4.8500     2.4380     2.6960 H     1 <1>   0.0800 
 33 H       -4.8600     0.7290     2.3240 H     1 <1>   0.0800 
 34 H       -6.3490     1.5440     2.7330 H     1 <1>   0.0800 
 35 H       -7.3840     3.6230    -2.6940 H     1 <1>   0.0800 
 36 H       -8.5270     2.5630    -1.8970 H     1 <1>   0.0800 
 37 H       -7.3960     1.9140    -3.0640 H     1 <1>   0.0800 
@<TRIPOS>BOND
  1   1   2  1   
  2   1   3  1   
  3   2   4  1   
  4   2   5  2   
  5   3   6  2   
  6   3   7  1   
  7   4   8  1   
  8   4  22  1   
  9   5   6  1   
 10   5   9  1   
 11   6  10  1   
 12   7  11  1   
 13   7  23  1   
 14   7  24  1   
 15   8  12  1   
 16   8  13  2   
 17   9  13  1   
 18   9  14  2   
 19  10  15  1   
 20  10  25  1   
 21  10  26  1   
 22  11  15  1   
 23  11  27  1   
 24  11  28  1   
 25  12  16  1   
 26  12  17  1   
 27  15  29  1   
 28  15  30  1   
 29  16  18  2   
 30  17  19  2   
 31  17  20  1   
 32  18  19  1   
 33  18  21  1   
 34  19  31  1   
 35  20  32  1   
 36  20  33  1   
 37  20  34  1   
 38  21  35  1   
 39  21  36  1   
 40  21  37  1   
@<TRIPOS>SUBSTRUCTURE
  1 ****   4 GROUP 4 **** **** 0

# MOE 2024.06 (io_trps.svl 2023.06)
