@<TRIPOS>MOLECULE
NONAME
35 35 1 0 0 
SMALL
USER_CHARGES


@<TRIPOS>ATOM
  1 O        0.1700     0.3680    -0.6030 O.2   1 <1>  -0.5700 
  2 C        1.1550     0.9350    -0.2090 C.2   1 <1>   0.5690 
  3 N        1.6040     2.0410    -0.8550 N.am  1 <1>  -0.5470 
  4 C        1.8630     0.4060     1.0160 C.3   1 <1>  -0.1790 
  5 C        2.7230     2.8440    -0.6060 C.ar  1 <1>   0.1170 
  6 C        4.0000     2.3030    -0.5530 C.ar  1 <1>  -0.1500 
  7 C        2.5600     4.2090    -0.4210 C.ar  1 <1>  -0.1500 
  8 C        5.1060     3.1090    -0.3030 C.ar  1 <1>   0.0820 
  9 C        3.6490     5.0240    -0.1740 C.ar  1 <1>  -0.1500 
 10 O        6.3760     2.6140    -0.2390 O.3   1 <1>  -0.3630 
 11 C        4.9300     4.4830    -0.1120 C.ar  1 <1>   0.0820 
 12 C        6.6450     1.2340    -0.3620 C.3   1 <1>   0.1200 
 13 O        6.0400     5.2430     0.1310 O.3   1 <1>  -0.3630 
 14 C        8.1520     1.0280    -0.2320 C.3   1 <1>   0.1200 
 15 C        5.9720     6.6510     0.1770 C.3   1 <1>   0.1200 
 16 O        8.4340    -0.3330    -0.2500 O.3   1 <1>  -0.6800 
 17 C        7.3840     7.1940     0.3850 C.3   1 <1>   0.1200 
 18 O        7.3570     8.5820     0.3380 O.3   1 <1>  -0.6800 
 19 H        0.9780     2.3410    -1.6030 H     1 <1>   0.3700 
 20 H        2.2020     1.2180     1.6320 H     1 <1>   0.0800 
 21 H        2.7000    -0.1960     0.7180 H     1 <1>   0.0800 
 22 H        1.1860    -0.2010     1.5880 H     1 <1>   0.0800 
 23 H        4.1070     1.2500    -0.7210 H     1 <1>   0.1500 
 24 H        1.5730     4.6340    -0.4640 H     1 <1>   0.1500 
 25 H        3.4770     6.0740    -0.0300 H     1 <1>   0.1500 
 26 H        6.3080     0.9070    -1.3290 H     1 <1>   0.0800 
 27 H        6.1220     0.7210     0.4250 H     1 <1>   0.0800 
 28 H        8.5210     1.4380     0.6920 H     1 <1>   0.0800 
 29 H        8.6620     1.4820    -1.0640 H     1 <1>   0.0800 
 30 H        5.3410     6.9340     1.0010 H     1 <1>   0.0800 
 31 H        5.5670     6.9960    -0.7580 H     1 <1>   0.0800 
 32 H        8.1740    -0.7550     0.5910 H     1 <1>   0.4000 
 33 H        8.0500     6.8420    -0.3840 H     1 <1>   0.0800 
 34 H        7.7560     6.9030     1.3530 H     1 <1>   0.0800 
 35 H        7.1990     8.8970    -0.5730 H     1 <1>   0.4000 
@<TRIPOS>BOND
  1   1   2  2   
  2   2   3  am  
  3   2   4  1   
  4   3   5  1   
  5   3  19  1   
  6   4  20  1   
  7   4  21  1   
  8   4  22  1   
  9   5   6  ar  
 10   5   7  ar  
 11   6   8  ar  
 12   6  23  1   
 13   7   9  ar  
 14   7  24  1   
 15   8  10  1   
 16   8  11  ar  
 17   9  11  ar  
 18   9  25  1   
 19  10  12  1   
 20  11  13  1   
 21  12  14  1   
 22  12  26  1   
 23  12  27  1   
 24  13  15  1   
 25  14  16  1   
 26  14  28  1   
 27  14  29  1   
 28  15  17  1   
 29  15  30  1   
 30  15  31  1   
 31  16  32  1   
 32  17  18  1   
 33  17  33  1   
 34  17  34  1   
 35  18  35  1   
@<TRIPOS>SUBSTRUCTURE
  1 ****   8 GROUP 4 **** **** 0

# MOE 2024.06 (io_trps.svl 2023.06)
