@<TRIPOS>MOLECULE
NONAME
44 46 1 0 0 
SMALL
USER_CHARGES


@<TRIPOS>ATOM
  1 F       -0.0570     4.9550    -0.3730 F     1 <1>  -0.1900 
  2 C        0.5620     3.8450    -0.0710 C.ar  1 <1>   0.1900 
  3 C       -0.1520     2.6470     0.0390 C.ar  1 <1>   0.0860 
  4 C        1.9280     3.9400     0.1220 C.ar  1 <1>  -0.1500 
  5 C       -1.5880     2.5210    -0.1510 C.2   1 <1>   0.5440 
  6 C        0.6150     1.5200     0.3550 C.ar  1 <1>  -0.1500 
  7 C        2.6460     2.8020     0.4370 C.ar  1 <1>  -0.1500 
  8 O       -2.0670     1.4280    -0.3840 O.2   1 <1>  -0.5700 
  9 N       -2.4180     3.6150    -0.0670 N.am  1 <1>  -0.5470 
 10 C        1.9840     1.5910     0.5520 C.ar  1 <1>  -0.1500 
 11 C       -3.8170     3.7380    -0.1390 C.ar  1 <1>   0.1170 
 12 C       -4.6890     2.7100     0.2060 C.ar  1 <1>  -0.1500 
 13 C       -4.3570     4.9490    -0.5530 C.ar  1 <1>  -0.1500 
 14 C       -6.0580     2.8890     0.1340 C.ar  1 <1>  -0.1500 
 15 C       -5.7270     5.1280    -0.6240 C.ar  1 <1>  -0.1500 
 16 C       -6.5940     4.1020    -0.2810 C.ar  1 <1>   0.1000 
 17 N       -7.9710     4.3100    -0.3670 N.pl3 1 <1>  -0.8380 
 18 C       -8.7680     4.2230     0.8920 C.3   1 <1>   0.2890 
 19 C       -8.5960     3.5930    -1.5100 C.3   1 <1>   0.2090 
 20 C      -10.1810     4.7720     0.6390 C.3   1 <1>  -0.1600 
 21 C       -8.0970     5.0290     2.0070 C.3   1 <1>  -0.2400 
 22 C       -9.9940     4.1510    -1.7840 C.3   1 <1>  -0.1600 
 23 C      -10.8780     4.0700    -0.5340 C.3   1 <1>  -0.1600 
 24 H        2.4220     4.8910     0.0240 H     1 <1>   0.1500 
 25 H        0.1240     0.5650     0.4490 H     1 <1>   0.1500 
 26 H        3.7110     2.8540     0.5900 H     1 <1>   0.1500 
 27 H       -1.9260     4.5070    -0.0160 H     1 <1>   0.3700 
 28 H        2.5380     0.6990     0.7940 H     1 <1>   0.1500 
 29 H       -4.2990     1.7650     0.5360 H     1 <1>   0.1500 
 30 H       -3.7070     5.7590    -0.8260 H     1 <1>   0.1500 
 31 H       -6.7190     2.0870     0.4010 H     1 <1>   0.1500 
 32 H       -6.1450     6.0640    -0.9450 H     1 <1>   0.1500 
 33 H       -8.8380     3.1910     1.1920 H     1 <1>   0.0800 
 34 H       -8.6580     2.5420    -1.2830 H     1 <1>   0.0800 
 35 H       -7.9810     3.7140    -2.3860 H     1 <1>   0.0800 
 36 H      -10.1100     5.8250     0.4310 H     1 <1>   0.0800 
 37 H      -10.7740     4.6520     1.5280 H     1 <1>   0.0800 
 38 H       -7.9390     6.0420     1.6860 H     1 <1>   0.0800 
 39 H       -7.1520     4.5910     2.2720 H     1 <1>   0.0800 
 40 H       -8.7170     5.0340     2.8840 H     1 <1>   0.0800 
 41 H      -10.4470     3.5980    -2.5870 H     1 <1>   0.0800 
 42 H       -9.8990     5.1750    -2.0990 H     1 <1>   0.0800 
 43 H      -11.8290     4.5370    -0.7270 H     1 <1>   0.0800 
 44 H      -11.0530     3.0380    -0.2830 H     1 <1>   0.0800 
@<TRIPOS>BOND
  1   1   2  1   
  2   2   3  ar  
  3   2   4  ar  
  4   3   5  1   
  5   3   6  ar  
  6   4   7  ar  
  7   4  24  1   
  8   5   8  2   
  9   5   9  am  
 10   6  10  ar  
 11   6  25  1   
 12   7  10  ar  
 13   7  26  1   
 14   9  11  1   
 15   9  27  1   
 16  10  28  1   
 17  11  12  ar  
 18  11  13  ar  
 19  12  14  ar  
 20  12  29  1   
 21  13  15  ar  
 22  13  30  1   
 23  14  16  ar  
 24  14  31  1   
 25  15  16  ar  
 26  15  32  1   
 27  16  17  1   
 28  17  18  1   
 29  17  19  1   
 30  18  20  1   
 31  18  21  1   
 32  18  33  1   
 33  19  22  1   
 34  19  34  1   
 35  19  35  1   
 36  20  23  1   
 37  20  36  1   
 38  20  37  1   
 39  21  38  1   
 40  21  39  1   
 41  21  40  1   
 42  22  23  1   
 43  22  41  1   
 44  22  42  1   
 45  23  43  1   
 46  23  44  1   
@<TRIPOS>SUBSTRUCTURE
  1 ****  11 GROUP 4 **** **** 0

# MOE 2024.06 (io_trps.svl 2023.06)
