@<TRIPOS>MOLECULE
NONAME
29 29 1 0 0 
SMALL
USER_CHARGES


@<TRIPOS>ATOM
  1 S        0.0340     0.0270     0.5600 S.o2  1 <1>   1.4470 
  2 O       -0.1540    -0.1480     1.9850 O.2   1 <1>  -0.6500 
  3 O       -0.7090    -0.8000    -0.3640 O.2   1 <1>  -0.6500 
  4 N        1.6920    -0.2260     0.2650 N.am  1 <1>  -0.8490 
  5 C       -0.2100     1.7650     0.1070 C.ar  1 <1>  -0.0090 
  6 C        2.0830    -1.6400     0.4080 C.3   1 <1>   0.1960 
  7 C        2.5380     0.6010     1.1360 C.3   1 <1>   0.1160 
  8 C       -0.6630     2.7010     1.0320 C.ar  1 <1>  -0.1500 
  9 C        0.0640     2.2100    -1.1820 C.ar  1 <1>  -0.1500 
 10 C        1.6640    -2.4910    -0.8010 C.3   1 <1>   0.1200 
 11 C       -0.8320     4.0290     0.6840 C.ar  1 <1>  -0.1500 
 12 C       -0.1030     3.5370    -1.5350 C.ar  1 <1>  -0.1500 
 13 O        2.4930    -3.6030    -0.8990 O.3   1 <1>  -0.6800 
 14 C       -0.5550     4.4610    -0.6050 C.ar  1 <1>   0.1000 
 15 N       -0.7260     5.7840    -0.9550 N.pl3 1 <1>  -0.9000 
 16 H        1.6600    -2.0550     1.3090 H     1 <1>   0.0800 
 17 H        3.1560    -1.6950     0.4840 H     1 <1>   0.0800 
 18 H        2.3000     1.6440     1.0100 H     1 <1>   0.0800 
 19 H        3.5760     0.4670     0.8810 H     1 <1>   0.0800 
 20 H        2.3930     0.3340     2.1700 H     1 <1>   0.0800 
 21 H       -0.8850     2.3850     2.0370 H     1 <1>   0.1500 
 22 H        0.4150     1.5040    -1.9160 H     1 <1>   0.1500 
 23 H        1.7460    -1.9300    -1.7150 H     1 <1>   0.0800 
 24 H        0.6550    -2.8460    -0.6840 H     1 <1>   0.0800 
 25 H       -1.1780     4.7370     1.4150 H     1 <1>   0.1500 
 26 H        0.1200     3.8600    -2.5350 H     1 <1>   0.1500 
 27 H        3.3640    -3.3530    -1.2640 H     1 <1>   0.4000 
 28 H       -0.8390     5.9890    -1.9510 H     1 <1>   0.4000 
 29 H       -1.3600     6.3390    -0.3730 H     1 <1>   0.4000 
@<TRIPOS>BOND
  1   1   2  2   
  2   1   3  2   
  3   1   4  am  
  4   1   5  1   
  5   4   6  1   
  6   4   7  1   
  7   5   8  ar  
  8   5   9  ar  
  9   6  10  1   
 10   6  16  1   
 11   6  17  1   
 12   7  18  1   
 13   7  19  1   
 14   7  20  1   
 15   8  11  ar  
 16   8  21  1   
 17   9  12  ar  
 18   9  22  1   
 19  10  13  1   
 20  10  23  1   
 21  10  24  1   
 22  11  14  ar  
 23  11  25  1   
 24  12  14  ar  
 25  12  26  1   
 26  13  27  1   
 27  14  15  1   
 28  15  28  1   
 29  15  29  1   
@<TRIPOS>SUBSTRUCTURE
  1 ****   5 GROUP 4 **** **** 0

# MOE 2024.06 (io_trps.svl 2023.06)
