@<TRIPOS>MOLECULE
NONAME
46 46 1 0 0 
SMALL
USER_CHARGES


@<TRIPOS>ATOM
  1 O       -0.0390    -0.4510     0.2480 O.2   1 <1>  -0.5700 
  2 C       -0.0390    -1.6640     0.0950 C.2   1 <1>   0.5410 
  3 C       -1.3140    -2.3410     0.0140 C.2   1 <1>  -0.1240 
  4 C        1.2350    -2.3390     0.0030 C.2   1 <1>  -0.1240 
  5 C       -2.5120    -1.6910     0.0900 C.2   1 <1>  -0.1500 
  6 C       -1.2870    -3.8560    -0.1770 C.3   1 <1>  -0.0220 
  7 C        2.4330    -1.6890     0.0690 C.2   1 <1>  -0.1500 
  8 C        1.2080    -3.8550    -0.1870 C.3   1 <1>  -0.0220 
  9 C       -3.8430    -2.1930    -0.0090 C.2   1 <1>  -0.1500 
 10 C       -0.0370    -4.4920     0.4340 C.3   1 <1>  -0.0800 
 11 C        3.7640    -2.1900    -0.0410 C.2   1 <1>  -0.1500 
 12 C       -4.9700    -1.4540     0.1360 C.2   1 <1>  -0.0500 
 13 C       -0.0370    -6.0120     0.2220 C.3   1 <1>  -0.2400 
 14 C        4.8910    -1.4510     0.1000 C.2   1 <1>  -0.0500 
 15 N       -6.2740    -1.9010     0.0460 N.pl3 1 <1>  -0.8380 
 16 N        6.1950    -1.8960    -0.0050 N.pl3 1 <1>  -0.8380 
 17 C       -6.6390    -3.3260    -0.1710 C.3   1 <1>   0.1290 
 18 C       -7.4120    -0.9480     0.1320 C.3   1 <1>   0.1290 
 19 C        7.3350    -0.9830     0.2720 C.3   1 <1>   0.1290 
 20 C        6.5580    -3.2920    -0.3670 C.3   1 <1>   0.1290 
 21 H       -2.4820    -0.6240     0.2420 H     1 <1>   0.1500 
 22 H       -2.1450    -4.3050     0.2900 H     1 <1>   0.0800 
 23 H       -1.3300    -4.0720    -1.2300 H     1 <1>   0.0800 
 24 H        2.4030    -0.6220     0.2210 H     1 <1>   0.1500 
 25 H        1.2420    -4.0710    -1.2410 H     1 <1>   0.0800 
 26 H        2.0700    -4.3030     0.2720 H     1 <1>   0.0800 
 27 H       -3.9470    -3.2370    -0.2230 H     1 <1>   0.1500 
 28 H       -0.0320    -4.2950     1.4940 H     1 <1>   0.0800 
 29 H        3.8670    -3.2330    -0.2560 H     1 <1>   0.1500 
 30 H       -4.8610    -0.4000     0.3400 H     1 <1>   0.1500 
 31 H       -0.0410    -6.2530    -0.8270 H     1 <1>   0.0800 
 32 H       -0.9060    -6.4530     0.6780 H     1 <1>   0.0800 
 33 H        0.8360    -6.4520     0.6710 H     1 <1>   0.0800 
 34 H        4.7830    -0.4010     0.3220 H     1 <1>   0.1500 
 35 H       -7.6480    -3.5080     0.1570 H     1 <1>   0.0800 
 36 H       -5.9810    -3.9650     0.3910 H     1 <1>   0.0800 
 37 H       -6.5600    -3.5630    -1.2170 H     1 <1>   0.0800 
 38 H       -8.0250    -1.1890     0.9830 H     1 <1>   0.0800 
 39 H       -8.0060    -1.0090    -0.7630 H     1 <1>   0.0800 
 40 H       -7.0500     0.0600     0.2400 H     1 <1>   0.0800 
 41 H        7.9400    -1.3870     1.0650 H     1 <1>   0.0800 
 42 H        6.9750    -0.0140     0.5710 H     1 <1>   0.0800 
 43 H        7.9350    -0.8710    -0.6140 H     1 <1>   0.0800 
 44 H        7.5630    -3.3290    -0.7500 H     1 <1>   0.0800 
 45 H        5.8920    -3.6610    -1.1270 H     1 <1>   0.0800 
 46 H        6.4880    -3.9190     0.5040 H     1 <1>   0.0800 
@<TRIPOS>BOND
  1   1   2  2   
  2   2   3  1   
  3   2   4  1   
  4   3   5  2   
  5   3   6  1   
  6   4   7  2   
  7   4   8  1   
  8   5   9  1   
  9   5  21  1   
 10   6  10  1   
 11   6  22  1   
 12   6  23  1   
 13   7  11  1   
 14   7  24  1   
 15   8  10  1   
 16   8  25  1   
 17   8  26  1   
 18   9  12  2   
 19   9  27  1   
 20  10  13  1   
 21  10  28  1   
 22  11  14  2   
 23  11  29  1   
 24  12  15  1   
 25  12  30  1   
 26  13  31  1   
 27  13  32  1   
 28  13  33  1   
 29  14  16  1   
 30  14  34  1   
 31  15  17  1   
 32  15  18  1   
 33  16  19  1   
 34  16  20  1   
 35  17  35  1   
 36  17  36  1   
 37  17  37  1   
 38  18  38  1   
 39  18  39  1   
 40  18  40  1   
 41  19  41  1   
 42  19  42  1   
 43  19  43  1   
 44  20  44  1   
 45  20  45  1   
 46  20  46  1   
@<TRIPOS>SUBSTRUCTURE
  1 ****   2 GROUP 4 **** **** 0

# MOE 2024.06 (io_trps.svl 2023.06)
