@<TRIPOS>MOLECULE
NONAME
46 50 1 0 0 
SMALL
USER_CHARGES


@<TRIPOS>ATOM
  1 O       -0.1070    -0.7120    -0.8450 O.2   1 <1>  -0.5700 
  2 C       -1.2870    -1.0000    -0.7810 C.2   1 <1>   0.7800 
  3 O       -2.0940    -0.9700    -1.8410 O.3   1 <1>  -0.2320 
  4 N       -1.9650    -1.3940     0.3360 N.am  1 <1>  -0.4770 
  5 C       -3.3170    -1.3370    -1.4100 C.ar  1 <1>   0.0830 
  6 C       -3.2720    -1.6000    -0.0570 C.ar  1 <1>   0.1170 
  7 C       -1.3770    -1.5700     1.6930 C.3   1 <1>   0.2010 
  8 C       -4.4820    -1.4540    -2.1440 C.ar  1 <1>  -0.1500 
  9 C       -4.4230    -1.9890     0.6130 C.ar  1 <1>  -0.1500 
 10 C       -1.7570    -2.8850     2.3810 C.2   1 <1>   0.5690 
 11 C       -5.6320    -1.8470    -1.4760 C.ar  1 <1>  -0.1500 
 12 C       -5.6010    -2.1120    -0.1090 C.ar  1 <1>  -0.1500 
 13 O       -2.4810    -2.8080     3.3420 O.2   1 <1>  -0.5700 
 14 N       -1.3480    -4.1250     2.0060 N.am  1 <1>  -0.7300 
 15 C       -0.5250    -4.6950     0.9220 C.3   1 <1>   0.3000 
 16 C       -1.3450    -4.7880    -0.3770 C.3   1 <1>  -0.1600 
 17 C       -0.1510    -6.1240     1.3630 C.3   1 <1>  -0.1600 
 18 C        0.7770    -3.9080     0.6760 C.3   1 <1>  -0.1600 
 19 C       -0.5130    -5.4690    -1.4820 C.3   1 <1>  -0.0800 
 20 C        0.6810    -6.8300     0.2750 C.3   1 <1>  -0.0800 
 21 C        1.6110    -4.5940    -0.4220 C.3   1 <1>  -0.0800 
 22 C       -0.1400    -6.8920    -1.0270 C.3   1 <1>  -0.1600 
 23 C        0.7780    -4.6590    -1.7170 C.3   1 <1>  -0.1600 
 24 C        1.9680    -6.0230     0.0260 C.3   1 <1>  -0.1600 
 25 H       -1.7290    -0.7640     2.3100 H     1 <1>   0.0800 
 26 H       -0.3090    -1.4860     1.6490 H     1 <1>   0.0800 
 27 H       -4.4860    -1.2430    -3.1990 H     1 <1>   0.1500 
 28 H       -4.4020    -2.1920     1.6690 H     1 <1>   0.1500 
 29 H       -6.5570    -1.9490    -2.0170 H     1 <1>   0.1500 
 30 H       -6.5040    -2.4150     0.3940 H     1 <1>   0.1500 
 31 H       -1.7460    -4.8570     2.5940 H     1 <1>   0.3700 
 32 H       -1.6230    -3.8100    -0.7130 H     1 <1>   0.0800 
 33 H       -2.2450    -5.3490    -0.2050 H     1 <1>   0.0800 
 34 H       -1.0430    -6.6970     1.5470 H     1 <1>   0.0800 
 35 H        0.4180    -6.0860     2.2750 H     1 <1>   0.0800 
 36 H        1.3490    -3.8460     1.5840 H     1 <1>   0.0800 
 37 H        0.5620    -2.9170     0.3380 H     1 <1>   0.0800 
 38 H       -1.0850    -5.5150    -2.3920 H     1 <1>   0.0800 
 39 H        0.9320    -7.8270     0.5950 H     1 <1>   0.0800 
 40 H        2.5130    -4.0310    -0.5990 H     1 <1>   0.0800 
 41 H        0.4330    -7.3810    -1.7950 H     1 <1>   0.0800 
 42 H       -1.0330    -7.4710    -0.8690 H     1 <1>   0.0800 
 43 H        1.3570    -5.1190    -2.4990 H     1 <1>   0.0800 
 44 H        0.5310    -3.6620    -2.0410 H     1 <1>   0.0800 
 45 H        2.5590    -6.5060    -0.7340 H     1 <1>   0.0800 
 46 H        2.5580    -5.9880     0.9250 H     1 <1>   0.0800 
@<TRIPOS>BOND
  1   1   2  2   
  2   2   3  1   
  3   2   4  am  
  4   3   5  1   
  5   4   6  1   
  6   4   7  1   
  7   5   6  ar  
  8   5   8  ar  
  9   6   9  ar  
 10   7  10  1   
 11   7  25  1   
 12   7  26  1   
 13   8  11  ar  
 14   8  27  1   
 15   9  12  ar  
 16   9  28  1   
 17  10  13  2   
 18  10  14  am  
 19  11  12  ar  
 20  11  29  1   
 21  12  30  1   
 22  14  15  1   
 23  14  31  1   
 24  15  16  1   
 25  15  17  1   
 26  15  18  1   
 27  16  19  1   
 28  16  32  1   
 29  16  33  1   
 30  17  20  1   
 31  17  34  1   
 32  17  35  1   
 33  18  21  1   
 34  18  36  1   
 35  18  37  1   
 36  19  22  1   
 37  19  23  1   
 38  19  38  1   
 39  20  22  1   
 40  20  24  1   
 41  20  39  1   
 42  21  23  1   
 43  21  24  1   
 44  21  40  1   
 45  22  41  1   
 46  22  42  1   
 47  23  43  1   
 48  23  44  1   
 49  24  45  1   
 50  24  46  1   
@<TRIPOS>SUBSTRUCTURE
  1 ****  16 GROUP 4 **** **** 0

# MOE 2024.06 (io_trps.svl 2023.06)
