@<TRIPOS>MOLECULE
NONAME
52 53 1 0 0 
SMALL
USER_CHARGES


@<TRIPOS>ATOM
  1 S        0.8230     0.8630    -1.4860 S.o2  1 <1>   1.3330 
  2 O        1.0960    -0.1980    -0.5530 O.2   1 <1>  -0.6500 
  3 O        1.8290     1.2180    -2.4610 O.2   1 <1>  -0.6500 
  4 N        0.5190     2.3090    -0.5880 N.am  1 <1>  -0.6930 
  5 C       -0.7240     0.5790    -2.3180 C.3   1 <1>  -0.1350 
  6 C       -0.3920     2.3250     0.4640 C.ar  1 <1>   0.1990 
  7 C        1.5860     3.3590    -0.5860 C.3   1 <1>   0.2570 
  8 C       -1.6080     3.0110     0.3750 C.ar  1 <1>  -0.1440 
  9 C       -0.0860     1.6440     1.6380 C.ar  1 <1>  -0.1500 
 10 C        2.8890     2.9540     0.1130 C.2   1 <1>   0.5690 
 11 C       -2.4860     2.9850     1.4470 C.ar  1 <1>  -0.1500 
 12 C       -2.0180     3.8030    -0.8650 C.3   1 <1>  -0.0170 
 13 C       -0.9670     1.6260     2.7020 C.ar  1 <1>  -0.1500 
 14 O        3.1620     3.4860     1.1620 O.2   1 <1>  -0.5700 
 15 N        3.6970     2.0240    -0.4890 N.am  1 <1>  -0.5470 
 16 C       -2.1720     2.2970     2.6060 C.ar  1 <1>  -0.1500 
 17 C       -1.7950     5.3030    -0.6550 C.3   1 <1>  -0.2400 
 18 C        4.8770     1.4120    -0.0640 C.ar  1 <1>   0.1170 
 19 C        5.2070     0.1690    -0.5910 C.ar  1 <1>  -0.1500 
 20 C        5.7490     1.9810     0.8600 C.ar  1 <1>  -0.1500 
 21 C        6.3670    -0.4790    -0.2150 C.ar  1 <1>  -0.1500 
 22 C        6.9070     1.3300     1.2370 C.ar  1 <1>  -0.1500 
 23 C        7.2560     0.0890     0.7000 C.ar  1 <1>   0.0860 
 24 C        8.4730    -0.5990     1.0740 C.2   1 <1>   0.6340 
 25 O        8.4920    -1.7740     1.3630 O.2   1 <1>  -0.5700 
 26 O        9.6440     0.0440     1.0850 O.3   1 <1>  -0.4300 
 27 C        9.9370     1.1030     0.2020 C.3   1 <1>   0.1200 
 28 C       11.4420     1.3440     0.2480 C.3   1 <1>  -0.2400 
 29 H       -0.6600    -0.3060    -2.9190 H     1 <1>   0.0800 
 30 H       -0.9640     1.4090    -2.9520 H     1 <1>   0.0800 
 31 H       -1.5100     0.4500    -1.6000 H     1 <1>   0.0800 
 32 H        1.2080     4.2330    -0.0870 H     1 <1>   0.0800 
 33 H        1.8090     3.6400    -1.5990 H     1 <1>   0.0800 
 34 H        0.8520     1.1240     1.7170 H     1 <1>   0.1500 
 35 H       -3.4250     3.5080     1.3890 H     1 <1>   0.1500 
 36 H       -3.0600     3.6260    -1.0690 H     1 <1>   0.0800 
 37 H       -1.4680     3.4820    -1.7310 H     1 <1>   0.0800 
 38 H       -0.7140     1.0920     3.6010 H     1 <1>   0.1500 
 39 H        3.2990     1.6190    -1.3470 H     1 <1>   0.3700 
 40 H       -2.8620     2.2850     3.4320 H     1 <1>   0.1500 
 41 H       -2.3770     5.6540     0.1780 H     1 <1>   0.0800 
 42 H       -2.0900     5.8480    -1.5340 H     1 <1>   0.0800 
 43 H       -0.7580     5.5030    -0.4560 H     1 <1>   0.0800 
 44 H        4.5400    -0.2980    -1.2960 H     1 <1>   0.1500 
 45 H        5.5200     2.9390     1.2910 H     1 <1>   0.1500 
 46 H        6.5970    -1.4470    -0.6280 H     1 <1>   0.1500 
 47 H        7.5540     1.7860     1.9670 H     1 <1>   0.1500 
 48 H        9.4050     1.9830     0.5190 H     1 <1>   0.0800 
 49 H        9.6270     0.8210    -0.7900 H     1 <1>   0.0800 
 50 H       11.7440     1.6130     1.2440 H     1 <1>   0.0800 
 51 H       11.7030     2.1460    -0.4180 H     1 <1>   0.0800 
 52 H       11.9670     0.4570    -0.0590 H     1 <1>   0.0800 
@<TRIPOS>BOND
  1   1   2  2   
  2   1   3  2   
  3   1   4  am  
  4   1   5  1   
  5   4   6  1   
  6   4   7  1   
  7   5  29  1   
  8   5  30  1   
  9   5  31  1   
 10   6   8  ar  
 11   6   9  ar  
 12   7  10  1   
 13   7  32  1   
 14   7  33  1   
 15   8  11  ar  
 16   8  12  1   
 17   9  13  ar  
 18   9  34  1   
 19  10  14  2   
 20  10  15  am  
 21  11  16  ar  
 22  11  35  1   
 23  12  17  1   
 24  12  36  1   
 25  12  37  1   
 26  13  16  ar  
 27  13  38  1   
 28  15  18  1   
 29  15  39  1   
 30  16  40  1   
 31  17  41  1   
 32  17  42  1   
 33  17  43  1   
 34  18  19  ar  
 35  18  20  ar  
 36  19  21  ar  
 37  19  44  1   
 38  20  22  ar  
 39  20  45  1   
 40  21  23  ar  
 41  21  46  1   
 42  22  23  ar  
 43  22  47  1   
 44  23  24  1   
 45  24  25  2   
 46  24  26  1   
 47  26  27  1   
 48  27  28  1   
 49  27  48  1   
 50  27  49  1   
 51  28  50  1   
 52  28  51  1   
 53  28  52  1   
@<TRIPOS>SUBSTRUCTURE
  1 ****  15 GROUP 4 **** **** 0

# MOE 2024.06 (io_trps.svl 2023.06)
