@<TRIPOS>MOLECULE
NONAME
50 52 1 0 0 
SMALL
USER_CHARGES


@<TRIPOS>ATOM
  1 S        0.4480     0.3090     2.2220 S.3   1 <1>  -0.0800 
  2 C       -0.2730    -0.9690     1.2560 C.2   1 <1>   0.1040 
  3 C        1.8990     0.3230     1.2350 C.2   1 <1>  -0.1400 
  4 N       -1.5230    -1.4680     1.5810 N.am  1 <1>  -0.4940 
  5 C        0.5660    -1.3360     0.2410 C.2   1 <1>  -0.0860 
  6 C        1.7990    -0.5890     0.2530 C.2   1 <1>  -0.1500 
  7 C        2.9830     1.3070     1.6200 C.3   1 <1>  -0.0600 
  8 C       -2.5210    -1.0670     2.4280 C.2   1 <1>   0.5690 
  9 C        0.2720    -2.3390    -0.7430 C.2   1 <1>   0.8060 
 10 O       -2.4780    -0.0830     3.1240 O.2   1 <1>  -0.5700 
 11 C       -3.7700    -1.9510     2.4610 C.3   1 <1>   0.1710 
 12 O       -0.7940    -2.9270    -0.8010 O.2   1 <1>  -0.5700 
 13 O        1.2160    -2.6380    -1.6420 O.3   1 <1>  -0.4300 
 14 N       -3.8270    -2.9600     1.3600 N.3   1 <1>  -0.8100 
 15 C        1.0020    -3.6130    -2.6390 C.3   1 <1>   0.1200 
 16 C       -4.7640    -4.0600     1.6880 C.3   1 <1>   0.1100 
 17 C       -4.2200    -2.3420     0.0640 C.3   1 <1>   0.1100 
 18 C        2.2650    -3.7080    -3.4870 C.3   1 <1>  -0.2400 
 19 C       -4.8290    -5.1270     0.5780 C.3   1 <1>   0.2090 
 20 C       -4.2530    -3.3740    -1.0780 C.3   1 <1>   0.2090 
 21 N       -5.1750    -4.4990    -0.7330 N.pl3 1 <1>  -0.8380 
 22 C       -6.3730    -4.7230    -1.3750 C.ar  1 <1>   0.7200 
 23 N       -7.0200    -5.8490    -1.0750 N.ar  1 <1>  -0.6200 
 24 N       -6.7870    -3.7950    -2.2390 N.ar  1 <1>  -0.6200 
 25 C       -8.1540    -6.0550    -1.6970 C.ar  1 <1>   0.1600 
 26 C       -7.9260    -4.0270    -2.8450 C.ar  1 <1>   0.1600 
 27 C       -8.6610    -5.1610    -2.6060 C.ar  1 <1>  -0.1500 
 28 H       -1.8240    -2.2970     1.0460 H     1 <1>   0.3700 
 29 H        2.5600    -0.7730    -0.4860 H     1 <1>   0.1500 
 30 H        3.3200     1.1060     2.6200 H     1 <1>   0.0800 
 31 H        2.5970     2.3100     1.5770 H     1 <1>   0.0800 
 32 H        3.8170     1.2250     0.9470 H     1 <1>   0.0800 
 33 H       -4.6440    -1.3240     2.4320 H     1 <1>   0.0800 
 34 H       -3.7620    -2.4600     3.4080 H     1 <1>   0.0800 
 35 H        0.1570    -3.3120    -3.2370 H     1 <1>   0.0800 
 36 H        0.7880    -4.5530    -2.1580 H     1 <1>   0.0800 
 37 H       -5.7540    -3.6640     1.8400 H     1 <1>   0.0800 
 38 H       -4.4500    -4.5360     2.6010 H     1 <1>   0.0800 
 39 H       -3.5250    -1.5650    -0.2010 H     1 <1>   0.0800 
 40 H       -5.1980    -1.8990     0.1500 H     1 <1>   0.0800 
 41 H        2.4710    -2.7610    -3.9530 H     1 <1>   0.0800 
 42 H        2.1300    -4.4460    -4.2570 H     1 <1>   0.0800 
 43 H        3.1010    -3.9990    -2.8770 H     1 <1>   0.0800 
 44 H       -5.5480    -5.8770     0.8550 H     1 <1>   0.0800 
 45 H       -3.8710    -5.6100     0.4930 H     1 <1>   0.0800 
 46 H       -3.2620    -3.7660    -1.2280 H     1 <1>   0.0800 
 47 H       -4.5470    -2.8890    -1.9920 H     1 <1>   0.0800 
 48 H       -8.6930    -6.9610    -1.4740 H     1 <1>   0.1500 
 49 H       -8.2810    -3.2950    -3.5500 H     1 <1>   0.1500 
 50 H       -9.5920    -5.3420    -3.1100 H     1 <1>   0.1500 
@<TRIPOS>BOND
  1   1   2  1   
  2   1   3  1   
  3   2   4  1   
  4   2   5  2   
  5   3   6  2   
  6   3   7  1   
  7   4   8  am  
  8   4  28  1   
  9   5   6  1   
 10   5   9  1   
 11   6  29  1   
 12   7  30  1   
 13   7  31  1   
 14   7  32  1   
 15   8  10  2   
 16   8  11  1   
 17   9  12  2   
 18   9  13  1   
 19  11  14  1   
 20  11  33  1   
 21  11  34  1   
 22  13  15  1   
 23  14  16  1   
 24  14  17  1   
 25  15  18  1   
 26  15  35  1   
 27  15  36  1   
 28  16  19  1   
 29  16  37  1   
 30  16  38  1   
 31  17  20  1   
 32  17  39  1   
 33  17  40  1   
 34  18  41  1   
 35  18  42  1   
 36  18  43  1   
 37  19  21  1   
 38  19  44  1   
 39  19  45  1   
 40  20  21  1   
 41  20  46  1   
 42  20  47  1   
 43  21  22  1   
 44  22  23  ar  
 45  22  24  ar  
 46  23  25  ar  
 47  24  26  ar  
 48  25  27  ar  
 49  25  48  1   
 50  26  27  ar  
 51  26  49  1   
 52  27  50  1   
@<TRIPOS>SUBSTRUCTURE
  1 ****  17 GROUP 4 **** **** 0

# MOE 2024.06 (io_trps.svl 2023.06)
