@<TRIPOS>MOLECULE
NONAME
41 42 1 0 0 
SMALL
USER_CHARGES


@<TRIPOS>ATOM
  1 O       -9.1720     2.6310     0.0440 O.3   1 <1>  -0.3630 
  2 C      -10.3910     2.1480    -0.3030 C.ar  1 <1>   0.0830 
  3 C       -7.9870     2.0530    -0.4450 C.3   1 <1>   0.1200 
  4 C      -11.4920     2.7990     0.2290 C.ar  1 <1>  -0.1500 
  5 C      -10.5780     1.0580    -1.1460 C.ar  1 <1>  -0.1500 
  6 C       -6.8090     2.8380     0.1300 C.3   1 <1>  -0.1600 
  7 C      -12.7920     2.3920    -0.0580 C.ar  1 <1>  -0.1440 
  8 C      -11.8600     0.6390    -1.4430 C.ar  1 <1>  -0.1500 
  9 C       -5.4760     2.2710    -0.3670 C.3   1 <1>   0.0960 
 10 C      -12.9510     1.2990    -0.9040 C.ar  1 <1>  -0.1500 
 11 C      -14.0410     3.0950     0.5190 C.3   1 <1>   0.1440 
 12 N       -4.3490     3.0380     0.1970 N.pl3 1 <1>   0.0480 
 13 C      -13.6970     4.2830     1.4350 C.3   1 <1>  -0.2400 
 14 C      -14.9050     3.6330    -0.6320 C.3   1 <1>  -0.2400 
 15 C      -14.8590     2.0930     1.3470 C.3   1 <1>  -0.2400 
 16 C       -3.7140     4.1010    -0.3470 C.2   1 <1>   0.0360 
 17 C       -3.7220     2.8300     1.3690 C.2   1 <1>  -0.3020 
 18 N       -2.7520     4.5680     0.3800 N.2   1 <1>  -0.5650 
 19 C       -2.7560     3.7690     1.4630 C.2   1 <1>   0.0770 
 20 H       -8.0020     2.1130    -1.5200 H     1 <1>   0.0800 
 21 H       -7.9570     1.0250    -0.1260 H     1 <1>   0.0800 
 22 H      -11.2910     3.6330     0.8730 H     1 <1>   0.1500 
 23 H       -9.7500     0.5290    -1.5770 H     1 <1>   0.1500 
 24 H       -6.8440     2.7810     1.2050 H     1 <1>   0.0800 
 25 H       -6.8950     3.8680    -0.1720 H     1 <1>   0.0800 
 26 H      -12.0140    -0.2030    -2.0940 H     1 <1>   0.1500 
 27 H       -5.4240     2.3230    -1.4400 H     1 <1>   0.0800 
 28 H       -5.3720     1.2430    -0.0670 H     1 <1>   0.0800 
 29 H      -13.9340     0.9460    -1.1560 H     1 <1>   0.1500 
 30 H      -13.1120     3.9540     2.2750 H     1 <1>   0.0800 
 31 H      -14.5940     4.7410     1.8120 H     1 <1>   0.0800 
 32 H      -13.1440     5.0290     0.8930 H     1 <1>   0.0800 
 33 H      -14.3280     4.3090    -1.2380 H     1 <1>   0.0800 
 34 H      -15.7620     4.1590    -0.2500 H     1 <1>   0.0800 
 35 H      -15.2550     2.8340    -1.2590 H     1 <1>   0.0800 
 36 H      -14.2500     1.6860     2.1350 H     1 <1>   0.0800 
 37 H      -15.2090     1.2810     0.7380 H     1 <1>   0.0800 
 38 H      -15.7140     2.5730     1.7880 H     1 <1>   0.0800 
 39 H       -3.9990     4.5080    -1.3010 H     1 <1>   0.1500 
 40 H       -3.9880     2.0490     2.0570 H     1 <1>   0.1500 
 41 H       -2.0510     3.9150     2.2650 H     1 <1>   0.1500 
@<TRIPOS>BOND
  1   1   2  1   
  2   1   3  1   
  3   2   4  ar  
  4   2   5  ar  
  5   3   6  1   
  6   3  20  1   
  7   3  21  1   
  8   4   7  ar  
  9   4  22  1   
 10   5   8  ar  
 11   5  23  1   
 12   6   9  1   
 13   6  24  1   
 14   6  25  1   
 15   7  10  ar  
 16   7  11  1   
 17   8  10  ar  
 18   8  26  1   
 19   9  12  1   
 20   9  27  1   
 21   9  28  1   
 22  10  29  1   
 23  11  13  1   
 24  11  14  1   
 25  11  15  1   
 26  12  16  1   
 27  12  17  1   
 28  13  30  1   
 29  13  31  1   
 30  13  32  1   
 31  14  33  1   
 32  14  34  1   
 33  14  35  1   
 34  15  36  1   
 35  15  37  1   
 36  15  38  1   
 37  16  18  2   
 38  16  39  1   
 39  17  19  2   
 40  17  40  1   
 41  18  19  1   
 42  19  41  1   
@<TRIPOS>SUBSTRUCTURE
  1 ****   1 GROUP 4 **** **** 0

# MOE 2024.06 (io_trps.svl 2023.06)
