@<TRIPOS>MOLECULE
NONAME
49 50 1 0 0 
SMALL
USER_CHARGES


@<TRIPOS>ATOM
  1 CL       0.2150    -0.1500     0.3780 Cl    1 <1>  -0.1770 
  2 C        1.9620    -0.0040     0.3040 C.ar  1 <1>   0.1770 
  3 C        2.5240     1.1320    -0.2630 C.ar  1 <1>  -0.1440 
  4 C        2.7470    -1.0290     0.8150 C.ar  1 <1>  -0.1440 
  5 C        3.9050     1.2400    -0.3180 C.ar  1 <1>  -0.1500 
  6 C        1.6450     2.2460    -0.8170 C.3   1 <1>  -0.0960 
  7 C        4.1250    -0.9030     0.7500 C.ar  1 <1>  -0.1500 
  8 C        2.1210    -2.2700     1.4340 C.3   1 <1>  -0.0960 
  9 C        4.7100     0.2220     0.1880 C.ar  1 <1>   0.0830 
 10 O        6.0660     0.2520     0.1700 O.3   1 <1>  -0.3630 
 11 C        6.7730     1.3220    -0.4220 C.3   1 <1>   0.1200 
 12 C        8.2750     1.0430    -0.2850 C.3   1 <1>   0.2000 
 13 O        8.5650     0.7680     1.0530 O.3   1 <1>  -0.6800 
 14 C        9.1480     2.2280    -0.7520 C.3   1 <1>   0.3430 
 15 N       10.5020     2.1590    -0.1240 N.4   1 <1>  -0.9590 
 16 C       11.1950     3.4730     0.0400 C.3   1 <1>   0.3430 
 17 C       11.4200     1.1290    -0.7250 C.3   1 <1>   0.3430 
 18 C       12.4590     3.3300     0.9290 C.3   1 <1>   0.2000 
 19 C       12.8920     1.2780    -0.2550 C.3   1 <1>   0.2000 
 20 O       12.9610     2.0170     0.9340 O.3   1 <1>  -0.5600 
 21 C       12.1590     3.6680     2.3880 C.3   1 <1>  -0.2400 
 22 C       13.8150     1.9090    -1.3050 C.3   1 <1>  -0.2400 
 23 H        4.3340     2.1200    -0.7560 H     1 <1>   0.1500 
 24 H        1.0200     2.6420    -0.0370 H     1 <1>   0.0800 
 25 H        1.0170     1.8620    -1.6010 H     1 <1>   0.0800 
 26 H        2.2370     3.0480    -1.2180 H     1 <1>   0.0800 
 27 H        4.7600    -1.6790     1.1360 H     1 <1>   0.1500 
 28 H        1.5100    -1.9920     2.2740 H     1 <1>   0.0800 
 29 H        2.8760    -2.9570     1.7740 H     1 <1>   0.0800 
 30 H        1.5060    -2.7720     0.7090 H     1 <1>   0.0800 
 31 H        6.5050     2.2300     0.0900 H     1 <1>   0.0800 
 32 H        6.4880     1.3840    -1.4580 H     1 <1>   0.0800 
 33 H        8.5190     0.1660    -0.8590 H     1 <1>   0.0800 
 34 H        7.8580     0.1810     1.4110 H     1 <1>   0.4000 
 35 H        8.6620     3.1390    -0.4420 H     1 <1>   0.0800 
 36 H        9.2220     2.2410    -1.8260 H     1 <1>   0.0800 
 37 H       10.3160     1.8080     0.8370 H     1 <1>   0.4500 
 38 H       10.5320     4.1970     0.4850 H     1 <1>   0.0800 
 39 H       11.4900     3.8490    -0.9250 H     1 <1>   0.0800 
 40 H       11.3970     1.1940    -1.8000 H     1 <1>   0.0800 
 41 H       11.0720     0.1460    -0.4540 H     1 <1>   0.0800 
 42 H       13.2340     3.9840     0.5680 H     1 <1>   0.0800 
 43 H       13.2750     0.2970    -0.0270 H     1 <1>   0.0800 
 44 H       11.4080     3.0090     2.7860 H     1 <1>   0.0800 
 45 H       11.8130     4.6820     2.4760 H     1 <1>   0.0800 
 46 H       13.0560     3.5700     2.9750 H     1 <1>   0.0800 
 47 H       13.4590     2.8660    -1.6370 H     1 <1>   0.0800 
 48 H       13.8840     1.2630    -2.1630 H     1 <1>   0.0800 
 49 H       14.8050     2.0190    -0.8970 H     1 <1>   0.0800 
@<TRIPOS>BOND
  1   1   2  1   
  2   2   3  ar  
  3   2   4  ar  
  4   3   5  ar  
  5   3   6  1   
  6   4   7  ar  
  7   4   8  1   
  8   5   9  ar  
  9   5  23  1   
 10   6  24  1   
 11   6  25  1   
 12   6  26  1   
 13   7   9  ar  
 14   7  27  1   
 15   8  28  1   
 16   8  29  1   
 17   8  30  1   
 18   9  10  1   
 19  10  11  1   
 20  11  12  1   
 21  11  31  1   
 22  11  32  1   
 23  12  13  1   
 24  12  14  1   
 25  12  33  1   
 26  13  34  1   
 27  14  15  1   
 28  14  35  1   
 29  14  36  1   
 30  15  16  1   
 31  15  17  1   
 32  15  37  1   
 33  16  18  1   
 34  16  38  1   
 35  16  39  1   
 36  17  19  1   
 37  17  40  1   
 38  17  41  1   
 39  18  20  1   
 40  18  21  1   
 41  18  42  1   
 42  19  20  1   
 43  19  22  1   
 44  19  43  1   
 45  21  44  1   
 46  21  45  1   
 47  21  46  1   
 48  22  47  1   
 49  22  48  1   
 50  22  49  1   
@<TRIPOS>SUBSTRUCTURE
  1 ****  11 GROUP 4 **** **** 0

# MOE 2024.06 (io_trps.svl 2023.06)
