@<TRIPOS>MOLECULE
NONAME
51 52 1 0 0 
SMALL
USER_CHARGES


@<TRIPOS>ATOM
  1 O       -2.6610    -4.8490     2.3500 O.2   1 <1>  -0.5700 
  2 C       -1.9930    -4.4820     1.4130 C.2   1 <1>   0.5690 
  3 N       -2.5130    -3.6660     0.4570 N.am  1 <1>  -0.7300 
  4 C       -0.5470    -4.9510     1.3020 C.3   1 <1>   0.1810 
  5 C       -3.8810    -3.1400     0.4730 C.3   1 <1>   0.2200 
  6 O        0.0500    -4.4870     0.0970 O.3   1 <1>  -0.3630 
  7 C       -4.7760    -4.0630    -0.3460 C.3   1 <1>  -0.1600 
  8 C       -3.8970    -1.7400    -0.1280 C.3   1 <1>  -0.1600 
  9 C        1.3380    -4.7890    -0.2050 C.ar  1 <1>   0.0830 
 10 C       -6.2210    -3.5560    -0.4040 C.3   1 <1>   0.5030 
 11 C       -5.3170    -1.1590    -0.1840 C.3   1 <1>   0.5030 
 12 C        2.1680    -5.5540     0.6120 C.ar  1 <1>  -0.1500 
 13 C        1.8290    -4.2950    -1.4020 C.ar  1 <1>  -0.1500 
 14 N       -6.2730    -2.1260    -0.7530 N.4   1 <1>  -0.9060 
 15 C       -6.9700    -4.2780    -1.5230 C.3   1 <1>  -0.2400 
 16 C       -6.9720    -3.8050     0.9070 C.3   1 <1>  -0.2400 
 17 C       -5.3390     0.0420    -1.1280 C.3   1 <1>  -0.2400 
 18 C       -5.8020    -0.6910     1.1910 C.3   1 <1>  -0.2400 
 19 C        3.4730    -5.8200     0.2310 C.ar  1 <1>  -0.1430 
 20 C        3.1320    -4.5570    -1.7850 C.ar  1 <1>  -0.1500 
 21 C        3.9520    -5.3170    -0.9690 C.ar  1 <1>  -0.1500 
 22 C        4.3810    -6.6510     1.1190 C.3   1 <1>  -0.0970 
 23 H       -1.8990    -3.4220    -0.3260 H     1 <1>   0.3700 
 24 H       -0.5200    -6.0250     1.3050 H     1 <1>   0.0800 
 25 H        0.0160    -4.5650     2.1320 H     1 <1>   0.0800 
 26 H       -4.2210    -3.1070     1.4960 H     1 <1>   0.0800 
 27 H       -4.7610    -5.0460     0.0920 H     1 <1>   0.0800 
 28 H       -4.3780    -4.1470    -1.3420 H     1 <1>   0.0800 
 29 H       -3.4840    -1.7780    -1.1210 H     1 <1>   0.0800 
 30 H       -3.2700    -1.0930     0.4610 H     1 <1>   0.0800 
 31 H        1.8180    -5.9500     1.5460 H     1 <1>   0.1500 
 32 H        1.1910    -3.7060    -2.0330 H     1 <1>   0.1500 
 33 H       -7.2170    -1.7890    -0.5550 H     1 <1>   0.4500 
 34 H       -6.1600    -2.0770    -1.7670 H     1 <1>   0.4500 
 35 H       -6.5000    -4.1180    -2.4770 H     1 <1>   0.0800 
 36 H       -7.9960    -3.9590    -1.5760 H     1 <1>   0.0800 
 37 H       -6.9690    -5.3390    -1.3370 H     1 <1>   0.0800 
 38 H       -6.4350    -3.4500     1.7640 H     1 <1>   0.0800 
 39 H       -7.1010    -4.8640     1.0520 H     1 <1>   0.0800 
 40 H       -7.9500    -3.3590     0.8900 H     1 <1>   0.0800 
 41 H       -5.0320    -0.2330    -2.1210 H     1 <1>   0.0800 
 42 H       -4.6560     0.7970    -0.7760 H     1 <1>   0.0800 
 43 H       -6.3180     0.4860    -1.1720 H     1 <1>   0.0800 
 44 H       -5.6880    -1.4420     1.9460 H     1 <1>   0.0800 
 45 H       -6.8290    -0.3740     1.1570 H     1 <1>   0.0800 
 46 H       -5.2140     0.1520     1.5130 H     1 <1>   0.0800 
 47 H        3.5090    -4.1700    -2.7150 H     1 <1>   0.1500 
 48 H        4.9650    -5.5160    -1.2720 H     1 <1>   0.1500 
 49 H        3.8040    -7.3050     1.7480 H     1 <1>   0.0800 
 50 H        4.9730    -6.0040     1.7420 H     1 <1>   0.0800 
 51 H        5.0400    -7.2540     0.5200 H     1 <1>   0.0800 
@<TRIPOS>BOND
  1   1   2  2   
  2   2   3  am  
  3   2   4  1   
  4   3   5  1   
  5   3  23  1   
  6   4   6  1   
  7   4  24  1   
  8   4  25  1   
  9   5   7  1   
 10   5   8  1   
 11   5  26  1   
 12   6   9  1   
 13   7  10  1   
 14   7  27  1   
 15   7  28  1   
 16   8  11  1   
 17   8  29  1   
 18   8  30  1   
 19   9  12  ar  
 20   9  13  ar  
 21  10  14  1   
 22  10  15  1   
 23  10  16  1   
 24  11  14  1   
 25  11  17  1   
 26  11  18  1   
 27  12  19  ar  
 28  12  31  1   
 29  13  20  ar  
 30  13  32  1   
 31  14  33  1   
 32  14  34  1   
 33  15  35  1   
 34  15  36  1   
 35  15  37  1   
 36  16  38  1   
 37  16  39  1   
 38  16  40  1   
 39  17  41  1   
 40  17  42  1   
 41  17  43  1   
 42  18  44  1   
 43  18  45  1   
 44  18  46  1   
 45  19  21  ar  
 46  19  22  1   
 47  20  21  ar  
 48  20  47  1   
 49  21  48  1   
 50  22  49  1   
 51  22  50  1   
 52  22  51  1   
@<TRIPOS>SUBSTRUCTURE
  1 ****   3 GROUP 4 **** **** 0

# MOE 2024.06 (io_trps.svl 2023.06)
