@<TRIPOS>MOLECULE
NONAME
50 52 1 0 0 
SMALL
USER_CHARGES


@<TRIPOS>ATOM
  1 O        0.4280    -1.5680    -1.8410 O.2   1 <1>  -0.5700 
  2 C        0.2530    -1.9260    -0.7060 C.2   1 <1>   0.6590 
  3 O       -0.8640    -1.6820    -0.0400 O.3   1 <1>  -0.4300 
  4 C        1.3290    -2.6990     0.0510 C.3   1 <1>  -0.0190 
  5 C       -1.9320    -0.9770    -0.6310 C.3   1 <1>   0.1200 
  6 C        2.6110    -1.8580     0.2000 C.3   1 <1>  -0.1600 
  7 C        1.6460    -4.0340    -0.6510 C.3   1 <1>  -0.1600 
  8 C       -3.0540    -0.8690     0.3970 C.3   1 <1>  -0.2400 
  9 C        3.7450    -2.6460     0.8540 C.3   1 <1>   0.3430 
 10 C        2.7970    -4.7790     0.0220 C.3   1 <1>   0.3430 
 11 N        3.9940    -3.8960     0.0780 N.4   1 <1>  -0.9590 
 12 C        5.1900    -4.6280     0.5820 C.3   1 <1>   0.4860 
 13 C        6.4140    -3.7560     0.3790 C.ar  1 <1>  -0.1440 
 14 C        6.9410    -3.5670    -0.8900 C.ar  1 <1>  -0.1500 
 15 C        7.0180    -3.1340     1.4620 C.ar  1 <1>  -0.1500 
 16 C        8.0470    -2.7570    -1.0700 C.ar  1 <1>  -0.1500 
 17 C        8.1230    -2.3250     1.2720 C.ar  1 <1>  -0.1500 
 18 C        8.6560    -2.1180     0.0040 C.ar  1 <1>   0.0000 
 19 C        9.8100    -1.2700    -0.1900 C.ar  1 <1>   0.0000 
 20 C       11.0130    -1.5390     0.4560 C.ar  1 <1>  -0.1500 
 21 C        9.7510    -0.1590    -1.0270 C.ar  1 <1>  -0.1500 
 22 C       12.1190    -0.7280     0.2750 C.ar  1 <1>  -0.1500 
 23 C       10.8540     0.6550    -1.2130 C.ar  1 <1>  -0.1500 
 24 C       12.0410     0.3710    -0.5610 C.ar  1 <1>  -0.1500 
 25 H        0.9460    -2.9140     1.0340 H     1 <1>   0.0800 
 26 H       -2.2580    -1.5170    -1.5040 H     1 <1>   0.0800 
 27 H       -1.5790    -0.0010    -0.9220 H     1 <1>   0.0800 
 28 H        2.3990    -0.9880     0.7980 H     1 <1>   0.0800 
 29 H        2.9370    -1.5080    -0.7650 H     1 <1>   0.0800 
 30 H        1.8950    -3.8560    -1.6840 H     1 <1>   0.0800 
 31 H        0.7690    -4.6580    -0.6390 H     1 <1>   0.0800 
 32 H       -3.3910    -1.8480     0.6840 H     1 <1>   0.0800 
 33 H       -3.8830    -0.3330    -0.0290 H     1 <1>   0.0800 
 34 H       -2.7130    -0.3340     1.2650 H     1 <1>   0.0800 
 35 H        3.4800    -2.8900     1.8700 H     1 <1>   0.0800 
 36 H        4.6350    -2.0360     0.8720 H     1 <1>   0.0800 
 37 H        3.0190    -5.6730    -0.5390 H     1 <1>   0.0800 
 38 H        2.5060    -5.0670     1.0200 H     1 <1>   0.0800 
 39 H        4.2240    -3.6000    -0.8800 H     1 <1>   0.4500 
 40 H        5.3200    -5.5490     0.0360 H     1 <1>   0.0800 
 41 H        5.0730    -4.8630     1.6270 H     1 <1>   0.0800 
 42 H        6.5080    -4.0480    -1.7510 H     1 <1>   0.1500 
 43 H        6.6420    -3.2690     2.4620 H     1 <1>   0.1500 
 44 H        8.4570    -2.6160    -2.0560 H     1 <1>   0.1500 
 45 H        8.5870    -1.8400     2.1140 H     1 <1>   0.1500 
 46 H       11.0830    -2.3950     1.1040 H     1 <1>   0.1500 
 47 H        8.8320     0.0710    -1.5340 H     1 <1>   0.1500 
 48 H       13.0410    -0.9530     0.7820 H     1 <1>   0.1500 
 49 H       10.7900     1.5100    -1.8640 H     1 <1>   0.1500 
 50 H       12.9000     1.0030    -0.7040 H     1 <1>   0.1500 
@<TRIPOS>BOND
  1   1   2  2   
  2   2   3  1   
  3   2   4  1   
  4   3   5  1   
  5   4   6  1   
  6   4   7  1   
  7   4  25  1   
  8   5   8  1   
  9   5  26  1   
 10   5  27  1   
 11   6   9  1   
 12   6  28  1   
 13   6  29  1   
 14   7  10  1   
 15   7  30  1   
 16   7  31  1   
 17   8  32  1   
 18   8  33  1   
 19   8  34  1   
 20   9  11  1   
 21   9  35  1   
 22   9  36  1   
 23  10  11  1   
 24  10  37  1   
 25  10  38  1   
 26  11  12  1   
 27  11  39  1   
 28  12  13  1   
 29  12  40  1   
 30  12  41  1   
 31  13  14  ar  
 32  13  15  ar  
 33  14  16  ar  
 34  14  42  1   
 35  15  17  ar  
 36  15  43  1   
 37  16  18  ar  
 38  16  44  1   
 39  17  18  ar  
 40  17  45  1   
 41  18  19  1   
 42  19  20  ar  
 43  19  21  ar  
 44  20  22  ar  
 45  20  46  1   
 46  21  23  ar  
 47  21  47  1   
 48  22  24  ar  
 49  22  48  1   
 50  23  24  ar  
 51  23  49  1   
 52  24  50  1   
@<TRIPOS>SUBSTRUCTURE
  1 ****   9 GROUP 4 **** **** 0

# MOE 2024.06 (io_trps.svl 2023.06)
