@<TRIPOS>MOLECULE
NONAME
46 48 1 0 0 
SMALL
USER_CHARGES


@<TRIPOS>ATOM
  1 O        0.7900    -0.0820    -0.6830 O.3   1 <1>  -0.3630 
  2 C        0.6310    -1.4250    -0.5450 C.ar  1 <1>   0.0830 
  3 C        1.6530     0.3560    -1.7100 C.3   1 <1>   0.0400 
  4 C        1.6660    -2.2650    -0.0510 C.ar  1 <1>   0.3100 
  5 C       -0.5920    -1.9270    -0.8920 C.ar  1 <1>  -0.1500 
  6 N        2.8400    -1.6850     0.3140 N.ar  1 <1>  -0.6200 
  7 C        1.4280    -3.6660     0.0440 C.ar  1 <1>   0.0000 
  8 C       -0.8380    -3.2900    -0.7930 C.ar  1 <1>  -0.1500 
  9 C        3.8030    -2.4410     0.7470 C.ar  1 <1>   0.4100 
 10 C        0.1400    -4.1500    -0.3420 C.ar  1 <1>   0.0830 
 11 C        2.5080    -4.4620     0.5260 C.ar  1 <1>  -0.1440 
 12 N        5.0010    -1.8470     1.0960 N.pl3 1 <1>  -0.8380 
 13 C        3.6630    -3.8300     0.8670 C.ar  1 <1>  -0.1500 
 14 O       -0.1100    -5.4850    -0.2540 O.3   1 <1>  -0.3630 
 15 C        2.4580    -5.9770     0.6950 C.3   1 <1>  -0.0970 
 16 C        6.2570    -2.2710     0.4280 C.3   1 <1>   0.2090 
 17 C        5.0150    -0.4670     1.6560 C.3   1 <1>   0.2090 
 18 C       -1.3660    -6.0590    -0.5420 C.3   1 <1>   0.0400 
 19 C        6.6350    -1.2640    -0.6630 C.3   1 <1>  -0.1600 
 20 C        5.4090     0.5440     0.5750 C.3   1 <1>  -0.1600 
 21 C        6.7310     0.1660    -0.1100 C.3   1 <1>  -0.0800 
 22 C        7.0620     1.1580    -1.2300 C.3   1 <1>  -0.2400 
 23 H        1.5860     1.4270    -1.7690 H     1 <1>   0.0800 
 24 H        1.3410    -0.0870    -2.6390 H     1 <1>   0.0800 
 25 H        2.6620     0.0680    -1.4790 H     1 <1>   0.0800 
 26 H       -1.3630    -1.2660    -1.2450 H     1 <1>   0.1500 
 27 H       -1.8130    -3.6290    -1.0830 H     1 <1>   0.1500 
 28 H        4.5070    -4.3680     1.2500 H     1 <1>   0.1500 
 29 H        1.6880    -6.2440     1.3950 H     1 <1>   0.0800 
 30 H        3.3910    -6.3600     1.0660 H     1 <1>   0.0800 
 31 H        2.2580    -6.4470    -0.2510 H     1 <1>   0.0800 
 32 H        6.1340    -3.2440    -0.0140 H     1 <1>   0.0800 
 33 H        7.0420    -2.3290     1.1630 H     1 <1>   0.0800 
 34 H        5.7220    -0.4290     2.4660 H     1 <1>   0.0800 
 35 H        4.0440    -0.2200     2.0510 H     1 <1>   0.0800 
 36 H       -1.2970    -7.1170    -0.3640 H     1 <1>   0.0800 
 37 H       -1.6050    -5.8780    -1.5750 H     1 <1>   0.0800 
 38 H       -2.1060    -5.6280     0.1090 H     1 <1>   0.0800 
 39 H        5.8870    -1.3080    -1.4350 H     1 <1>   0.0800 
 40 H        7.5750    -1.5530    -1.0960 H     1 <1>   0.0800 
 41 H        5.4910     1.5180     1.0210 H     1 <1>   0.0800 
 42 H        4.6170     0.5820    -0.1520 H     1 <1>   0.0800 
 43 H        7.5200     0.2000     0.6230 H     1 <1>   0.0800 
 44 H        6.2930     1.1500    -1.9820 H     1 <1>   0.0800 
 45 H        7.9980     0.9000    -1.6930 H     1 <1>   0.0800 
 46 H        7.1440     2.1550    -0.8330 H     1 <1>   0.0800 
@<TRIPOS>BOND
  1   1   2  1   
  2   1   3  1   
  3   2   4  ar  
  4   2   5  ar  
  5   3  23  1   
  6   3  24  1   
  7   3  25  1   
  8   4   6  ar  
  9   4   7  ar  
 10   5   8  ar  
 11   5  26  1   
 12   6   9  ar  
 13   7  10  ar  
 14   7  11  ar  
 15   8  10  ar  
 16   8  27  1   
 17   9  12  1   
 18   9  13  ar  
 19  10  14  1   
 20  11  13  ar  
 21  11  15  1   
 22  12  16  1   
 23  12  17  1   
 24  13  28  1   
 25  14  18  1   
 26  15  29  1   
 27  15  30  1   
 28  15  31  1   
 29  16  19  1   
 30  16  32  1   
 31  16  33  1   
 32  17  20  1   
 33  17  34  1   
 34  17  35  1   
 35  18  36  1   
 36  18  37  1   
 37  18  38  1   
 38  19  21  1   
 39  19  39  1   
 40  19  40  1   
 41  20  21  1   
 42  20  41  1   
 43  20  42  1   
 44  21  22  1   
 45  21  43  1   
 46  22  44  1   
 47  22  45  1   
 48  22  46  1   
@<TRIPOS>SUBSTRUCTURE
  1 ****   6 GROUP 4 **** **** 0

# MOE 2024.06 (io_trps.svl 2023.06)
