@<TRIPOS>MOLECULE
NONAME
34 35 1 0 0 
SMALL
USER_CHARGES


@<TRIPOS>ATOM
  1 O        0.2120     0.6440     0.0790 O.co2 1 <1>  -0.9000 
  2 C        0.9420     1.3900     0.7580 C.2   1 <1>   0.9790 
  3 O        0.4040     2.1520     1.5850 O.co2 1 <1>  -0.9000 
  4 C        2.3890     1.3650     0.6000 C.ar  1 <1>  -0.1790 
  5 C        3.0070     0.5550    -0.3570 C.ar  1 <1>  -0.1500 
  6 C        3.2280     2.1440     1.3980 C.ar  1 <1>  -0.1500 
  7 C        4.3810     0.5040    -0.5110 C.ar  1 <1>   0.1000 
  8 C        4.6030     2.1110     1.2530 C.ar  1 <1>  -0.1500 
  9 N        4.9370    -0.3610    -1.4520 N.pl3 1 <1>  -0.9000 
 10 C        5.2050     1.2980     0.3070 C.ar  1 <1>   0.1000 
 11 N        6.6060     1.2940     0.2130 N.pl3 1 <1>  -0.8380 
 12 C        7.2090     1.7740    -1.0560 C.3   1 <1>   0.2090 
 13 C        7.3370     0.2840     1.0080 C.3   1 <1>   0.2090 
 14 C        8.2340     2.8630    -0.7370 C.3   1 <1>  -0.1600 
 15 C        8.6780     0.8320     1.5080 C.3   1 <1>  -0.1600 
 16 C        9.6380     2.3560    -0.3560 C.3   1 <1>  -0.1600 
 17 C        9.7160     1.0110     0.3870 C.3   1 <1>  -0.1600 
 18 H        2.3800    -0.0480    -0.9900 H     1 <1>   0.1500 
 19 H        2.7800     2.7830     2.1410 H     1 <1>   0.1500 
 20 H        5.2260     2.7210     1.8780 H     1 <1>   0.1500 
 21 H        5.9300    -0.4770    -1.2360 H     1 <1>   0.4000 
 22 H        4.4520    -1.2590    -1.4830 H     1 <1>   0.4000 
 23 H        6.4280     2.1940    -1.6690 H     1 <1>   0.0800 
 24 H        7.6590     0.9610    -1.5970 H     1 <1>   0.0800 
 25 H        7.4910    -0.6000     0.4150 H     1 <1>   0.0800 
 26 H        6.7300     0.0130     1.8560 H     1 <1>   0.0800 
 27 H        7.8380     3.4710     0.0580 H     1 <1>   0.0800 
 28 H        8.3300     3.4990    -1.5980 H     1 <1>   0.0800 
 29 H        9.0690     0.1210     2.2120 H     1 <1>   0.0800 
 30 H        8.5200     1.7550     2.0380 H     1 <1>   0.0800 
 31 H       10.1080     3.1130     0.2490 H     1 <1>   0.0800 
 32 H       10.2250     2.2670    -1.2540 H     1 <1>   0.0800 
 33 H        9.6210     0.2040    -0.3190 H     1 <1>   0.0800 
 34 H       10.7000     0.9330     0.8170 H     1 <1>   0.0800 
@<TRIPOS>BOND
  1   1   2  ar  
  2   2   3  ar  
  3   2   4  1   
  4   4   5  ar  
  5   4   6  ar  
  6   5   7  ar  
  7   5  18  1   
  8   6   8  ar  
  9   6  19  1   
 10   7   9  1   
 11   7  10  ar  
 12   8  10  ar  
 13   8  20  1   
 14   9  21  1   
 15   9  22  1   
 16  10  11  1   
 17  11  12  1   
 18  11  13  1   
 19  12  14  1   
 20  12  23  1   
 21  12  24  1   
 22  13  15  1   
 23  13  25  1   
 24  13  26  1   
 25  14  16  1   
 26  14  27  1   
 27  14  28  1   
 28  15  17  1   
 29  15  29  1   
 30  15  30  1   
 31  16  17  1   
 32  16  31  1   
 33  16  32  1   
 34  17  33  1   
 35  17  34  1   
@<TRIPOS>SUBSTRUCTURE
  1 ****  10 GROUP 4 **** **** 0

# MOE 2024.06 (io_trps.svl 2023.06)
