@<TRIPOS>MOLECULE
NONAME
38 40 1 0 0 
SMALL
USER_CHARGES


@<TRIPOS>ATOM
  1 F       -0.5810    -0.0850     0.2510 F     1 <1>  -0.1900 
  2 C       -1.7030    -0.7440     0.1120 C.ar  1 <1>   0.1900 
  3 C       -2.9050    -0.0780     0.3100 C.ar  1 <1>  -0.1440 
  4 C       -1.6350    -2.0790    -0.2310 C.ar  1 <1>  -0.1500 
  5 C       -4.0760    -0.8040     0.1530 C.ar  1 <1>  -0.1500 
  6 C       -2.9460     1.3950     0.6900 C.3   1 <1>  -0.0960 
  7 C       -2.8130    -2.7980    -0.3880 C.ar  1 <1>   0.1170 
  8 C       -4.0240    -2.1450    -0.1920 C.ar  1 <1>  -0.1500 
  9 N       -2.8470    -4.1480    -0.7500 N.am  1 <1>  -0.5470 
 10 C       -1.9730    -5.1720    -0.5200 C.2   1 <1>   0.5690 
 11 O       -0.9030    -4.9900     0.0150 O.2   1 <1>  -0.5700 
 12 C       -2.3100    -6.5890    -1.0290 C.3   1 <1>  -0.0190 
 13 C       -3.8710    -7.2040    -0.7940 C.3   1 <1>  -0.1860 
 14 C       -1.2660    -7.6970    -0.4050 C.3   1 <1>  -0.0800 
 15 C       -4.9240    -6.1790    -0.3940 C.2   1 <1>   0.9060 
 16 C       -3.7420    -8.5420     0.1500 C.3   1 <1>  -0.0800 
 17 C       -2.5040    -8.1250    -0.1460 C.3   1 <1>  -0.1600 
 18 C       -1.1460    -9.0480     0.5060 C.3   1 <1>  -0.1600 
 19 O       -5.2440    -5.3480    -1.2530 O.co2 1 <1>  -0.9000 
 20 O       -5.3850    -6.1380     0.7470 O.co2 1 <1>  -0.9000 
 21 C       -2.6900    -9.6400     0.7430 C.3   1 <1>  -0.1600 
 22 H       -0.6820    -2.5510    -0.3750 H     1 <1>   0.1500 
 23 H       -5.0350    -0.3390     0.2990 H     1 <1>   0.1500 
 24 H       -2.4650     1.9810    -0.0730 H     1 <1>   0.0800 
 25 H       -2.4290     1.5450     1.6200 H     1 <1>   0.0800 
 26 H       -3.9590     1.7360     0.7990 H     1 <1>   0.0800 
 27 H       -4.9370    -2.7100    -0.3070 H     1 <1>   0.1500 
 28 H       -3.7860    -4.4640    -1.0620 H     1 <1>   0.3700 
 29 H       -2.1530    -6.5330    -2.0930 H     1 <1>   0.0800 
 30 H       -4.2240    -7.5360    -1.7590 H     1 <1>   0.0800 
 31 H       -0.7330    -7.9990    -1.2950 H     1 <1>   0.0800 
 32 H       -4.2400    -8.2340     1.0610 H     1 <1>   0.0800 
 33 H       -2.5050    -7.4920     0.8470 H     1 <1>   0.0800 
 34 H       -2.4980    -8.7450    -1.1440 H     1 <1>   0.0800 
 35 H       -0.6930    -8.8070     1.4550 H     1 <1>   0.0800 
 36 H       -0.5250    -9.7880     0.0260 H     1 <1>   0.0800 
 37 H       -2.8120   -10.5830     0.2320 H     1 <1>   0.0800 
 38 H       -2.8700    -9.8130     1.7930 H     1 <1>   0.0800 
@<TRIPOS>BOND
  1   1   2  1   
  2   2   3  ar  
  3   2   4  ar  
  4   3   5  ar  
  5   3   6  1   
  6   4   7  ar  
  7   4  22  1   
  8   5   8  ar  
  9   5  23  1   
 10   6  24  1   
 11   6  25  1   
 12   6  26  1   
 13   7   8  ar  
 14   7   9  1   
 15   8  27  1   
 16   9  10  am  
 17   9  28  1   
 18  10  11  2   
 19  10  12  1   
 20  12  13  1   
 21  12  14  1   
 22  12  29  1   
 23  13  15  1   
 24  13  16  1   
 25  13  30  1   
 26  14  17  1   
 27  14  18  1   
 28  14  31  1   
 29  15  19  ar  
 30  15  20  ar  
 31  16  17  1   
 32  16  21  1   
 33  16  32  1   
 34  17  33  1   
 35  17  34  1   
 36  18  21  1   
 37  18  35  1   
 38  18  36  1   
 39  21  37  1   
 40  21  38  1   
@<TRIPOS>SUBSTRUCTURE
  1 ****   9 GROUP 4 **** **** 0

# MOE 2024.06 (io_trps.svl 2023.06)
