@<TRIPOS>MOLECULE
NONAME
40 41 1 0 0 
SMALL
USER_CHARGES


@<TRIPOS>ATOM
  1 S       -0.0550     0.2330     1.1700 S.o2  1 <1>   1.3330 
  2 O       -0.9580     1.2750     1.6030 O.2   1 <1>  -0.6500 
  3 O       -0.0790    -1.0640     1.8020 O.2   1 <1>  -0.6500 
  4 N        1.5510     0.8800     1.3190 N.am  1 <1>  -0.6930 
  5 C       -0.2160     0.0490    -0.6110 C.3   1 <1>  -0.0550 
  6 C        2.6800     0.2260     0.8460 C.ar  1 <1>   0.1990 
  7 C        1.6850     2.1840     2.0130 C.3   1 <1>   0.1160 
  8 C       -1.5830    -0.4830    -1.0760 C.3   1 <1>  -0.2400 
  9 C        2.9710    -1.0880     1.1970 C.ar  1 <1>  -0.1500 
 10 C        3.5580     0.8780    -0.0140 C.ar  1 <1>  -0.1500 
 11 C        4.0930    -1.7250     0.7030 C.ar  1 <1>  -0.1500 
 12 C        4.6810     0.2400    -0.5050 C.ar  1 <1>  -0.1500 
 13 C        4.9820    -1.0770    -0.1550 C.ar  1 <1>   0.0860 
 14 C        6.1590    -1.7540    -0.6590 C.2   1 <1>   0.5440 
 15 O        6.0530    -2.8640    -1.1460 O.2   1 <1>  -0.5700 
 16 N        7.4080    -1.1780    -0.5960 N.am  1 <1>  -0.6600 
 17 C        7.7820    -0.0630     0.3030 C.3   1 <1>   0.1400 
 18 C        8.6130    -1.8620    -1.1160 C.3   1 <1>   0.1400 
 19 C        9.2690    -0.2620     0.5680 C.3   1 <1>  -0.1600 
 20 C        9.7840    -0.9940    -0.6680 C.3   1 <1>  -0.1600 
 21 H        0.5460    -0.6220    -0.9590 H     1 <1>   0.0800 
 22 H       -0.0450     1.0010    -1.0740 H     1 <1>   0.0800 
 23 H        1.2060     2.1290     2.9760 H     1 <1>   0.0800 
 24 H        1.2100     2.9570     1.4330 H     1 <1>   0.0800 
 25 H        2.7220     2.4320     2.1570 H     1 <1>   0.0800 
 26 H       -1.7680    -1.4530    -0.6460 H     1 <1>   0.0800 
 27 H       -1.6060    -0.5690    -2.1480 H     1 <1>   0.0800 
 28 H       -2.3670     0.1860    -0.7640 H     1 <1>   0.0800 
 29 H        2.3180    -1.6160     1.8690 H     1 <1>   0.1500 
 30 H        3.3490     1.8910    -0.3050 H     1 <1>   0.1500 
 31 H        4.2960    -2.7460     0.9790 H     1 <1>   0.1500 
 32 H        5.3400     0.7590    -1.1800 H     1 <1>   0.1500 
 33 H        7.2120    -0.0870     1.2170 H     1 <1>   0.0800 
 34 H        7.6180     0.8710    -0.2070 H     1 <1>   0.0800 
 35 H        8.5660    -1.9510    -2.1880 H     1 <1>   0.0800 
 36 H        8.6770    -2.8430    -0.6770 H     1 <1>   0.0800 
 37 H        9.3880    -0.8860     1.4370 H     1 <1>   0.0800 
 38 H        9.7760     0.6720     0.7340 H     1 <1>   0.0800 
 39 H       10.0110    -0.2870    -1.4460 H     1 <1>   0.0800 
 40 H       10.6600    -1.5830    -0.4630 H     1 <1>   0.0800 
@<TRIPOS>BOND
  1   1   2  2   
  2   1   3  2   
  3   1   4  am  
  4   1   5  1   
  5   4   6  1   
  6   4   7  1   
  7   5   8  1   
  8   5  21  1   
  9   5  22  1   
 10   6   9  ar  
 11   6  10  ar  
 12   7  23  1   
 13   7  24  1   
 14   7  25  1   
 15   8  26  1   
 16   8  27  1   
 17   8  28  1   
 18   9  11  ar  
 19   9  29  1   
 20  10  12  ar  
 21  10  30  1   
 22  11  13  ar  
 23  11  31  1   
 24  12  13  ar  
 25  12  32  1   
 26  13  14  1   
 27  14  15  2   
 28  14  16  am  
 29  16  17  1   
 30  16  18  1   
 31  17  19  1   
 32  17  33  1   
 33  17  34  1   
 34  18  20  1   
 35  18  35  1   
 36  18  36  1   
 37  19  20  1   
 38  19  37  1   
 39  19  38  1   
 40  20  39  1   
 41  20  40  1   
@<TRIPOS>SUBSTRUCTURE
  1 ****  12 GROUP 4 **** **** 0

# MOE 2024.06 (io_trps.svl 2023.06)
