@<TRIPOS>MOLECULE
NONAME
41 42 1 0 0 
SMALL
USER_CHARGES


@<TRIPOS>ATOM
  1 F        0.2320     0.5390    -0.2270 F     1 <1>  -0.1900 
  2 C        1.4410     1.0350    -0.2590 C.ar  1 <1>   0.1900 
  3 C        2.4740     0.3060     0.2980 C.ar  1 <1>  -0.1500 
  4 C        1.6390     2.2690    -0.8490 C.ar  1 <1>  -0.1500 
  5 C        3.7560     0.8320     0.2640 C.ar  1 <1>  -0.1500 
  6 C        2.9230     2.7860    -0.8790 C.ar  1 <1>  -0.1500 
  7 C        3.9830     2.0770    -0.3270 C.ar  1 <1>   0.0830 
  8 O        5.2040     2.6630    -0.4010 O.3   1 <1>  -0.3630 
  9 C        6.3490     2.0420     0.1260 C.3   1 <1>   0.1200 
 10 C        7.5280     2.9810    -0.1300 C.3   1 <1>  -0.1600 
 11 C        8.8230     2.3890     0.4230 C.3   1 <1>   0.3430 
 12 N        9.9840     3.2530     0.0700 N.4   1 <1>  -0.9590 
 13 C       11.2510     2.4760     0.1920 C.3   1 <1>   0.3430 
 14 C        9.9900     4.5170     0.8670 C.3   1 <1>   0.3430 
 15 C       12.2800     3.0000    -0.8090 C.3   1 <1>  -0.1600 
 16 C       11.0270     5.5210     0.3610 C.3   1 <1>  -0.1600 
 17 C       13.1280     4.1860    -0.3190 C.3   1 <1>  -0.1600 
 18 C       12.4710     5.1260     0.7010 C.3   1 <1>  -0.1600 
 19 H        2.2740    -0.6500     0.7470 H     1 <1>   0.1500 
 20 H        0.8100     2.8060    -1.2720 H     1 <1>   0.1500 
 21 H        4.5520     0.2600     0.6980 H     1 <1>   0.1500 
 22 H        3.1100     3.7440    -1.3310 H     1 <1>   0.1500 
 23 H        6.4830     1.0990    -0.3770 H     1 <1>   0.0800 
 24 H        6.1930     1.8880     1.1800 H     1 <1>   0.0800 
 25 H        7.3110     3.9210     0.3450 H     1 <1>   0.0800 
 26 H        7.6190     3.1270    -1.1920 H     1 <1>   0.0800 
 27 H        8.9620     1.4100    -0.0080 H     1 <1>   0.0800 
 28 H        8.7540     2.2790     1.4940 H     1 <1>   0.0800 
 29 H        9.8930     3.5180    -0.9190 H     1 <1>   0.4500 
 30 H       11.0560     1.4420    -0.0450 H     1 <1>   0.0800 
 31 H       11.6390     2.5220     1.1970 H     1 <1>   0.0800 
 32 H       10.1800     4.2960     1.9050 H     1 <1>   0.0800 
 33 H        9.0200     4.9830     0.8040 H     1 <1>   0.0800 
 34 H       11.7910     3.2570    -1.7320 H     1 <1>   0.0800 
 35 H       12.9580     2.1960    -1.0390 H     1 <1>   0.0800 
 36 H       10.8250     6.4530     0.8600 H     1 <1>   0.0800 
 37 H       10.9100     5.7020    -0.6930 H     1 <1>   0.0800 
 38 H       13.4310     4.7610    -1.1790 H     1 <1>   0.0800 
 39 H       14.0340     3.8060     0.1260 H     1 <1>   0.0800 
 40 H       12.5080     4.6860     1.6840 H     1 <1>   0.0800 
 41 H       13.0690     6.0220     0.7460 H     1 <1>   0.0800 
@<TRIPOS>BOND
  1   1   2  1   
  2   2   3  ar  
  3   2   4  ar  
  4   3   5  ar  
  5   3  19  1   
  6   4   6  ar  
  7   4  20  1   
  8   5   7  ar  
  9   5  21  1   
 10   6   7  ar  
 11   6  22  1   
 12   7   8  1   
 13   8   9  1   
 14   9  10  1   
 15   9  23  1   
 16   9  24  1   
 17  10  11  1   
 18  10  25  1   
 19  10  26  1   
 20  11  12  1   
 21  11  27  1   
 22  11  28  1   
 23  12  13  1   
 24  12  14  1   
 25  12  29  1   
 26  13  15  1   
 27  13  30  1   
 28  13  31  1   
 29  14  16  1   
 30  14  32  1   
 31  14  33  1   
 32  15  17  1   
 33  15  34  1   
 34  15  35  1   
 35  16  18  1   
 36  16  36  1   
 37  16  37  1   
 38  17  18  1   
 39  17  38  1   
 40  17  39  1   
 41  18  40  1   
 42  18  41  1   
@<TRIPOS>SUBSTRUCTURE
  1 ****  10 GROUP 4 **** **** 0

# MOE 2024.06 (io_trps.svl 2023.06)
