@<TRIPOS>MOLECULE
NONAME
41 42 1 0 0 
SMALL
USER_CHARGES


@<TRIPOS>ATOM
  1 S       -0.3180    -0.1630    -0.2110 S.o2  1 <1>   1.4470 
  2 O        0.8470    -0.0370     0.6340 O.2   1 <1>  -0.6500 
  3 O       -0.1790    -0.5560    -1.5960 O.2   1 <1>  -0.6500 
  4 N       -0.9010     1.4140    -0.2250 N.am  1 <1>  -0.9140 
  5 C       -1.6370    -1.1180     0.5900 C.ar  1 <1>  -0.0090 
  6 C       -0.3220     2.2410    -1.2800 C.3   1 <1>   0.1160 
  7 C       -1.3970    -2.4310     0.9850 C.ar  1 <1>   0.0830 
  8 C       -2.9020    -0.5870     0.8100 C.ar  1 <1>  -0.1500 
  9 O       -0.1680    -2.9400     0.7450 O.3   1 <1>  -0.3630 
 10 C       -2.4030    -3.1730     1.6010 C.ar  1 <1>  -0.1500 
 11 C       -3.9260    -1.3100     1.4150 C.ar  1 <1>   0.0860 
 12 C        0.2170    -4.2380     1.1380 C.3   1 <1>   0.0400 
 13 C       -3.6460    -2.6140     1.8140 C.ar  1 <1>  -0.1500 
 14 C       -5.2300    -0.7160     1.6240 C.2   1 <1>   0.5440 
 15 O       -5.3170     0.2600     2.3450 O.2   1 <1>  -0.5700 
 16 N       -6.3650    -1.2190     1.0220 N.am  1 <1>  -0.6600 
 17 C       -6.3440    -2.2030    -0.0970 C.3   1 <1>   0.1400 
 18 C       -7.7190    -0.6710     1.3210 C.3   1 <1>   0.1400 
 19 C       -6.9080    -1.5530    -1.3650 C.3   1 <1>  -0.1600 
 20 C       -8.2930    -0.0050     0.0660 C.3   1 <1>  -0.1600 
 21 C       -8.3080    -0.9680    -1.1290 C.3   1 <1>  -0.1600 
 22 H       -0.5640     1.7780     0.6660 H     1 <1>   0.4200 
 23 H       -0.6280     1.8750    -2.2460 H     1 <1>   0.0800 
 24 H        0.7550     2.2210    -1.2240 H     1 <1>   0.0800 
 25 H       -0.6610     3.2570    -1.1750 H     1 <1>   0.0800 
 26 H       -3.1240     0.4220     0.5080 H     1 <1>   0.1500 
 27 H       -2.2320    -4.1840     1.9210 H     1 <1>   0.1500 
 28 H        1.2420    -4.3830     0.8450 H     1 <1>   0.0800 
 29 H       -0.4090    -4.9560     0.6380 H     1 <1>   0.0800 
 30 H        0.1280    -4.3220     2.2060 H     1 <1>   0.0800 
 31 H       -4.4210    -3.1860     2.2960 H     1 <1>   0.1500 
 32 H       -6.9450    -3.0540     0.1750 H     1 <1>   0.0800 
 33 H       -5.3450    -2.5490    -0.2940 H     1 <1>   0.0800 
 34 H       -7.6740     0.0460     2.1230 H     1 <1>   0.0800 
 35 H       -8.3610    -1.4760     1.6340 H     1 <1>   0.0800 
 36 H       -6.9510    -2.2850    -2.1520 H     1 <1>   0.0800 
 37 H       -6.2390    -0.7720    -1.6810 H     1 <1>   0.0800 
 38 H       -7.6940     0.8590    -0.1670 H     1 <1>   0.0800 
 39 H       -9.2920     0.3360     0.2710 H     1 <1>   0.0800 
 40 H       -9.0020    -1.7680    -0.9330 H     1 <1>   0.0800 
 41 H       -8.6400    -0.4480    -2.0110 H     1 <1>   0.0800 
@<TRIPOS>BOND
  1   1   2  2   
  2   1   3  2   
  3   1   4  am  
  4   1   5  1   
  5   4   6  1   
  6   4  22  1   
  7   5   7  ar  
  8   5   8  ar  
  9   6  23  1   
 10   6  24  1   
 11   6  25  1   
 12   7   9  1   
 13   7  10  ar  
 14   8  11  ar  
 15   8  26  1   
 16   9  12  1   
 17  10  13  ar  
 18  10  27  1   
 19  11  13  ar  
 20  11  14  1   
 21  12  28  1   
 22  12  29  1   
 23  12  30  1   
 24  13  31  1   
 25  14  15  2   
 26  14  16  am  
 27  16  17  1   
 28  16  18  1   
 29  17  19  1   
 30  17  32  1   
 31  17  33  1   
 32  18  20  1   
 33  18  34  1   
 34  18  35  1   
 35  19  21  1   
 36  19  36  1   
 37  19  37  1   
 38  20  21  1   
 39  20  38  1   
 40  20  39  1   
 41  21  40  1   
 42  21  41  1   
@<TRIPOS>SUBSTRUCTURE
  1 ****   8 GROUP 4 **** **** 0

# MOE 2024.06 (io_trps.svl 2023.06)
