@<TRIPOS>MOLECULE
NONAME
39 41 1 0 0 
SMALL
USER_CHARGES


@<TRIPOS>ATOM
  1 O       -0.5810     0.3650    -0.7770 O.2   1 <1>  -0.5700 
  2 C       -1.7620     0.5820    -0.6510 C.2   1 <1>   0.5940 
  3 C       -2.7570    -0.4330    -0.4660 C.2   1 <1>  -0.2370 
  4 C       -2.2610     2.0210    -0.6860 C.3   1 <1>  -0.0990 
  5 N       -2.5810    -1.8020    -0.4770 N.pl3 1 <1>   0.0480 
  6 C       -4.0730    -0.1730    -0.2330 C.2   1 <1>  -0.1810 
  7 C       -3.5230     2.2340     0.1820 C.3   1 <1>  -0.1600 
  8 C       -3.8030    -2.3910    -0.2470 C.ar  1 <1>  -0.1520 
  9 C       -1.3450    -2.5370    -0.8340 C.3   1 <1>   0.0960 
 10 C       -4.7580    -1.3900    -0.0960 C.ar  1 <1>   0.0000 
 11 C       -4.6450     1.2290    -0.1440 C.3   1 <1>   0.0210 
 12 C       -4.1750    -3.7370    -0.1550 C.ar  1 <1>  -0.1500 
 13 C       -0.4580    -2.8180     0.3880 C.3   1 <1>   0.2000 
 14 C       -6.0950    -1.7310     0.1400 C.ar  1 <1>  -0.1500 
 15 C       -5.4920    -4.0560     0.0790 C.ar  1 <1>  -0.1500 
 16 O       -0.1130    -1.6350     1.0430 O.3   1 <1>  -0.6800 
 17 C        0.8310    -3.5490    -0.0190 C.3   1 <1>   0.1200 
 18 C       -6.4610    -3.0540     0.2270 C.ar  1 <1>  -0.1440 
 19 O        1.6650    -3.6480     1.0810 O.3   1 <1>  -0.6800 
 20 C       -7.9010    -3.4560     0.4830 C.3   1 <1>  -0.0970 
 21 H       -2.4790     2.2720    -1.7070 H     1 <1>   0.0800 
 22 H       -1.4760     2.6690    -0.3430 H     1 <1>   0.0800 
 23 H       -3.8890     3.2390     0.0600 H     1 <1>   0.0800 
 24 H       -3.2490     2.1080     1.2160 H     1 <1>   0.0800 
 25 H       -0.7980    -1.9770    -1.5700 H     1 <1>   0.0800 
 26 H       -1.6260    -3.4680    -1.2890 H     1 <1>   0.0800 
 27 H       -5.4000     1.2670     0.6210 H     1 <1>   0.0800 
 28 H       -5.1030     1.4770    -1.0860 H     1 <1>   0.0800 
 29 H       -3.4400    -4.5130    -0.2620 H     1 <1>   0.1500 
 30 H       -0.9990    -3.4310     1.0880 H     1 <1>   0.0800 
 31 H       -6.8150    -0.9420     0.2510 H     1 <1>   0.1500 
 32 H       -5.7900    -5.0870     0.1520 H     1 <1>   0.1500 
 33 H       -0.1080    -0.8760     0.4050 H     1 <1>   0.4000 
 34 H        1.3530    -2.9980    -0.7830 H     1 <1>   0.0800 
 35 H        0.6240    -4.5420    -0.3750 H     1 <1>   0.0800 
 36 H        1.5530    -2.8230     1.6060 H     1 <1>   0.4000 
 37 H       -8.5310    -2.5900     0.5740 H     1 <1>   0.0800 
 38 H       -7.9650    -4.0240     1.3940 H     1 <1>   0.0800 
 39 H       -8.2620    -4.0590    -0.3300 H     1 <1>   0.0800 
@<TRIPOS>BOND
  1   1   2  2   
  2   2   3  1   
  3   2   4  1   
  4   3   5  1   
  5   3   6  2   
  6   4   7  1   
  7   4  21  1   
  8   4  22  1   
  9   5   8  1   
 10   5   9  1   
 11   6  10  1   
 12   6  11  1   
 13   7  11  1   
 14   7  23  1   
 15   7  24  1   
 16   8  10  ar  
 17   8  12  ar  
 18   9  13  1   
 19   9  25  1   
 20   9  26  1   
 21  10  14  ar  
 22  11  27  1   
 23  11  28  1   
 24  12  15  ar  
 25  12  29  1   
 26  13  16  1   
 27  13  17  1   
 28  13  30  1   
 29  14  18  ar  
 30  14  31  1   
 31  15  18  ar  
 32  15  32  1   
 33  16  33  1   
 34  17  19  1   
 35  17  34  1   
 36  17  35  1   
 37  18  20  1   
 38  19  36  1   
 39  20  37  1   
 40  20  38  1   
 41  20  39  1   
@<TRIPOS>SUBSTRUCTURE
  1 ****   5 GROUP 4 **** **** 0

# MOE 2024.06 (io_trps.svl 2023.06)
