@<TRIPOS>MOLECULE
NONAME
28 29 1 0 0 
SMALL
USER_CHARGES


@<TRIPOS>ATOM
  1 S       -0.0240    -0.5060    -0.1250 S.3   1 <1>  -0.2860 
  2 C       -1.6410     0.2510     0.0170 C.2   1 <1>   0.2420 
  3 C        1.1020     0.9440     0.0990 C.3   1 <1>   0.2500 
  4 N       -1.8430     1.5030     0.2230 N.2   1 <1>  -0.3380 
  5 N       -2.7580    -0.4540    -0.0830 N.pl3 1 <1>   0.0330 
  6 C        2.5540     0.5050    -0.0080 C.2   1 <1>  -0.0400 
  7 N       -3.1740     1.6510     0.2630 N.2   1 <1>  -0.3380 
  8 C       -3.6960     0.4830     0.0800 C.2   1 <1>   0.0060 
  9 O        3.4900     1.4180     0.1190 O.3   1 <1>  -0.2800 
 10 C        3.1190    -0.7050    -0.2180 C.2   1 <1>  -0.1500 
 11 C       -5.1840     0.1990     0.0520 C.3   1 <1>  -0.0600 
 12 C        4.6900     0.8500    -0.0030 C.2   1 <1>   0.0550 
 13 C        4.4950    -0.4830    -0.2140 C.2   1 <1>  -0.1500 
 14 C        5.9460     1.5710     0.0920 C.2   1 <1>   0.8050 
 15 O        7.0050     0.9800     0.0860 O.2   1 <1>  -0.5700 
 16 O        6.0310     2.9080     0.1790 O.3   1 <1>  -0.4300 
 17 C        4.9710     3.8230     0.0080 C.3   1 <1>   0.0400 
 18 H        0.8950     1.3620     1.0670 H     1 <1>   0.0800 
 19 H        0.8580     1.6570    -0.6670 H     1 <1>   0.0800 
 20 H       -2.8480    -1.4570    -0.2450 H     1 <1>   0.2700 
 21 H        2.6400    -1.6580    -0.3610 H     1 <1>   0.1500 
 22 H       -5.4440    -0.4930     0.8320 H     1 <1>   0.0800 
 23 H       -5.4650    -0.2130    -0.9000 H     1 <1>   0.0800 
 24 H       -5.7310     1.1120     0.2060 H     1 <1>   0.0800 
 25 H        5.2520    -1.2360    -0.3510 H     1 <1>   0.1500 
 26 H        5.3840     4.8160    -0.0040 H     1 <1>   0.0800 
 27 H        4.2850     3.7250     0.8320 H     1 <1>   0.0800 
 28 H        4.4770     3.6220    -0.9270 H     1 <1>   0.0800 
@<TRIPOS>BOND
  1   1   2  1   
  2   1   3  1   
  3   2   4  2   
  4   2   5  1   
  5   3   6  1   
  6   3  18  1   
  7   3  19  1   
  8   4   7  1   
  9   5   8  1   
 10   5  20  1   
 11   6   9  1   
 12   6  10  2   
 13   7   8  2   
 14   8  11  1   
 15   9  12  1   
 16  10  13  1   
 17  10  21  1   
 18  11  22  1   
 19  11  23  1   
 20  11  24  1   
 21  12  13  2   
 22  12  14  1   
 23  13  25  1   
 24  14  15  2   
 25  14  16  1   
 26  16  17  1   
 27  17  26  1   
 28  17  27  1   
 29  17  28  1   
@<TRIPOS>SUBSTRUCTURE
  1 ****   3 GROUP 4 **** **** 0

# MOE 2024.06 (io_trps.svl 2023.06)
