@<TRIPOS>MOLECULE
NONAME
43 45 1 0 0 
SMALL
USER_CHARGES


@<TRIPOS>ATOM
  1 O       -1.3290     0.6140     0.6730 O.3   1 <1>  -0.3630 
  2 C       -0.8970     1.9030     0.6550 C.ar  1 <1>   0.0830 
  3 C       -0.5850    -0.4180     1.2850 C.3   1 <1>   0.0400 
  4 C       -1.4870     2.7940    -0.2170 C.ar  1 <1>  -0.1440 
  5 C        0.1330     2.3330     1.5110 C.ar  1 <1>  -0.1500 
  6 C       -1.0490     4.1470    -0.2800 C.ar  1 <1>   0.0000 
  7 C       -2.6260     2.2950    -1.1070 C.3   1 <1>   0.2540 
  8 C        0.5540     3.6290     1.4790 C.ar  1 <1>  -0.1500 
  9 C       -0.0190     4.5630     0.5970 C.ar  1 <1>   0.0000 
 10 C       -1.5730     5.1260    -1.1620 C.ar  1 <1>  -0.1500 
 11 N       -3.9150     2.3200    -0.3810 N.3   1 <1>  -0.8100 
 12 C        0.4180     5.9020     0.5770 C.ar  1 <1>  -0.1500 
 13 C       -1.1290     6.4190    -1.1640 C.ar  1 <1>  -0.1500 
 14 C       -4.3190     3.6630     0.1060 C.3   1 <1>   0.1100 
 15 C       -5.0070     1.6680    -1.1340 C.3   1 <1>   0.1100 
 16 C       -0.1230     6.8160    -0.2820 C.ar  1 <1>  -0.1500 
 17 C       -5.6360     3.6150     0.9170 C.3   1 <1>   0.3430 
 18 C       -6.3080     1.5790    -0.2970 C.3   1 <1>   0.3430 
 19 N       -6.1250     2.2040     1.0550 N.4   1 <1>  -0.9590 
 20 C       -7.3010     2.0580     1.9570 C.3   1 <1>   0.2630 
 21 H       -1.0520    -1.3550     1.0440 H     1 <1>   0.0800 
 22 H       -0.5940    -0.2710     2.3500 H     1 <1>   0.0800 
 23 H        0.4200    -0.4010     0.9010 H     1 <1>   0.0800 
 24 H        0.5940     1.6520     2.2000 H     1 <1>   0.1500 
 25 H       -2.4130     1.2790    -1.3950 H     1 <1>   0.0800 
 26 H       -2.6960     2.8560    -2.0190 H     1 <1>   0.0800 
 27 H        1.3390     3.9600     2.1350 H     1 <1>   0.1500 
 28 H       -2.3420     4.8620    -1.8590 H     1 <1>   0.1500 
 29 H        1.1960     6.1980     1.2580 H     1 <1>   0.1500 
 30 H       -1.5410     7.1460    -1.8420 H     1 <1>   0.1500 
 31 H       -4.4340     4.3390    -0.7240 H     1 <1>   0.0800 
 32 H       -3.5510     4.0620     0.7460 H     1 <1>   0.0800 
 33 H       -4.7040     0.6710    -1.4080 H     1 <1>   0.0800 
 34 H       -5.2020     2.2110    -2.0430 H     1 <1>   0.0800 
 35 H        0.2160     7.8370    -0.2930 H     1 <1>   0.1500 
 36 H       -6.3800     4.2180     0.4240 H     1 <1>   0.0800 
 37 H       -5.4580     4.0410     1.8910 H     1 <1>   0.0800 
 38 H       -6.5780     0.5410    -0.1860 H     1 <1>   0.0800 
 39 H       -7.1060     2.0710    -0.8280 H     1 <1>   0.0800 
 40 H       -5.2970     1.7090     1.4350 H     1 <1>   0.4500 
 41 H       -8.1510     2.5810     1.5510 H     1 <1>   0.0800 
 42 H       -7.0760     2.4650     2.9300 H     1 <1>   0.0800 
 43 H       -7.5560     1.0170     2.0720 H     1 <1>   0.0800 
@<TRIPOS>BOND
  1   1   2  1   
  2   1   3  1   
  3   2   4  ar  
  4   2   5  ar  
  5   3  21  1   
  6   3  22  1   
  7   3  23  1   
  8   4   6  ar  
  9   4   7  1   
 10   5   8  ar  
 11   5  24  1   
 12   6   9  ar  
 13   6  10  ar  
 14   7  11  1   
 15   7  25  1   
 16   7  26  1   
 17   8   9  ar  
 18   8  27  1   
 19   9  12  ar  
 20  10  13  ar  
 21  10  28  1   
 22  11  14  1   
 23  11  15  1   
 24  12  16  ar  
 25  12  29  1   
 26  13  16  ar  
 27  13  30  1   
 28  14  17  1   
 29  14  31  1   
 30  14  32  1   
 31  15  18  1   
 32  15  33  1   
 33  15  34  1   
 34  16  35  1   
 35  17  19  1   
 36  17  36  1   
 37  17  37  1   
 38  18  19  1   
 39  18  38  1   
 40  18  39  1   
 41  19  20  1   
 42  19  40  1   
 43  20  41  1   
 44  20  42  1   
 45  20  43  1   
@<TRIPOS>SUBSTRUCTURE
  1 ****   4 GROUP 4 **** **** 0

# MOE 2024.06 (io_trps.svl 2023.06)
