@<TRIPOS>MOLECULE
NONAME
29 29 1 0 0 
SMALL
USER_CHARGES


@<TRIPOS>ATOM
  1 O       -1.0060     0.9480    -1.9250 O.3   1 <1>  -0.5320 
  2 C       -1.8580     1.1720    -0.9110 C.ar  1 <1>   0.0830 
  3 C       -1.5770     2.0680     0.1270 C.ar  1 <1>  -0.1430 
  4 C       -3.0460     0.4610    -0.9510 C.ar  1 <1>  -0.1500 
  5 C       -2.5520     2.2100     1.1160 C.ar  1 <1>  -0.1500 
  6 C       -0.2490     2.8680     0.2050 C.3   1 <1>   0.4240 
  7 C       -3.9920     0.6230     0.0410 C.ar  1 <1>  -0.1500 
  8 C       -3.7410     1.5010     1.0760 C.ar  1 <1>  -0.1500 
  9 O       -0.2790     3.7200     1.2920 O.3   1 <1>  -0.6800 
 10 C       -0.0240     3.7870    -1.0220 C.3   1 <1>  -0.1600 
 11 C        0.9370     1.9100     0.4620 C.3   1 <1>  -0.1600 
 12 C       -1.2260     4.6840    -1.3700 C.3   1 <1>  -0.2400 
 13 C        2.3150     2.5610     0.6990 C.3   1 <1>  -0.2400 
 14 H       -0.2170     1.5100    -1.8880 H     1 <1>   0.4500 
 15 H       -3.2260    -0.2190    -1.7650 H     1 <1>   0.1500 
 16 H       -2.4040     2.8800     1.9450 H     1 <1>   0.1500 
 17 H       -4.9140     0.0710     0.0080 H     1 <1>   0.1500 
 18 H       -4.4700     1.6370     1.8560 H     1 <1>   0.1500 
 19 H        0.5830     4.1620     1.3620 H     1 <1>   0.4000 
 20 H        0.2160     3.2000    -1.8860 H     1 <1>   0.0800 
 21 H        0.8250     4.4210    -0.8410 H     1 <1>   0.0800 
 22 H        1.0330     1.2310    -0.3640 H     1 <1>   0.0800 
 23 H        0.6890     1.3070     1.3190 H     1 <1>   0.0800 
 24 H       -2.0800     4.0890    -1.6430 H     1 <1>   0.0800 
 25 H       -0.9820     5.3260    -2.1980 H     1 <1>   0.0800 
 26 H       -1.4950     5.2990    -0.5290 H     1 <1>   0.0800 
 27 H        2.6310     3.1310    -0.1560 H     1 <1>   0.0800 
 28 H        3.0480     1.7920     0.8710 H     1 <1>   0.0800 
 29 H        2.3010     3.1990     1.5650 H     1 <1>   0.0800 
@<TRIPOS>BOND
  1   1   2  1   
  2   1  14  1   
  3   2   3  ar  
  4   2   4  ar  
  5   3   5  ar  
  6   3   6  1   
  7   4   7  ar  
  8   4  15  1   
  9   5   8  ar  
 10   5  16  1   
 11   6   9  1   
 12   6  10  1   
 13   6  11  1   
 14   7   8  ar  
 15   7  17  1   
 16   8  18  1   
 17   9  19  1   
 18  10  12  1   
 19  10  20  1   
 20  10  21  1   
 21  11  13  1   
 22  11  22  1   
 23  11  23  1   
 24  12  24  1   
 25  12  25  1   
 26  12  26  1   
 27  13  27  1   
 28  13  28  1   
 29  13  29  1   
@<TRIPOS>SUBSTRUCTURE
  1 ****   3 GROUP 4 **** **** 0

# MOE 2024.06 (io_trps.svl 2023.06)
