@<TRIPOS>MOLECULE
NONAME
47 49 1 0 0 
SMALL
USER_CHARGES


@<TRIPOS>ATOM
  1 F        0.3780    -1.9700    -1.2790 F     1 <1>  -0.3400 
  2 C        0.8720    -1.5180    -0.1330 C.3   1 <1>   1.1640 
  3 F       -0.1170    -0.8660     0.4670 F     1 <1>  -0.3400 
  4 F        1.1180    -2.5870     0.6160 F     1 <1>  -0.3400 
  5 C        2.1100    -0.6330    -0.3510 C.ar  1 <1>  -0.1440 
  6 C        3.3930    -1.1050    -0.0980 C.ar  1 <1>  -0.1500 
  7 C        1.9630     0.6700    -0.8170 C.ar  1 <1>  -0.1500 
  8 C        4.5110    -0.3070    -0.2960 C.ar  1 <1>   0.1000 
  9 C        3.0700     1.4760    -1.0200 C.ar  1 <1>  -0.1500 
 10 N        5.7740    -0.8190    -0.0270 N.pl3 1 <1>  -0.8380 
 11 C        4.3360     0.9910    -0.7600 C.ar  1 <1>  -0.1500 
 12 C        6.4640    -0.2740     1.1780 C.3   1 <1>   0.2090 
 13 C        6.6630    -1.0440    -1.2040 C.3   1 <1>   0.2090 
 14 C        7.6910    -1.1360     1.5440 C.3   1 <1>   0.3430 
 15 C        7.8890    -1.8960    -0.8120 C.3   1 <1>   0.3430 
 16 N        8.6350    -1.3370     0.3810 N.4   1 <1>  -0.9590 
 17 C        9.7920    -2.1910     0.7810 C.3   1 <1>   0.3430 
 18 C       10.9100    -2.1930    -0.2760 C.3   1 <1>  -0.0800 
 19 C       12.0530    -3.1080     0.2060 C.3   1 <1>  -0.0220 
 20 C       11.4490    -0.7780    -0.5910 C.3   1 <1>  -0.1600 
 21 C       13.2760    -2.9730    -0.6800 C.2   1 <1>  -0.2880 
 22 C       12.4970    -0.8110    -1.7150 C.3   1 <1>  -0.0220 
 23 C       13.4660    -1.9650    -1.5340 C.2   1 <1>  -0.2880 
 24 H        3.5500    -2.1070     0.2600 H     1 <1>   0.1500 
 25 H        0.9820     1.0650    -1.0260 H     1 <1>   0.1500 
 26 H        2.9400     2.4830    -1.3800 H     1 <1>   0.1500 
 27 H        5.1900     1.6220    -0.9180 H     1 <1>   0.1500 
 28 H        5.7740    -0.2660     2.0050 H     1 <1>   0.0800 
 29 H        6.7690     0.7410     0.9930 H     1 <1>   0.0800 
 30 H        6.9860    -0.0980    -1.6010 H     1 <1>   0.0800 
 31 H        6.1060    -1.5530    -1.9730 H     1 <1>   0.0800 
 32 H        7.3320    -2.0940     1.8840 H     1 <1>   0.0800 
 33 H        8.2120    -0.6710     2.3640 H     1 <1>   0.0800 
 34 H        8.5480    -1.9640    -1.6610 H     1 <1>   0.0800 
 35 H        7.5430    -2.8910    -0.5840 H     1 <1>   0.0800 
 36 H        8.9990    -0.4130     0.1160 H     1 <1>   0.4500 
 37 H        9.4570    -3.2020     0.9470 H     1 <1>   0.0800 
 38 H       10.2030    -1.8230     1.7070 H     1 <1>   0.0800 
 39 H       10.5330    -2.6240    -1.1870 H     1 <1>   0.0800 
 40 H       11.7230    -4.1330     0.1920 H     1 <1>   0.0800 
 41 H       12.3420    -2.8630     1.2150 H     1 <1>   0.0800 
 42 H       11.9130    -0.3730     0.2930 H     1 <1>   0.0800 
 43 H       10.6630    -0.1110    -0.8910 H     1 <1>   0.0800 
 44 H       13.9890    -3.7720    -0.5540 H     1 <1>   0.1500 
 45 H       13.0430     0.1170    -1.7200 H     1 <1>   0.0800 
 46 H       12.0130    -0.9170    -2.6710 H     1 <1>   0.0800 
 47 H       14.3350    -1.8930    -2.1680 H     1 <1>   0.1500 
@<TRIPOS>BOND
  1   1   2  1   
  2   2   3  1   
  3   2   4  1   
  4   2   5  1   
  5   5   6  ar  
  6   5   7  ar  
  7   6   8  ar  
  8   6  24  1   
  9   7   9  ar  
 10   7  25  1   
 11   8  10  1   
 12   8  11  ar  
 13   9  11  ar  
 14   9  26  1   
 15  10  12  1   
 16  10  13  1   
 17  11  27  1   
 18  12  14  1   
 19  12  28  1   
 20  12  29  1   
 21  13  15  1   
 22  13  30  1   
 23  13  31  1   
 24  14  16  1   
 25  14  32  1   
 26  14  33  1   
 27  15  16  1   
 28  15  34  1   
 29  15  35  1   
 30  16  17  1   
 31  16  36  1   
 32  17  18  1   
 33  17  37  1   
 34  17  38  1   
 35  18  19  1   
 36  18  20  1   
 37  18  39  1   
 38  19  21  1   
 39  19  40  1   
 40  19  41  1   
 41  20  22  1   
 42  20  42  1   
 43  20  43  1   
 44  21  23  2   
 45  21  44  1   
 46  22  23  1   
 47  22  45  1   
 48  22  46  1   
 49  23  47  1   
@<TRIPOS>SUBSTRUCTURE
  1 ****  10 GROUP 4 **** **** 0

# MOE 2024.06 (io_trps.svl 2023.06)
