@<TRIPOS>MOLECULE
NONAME
43 45 1 0 0 
SMALL
USER_CHARGES


@<TRIPOS>ATOM
  1 S       -0.1510     0.6540    -0.4210 S.3   1 <1>  -0.3320 
  2 C       -1.4240    -0.5730    -0.0710 C.ar  1 <1>   0.1020 
  3 C        1.4130    -0.2820    -0.7220 C.3   1 <1>   0.0700 
  4 C       -1.1690    -1.9350    -0.1070 C.ar  1 <1>  -0.1500 
  5 C       -2.6850    -0.0980     0.2400 C.ar  1 <1>  -0.1500 
  6 C        2.5190     0.7310    -1.0080 C.3   1 <1>  -0.0990 
  7 C       -2.1940    -2.8230     0.1740 C.ar  1 <1>  -0.1500 
  8 C       -3.7040    -0.9930     0.5200 C.ar  1 <1>  -0.1500 
  9 C        3.8490     0.0300    -1.1650 C.2   1 <1>   0.5690 
 10 C       -3.4620    -2.3580     0.4900 C.ar  1 <1>  -0.1440 
 11 O        3.9540    -0.8440    -1.9900 O.2   1 <1>  -0.5700 
 12 N        4.8780     0.4040    -0.3670 N.am  1 <1>  -0.7300 
 13 C       -4.5800    -3.3380     0.7960 C.3   1 <1>  -0.0970 
 14 C        6.2290    -0.1890    -0.3920 C.3   1 <1>   0.2200 
 15 C        6.6030    -0.7070     1.0090 C.3   1 <1>  -0.0800 
 16 C        7.2820     0.9040    -0.6430 C.3   1 <1>  -0.1600 
 17 C        7.1110     0.5530     1.6980 C.3   1 <1>  -0.1600 
 18 C        7.9020    -1.5210     0.8810 C.3   1 <1>  -0.1600 
 19 C        8.1470     0.8640     0.6310 C.3   1 <1>  -0.0800 
 20 C        8.9640    -0.4390     0.6160 C.3   1 <1>  -0.1600 
 21 H        1.2500    -0.9330    -1.5630 H     1 <1>   0.0800 
 22 H        1.6220    -0.8550     0.1640 H     1 <1>   0.0800 
 23 H       -0.1980    -2.3170    -0.3510 H     1 <1>   0.1500 
 24 H       -2.8650     0.9610     0.2610 H     1 <1>   0.1500 
 25 H        2.5730     1.4420    -0.2060 H     1 <1>   0.0800 
 26 H        2.2990     1.2550    -1.9200 H     1 <1>   0.0800 
 27 H       -2.0000    -3.8810     0.1450 H     1 <1>   0.1500 
 28 H       -4.6850    -0.6210     0.7600 H     1 <1>   0.1500 
 29 H        4.7530     1.1430     0.3220 H     1 <1>   0.3700 
 30 H       -4.1840    -4.2390     1.2290 H     1 <1>   0.0800 
 31 H       -5.1030    -3.5870    -0.1100 H     1 <1>   0.0800 
 32 H       -5.2770    -2.9060     1.4920 H     1 <1>   0.0800 
 33 H        6.2850    -0.9740    -1.1300 H     1 <1>   0.0800 
 34 H        5.8090    -1.2360     1.5080 H     1 <1>   0.0800 
 35 H        6.8250     1.8710    -0.7580 H     1 <1>   0.0800 
 36 H        7.8660     0.6850    -1.5190 H     1 <1>   0.0800 
 37 H        7.5520     0.3520     2.6600 H     1 <1>   0.0800 
 38 H        6.3630     1.3210     1.7890 H     1 <1>   0.0800 
 39 H        7.8490    -2.2400     0.0820 H     1 <1>   0.0800 
 40 H        8.1140    -2.0330     1.8040 H     1 <1>   0.0800 
 41 H        8.7340     1.7520     0.7970 H     1 <1>   0.0800 
 42 H        9.4690    -0.5880    -0.3230 H     1 <1>   0.0800 
 43 H        9.6920    -0.4320     1.4090 H     1 <1>   0.0800 
@<TRIPOS>BOND
  1   1   2  1   
  2   1   3  1   
  3   2   4  ar  
  4   2   5  ar  
  5   3   6  1   
  6   3  21  1   
  7   3  22  1   
  8   4   7  ar  
  9   4  23  1   
 10   5   8  ar  
 11   5  24  1   
 12   6   9  1   
 13   6  25  1   
 14   6  26  1   
 15   7  10  ar  
 16   7  27  1   
 17   8  10  ar  
 18   8  28  1   
 19   9  11  2   
 20   9  12  am  
 21  10  13  1   
 22  12  14  1   
 23  12  29  1   
 24  13  30  1   
 25  13  31  1   
 26  13  32  1   
 27  14  15  1   
 28  14  16  1   
 29  14  33  1   
 30  15  17  1   
 31  15  18  1   
 32  15  34  1   
 33  16  19  1   
 34  16  35  1   
 35  16  36  1   
 36  17  19  1   
 37  17  37  1   
 38  17  38  1   
 39  18  20  1   
 40  18  39  1   
 41  18  40  1   
 42  19  20  1   
 43  19  41  1   
 44  20  42  1   
 45  20  43  1   
@<TRIPOS>SUBSTRUCTURE
  1 ****   3 GROUP 4 **** **** 0

# MOE 2024.06 (io_trps.svl 2023.06)
