@<TRIPOS>MOLECULE
NONAME
47 48 1 0 0 
SMALL
USER_CHARGES


@<TRIPOS>ATOM
  1 O       -0.1190     0.6310     0.4770 O.2   1 <1>  -0.5700 
  2 C        0.1050     1.7390     0.0330 C.2   1 <1>   0.6340 
  3 O       -0.9230     2.4710    -0.4120 O.3   1 <1>  -0.4300 
  4 C        1.4360     2.3130    -0.0400 C.ar  1 <1>   0.0860 
  5 C       -2.2520     1.9880    -0.3770 C.3   1 <1>   0.0400 
  6 C        2.5520     1.6010     0.4080 C.ar  1 <1>  -0.1500 
  7 C        1.6690     3.5920    -0.5560 C.ar  1 <1>  -0.1500 
  8 C        3.8300     2.1270     0.3480 C.ar  1 <1>  -0.1500 
  9 C        2.9420     4.1260    -0.6200 C.ar  1 <1>  -0.1500 
 10 C        4.0340     3.4020    -0.1700 C.ar  1 <1>   0.0830 
 11 O        5.2450     3.9940    -0.2660 O.3   1 <1>  -0.3620 
 12 C        6.4220     3.3580     0.1610 C.3   1 <1>   0.1200 
 13 C        7.5760     4.3270    -0.0980 C.3   1 <1>  -0.1600 
 14 C        8.9070     3.7240     0.3490 C.3   1 <1>   0.3430 
 15 N       10.0320     4.6330    -0.0030 N.4   1 <1>  -0.9590 
 16 C       11.3440     3.9080     0.0510 C.3   1 <1>   0.3430 
 17 C       10.0740     5.8720     0.8270 C.3   1 <1>   0.3430 
 18 C       12.5550     4.8600    -0.0550 C.3   1 <1>  -0.0800 
 19 C       11.0410     6.8790     0.1910 C.3   1 <1>  -0.1600 
 20 C       12.1720     6.2340    -0.6310 C.3   1 <1>  -0.1600 
 21 C       13.6710     4.2230    -0.8940 C.3   1 <1>  -0.2400 
 22 H       -2.9000     2.7430    -0.7840 H     1 <1>   0.0800 
 23 H       -2.5190     1.7790     0.6440 H     1 <1>   0.0800 
 24 H       -2.3110     1.0900    -0.9680 H     1 <1>   0.0800 
 25 H        2.4080     0.6120     0.8110 H     1 <1>   0.1500 
 26 H        0.8400     4.1780    -0.9140 H     1 <1>   0.1500 
 27 H        4.6460     1.5310     0.7080 H     1 <1>   0.1500 
 28 H        3.0970     5.1110    -1.0210 H     1 <1>   0.1500 
 29 H        6.5380     2.4500    -0.4060 H     1 <1>   0.0800 
 30 H        6.3230     3.1380     1.2110 H     1 <1>   0.0800 
 31 H        7.3760     5.2340     0.4440 H     1 <1>   0.0800 
 32 H        7.6110     4.5380    -1.1520 H     1 <1>   0.0800 
 33 H        9.0420     2.7780    -0.1490 H     1 <1>   0.0800 
 34 H        8.8940     3.5460     1.4130 H     1 <1>   0.0800 
 35 H        9.9070     4.9430    -0.9760 H     1 <1>   0.4500 
 36 H       11.3840     3.2000    -0.7620 H     1 <1>   0.0800 
 37 H       11.4220     3.3530     0.9720 H     1 <1>   0.0800 
 38 H       10.4140     5.6240     1.8200 H     1 <1>   0.0800 
 39 H        9.0960     6.3180     0.9060 H     1 <1>   0.0800 
 40 H       12.9420     5.0100     0.9400 H     1 <1>   0.0800 
 41 H       11.4680     7.4700     0.9830 H     1 <1>   0.0800 
 42 H       10.4890     7.5580    -0.4370 H     1 <1>   0.0800 
 43 H       11.8480     6.1130    -1.6520 H     1 <1>   0.0800 
 44 H       13.0280     6.8880    -0.6420 H     1 <1>   0.0800 
 45 H       13.3460     4.0540    -1.9060 H     1 <1>   0.0800 
 46 H       13.9760     3.2830    -0.4690 H     1 <1>   0.0800 
 47 H       14.5320     4.8690    -0.9200 H     1 <1>   0.0800 
@<TRIPOS>BOND
  1   1   2  2   
  2   2   3  1   
  3   2   4  1   
  4   3   5  1   
  5   4   6  ar  
  6   4   7  ar  
  7   5  22  1   
  8   5  23  1   
  9   5  24  1   
 10   6   8  ar  
 11   6  25  1   
 12   7   9  ar  
 13   7  26  1   
 14   8  10  ar  
 15   8  27  1   
 16   9  10  ar  
 17   9  28  1   
 18  10  11  1   
 19  11  12  1   
 20  12  13  1   
 21  12  29  1   
 22  12  30  1   
 23  13  14  1   
 24  13  31  1   
 25  13  32  1   
 26  14  15  1   
 27  14  33  1   
 28  14  34  1   
 29  15  16  1   
 30  15  17  1   
 31  15  35  1   
 32  16  18  1   
 33  16  36  1   
 34  16  37  1   
 35  17  19  1   
 36  17  38  1   
 37  17  39  1   
 38  18  20  1   
 39  18  21  1   
 40  18  40  1   
 41  19  20  1   
 42  19  41  1   
 43  19  42  1   
 44  20  43  1   
 45  20  44  1   
 46  21  45  1   
 47  21  46  1   
 48  21  47  1   
@<TRIPOS>SUBSTRUCTURE
  1 ****  12 GROUP 4 **** **** 0

# MOE 2024.06 (io_trps.svl 2023.06)
