@<TRIPOS>MOLECULE
NONAME
36 36 1 0 0 
SMALL
USER_CHARGES


@<TRIPOS>ATOM
  1 O       -1.5440     1.5260    -1.4300 O.2   1 <1>  -0.5700 
  2 C       -0.7970     2.3390    -0.9520 C.2   1 <1>   0.6590 
  3 O       -1.2200     3.2840    -0.1300 O.3   1 <1>  -0.4300 
  4 C        0.6870     2.3390    -1.2620 C.3   1 <1>  -0.0990 
  5 C       -2.5790     3.3620     0.2240 C.3   1 <1>   0.3200 
  6 C        1.5380     1.9690    -0.0350 C.3   1 <1>  -0.1600 
  7 C       -2.7560     4.5130     1.1540 C.1   1 <1>  -0.2000 
  8 C        3.0370     1.9330    -0.3780 C.3   1 <1>  -0.0990 
  9 C       -2.8970     5.4320     1.8960 C.1   1 <1>  -0.1770 
 10 C        3.9000     1.5880     0.8270 C.2   1 <1>   0.5690 
 11 O        4.5380     2.4610     1.3560 O.2   1 <1>  -0.5700 
 12 N        3.9480     0.3240     1.3240 N.am  1 <1>  -0.5470 
 13 C        3.2860    -0.8280     0.8940 C.ar  1 <1>   0.1170 
 14 C        3.5760    -1.4070    -0.3340 C.ar  1 <1>  -0.1500 
 15 C        2.3200    -1.4130     1.7010 C.ar  1 <1>  -0.1500 
 16 C        2.9010    -2.5380    -0.7550 C.ar  1 <1>  -0.1500 
 17 C        1.6450    -2.5450     1.2820 C.ar  1 <1>  -0.1500 
 18 C        1.9310    -3.1130     0.0500 C.ar  1 <1>  -0.1440 
 19 C        1.1840    -4.3510    -0.4140 C.3   1 <1>  -0.0970 
 20 H        0.9580     3.3160    -1.6170 H     1 <1>   0.0800 
 21 H        0.8660     1.6320    -2.0530 H     1 <1>   0.0800 
 22 H       -2.8620     2.4400     0.7020 H     1 <1>   0.0800 
 23 H       -3.1600     3.5030    -0.6710 H     1 <1>   0.0800 
 24 H        1.2260     1.0050     0.3290 H     1 <1>   0.0800 
 25 H        1.3710     2.6890     0.7490 H     1 <1>   0.0800 
 26 H        3.3430     2.8980    -0.7410 H     1 <1>   0.0800 
 27 H        3.2210     1.2200    -1.1590 H     1 <1>   0.0800 
 28 H       -3.0180     6.2650     2.5670 H     1 <1>   0.1770 
 29 H        4.4920     0.2520     2.1840 H     1 <1>   0.3700 
 30 H        4.3340    -0.9720    -0.9590 H     1 <1>   0.1500 
 31 H        2.0920    -0.9760     2.6560 H     1 <1>   0.1500 
 32 H        3.1340    -2.9720    -1.7120 H     1 <1>   0.1500 
 33 H        0.8940    -2.9820     1.9160 H     1 <1>   0.1500 
 34 H        1.8050    -4.9450    -1.0590 H     1 <1>   0.0800 
 35 H        0.3000    -4.0610    -0.9520 H     1 <1>   0.0800 
 36 H        0.8960    -4.9540     0.4280 H     1 <1>   0.0800 
@<TRIPOS>BOND
  1   1   2  2   
  2   2   3  1   
  3   2   4  1   
  4   3   5  1   
  5   4   6  1   
  6   4  20  1   
  7   4  21  1   
  8   5   7  1   
  9   5  22  1   
 10   5  23  1   
 11   6   8  1   
 12   6  24  1   
 13   6  25  1   
 14   7   9  3   
 15   8  10  1   
 16   8  26  1   
 17   8  27  1   
 18   9  28  1   
 19  10  11  2   
 20  10  12  am  
 21  12  13  1   
 22  12  29  1   
 23  13  14  ar  
 24  13  15  ar  
 25  14  16  ar  
 26  14  30  1   
 27  15  17  ar  
 28  15  31  1   
 29  16  18  ar  
 30  16  32  1   
 31  17  18  ar  
 32  17  33  1   
 33  18  19  1   
 34  19  34  1   
 35  19  35  1   
 36  19  36  1   
@<TRIPOS>SUBSTRUCTURE
  1 ****   6 GROUP 4 **** **** 0

# MOE 2024.06 (io_trps.svl 2023.06)
