@<TRIPOS>MOLECULE
NONAME
25 26 1 0 0 
SMALL
USER_CHARGES


@<TRIPOS>ATOM
  1 BR      -0.6830    -0.0700     2.5020 Br    1 <1>  -0.0580 
  2 C       -2.2730    -0.0200     1.4230 C.2   1 <1>   0.2440 
  3 N       -3.0160    -1.0670     1.2500 N.2   1 <1>  -0.5650 
  4 N       -2.6610     1.1150     0.8060 N.pl3 1 <1>   0.0480 
  5 C       -3.9730    -0.5800     0.4490 C.2   1 <1>   0.2900 
  6 C       -3.7920     0.7330     0.1540 C.2   1 <1>  -0.2370 
  7 C       -2.0380     2.4560     0.8110 C.3   1 <1>   0.0960 
  8 N       -5.0630    -1.2820    -0.0660 N.am  1 <1>  -0.4230 
  9 C       -4.6990     1.4190    -0.6890 C.2   1 <1>   0.7150 
 10 C       -1.2290     2.6630    -0.4690 C.3   1 <1>   0.1200 
 11 C       -5.9560    -0.6140    -0.8820 C.2   1 <1>   0.6900 
 12 C       -5.2240    -2.7170     0.2870 C.3   1 <1>   0.0600 
 13 O       -4.5730     2.5860    -1.0030 O.2   1 <1>  -0.5700 
 14 N       -5.7500     0.7040    -1.1660 N.am  1 <1>  -0.4900 
 15 O       -0.6930     3.9400    -0.4580 O.3   1 <1>  -0.6800 
 16 O       -6.9280    -1.1570    -1.3660 O.2   1 <1>  -0.5700 
 17 H       -1.3940     2.5470     1.6670 H     1 <1>   0.0800 
 18 H       -2.8170     3.1950     0.8790 H     1 <1>   0.0800 
 19 H       -1.8450     2.5650    -1.3470 H     1 <1>   0.0800 
 20 H       -0.4100     1.9650    -0.5150 H     1 <1>   0.0800 
 21 H       -4.3630    -3.2660    -0.0500 H     1 <1>   0.0800 
 22 H       -6.1050    -3.1300    -0.1720 H     1 <1>   0.0800 
 23 H       -5.3060    -2.8160     1.3550 H     1 <1>   0.0800 
 24 H       -6.4190     1.1650    -1.7710 H     1 <1>   0.3700 
 25 H       -1.3750     4.6080    -0.6770 H     1 <1>   0.4000 
@<TRIPOS>BOND
  1   1   2  1   
  2   2   3  2   
  3   2   4  1   
  4   3   5  1   
  5   4   6  1   
  6   4   7  1   
  7   5   6  2   
  8   5   8  1   
  9   6   9  1   
 10   7  10  1   
 11   7  17  1   
 12   7  18  1   
 13   8  11  am  
 14   8  12  1   
 15   9  13  2   
 16   9  14  am  
 17  10  15  1   
 18  10  19  1   
 19  10  20  1   
 20  11  14  am  
 21  11  16  2   
 22  12  21  1   
 23  12  22  1   
 24  12  23  1   
 25  14  24  1   
 26  15  25  1   
@<TRIPOS>SUBSTRUCTURE
  1 ****   6 GROUP 4 **** **** 0

# MOE 2024.06 (io_trps.svl 2023.06)
