@<TRIPOS>MOLECULE
NONAME
51 52 1 0 0 
SMALL
USER_CHARGES


@<TRIPOS>ATOM
  1 O        1.1910    -4.4090     0.5220 O.3   1 <1>  -0.3630 
  2 C        0.0950    -5.0670     0.0680 C.ar  1 <1>   0.0830 
  3 C        1.1070    -3.0780     0.9810 C.3   1 <1>   0.1200 
  4 C       -1.1800    -4.5100     0.0150 C.ar  1 <1>  -0.1500 
  5 C        0.2850    -6.3670    -0.3650 C.ar  1 <1>  -0.1500 
  6 C        2.5200    -2.6170     1.3460 C.3   1 <1>   0.2000 
  7 C       -2.2510    -5.2450    -0.4700 C.ar  1 <1>  -0.1440 
  8 C       -0.7800    -7.1030    -0.8480 C.ar  1 <1>  -0.1500 
  9 O        2.5120    -1.2370     1.5940 O.3   1 <1>  -0.6800 
 10 C        3.5130    -2.9390     0.2030 C.3   1 <1>   0.3430 
 11 C       -2.0510    -6.5510    -0.9060 C.ar  1 <1>  -0.1440 
 12 C       -3.6310    -4.6020    -0.5140 C.3   1 <1>  -0.0970 
 13 N        4.6010    -1.9080     0.1080 N.4   1 <1>  -0.9590 
 14 C       -3.1970    -7.3960    -1.4460 C.3   1 <1>  -0.0970 
 15 C        4.7210    -1.4410    -1.3020 C.3   1 <1>   0.4230 
 16 C        5.8970    -2.2610     0.7660 C.3   1 <1>   0.4230 
 17 C        6.1780    -1.1930    -1.7140 C.3   1 <1>  -0.1600 
 18 C        3.8810    -0.1790    -1.4480 C.3   1 <1>  -0.2400 
 19 C        6.7270    -3.1500    -0.1670 C.3   1 <1>  -0.1600 
 20 C        5.7020    -2.8970     2.1410 C.3   1 <1>  -0.2400 
 21 C        7.0460    -2.4450    -1.4990 C.3   1 <1>  -0.1600 
 22 H        0.4580    -3.0570     1.8390 H     1 <1>   0.0800 
 23 H        0.7070    -2.4750     0.1830 H     1 <1>   0.0800 
 24 H       -1.3570    -3.5070     0.3480 H     1 <1>   0.1500 
 25 H        1.2650    -6.8050    -0.3220 H     1 <1>   0.1500 
 26 H        2.8300    -3.1110     2.2500 H     1 <1>   0.0800 
 27 H       -0.6120    -8.1130    -1.1800 H     1 <1>   0.1500 
 28 H        1.9050    -1.0180     2.3350 H     1 <1>   0.4000 
 29 H        2.9520    -2.9530    -0.7170 H     1 <1>   0.0800 
 30 H        3.9220    -3.9260     0.3350 H     1 <1>   0.0800 
 31 H       -3.6050    -3.5970    -0.1370 H     1 <1>   0.0800 
 32 H       -4.3200    -5.1690     0.0860 H     1 <1>   0.0800 
 33 H       -3.9910    -4.5730    -1.5270 H     1 <1>   0.0800 
 34 H        4.1990    -1.1170     0.6420 H     1 <1>   0.4500 
 35 H       -3.9530    -7.5170    -0.6920 H     1 <1>   0.0800 
 36 H       -2.8540    -8.3720    -1.7370 H     1 <1>   0.0800 
 37 H       -3.6310    -6.9210    -2.3070 H     1 <1>   0.0800 
 38 H        4.3260    -2.2000    -1.9580 H     1 <1>   0.0800 
 39 H        6.4530    -1.3470     0.9130 H     1 <1>   0.0800 
 40 H        6.5770    -0.3660    -1.1510 H     1 <1>   0.0800 
 41 H        6.2150    -0.9140    -2.7530 H     1 <1>   0.0800 
 42 H        4.2520     0.6070    -0.8150 H     1 <1>   0.0800 
 43 H        2.8520    -0.3760    -1.2070 H     1 <1>   0.0800 
 44 H        3.9190     0.1660    -2.4670 H     1 <1>   0.0800 
 45 H        6.1960    -4.0670    -0.3550 H     1 <1>   0.0800 
 46 H        7.6510    -3.4120     0.3180 H     1 <1>   0.0800 
 47 H        5.2590    -3.8740     2.0730 H     1 <1>   0.0800 
 48 H        5.1040    -2.2610     2.7690 H     1 <1>   0.0800 
 49 H        6.6610    -3.0100     2.6150 H     1 <1>   0.0800 
 50 H        8.0840    -2.1560    -1.5200 H     1 <1>   0.0800 
 51 H        6.8910    -3.1390    -2.3080 H     1 <1>   0.0800 
@<TRIPOS>BOND
  1   1   2  1   
  2   1   3  1   
  3   2   4  ar  
  4   2   5  ar  
  5   3   6  1   
  6   3  22  1   
  7   3  23  1   
  8   4   7  ar  
  9   4  24  1   
 10   5   8  ar  
 11   5  25  1   
 12   6   9  1   
 13   6  10  1   
 14   6  26  1   
 15   7  11  ar  
 16   7  12  1   
 17   8  11  ar  
 18   8  27  1   
 19   9  28  1   
 20  10  13  1   
 21  10  29  1   
 22  10  30  1   
 23  11  14  1   
 24  12  31  1   
 25  12  32  1   
 26  12  33  1   
 27  13  15  1   
 28  13  16  1   
 29  13  34  1   
 30  14  35  1   
 31  14  36  1   
 32  14  37  1   
 33  15  17  1   
 34  15  18  1   
 35  15  38  1   
 36  16  19  1   
 37  16  20  1   
 38  16  39  1   
 39  17  21  1   
 40  17  40  1   
 41  17  41  1   
 42  18  42  1   
 43  18  43  1   
 44  18  44  1   
 45  19  21  1   
 46  19  45  1   
 47  19  46  1   
 48  20  47  1   
 49  20  48  1   
 50  20  49  1   
 51  21  50  1   
 52  21  51  1   
@<TRIPOS>SUBSTRUCTURE
  1 ****   1 GROUP 4 **** **** 0

# MOE 2024.06 (io_trps.svl 2023.06)
