@<TRIPOS>MOLECULE
NONAME
52 54 1 0 0 
SMALL
USER_CHARGES


@<TRIPOS>ATOM
  1 O       -0.1070     0.5020    -0.3530 O.2   1 <1>  -0.5700 
  2 C       -0.0320     1.6950    -0.5790 C.2   1 <1>   0.5440 
  3 N        1.1390     2.2140    -1.0980 N.am  1 <1>  -0.6600 
  4 C       -1.1760     2.5420    -0.3000 C.ar  1 <1>   0.0860 
  5 C        1.3020     3.6420    -1.4880 C.3   1 <1>   0.1400 
  6 C        2.3570     1.3770    -1.2710 C.3   1 <1>   0.1400 
  7 C       -1.3660     3.1500     0.9470 C.ar  1 <1>  -0.1440 
  8 C       -2.1160     2.7840    -1.3000 C.ar  1 <1>  -0.1500 
  9 C        2.4550     4.2660    -0.6970 C.3   1 <1>  -0.1600 
 10 C        3.5090     1.9820    -0.4650 C.3   1 <1>  -0.1600 
 11 C       -2.4550     3.9790     1.1600 C.ar  1 <1>  -0.1500 
 12 C       -0.3820     2.8960     2.0820 C.3   1 <1>  -0.0970 
 13 C       -3.2020     3.6110    -1.0830 C.ar  1 <1>  -0.1500 
 14 C        3.7570     3.4540    -0.8410 C.3   1 <1>  -0.0190 
 15 C       -3.3700     4.2130     0.1490 C.ar  1 <1>  -0.1500 
 16 C        4.8900     4.0490    -0.0050 C.2   1 <1>   0.5690 
 17 O        4.6940     4.2740     1.1640 O.2   1 <1>  -0.5700 
 18 N        6.0830     4.2840    -0.6350 N.am  1 <1>  -0.5470 
 19 C        7.2880     4.8330    -0.1670 C.ar  1 <1>   0.1170 
 20 C        7.3790     5.6200     0.9760 C.ar  1 <1>  -0.1500 
 21 C        8.4480     4.5970    -0.8910 C.ar  1 <1>  -0.1500 
 22 C        8.5870     6.1530     1.3950 C.ar  1 <1>  -0.1430 
 23 C        9.6590     5.1240    -0.4840 C.ar  1 <1>  -0.1500 
 24 C        9.7400     5.9040     0.6590 C.ar  1 <1>  -0.1430 
 25 C        8.6190     7.0010     2.6590 C.3   1 <1>  -0.0970 
 26 C       11.0910     6.4680     1.0780 C.3   1 <1>  -0.0970 
 27 H        0.4020     4.2020    -1.3060 H     1 <1>   0.0800 
 28 H        1.5140     3.6910    -2.5430 H     1 <1>   0.0800 
 29 H        2.6110     1.3400    -2.3160 H     1 <1>   0.0800 
 30 H        2.1800     0.3680    -0.9380 H     1 <1>   0.0800 
 31 H       -1.9860     2.3100    -2.2570 H     1 <1>   0.1500 
 32 H        2.1730     4.3190     0.3400 H     1 <1>   0.0800 
 33 H        2.6160     5.2730    -1.0380 H     1 <1>   0.0800 
 34 H        4.4010     1.4050    -0.6350 H     1 <1>   0.0800 
 35 H        3.2710     1.9100     0.5830 H     1 <1>   0.0800 
 36 H       -2.6010     4.4480     2.1180 H     1 <1>   0.1500 
 37 H        0.6010     3.2290     1.8050 H     1 <1>   0.0800 
 38 H       -0.3390     1.8430     2.2980 H     1 <1>   0.0800 
 39 H       -0.6780     3.4140     2.9770 H     1 <1>   0.0800 
 40 H       -3.9160     3.7840    -1.8700 H     1 <1>   0.1500 
 41 H        4.0470     3.4870    -1.8760 H     1 <1>   0.0800 
 42 H       -4.2140     4.8580     0.3250 H     1 <1>   0.1500 
 43 H        6.1240     3.9750    -1.6020 H     1 <1>   0.3700 
 44 H        6.4920     5.8210     1.5460 H     1 <1>   0.1500 
 45 H        8.4130     3.9930    -1.7790 H     1 <1>   0.1500 
 46 H       10.5420     4.9230    -1.0640 H     1 <1>   0.1500 
 47 H        7.6410     7.0740     3.0990 H     1 <1>   0.0800 
 48 H        8.9600     7.9940     2.4280 H     1 <1>   0.0800 
 49 H        9.2800     6.5600     3.3820 H     1 <1>   0.0800 
 50 H       11.3550     6.1000     2.0530 H     1 <1>   0.0800 
 51 H       11.0490     7.5410     1.1070 H     1 <1>   0.0800 
 52 H       11.8620     6.1780     0.3870 H     1 <1>   0.0800 
@<TRIPOS>BOND
  1   1   2  2   
  2   2   3  am  
  3   2   4  1   
  4   3   5  1   
  5   3   6  1   
  6   4   7  ar  
  7   4   8  ar  
  8   5   9  1   
  9   5  27  1   
 10   5  28  1   
 11   6  10  1   
 12   6  29  1   
 13   6  30  1   
 14   7  11  ar  
 15   7  12  1   
 16   8  13  ar  
 17   8  31  1   
 18   9  14  1   
 19   9  32  1   
 20   9  33  1   
 21  10  14  1   
 22  10  34  1   
 23  10  35  1   
 24  11  15  ar  
 25  11  36  1   
 26  12  37  1   
 27  12  38  1   
 28  12  39  1   
 29  13  15  ar  
 30  13  40  1   
 31  14  16  1   
 32  14  41  1   
 33  15  42  1   
 34  16  17  2   
 35  16  18  am  
 36  18  19  1   
 37  18  43  1   
 38  19  20  ar  
 39  19  21  ar  
 40  20  22  ar  
 41  20  44  1   
 42  21  23  ar  
 43  21  45  1   
 44  22  24  ar  
 45  22  25  1   
 46  23  24  ar  
 47  23  46  1   
 48  24  26  1   
 49  25  47  1   
 50  25  48  1   
 51  25  49  1   
 52  26  50  1   
 53  26  51  1   
 54  26  52  1   
@<TRIPOS>SUBSTRUCTURE
  1 ****  14 GROUP 4 **** **** 0

# MOE 2024.06 (io_trps.svl 2023.06)
