@<TRIPOS>MOLECULE
NONAME
50 51 1 0 0 
SMALL
USER_CHARGES


@<TRIPOS>ATOM
  1 O        5.8050    -4.5560    -0.1930 O.3   1 <1>  -0.3630 
  2 C        7.1520    -4.4330    -0.0520 C.ar  1 <1>   0.0830 
  3 C        5.1390    -5.7630     0.0840 C.3   1 <1>   0.1200 
  4 C        7.7230    -3.1990    -0.3480 C.ar  1 <1>  -0.1440 
  5 C        7.9680    -5.4810     0.3720 C.ar  1 <1>  -0.1500 
  6 C        3.6490    -5.5350    -0.1810 C.3   1 <1>  -0.1600 
  7 C        9.0920    -3.0270    -0.2180 C.ar  1 <1>  -0.1500 
  8 C        6.8590    -2.0360    -0.8150 C.3   1 <1>  -0.0970 
  9 C        9.3330    -5.2950     0.4980 C.ar  1 <1>  -0.1500 
 10 C        2.8200    -6.7990     0.0920 C.3   1 <1>  -0.1600 
 11 C        9.9020    -4.0680     0.2050 C.ar  1 <1>  -0.1430 
 12 C        1.3410    -6.5360    -0.1810 C.3   1 <1>   0.3430 
 13 C       11.4000    -3.8630     0.3400 C.3   1 <1>  -0.0970 
 14 N        0.5680    -7.7710     0.0940 N.4   1 <1>  -0.9060 
 15 C       -0.8780    -7.6430    -0.1710 C.3   1 <1>   0.4230 
 16 C       -1.5330    -6.7470     0.8910 C.3   1 <1>  -0.1600 
 17 C       -1.4900    -9.0470    -0.1600 C.3   1 <1>  -0.1600 
 18 C       -3.0560    -6.6880     0.7020 C.3   1 <1>  -0.1600 
 19 C       -3.0120    -8.9910    -0.3560 C.3   1 <1>  -0.1600 
 20 C       -3.6720    -8.0930     0.6970 C.3   1 <1>  -0.1600 
 21 H        5.3170    -6.0150     1.1150 H     1 <1>   0.0800 
 22 H        5.5380    -6.5240    -0.5650 H     1 <1>   0.0800 
 23 H        7.5650    -6.4450     0.6090 H     1 <1>   0.1500 
 24 H        3.5300    -5.2350    -1.2080 H     1 <1>   0.0800 
 25 H        3.3110    -4.7330     0.4530 H     1 <1>   0.0800 
 26 H        9.5350    -2.0750    -0.4490 H     1 <1>   0.1500 
 27 H        6.3500    -2.3040    -1.7230 H     1 <1>   0.0800 
 28 H        7.4520    -1.1590    -0.9990 H     1 <1>   0.0800 
 29 H        6.1260    -1.8040    -0.0630 H     1 <1>   0.0800 
 30 H        9.9520    -6.1120     0.8240 H     1 <1>   0.1500 
 31 H        2.9550    -7.0880     1.1200 H     1 <1>   0.0800 
 32 H        3.1740    -7.5910    -0.5450 H     1 <1>   0.0800 
 33 H        1.2100    -6.2390    -1.2100 H     1 <1>   0.0800 
 34 H        0.9960    -5.7320     0.4510 H     1 <1>   0.0800 
 35 H       11.6120    -2.8590     0.6600 H     1 <1>   0.0800 
 36 H       11.8760    -4.0340    -0.6080 H     1 <1>   0.0800 
 37 H       11.8100    -4.5430     1.0650 H     1 <1>   0.0800 
 38 H        0.6940    -8.0520     1.0730 H     1 <1>   0.4500 
 39 H        0.9350    -8.5350    -0.4850 H     1 <1>   0.4500 
 40 H       -1.0370    -7.2080    -1.1460 H     1 <1>   0.0800 
 41 H       -1.1500    -5.7440     0.8270 H     1 <1>   0.0800 
 42 H       -1.3270    -7.1320     1.8750 H     1 <1>   0.0800 
 43 H       -1.2860    -9.5320     0.7800 H     1 <1>   0.0800 
 44 H       -1.0660    -9.6400    -0.9520 H     1 <1>   0.0800 
 45 H       -3.2900    -6.1950    -0.2280 H     1 <1>   0.0800 
 46 H       -3.4990    -6.1080     1.4950 H     1 <1>   0.0800 
 47 H       -3.4240    -9.9840    -0.2860 H     1 <1>   0.0800 
 48 H       -3.2400    -8.6140    -1.3390 H     1 <1>   0.0800 
 49 H       -4.7280    -8.0210     0.4960 H     1 <1>   0.0800 
 50 H       -3.5600    -8.5380     1.6720 H     1 <1>   0.0800 
@<TRIPOS>BOND
  1   1   2  1   
  2   1   3  1   
  3   2   4  ar  
  4   2   5  ar  
  5   3   6  1   
  6   3  21  1   
  7   3  22  1   
  8   4   7  ar  
  9   4   8  1   
 10   5   9  ar  
 11   5  23  1   
 12   6  10  1   
 13   6  24  1   
 14   6  25  1   
 15   7  11  ar  
 16   7  26  1   
 17   8  27  1   
 18   8  28  1   
 19   8  29  1   
 20   9  11  ar  
 21   9  30  1   
 22  10  12  1   
 23  10  31  1   
 24  10  32  1   
 25  11  13  1   
 26  12  14  1   
 27  12  33  1   
 28  12  34  1   
 29  13  35  1   
 30  13  36  1   
 31  13  37  1   
 32  14  15  1   
 33  14  38  1   
 34  14  39  1   
 35  15  16  1   
 36  15  17  1   
 37  15  40  1   
 38  16  18  1   
 39  16  41  1   
 40  16  42  1   
 41  17  19  1   
 42  17  43  1   
 43  17  44  1   
 44  18  20  1   
 45  18  45  1   
 46  18  46  1   
 47  19  20  1   
 48  19  47  1   
 49  19  48  1   
 50  20  49  1   
 51  20  50  1   
@<TRIPOS>SUBSTRUCTURE
  1 ****   6 GROUP 4 **** **** 0

# MOE 2024.06 (io_trps.svl 2023.06)
