@<TRIPOS>MOLECULE
NONAME
38 39 1 0 0 
SMALL
USER_CHARGES


@<TRIPOS>ATOM
  1 CL       1.3740    -1.9340     3.1460 Cl    1 <1>  -0.1770 
  2 C        2.1090    -1.8280     1.5640 C.ar  1 <1>   0.1770 
  3 C        2.4950    -0.6050     1.0420 C.ar  1 <1>   0.1770 
  4 C        2.3010    -2.9900     0.8390 C.ar  1 <1>  -0.1500 
  5 CL       2.2580     0.8720     1.9460 Cl    1 <1>  -0.1770 
  6 C        3.0800    -0.5360    -0.2090 C.ar  1 <1>  -0.1500 
  7 C        2.8870    -2.9330    -0.4220 C.ar  1 <1>  -0.1440 
  8 C        3.2750    -1.7000    -0.9360 C.ar  1 <1>  -0.1500 
  9 C        3.1100    -4.2100    -1.2330 C.3   1 <1>   0.5020 
 10 N        1.7970    -4.8570    -1.4100 N.am  1 <1>  -0.7300 
 11 C        4.1300    -5.1220    -0.5430 C.2   1 <1>  -0.1240 
 12 C        1.4530    -6.0180    -0.8320 C.2   1 <1>   0.6900 
 13 C        3.7260    -6.3310    -0.0600 C.2   1 <1>  -0.0290 
 14 C        5.4290    -4.5250    -0.5030 C.2   1 <1>   0.7060 
 15 O        0.3130    -6.4180    -0.8760 O.2   1 <1>  -0.5700 
 16 N        2.4080    -6.7250    -0.1800 N.am  1 <1>  -0.5390 
 17 C        4.6070    -7.3690     0.6180 C.3   1 <1>  -0.1020 
 18 O        5.8020    -3.6970    -1.3120 O.2   1 <1>  -0.5700 
 19 O        6.2720    -4.8630     0.4800 O.3   1 <1>  -0.4300 
 20 C        7.6120    -4.3730     0.5520 C.3   1 <1>   0.1200 
 21 C        8.6290    -5.2960    -0.1530 C.3   1 <1>   0.6800 
 22 F        8.5590    -6.5040     0.4180 F     1 <1>  -0.3400 
 23 F        8.2310    -5.5230    -1.4080 F     1 <1>  -0.3400 
 24 C       10.0890    -4.7440    -0.1170 C.3   1 <1>   1.0200 
 25 F       10.9870    -5.5330    -0.7040 F     1 <1>  -0.3400 
 26 F       10.5270    -4.5570     1.1280 F     1 <1>  -0.3400 
 27 F       10.2020    -3.5560    -0.7090 F     1 <1>  -0.3400 
 28 H        1.9910    -3.9290     1.2640 H     1 <1>   0.1500 
 29 H        3.3790     0.4180    -0.6060 H     1 <1>   0.1500 
 30 H        3.7400    -1.6390    -1.9070 H     1 <1>   0.1500 
 31 H        3.4790    -3.9570    -2.2130 H     1 <1>   0.0800 
 32 H        1.0420    -4.2830    -1.7800 H     1 <1>   0.3700 
 33 H        2.0710    -7.6110     0.1980 H     1 <1>   0.3700 
 34 H        4.3400    -8.3560     0.2850 H     1 <1>   0.0800 
 35 H        4.4780    -7.3190     1.6840 H     1 <1>   0.0800 
 36 H        5.6460    -7.2300     0.3860 H     1 <1>   0.0800 
 37 H        7.8690    -4.3000     1.5930 H     1 <1>   0.0800 
 38 H        7.6570    -3.3800     0.1390 H     1 <1>   0.0800 
@<TRIPOS>BOND
  1   1   2  1   
  2   2   3  ar  
  3   2   4  ar  
  4   3   5  1   
  5   3   6  ar  
  6   4   7  ar  
  7   4  28  1   
  8   6   8  ar  
  9   6  29  1   
 10   7   8  ar  
 11   7   9  1   
 12   8  30  1   
 13   9  10  1   
 14   9  11  1   
 15   9  31  1   
 16  10  12  am  
 17  10  32  1   
 18  11  13  2   
 19  11  14  1   
 20  12  15  2   
 21  12  16  am  
 22  13  16  1   
 23  13  17  1   
 24  14  18  2   
 25  14  19  1   
 26  16  33  1   
 27  17  34  1   
 28  17  35  1   
 29  17  36  1   
 30  19  20  1   
 31  20  21  1   
 32  20  37  1   
 33  20  38  1   
 34  21  22  1   
 35  21  23  1   
 36  21  24  1   
 37  24  25  1   
 38  24  26  1   
 39  24  27  1   
@<TRIPOS>SUBSTRUCTURE
  1 ****  14 GROUP 4 **** **** 0

# MOE 2024.06 (io_trps.svl 2023.06)
