@<TRIPOS>MOLECULE
NONAME
48 49 1 0 0 
SMALL
USER_CHARGES


@<TRIPOS>ATOM
  1 O        0.2430     2.4890     1.8440 O.2   1 <1>  -0.5700 
  2 C        0.2660     2.4780     0.6360 C.2   1 <1>   0.5690 
  3 N        1.2930     1.9230    -0.0570 N.am  1 <1>  -0.7300 
  4 C       -0.8880     3.0920    -0.1550 C.3   1 <1>  -0.0190 
  5 C        2.4670     1.2780     0.5460 C.3   1 <1>   0.2200 
  6 C       -1.4750     4.3430     0.5290 C.3   1 <1>  -0.1600 
  7 C       -2.0000     2.0540    -0.3950 C.3   1 <1>  -0.1600 
  8 C        3.7170     2.0350     0.0830 C.3   1 <1>  -0.1600 
  9 C        2.4580    -0.1870     0.1110 C.3   1 <1>  -0.2400 
 10 C       -2.6510     4.9200    -0.2620 C.3   1 <1>   0.1400 
 11 C       -3.1750     2.6520    -1.1750 C.3   1 <1>   0.1400 
 12 C        5.0000     1.5650     0.7820 C.3   1 <1>  -0.0170 
 13 N       -3.6790     3.8620    -0.4690 N.am  1 <1>  -0.6600 
 14 C        6.1830     2.4050     0.3300 C.ar  1 <1>  -0.1440 
 15 C       -4.9810     3.9350    -0.0420 C.2   1 <1>   0.5690 
 16 C        6.9520     2.0070    -0.7540 C.ar  1 <1>  -0.1500 
 17 C        6.5020     3.5790     0.9940 C.ar  1 <1>  -0.1500 
 18 O       -5.7850     3.0640    -0.2730 O.2   1 <1>  -0.5700 
 19 C       -5.4700     5.1280     0.7450 C.3   1 <1>  -0.1790 
 20 C        8.0280     2.7740    -1.1670 C.ar  1 <1>  -0.1500 
 21 C        7.5770     4.3470     0.5820 C.ar  1 <1>  -0.1500 
 22 C        8.3410     3.9440    -0.4990 C.ar  1 <1>  -0.1500 
 23 H        1.2770     1.9190    -1.0750 H     1 <1>   0.3700 
 24 H       -0.5020     3.3960    -1.1110 H     1 <1>   0.0800 
 25 H        2.3930     1.3310     1.6210 H     1 <1>   0.0800 
 26 H       -0.7090     5.0910     0.6300 H     1 <1>   0.0800 
 27 H       -1.8160     4.0910     1.5190 H     1 <1>   0.0800 
 28 H       -2.3630     1.6880     0.5500 H     1 <1>   0.0800 
 29 H       -1.6060     1.2150    -0.9390 H     1 <1>   0.0800 
 30 H        3.5840     3.0800     0.3030 H     1 <1>   0.0800 
 31 H        3.8380     1.9290    -0.9810 H     1 <1>   0.0800 
 32 H        2.5880    -0.2720    -0.9530 H     1 <1>   0.0800 
 33 H        1.5270    -0.6440     0.3940 H     1 <1>   0.0800 
 34 H        3.2480    -0.7270     0.5980 H     1 <1>   0.0800 
 35 H       -2.3100     5.2650    -1.2240 H     1 <1>   0.0800 
 36 H       -3.0550     5.7640     0.2660 H     1 <1>   0.0800 
 37 H       -3.9530     1.9130    -1.2700 H     1 <1>   0.0800 
 38 H       -2.8610     2.9300    -2.1660 H     1 <1>   0.0800 
 39 H        5.1960     0.5320     0.5570 H     1 <1>   0.0800 
 40 H        4.8870     1.6520     1.8490 H     1 <1>   0.0800 
 41 H        6.7160     1.0990    -1.2800 H     1 <1>   0.1500 
 42 H        5.9130     3.9010     1.8350 H     1 <1>   0.1500 
 43 H       -5.3940     6.0160     0.1470 H     1 <1>   0.0800 
 44 H       -4.8900     5.2350     1.6420 H     1 <1>   0.0800 
 45 H       -6.4990     4.9840     1.0180 H     1 <1>   0.0800 
 46 H        8.6210     2.4590    -2.0080 H     1 <1>   0.1500 
 47 H        7.8190     5.2570     1.1020 H     1 <1>   0.1500 
 48 H        9.1770     4.5410    -0.8200 H     1 <1>   0.1500 
@<TRIPOS>BOND
  1   1   2  2   
  2   2   3  am  
  3   2   4  1   
  4   3   5  1   
  5   3  23  1   
  6   4   6  1   
  7   4   7  1   
  8   4  24  1   
  9   5   8  1   
 10   5   9  1   
 11   5  25  1   
 12   6  10  1   
 13   6  26  1   
 14   6  27  1   
 15   7  11  1   
 16   7  28  1   
 17   7  29  1   
 18   8  12  1   
 19   8  30  1   
 20   8  31  1   
 21   9  32  1   
 22   9  33  1   
 23   9  34  1   
 24  10  13  1   
 25  10  35  1   
 26  10  36  1   
 27  11  13  1   
 28  11  37  1   
 29  11  38  1   
 30  12  14  1   
 31  12  39  1   
 32  12  40  1   
 33  13  15  am  
 34  14  16  ar  
 35  14  17  ar  
 36  15  18  2   
 37  15  19  1   
 38  16  20  ar  
 39  16  41  1   
 40  17  21  ar  
 41  17  42  1   
 42  19  43  1   
 43  19  44  1   
 44  19  45  1   
 45  20  22  ar  
 46  20  46  1   
 47  21  22  ar  
 48  21  47  1   
 49  22  48  1   
@<TRIPOS>SUBSTRUCTURE
  1 ****   3 GROUP 4 **** **** 0

# MOE 2024.06 (io_trps.svl 2023.06)
