@<TRIPOS>MOLECULE
NONAME
39 41 1 0 0 
SMALL
USER_CHARGES


@<TRIPOS>ATOM
  1 CL       0.8260     0.4950     1.3380 Cl    1 <1>  -0.1770 
  2 C        0.2040     1.9330     0.5670 C.ar  1 <1>   0.1770 
  3 C       -0.9380     2.5270     1.0700 C.ar  1 <1>  -0.1500 
  4 C        0.8640     2.4460    -0.5340 C.ar  1 <1>  -0.1500 
  5 C       -1.4440     3.6670     0.4620 C.ar  1 <1>   0.1170 
  6 C        0.3700     3.5880    -1.1440 C.ar  1 <1>  -0.1500 
  7 N       -2.6160     4.2580     0.9590 N.am  1 <1>  -0.4770 
  8 C       -0.7700     4.1990    -0.6440 C.ar  1 <1>   0.0830 
  9 C       -2.6900     5.2800     1.8530 C.2   1 <1>   0.5690 
 10 C       -3.8980     4.0650     0.2620 C.3   1 <1>   0.1400 
 11 O       -1.2310     5.3210    -1.2480 O.3   1 <1>  -0.3630 
 12 O       -1.7800     5.7360     2.4990 O.2   1 <1>  -0.5700 
 13 C       -4.0790     5.8500     1.9050 C.3   1 <1>  -0.0990 
 14 C       -4.6990     5.3310     0.5980 C.3   1 <1>  -0.0190 
 15 C       -0.5820     6.5120    -0.8610 C.3   1 <1>   0.0400 
 16 C       -6.1940     5.0750     0.6960 C.2   1 <1>   0.5690 
 17 O       -6.5710     4.1400     1.3510 O.2   1 <1>  -0.5700 
 18 N       -7.0340     5.9280     0.0390 N.am  1 <1>  -0.4940 
 19 C       -8.4120     5.8990    -0.0420 C.2   1 <1>   0.4420 
 20 S       -9.1610     7.1710    -0.9520 S.3   1 <1>  -0.0800 
 21 N       -9.2710     5.0800     0.4430 N.2   1 <1>  -0.3380 
 22 C      -10.6830     6.4410    -0.5770 C.2   1 <1>   0.1980 
 23 N      -10.5660     5.3960     0.1340 N.2   1 <1>  -0.3380 
 24 C      -11.9390     7.0940    -1.1090 C.3   1 <1>  -0.0600 
 25 H       -1.4300     2.1100     1.9280 H     1 <1>   0.1500 
 26 H        1.7480     1.9580    -0.9050 H     1 <1>   0.1500 
 27 H        0.8640     4.0040    -2.0030 H     1 <1>   0.1500 
 28 H       -4.3720     3.1780     0.6490 H     1 <1>   0.0800 
 29 H       -3.7470     3.9620    -0.8000 H     1 <1>   0.0800 
 30 H       -4.0580     6.9230     1.9500 H     1 <1>   0.0800 
 31 H       -4.5820     5.4500     2.7680 H     1 <1>   0.0800 
 32 H       -4.5040     6.0450    -0.1810 H     1 <1>   0.0800 
 33 H       -1.0630     7.3360    -1.3540 H     1 <1>   0.0800 
 34 H        0.4520     6.4590    -1.1540 H     1 <1>   0.0800 
 35 H       -0.6600     6.6220     0.2070 H     1 <1>   0.0800 
 36 H       -6.6020     6.6990    -0.4620 H     1 <1>   0.3700 
 37 H      -12.0200     8.0960    -0.7300 H     1 <1>   0.0800 
 38 H      -12.8000     6.5310    -0.7960 H     1 <1>   0.0800 
 39 H      -11.9110     7.1200    -2.1820 H     1 <1>   0.0800 
@<TRIPOS>BOND
  1   1   2  1   
  2   2   3  ar  
  3   2   4  ar  
  4   3   5  ar  
  5   3  25  1   
  6   4   6  ar  
  7   4  26  1   
  8   5   7  1   
  9   5   8  ar  
 10   6   8  ar  
 11   6  27  1   
 12   7   9  am  
 13   7  10  1   
 14   8  11  1   
 15   9  12  2   
 16   9  13  1   
 17  10  14  1   
 18  10  28  1   
 19  10  29  1   
 20  11  15  1   
 21  13  14  1   
 22  13  30  1   
 23  13  31  1   
 24  14  16  1   
 25  14  32  1   
 26  15  33  1   
 27  15  34  1   
 28  15  35  1   
 29  16  17  2   
 30  16  18  am  
 31  18  19  1   
 32  18  36  1   
 33  19  20  1   
 34  19  21  2   
 35  20  22  1   
 36  21  23  1   
 37  22  23  2   
 38  22  24  1   
 39  24  37  1   
 40  24  38  1   
 41  24  39  1   
@<TRIPOS>SUBSTRUCTURE
  1 ****  10 GROUP 4 **** **** 0

# MOE 2024.06 (io_trps.svl 2023.06)
