@<TRIPOS>MOLECULE
NONAME
45 47 1 0 0 
SMALL
USER_CHARGES


@<TRIPOS>ATOM
  1 S       -0.1380    -0.4080    -0.3310 S.3   1 <1>  -0.2860 
  2 C       -1.4120     0.8560    -0.3190 C.2   1 <1>   0.2420 
  3 C        1.3860     0.5720    -0.7340 C.3   1 <1>   0.1310 
  4 N       -1.1850     2.1040    -0.5220 N.2   1 <1>  -0.3380 
  5 N       -2.6940     0.5750    -0.0920 N.pl3 1 <1>   0.0480 
  6 C        2.6280    -0.3030    -0.8440 C.2   1 <1>   0.5690 
  7 N       -2.3740     2.7050    -0.4280 N.2   1 <1>  -0.3380 
  8 C       -3.2560     1.7920    -0.1730 C.2   1 <1>   0.0060 
  9 C       -3.2920    -0.7480     0.1770 C.3   1 <1>   0.0160 
 10 O        2.5080    -1.4460    -1.2250 O.2   1 <1>  -0.5700 
 11 N        3.8670     0.1980    -0.5080 N.am  1 <1>  -0.4770 
 12 C       -4.7500     2.0360     0.0170 C.3   1 <1>   0.0200 
 13 C        4.3160     1.4950    -0.2130 C.ar  1 <1>   0.1170 
 14 C        4.9880    -0.7520    -0.2720 C.3   1 <1>   0.1400 
 15 C       -5.1360     3.5220    -0.0480 C.3   1 <1>  -0.1600 
 16 C        5.5640     1.4640     0.3740 C.ar  1 <1>  -0.1430 
 17 C        3.7140     2.7270    -0.4500 C.ar  1 <1>  -0.1500 
 18 C        6.0570     0.0440     0.4890 C.3   1 <1>  -0.0170 
 19 C       -6.6430     3.7250     0.1550 C.3   1 <1>  -0.1600 
 20 C        6.2150     2.6180     0.7670 C.ar  1 <1>  -0.1500 
 21 C        4.3540     3.8910    -0.0600 C.ar  1 <1>  -0.1500 
 22 C       -7.0090     5.2100     0.0880 C.3   1 <1>  -0.2400 
 23 C        5.5980     3.8390     0.5500 C.ar  1 <1>  -0.1500 
 24 H        1.4900     1.2830     0.0630 H     1 <1>   0.0800 
 25 H        1.1980     1.0740    -1.6640 H     1 <1>   0.0800 
 26 H       -3.0190    -1.0630     1.1680 H     1 <1>   0.0800 
 27 H       -2.9180    -1.4590    -0.5370 H     1 <1>   0.0800 
 28 H       -4.3610    -0.6960     0.0970 H     1 <1>   0.0800 
 29 H       -5.0440     1.6410     0.9730 H     1 <1>   0.0800 
 30 H       -5.2850     1.5020    -0.7480 H     1 <1>   0.0800 
 31 H        5.3670    -1.0890    -1.2220 H     1 <1>   0.0800 
 32 H        4.6500    -1.5990     0.3020 H     1 <1>   0.0800 
 33 H       -4.8440     3.9200    -1.0050 H     1 <1>   0.0800 
 34 H       -4.5940     4.0600     0.7120 H     1 <1>   0.0800 
 35 H        2.7640     2.8000    -0.9420 H     1 <1>   0.1500 
 36 H        7.0250    -0.0790     0.0390 H     1 <1>   0.0800 
 37 H        6.0910    -0.2600     1.5200 H     1 <1>   0.0800 
 38 H       -6.9370     3.3340     1.1140 H     1 <1>   0.0800 
 39 H       -7.1880     3.1930    -0.6060 H     1 <1>   0.0800 
 40 H        7.1850     2.5710     1.2300 H     1 <1>   0.1500 
 41 H        3.8850     4.8440    -0.2350 H     1 <1>   0.1500 
 42 H       -6.4920     5.7600     0.8540 H     1 <1>   0.0800 
 43 H       -8.0680     5.3370     0.2310 H     1 <1>   0.0800 
 44 H       -6.7430     5.6190    -0.8710 H     1 <1>   0.0800 
 45 H        6.0880     4.7490     0.8520 H     1 <1>   0.1500 
@<TRIPOS>BOND
  1   1   2  1   
  2   1   3  1   
  3   2   4  2   
  4   2   5  1   
  5   3   6  1   
  6   3  24  1   
  7   3  25  1   
  8   4   7  1   
  9   5   8  1   
 10   5   9  1   
 11   6  10  2   
 12   6  11  am  
 13   7   8  2   
 14   8  12  1   
 15   9  26  1   
 16   9  27  1   
 17   9  28  1   
 18  11  13  1   
 19  11  14  1   
 20  12  15  1   
 21  12  29  1   
 22  12  30  1   
 23  13  16  ar  
 24  13  17  ar  
 25  14  18  1   
 26  14  31  1   
 27  14  32  1   
 28  15  19  1   
 29  15  33  1   
 30  15  34  1   
 31  16  18  1   
 32  16  20  ar  
 33  17  21  ar  
 34  17  35  1   
 35  18  36  1   
 36  18  37  1   
 37  19  22  1   
 38  19  38  1   
 39  19  39  1   
 40  20  23  ar  
 41  20  40  1   
 42  21  23  ar  
 43  21  41  1   
 44  22  42  1   
 45  22  43  1   
 46  22  44  1   
 47  23  45  1   
@<TRIPOS>SUBSTRUCTURE
  1 ****   3 GROUP 4 **** **** 0

# MOE 2024.06 (io_trps.svl 2023.06)
