@<TRIPOS>MOLECULE
NONAME
33 33 1 0 0 
SMALL
USER_CHARGES


@<TRIPOS>ATOM
  1 S        0.2720     0.2010    -0.6310 S.o2  1 <1>   1.3330 
  2 O        0.0720    -0.7150     0.4650 O.2   1 <1>  -0.6500 
  3 O        1.3870     0.0480    -1.5340 O.2   1 <1>  -0.6500 
  4 N        0.3970     1.7850     0.0430 N.am  1 <1>  -0.6930 
  5 C       -1.2120     0.3140    -1.6060 C.3   1 <1>  -0.1350 
  6 C       -0.6430     2.3190     0.8090 C.ar  1 <1>   0.1990 
  7 C        1.7820     2.2890     0.2830 C.3   1 <1>   0.2570 
  8 C       -1.5560     3.2310     0.2620 C.ar  1 <1>   0.0820 
  9 C       -0.7840     1.9420     2.1390 C.ar  1 <1>  -0.1500 
 10 C        2.5420     1.5390     1.3780 C.2   1 <1>   0.6590 
 11 O       -1.4040     3.5720    -1.0540 O.3   1 <1>  -0.3630 
 12 C       -2.5760     3.7490     1.0550 C.ar  1 <1>  -0.1500 
 13 C       -1.7990     2.4600     2.9210 C.ar  1 <1>  -0.1500 
 14 O        2.5870     1.9480     2.5120 O.2   1 <1>  -0.5700 
 15 O        3.1530     0.4180     1.0150 O.3   1 <1>  -0.4300 
 16 C       -2.1560     4.6170    -1.6320 C.3   1 <1>   0.0400 
 17 C       -2.6940     3.3650     2.3800 C.ar  1 <1>  -0.1500 
 18 C        3.8090    -0.4150     1.9460 C.3   1 <1>   0.0400 
 19 H       -1.3880    -0.6120    -2.1170 H     1 <1>   0.0800 
 20 H       -1.1160     1.0980    -2.3320 H     1 <1>   0.0800 
 21 H       -2.0530     0.5270    -0.9770 H     1 <1>   0.0800 
 22 H        1.7270     3.3250     0.5650 H     1 <1>   0.0800 
 23 H        2.3450     2.2270    -0.6300 H     1 <1>   0.0800 
 24 H       -0.0940     1.2330     2.5630 H     1 <1>   0.1500 
 25 H       -3.2910     4.4480     0.6650 H     1 <1>   0.1500 
 26 H       -1.8900     2.1580     3.9510 H     1 <1>   0.1500 
 27 H       -1.8120     4.7560    -2.6410 H     1 <1>   0.0800 
 28 H       -1.9970     5.5170    -1.0650 H     1 <1>   0.0800 
 29 H       -3.1950     4.3400    -1.6360 H     1 <1>   0.0800 
 30 H       -3.4840     3.7680     2.9900 H     1 <1>   0.1500 
 31 H        4.2210    -1.2560     1.4180 H     1 <1>   0.0800 
 32 H        3.0900    -0.7520     2.6730 H     1 <1>   0.0800 
 33 H        4.5920     0.1460     2.4260 H     1 <1>   0.0800 
@<TRIPOS>BOND
  1   1   2  2   
  2   1   3  2   
  3   1   4  am  
  4   1   5  1   
  5   4   6  1   
  6   4   7  1   
  7   5  19  1   
  8   5  20  1   
  9   5  21  1   
 10   6   8  ar  
 11   6   9  ar  
 12   7  10  1   
 13   7  22  1   
 14   7  23  1   
 15   8  11  1   
 16   8  12  ar  
 17   9  13  ar  
 18   9  24  1   
 19  10  14  2   
 20  10  15  1   
 21  11  16  1   
 22  12  17  ar  
 23  12  25  1   
 24  13  17  ar  
 25  13  26  1   
 26  15  18  1   
 27  16  27  1   
 28  16  28  1   
 29  16  29  1   
 30  17  30  1   
 31  18  31  1   
 32  18  32  1   
 33  18  33  1   
@<TRIPOS>SUBSTRUCTURE
  1 ****   4 GROUP 4 **** **** 0

# MOE 2024.06 (io_trps.svl 2023.06)
