@<TRIPOS>MOLECULE
NONAME
40 41 1 0 0 
SMALL
USER_CHARGES


@<TRIPOS>ATOM
  1 O        0.8040     1.1760    -1.6630 O.2   1 <1>  -0.5700 
  2 C        0.9220     1.7990    -0.6250 C.2   1 <1>   0.6900 
  3 N        2.1560     2.0290    -0.0900 N.am  1 <1>  -0.6600 
  4 N       -0.1420     2.3390     0.0320 N.am  1 <1>  -0.5470 
  5 C        2.7070     1.1250     0.9580 C.3   1 <1>   0.2200 
  6 C        3.1820     2.6300    -0.9900 C.3   1 <1>   0.2200 
  7 C       -1.5290     2.2950    -0.1760 C.ar  1 <1>   0.1170 
  8 C        3.4030    -0.0730     0.2880 C.3   1 <1>  -0.1600 
  9 C        1.6540     0.6670     1.9710 C.3   1 <1>  -0.2400 
 10 C        4.4940     1.8200    -1.0080 C.3   1 <1>  -0.1600 
 11 C        3.4250     4.0720    -0.5510 C.3   1 <1>  -0.2400 
 12 C       -2.3460     3.2460     0.4410 C.ar  1 <1>  -0.1440 
 13 C       -2.1250     1.3160    -0.9660 C.ar  1 <1>  -0.1500 
 14 C        4.2130     0.3110    -0.9660 C.3   1 <1>  -0.1600 
 15 C       -3.7190     3.2040     0.2550 C.ar  1 <1>  -0.1500 
 16 C       -1.7560     4.3450     1.3180 C.3   1 <1>  -0.0970 
 17 C       -3.4940     1.2810    -1.1480 C.ar  1 <1>  -0.1500 
 18 C       -4.2950     2.2270    -0.5360 C.ar  1 <1>  -0.1500 
 19 H        0.1630     2.9300     0.7960 H     1 <1>   0.3700 
 20 H        3.4500     1.6830     1.5040 H     1 <1>   0.0800 
 21 H        2.7910     2.6430    -1.9950 H     1 <1>   0.0800 
 22 H        2.6660    -0.8070     0.0100 H     1 <1>   0.0800 
 23 H        4.0560    -0.5310     1.0090 H     1 <1>   0.0800 
 24 H        0.8950     0.0710     1.4960 H     1 <1>   0.0800 
 25 H        1.2000     1.5160     2.4470 H     1 <1>   0.0800 
 26 H        2.1220     0.0670     2.7310 H     1 <1>   0.0800 
 27 H        5.1100     2.0920    -0.1690 H     1 <1>   0.0800 
 28 H        5.0430     2.0630    -1.9000 H     1 <1>   0.0800 
 29 H        3.7990     4.1040     0.4560 H     1 <1>   0.0800 
 30 H        2.5080     4.6300    -0.6090 H     1 <1>   0.0800 
 31 H        4.1440     4.5360    -1.2020 H     1 <1>   0.0800 
 32 H       -1.5180     0.5700    -1.4440 H     1 <1>   0.1500 
 33 H        3.6370     0.0520    -1.8400 H     1 <1>   0.0800 
 34 H        5.1330    -0.2450    -1.0000 H     1 <1>   0.0800 
 35 H       -4.3550     3.9340     0.7250 H     1 <1>   0.1500 
 36 H       -1.2820     3.9120     2.1800 H     1 <1>   0.0800 
 37 H       -2.5210     5.0200     1.6560 H     1 <1>   0.0800 
 38 H       -1.0320     4.9110     0.7600 H     1 <1>   0.0800 
 39 H       -3.9340     0.5170    -1.7650 H     1 <1>   0.1500 
 40 H       -5.3610     2.2020    -0.6760 H     1 <1>   0.1500 
@<TRIPOS>BOND
  1   1   2  2   
  2   2   3  am  
  3   2   4  am  
  4   3   5  1   
  5   3   6  1   
  6   4   7  1   
  7   4  19  1   
  8   5   8  1   
  9   5   9  1   
 10   5  20  1   
 11   6  10  1   
 12   6  11  1   
 13   6  21  1   
 14   7  12  ar  
 15   7  13  ar  
 16   8  14  1   
 17   8  22  1   
 18   8  23  1   
 19   9  24  1   
 20   9  25  1   
 21   9  26  1   
 22  10  14  1   
 23  10  27  1   
 24  10  28  1   
 25  11  29  1   
 26  11  30  1   
 27  11  31  1   
 28  12  15  ar  
 29  12  16  1   
 30  13  17  ar  
 31  13  32  1   
 32  14  33  1   
 33  14  34  1   
 34  15  18  ar  
 35  15  35  1   
 36  16  36  1   
 37  16  37  1   
 38  16  38  1   
 39  17  18  ar  
 40  17  39  1   
 41  18  40  1   
@<TRIPOS>SUBSTRUCTURE
  1 ****   2 GROUP 4 **** **** 0

# MOE 2024.06 (io_trps.svl 2023.06)
