@<TRIPOS>MOLECULE
NONAME
52 53 1 0 0 
SMALL
USER_CHARGES


@<TRIPOS>ATOM
  1 S       -1.8500    -0.9970    -1.7760 S.o2  1 <1>   1.3330 
  2 O       -2.6660    -2.1100    -2.1950 O.2   1 <1>  -0.6500 
  3 O       -2.1120     0.3150    -2.3070 O.2   1 <1>  -0.6500 
  4 N       -2.0080    -0.9260    -0.0540 N.am  1 <1>  -0.6930 
  5 C       -0.1230    -1.3680    -1.9980 C.3   1 <1>  -0.1350 
  6 C       -1.6090    -1.9940     0.7400 C.ar  1 <1>   0.1990 
  7 C       -2.9460     0.0600     0.5740 C.3   1 <1>   0.3370 
  8 C       -2.2350    -3.2320     0.6670 C.ar  1 <1>  -0.1500 
  9 C       -0.5630    -1.8300     1.6380 C.ar  1 <1>  -0.1500 
 10 C       -4.4280     0.0250     0.1190 C.2   1 <1>   0.5690 
 11 C       -2.3250     1.4650     0.5360 C.3   1 <1>  -0.2400 
 12 C       -1.8190    -4.2820     1.4650 C.ar  1 <1>  -0.1500 
 13 C       -0.1450    -2.8780     2.4380 C.ar  1 <1>  -0.1500 
 14 O       -5.1810     0.8210     0.6320 O.2   1 <1>  -0.5700 
 15 N       -4.8840    -0.9070    -0.7780 N.am  1 <1>  -0.5470 
 16 C       -0.7700    -4.1120     2.3540 C.ar  1 <1>  -0.1430 
 17 C       -6.2010    -1.0680    -1.2310 C.ar  1 <1>   0.1170 
 18 C       -0.3140    -5.2640     3.2310 C.3   1 <1>  -0.0970 
 19 C       -6.5760    -0.6030    -2.4950 C.ar  1 <1>  -0.1430 
 20 C       -7.1450    -1.7140    -0.4280 C.ar  1 <1>  -0.1430 
 21 C       -7.8750    -0.7910    -2.9360 C.ar  1 <1>  -0.1500 
 22 C       -5.6030     0.1220    -3.4220 C.3   1 <1>  -0.0170 
 23 C       -8.4390    -1.8890    -0.8880 C.ar  1 <1>  -0.1500 
 24 C       -6.7800    -2.2320     0.9580 C.3   1 <1>  -0.0970 
 25 C       -8.8050    -1.4310    -2.1390 C.ar  1 <1>  -0.1500 
 26 C       -5.0250    -0.8400    -4.4630 C.3   1 <1>  -0.2400 
 27 H        0.1060    -1.4380    -3.0430 H     1 <1>   0.0800 
 28 H        0.1190    -2.3020    -1.5300 H     1 <1>   0.0800 
 29 H        0.4790    -0.5950    -1.5630 H     1 <1>   0.0800 
 30 H       -2.9950    -0.1960     1.6180 H     1 <1>   0.0800 
 31 H       -3.0540    -3.3790    -0.0150 H     1 <1>   0.1500 
 32 H       -0.0750    -0.8750     1.7090 H     1 <1>   0.1500 
 33 H       -2.4020     1.8980    -0.4430 H     1 <1>   0.0800 
 34 H       -1.2960     1.4330     0.8400 H     1 <1>   0.0800 
 35 H       -2.8600     2.1070     1.2130 H     1 <1>   0.0800 
 36 H       -2.3170    -5.2340     1.3920 H     1 <1>   0.1500 
 37 H        0.6680    -2.7310     3.1290 H     1 <1>   0.1500 
 38 H       -4.1900    -1.4830    -1.2680 H     1 <1>   0.3700 
 39 H        0.7380    -5.1850     3.4400 H     1 <1>   0.0800 
 40 H       -0.4910    -6.2040     2.7400 H     1 <1>   0.0800 
 41 H       -0.8540    -5.2500     4.1600 H     1 <1>   0.0800 
 42 H       -8.1700    -0.4360    -3.9080 H     1 <1>   0.1500 
 43 H       -4.8030     0.5760    -2.8650 H     1 <1>   0.0800 
 44 H       -6.1190     0.9200    -3.9250 H     1 <1>   0.0800 
 45 H       -9.1720    -2.3820    -0.2750 H     1 <1>   0.1500 
 46 H       -6.5860    -1.4030     1.6130 H     1 <1>   0.0800 
 47 H       -5.9020    -2.8500     0.9040 H     1 <1>   0.0800 
 48 H       -7.5800    -2.8160     1.3760 H     1 <1>   0.0800 
 49 H       -9.8120    -1.5700    -2.4910 H     1 <1>   0.1500 
 50 H       -4.5390    -1.6650    -3.9760 H     1 <1>   0.0800 
 51 H       -4.3060    -0.3300    -5.0780 H     1 <1>   0.0800 
 52 H       -5.8090    -1.2270    -5.0890 H     1 <1>   0.0800 
@<TRIPOS>BOND
  1   1   2  2   
  2   1   3  2   
  3   1   4  am  
  4   1   5  1   
  5   4   6  1   
  6   4   7  1   
  7   5  27  1   
  8   5  28  1   
  9   5  29  1   
 10   6   8  ar  
 11   6   9  ar  
 12   7  10  1   
 13   7  11  1   
 14   7  30  1   
 15   8  12  ar  
 16   8  31  1   
 17   9  13  ar  
 18   9  32  1   
 19  10  14  2   
 20  10  15  am  
 21  11  33  1   
 22  11  34  1   
 23  11  35  1   
 24  12  16  ar  
 25  12  36  1   
 26  13  16  ar  
 27  13  37  1   
 28  15  17  1   
 29  15  38  1   
 30  16  18  1   
 31  17  19  ar  
 32  17  20  ar  
 33  18  39  1   
 34  18  40  1   
 35  18  41  1   
 36  19  21  ar  
 37  19  22  1   
 38  20  23  ar  
 39  20  24  1   
 40  21  25  ar  
 41  21  42  1   
 42  22  26  1   
 43  22  43  1   
 44  22  44  1   
 45  23  25  ar  
 46  23  45  1   
 47  24  46  1   
 48  24  47  1   
 49  24  48  1   
 50  25  49  1   
 51  26  50  1   
 52  26  51  1   
 53  26  52  1   
@<TRIPOS>SUBSTRUCTURE
  1 ****  15 GROUP 4 **** **** 0

# MOE 2024.06 (io_trps.svl 2023.06)
