@<TRIPOS>MOLECULE
NONAME
38 39 1 0 0 
SMALL
USER_CHARGES


@<TRIPOS>ATOM
  1 O        0.5900    -1.0280    -1.6030 O.3   1 <1>  -0.6800 
  2 C        1.4760    -1.0880    -0.5560 C.3   1 <1>   0.2000 
  3 C        2.7480    -0.3480    -0.9660 C.3   1 <1>  -0.1600 
  4 C        1.7460    -2.5670    -0.2860 C.3   1 <1>  -0.1600 
  5 C        3.8620    -0.5690     0.0540 C.3   1 <1>   0.3430 
  6 C        2.8730    -2.7440     0.7250 C.3   1 <1>   0.3430 
  7 N        4.0880    -2.0320     0.2440 N.4   1 <1>  -0.9590 
  8 C        5.2680    -2.3030     1.1100 C.3   1 <1>   0.4860 
  9 C        6.5030    -1.7640     0.4150 C.ar  1 <1>  -0.1430 
 10 C        7.0730    -2.4090    -0.6800 C.ar  1 <1>  -0.1430 
 11 C        7.0620    -0.5840     0.8880 C.ar  1 <1>  -0.1500 
 12 C        8.1810    -1.8440    -1.2920 C.ar  1 <1>  -0.1500 
 13 C        6.5400    -3.7240    -1.2400 C.3   1 <1>  -0.0970 
 14 C        8.1690    -0.0270     0.2730 C.ar  1 <1>  -0.1430 
 15 C        8.7230    -0.6630    -0.8220 C.ar  1 <1>  -0.1500 
 16 C        8.7810     1.2630     0.7910 C.3   1 <1>  -0.0970 
 17 H        0.2910    -0.1110    -1.7710 H     1 <1>   0.4000 
 18 H        1.0180    -0.6240     0.3030 H     1 <1>   0.0800 
 19 H        2.5470     0.7060    -1.0380 H     1 <1>   0.0800 
 20 H        3.0840    -0.6930    -1.9290 H     1 <1>   0.0800 
 21 H        2.0090    -3.0680    -1.2010 H     1 <1>   0.0800 
 22 H        0.8520    -3.0250     0.1000 H     1 <1>   0.0800 
 23 H        3.5910    -0.1140     0.9930 H     1 <1>   0.0800 
 24 H        4.7660    -0.0970    -0.3030 H     1 <1>   0.0800 
 25 H        3.0810    -3.7960     0.8460 H     1 <1>   0.0800 
 26 H        2.5680    -2.3450     1.6790 H     1 <1>   0.0800 
 27 H        4.3410    -2.4020    -0.6810 H     1 <1>   0.4500 
 28 H        5.3830    -3.3630     1.2660 H     1 <1>   0.0800 
 29 H        5.1470    -1.8270     2.0690 H     1 <1>   0.0800 
 30 H        6.6430    -0.0850     1.7450 H     1 <1>   0.1500 
 31 H        8.6380    -2.3210    -2.1420 H     1 <1>   0.1500 
 32 H        5.6900    -3.5460    -1.8730 H     1 <1>   0.0800 
 33 H        6.2680    -4.4010    -0.4510 H     1 <1>   0.0800 
 34 H        7.2960    -4.2110    -1.8310 H     1 <1>   0.0800 
 35 H        9.5860    -0.2440    -1.3120 H     1 <1>   0.1500 
 36 H        8.0540     1.8450     1.3270 H     1 <1>   0.0800 
 37 H        9.1530     1.8550    -0.0250 H     1 <1>   0.0800 
 38 H        9.5990     1.0360     1.4520 H     1 <1>   0.0800 
@<TRIPOS>BOND
  1   1   2  1   
  2   1  17  1   
  3   2   3  1   
  4   2   4  1   
  5   2  18  1   
  6   3   5  1   
  7   3  19  1   
  8   3  20  1   
  9   4   6  1   
 10   4  21  1   
 11   4  22  1   
 12   5   7  1   
 13   5  23  1   
 14   5  24  1   
 15   6   7  1   
 16   6  25  1   
 17   6  26  1   
 18   7   8  1   
 19   7  27  1   
 20   8   9  1   
 21   8  28  1   
 22   8  29  1   
 23   9  10  ar  
 24   9  11  ar  
 25  10  12  ar  
 26  10  13  1   
 27  11  14  ar  
 28  11  30  1   
 29  12  15  ar  
 30  12  31  1   
 31  13  32  1   
 32  13  33  1   
 33  13  34  1   
 34  14  15  ar  
 35  14  16  1   
 36  15  35  1   
 37  16  36  1   
 38  16  37  1   
 39  16  38  1   
@<TRIPOS>SUBSTRUCTURE
  1 ****   7 GROUP 4 **** **** 0

# MOE 2024.06 (io_trps.svl 2023.06)
