@<TRIPOS>MOLECULE
NONAME
37 38 1 0 0 
SMALL
USER_CHARGES


@<TRIPOS>ATOM
  1 S        0.0730     0.0580    -0.0980 S.3   1 <1>  -0.0800 
  2 C        0.0120    -1.6840    -0.2750 C.2   1 <1>  -0.1400 
  3 C       -1.6070     0.1090     0.3840 C.2   1 <1>  -0.1100 
  4 C       -1.2200    -2.1500     0.0180 C.2   1 <1>  -0.1810 
  5 C        1.3100    -2.3420    -0.7050 C.3   1 <1>  -0.0600 
  6 C       -2.1660    -1.1240     0.3930 C.2   1 <1>  -0.0010 
  7 C       -1.6490    -3.6100    -0.0200 C.3   1 <1>  -0.0590 
  8 C       -3.5460    -1.3990     0.7220 C.2   1 <1>   0.1870 
  9 N       -3.9680    -2.1950     1.6670 N.2   1 <1>  -0.3380 
 10 N       -4.5890    -0.8480     0.0710 N.pl3 1 <1>   0.0480 
 11 N       -5.3010    -2.1780     1.6560 N.2   1 <1>  -0.3380 
 12 C       -5.6290    -1.3770     0.7070 C.2   1 <1>   0.2430 
 13 C       -4.5860     0.0760    -1.0820 C.3   1 <1>   0.0160 
 14 S       -7.3270    -1.0000     0.2700 S.3   1 <1>  -0.2860 
 15 C       -8.2910    -2.0090     1.4920 C.3   1 <1>   0.1310 
 16 C       -9.7770    -1.8700     1.2320 C.2   1 <1>   0.6590 
 17 O      -10.5000    -1.2770     1.9920 O.2   1 <1>  -0.5700 
 18 O      -10.2360    -2.4530     0.1310 O.3   1 <1>  -0.4300 
 19 C      -11.5980    -2.3880    -0.2210 C.3   1 <1>   0.1200 
 20 C      -11.7840    -3.1440    -1.5330 C.3   1 <1>  -0.2400 
 21 H       -2.0190     1.0720     0.6210 H     1 <1>   0.1500 
 22 H        1.6110    -1.9590    -1.6630 H     1 <1>   0.0800 
 23 H        1.2000    -3.4070    -0.7780 H     1 <1>   0.0800 
 24 H        2.0800    -2.1250     0.0140 H     1 <1>   0.0800 
 25 H       -0.8640    -4.2410    -0.3900 H     1 <1>   0.0800 
 26 H       -2.5070    -3.7270    -0.6560 H     1 <1>   0.0800 
 27 H       -1.9080    -3.9390     0.9710 H     1 <1>   0.0800 
 28 H       -3.6910    -0.0670    -1.6600 H     1 <1>   0.0800 
 29 H       -4.6260     1.0890    -0.7250 H     1 <1>   0.0800 
 30 H       -5.4400    -0.1180    -1.7050 H     1 <1>   0.0800 
 31 H       -8.0410    -1.6470     2.4720 H     1 <1>   0.0800 
 32 H       -7.9800    -3.0310     1.3840 H     1 <1>   0.0800 
 33 H      -11.8730    -1.3520    -0.3300 H     1 <1>   0.0800 
 34 H      -12.1770    -2.8340     0.5700 H     1 <1>   0.0800 
 35 H      -11.1910    -2.6930    -2.3080 H     1 <1>   0.0800 
 36 H      -12.8170    -3.1100    -1.8280 H     1 <1>   0.0800 
 37 H      -11.4960    -4.1730    -1.4110 H     1 <1>   0.0800 
@<TRIPOS>BOND
  1   1   2  1   
  2   1   3  1   
  3   2   4  2   
  4   2   5  1   
  5   3   6  2   
  6   3  21  1   
  7   4   6  1   
  8   4   7  1   
  9   5  22  1   
 10   5  23  1   
 11   5  24  1   
 12   6   8  1   
 13   7  25  1   
 14   7  26  1   
 15   7  27  1   
 16   8   9  2   
 17   8  10  1   
 18   9  11  1   
 19  10  12  1   
 20  10  13  1   
 21  11  12  2   
 22  12  14  1   
 23  13  28  1   
 24  13  29  1   
 25  13  30  1   
 26  14  15  1   
 27  15  16  1   
 28  15  31  1   
 29  15  32  1   
 30  16  17  2   
 31  16  18  1   
 32  18  19  1   
 33  19  20  1   
 34  19  33  1   
 35  19  34  1   
 36  20  35  1   
 37  20  36  1   
 38  20  37  1   
@<TRIPOS>SUBSTRUCTURE
  1 ****  12 GROUP 4 **** **** 0

# MOE 2024.06 (io_trps.svl 2023.06)
