@<TRIPOS>MOLECULE
NONAME
54 56 1 0 0 
SMALL
USER_CHARGES


@<TRIPOS>ATOM
  1 O        0.8410    -1.5700    -2.1380 O.2   1 <1>  -0.5700 
  2 C        0.6250    -1.7030    -0.9620 C.2   1 <1>   0.6590 
  3 O       -0.4420    -1.1940    -0.3660 O.3   1 <1>  -0.4300 
  4 C        1.5860    -2.4780    -0.0650 C.3   1 <1>  -0.0190 
  5 C       -1.4030    -0.4560    -1.0870 C.3   1 <1>   0.1200 
  6 C        2.9400    -1.7520     0.0450 C.3   1 <1>  -0.1600 
  7 C        1.7930    -3.9150    -0.5820 C.3   1 <1>  -0.1600 
  8 C       -2.4910    -0.0170    -0.1120 C.3   1 <1>  -0.2400 
  9 C        3.9620    -2.5560     0.8460 C.3   1 <1>   0.3430 
 10 C        2.8350    -4.6750     0.2350 C.3   1 <1>   0.3430 
 11 N        4.1140    -3.9130     0.2430 N.4   1 <1>  -0.9590 
 12 C        5.2050    -4.6880     0.8970 C.3   1 <1>   0.4860 
 13 C        6.5210    -3.9690     0.6730 C.ar  1 <1>  -0.1440 
 14 C        7.1170    -3.2690     1.7130 C.ar  1 <1>  -0.1500 
 15 C        7.1410    -3.9990    -0.5700 C.ar  1 <1>  -0.1500 
 16 C        8.3080    -2.5980     1.5060 C.ar  1 <1>  -0.1500 
 17 C        8.3340    -3.3290    -0.7760 C.ar  1 <1>  -0.1500 
 18 C        8.9230    -2.6190     0.2660 C.ar  1 <1>   0.0820 
 19 O       10.0840    -1.9310     0.1560 O.3   1 <1>  -0.3630 
 20 C       10.8530    -1.9560    -1.0290 C.3   1 <1>   0.2640 
 21 C       12.0930    -1.0970    -0.8350 C.ar  1 <1>  -0.1440 
 22 C       11.9650     0.2620    -0.5890 C.ar  1 <1>  -0.1500 
 23 C       13.3600    -1.6570    -0.9080 C.ar  1 <1>  -0.1500 
 24 C       13.0880     1.0530    -0.4240 C.ar  1 <1>  -0.1500 
 25 C       14.4840    -0.8660    -0.7420 C.ar  1 <1>  -0.1500 
 26 C       14.3490     0.4900    -0.5010 C.ar  1 <1>  -0.1500 
 27 H        1.1460    -2.5290     0.9170 H     1 <1>   0.0800 
 28 H       -1.8090    -1.0850    -1.8610 H     1 <1>   0.0800 
 29 H       -0.9170     0.3960    -1.5320 H     1 <1>   0.0800 
 30 H        2.7950    -0.7970     0.5200 H     1 <1>   0.0800 
 31 H        3.3360    -1.5590    -0.9390 H     1 <1>   0.0800 
 32 H        2.0990    -3.8940    -1.6150 H     1 <1>   0.0800 
 33 H        0.8570    -4.4450    -0.5390 H     1 <1>   0.0800 
 34 H       -2.9620    -0.8760     0.3310 H     1 <1>   0.0800 
 35 H       -3.2390     0.5490    -0.6360 H     1 <1>   0.0800 
 36 H       -2.0720     0.6030     0.6600 H     1 <1>   0.0800 
 37 H        3.6340    -2.6430     1.8700 H     1 <1>   0.0800 
 38 H        4.9080    -2.0360     0.8360 H     1 <1>   0.0800 
 39 H        2.9860    -5.6510    -0.2000 H     1 <1>   0.0800 
 40 H        2.4790    -4.8040     1.2440 H     1 <1>   0.0800 
 41 H        4.4080    -3.7650    -0.7310 H     1 <1>   0.4500 
 42 H        5.2660    -5.6760     0.4690 H     1 <1>   0.0800 
 43 H        5.0140    -4.7860     1.9530 H     1 <1>   0.0800 
 44 H        6.6700    -3.2370     2.6930 H     1 <1>   0.1500 
 45 H        6.7090    -4.5460    -1.3910 H     1 <1>   0.1500 
 46 H        8.7780    -2.0530     2.3070 H     1 <1>   0.1500 
 47 H        8.7900    -3.3700    -1.7480 H     1 <1>   0.1500 
 48 H       10.2560    -1.5610    -1.8310 H     1 <1>   0.0800 
 49 H       11.1220    -2.9770    -1.2350 H     1 <1>   0.0800 
 50 H       10.9860     0.7060    -0.5220 H     1 <1>   0.1500 
 51 H       13.4800    -2.7100    -1.0910 H     1 <1>   0.1500 
 52 H       12.9800     2.1070    -0.2330 H     1 <1>   0.1500 
 53 H       15.4640    -1.3060    -0.7990 H     1 <1>   0.1500 
 54 H       15.2230     1.1040    -0.3720 H     1 <1>   0.1500 
@<TRIPOS>BOND
  1   1   2  2   
  2   2   3  1   
  3   2   4  1   
  4   3   5  1   
  5   4   6  1   
  6   4   7  1   
  7   4  27  1   
  8   5   8  1   
  9   5  28  1   
 10   5  29  1   
 11   6   9  1   
 12   6  30  1   
 13   6  31  1   
 14   7  10  1   
 15   7  32  1   
 16   7  33  1   
 17   8  34  1   
 18   8  35  1   
 19   8  36  1   
 20   9  11  1   
 21   9  37  1   
 22   9  38  1   
 23  10  11  1   
 24  10  39  1   
 25  10  40  1   
 26  11  12  1   
 27  11  41  1   
 28  12  13  1   
 29  12  42  1   
 30  12  43  1   
 31  13  14  ar  
 32  13  15  ar  
 33  14  16  ar  
 34  14  44  1   
 35  15  17  ar  
 36  15  45  1   
 37  16  18  ar  
 38  16  46  1   
 39  17  18  ar  
 40  17  47  1   
 41  18  19  1   
 42  19  20  1   
 43  20  21  1   
 44  20  48  1   
 45  20  49  1   
 46  21  22  ar  
 47  21  23  ar  
 48  22  24  ar  
 49  22  50  1   
 50  23  25  ar  
 51  23  51  1   
 52  24  26  ar  
 53  24  52  1   
 54  25  26  ar  
 55  25  53  1   
 56  26  54  1   
@<TRIPOS>SUBSTRUCTURE
  1 ****  13 GROUP 4 **** **** 0

# MOE 2024.06 (io_trps.svl 2023.06)
