@<TRIPOS>MOLECULE
NONAME
31 31 1 0 0 
SMALL
USER_CHARGES


@<TRIPOS>ATOM
  1 BR       0.0440     0.2650    -0.9110 Br    1 <1>  -0.1110 
  2 C        1.5820    -0.7600    -0.3730 C.ar  1 <1>   0.1110 
  3 C        2.8350    -0.1980    -0.5030 C.ar  1 <1>  -0.1500 
  4 C        1.3890    -2.0330     0.1280 C.ar  1 <1>  -0.1500 
  5 C        3.9430    -0.9350    -0.1160 C.ar  1 <1>   0.0830 
  6 C        2.4980    -2.7670     0.5140 C.ar  1 <1>  -0.1500 
  7 O        5.1520    -0.3380    -0.2640 O.3   1 <1>  -0.3630 
  8 C        3.7690    -2.2240     0.3930 C.ar  1 <1>  -0.1500 
  9 C        6.3440    -0.9890     0.0970 C.3   1 <1>   0.1200 
 10 C        7.4920    -0.0230    -0.2030 C.3   1 <1>   0.3430 
 11 N        8.8240    -0.6120     0.1420 N.4   1 <1>  -0.9060 
 12 C        9.9510     0.2830    -0.1570 C.3   1 <1>   0.4230 
 13 C       11.2230    -0.5510    -0.0890 C.3   1 <1>  -0.2400 
 14 C        9.9890     1.4110     0.8700 C.3   1 <1>  -0.2400 
 15 H        2.9470     0.7950    -0.8980 H     1 <1>   0.1500 
 16 H        0.3950    -2.4370     0.2140 H     1 <1>   0.1500 
 17 H        2.3690    -3.7610     0.9070 H     1 <1>   0.1500 
 18 H        4.6020    -2.8240     0.7030 H     1 <1>   0.1500 
 19 H        6.4250    -1.8850    -0.4940 H     1 <1>   0.0800 
 20 H        6.2930    -1.2180     1.1470 H     1 <1>   0.0800 
 21 H        7.3350     0.8800     0.3660 H     1 <1>   0.0800 
 22 H        7.4680     0.2270    -1.2520 H     1 <1>   0.0800 
 23 H        8.9660    -1.4830    -0.3830 H     1 <1>   0.4500 
 24 H        8.8650    -0.8480     1.1400 H     1 <1>   0.4500 
 25 H        9.8480     0.6940    -1.1510 H     1 <1>   0.0800 
 26 H       11.3630    -0.9760     0.8900 H     1 <1>   0.0800 
 27 H       12.0740     0.0740    -0.3020 H     1 <1>   0.0800 
 28 H       11.2070    -1.3350    -0.8240 H     1 <1>   0.0800 
 29 H       10.0710     1.0280     1.8720 H     1 <1>   0.0800 
 30 H        9.1190     2.0380     0.7950 H     1 <1>   0.0800 
 31 H       10.8460     2.0350     0.6840 H     1 <1>   0.0800 
@<TRIPOS>BOND
  1   1   2  1   
  2   2   3  ar  
  3   2   4  ar  
  4   3   5  ar  
  5   3  15  1   
  6   4   6  ar  
  7   4  16  1   
  8   5   7  1   
  9   5   8  ar  
 10   6   8  ar  
 11   6  17  1   
 12   7   9  1   
 13   8  18  1   
 14   9  10  1   
 15   9  19  1   
 16   9  20  1   
 17  10  11  1   
 18  10  21  1   
 19  10  22  1   
 20  11  12  1   
 21  11  23  1   
 22  11  24  1   
 23  12  13  1   
 24  12  14  1   
 25  12  25  1   
 26  13  26  1   
 27  13  27  1   
 28  13  28  1   
 29  14  29  1   
 30  14  30  1   
 31  14  31  1   
@<TRIPOS>SUBSTRUCTURE
  1 ****   7 GROUP 4 **** **** 0

# MOE 2024.06 (io_trps.svl 2023.06)
