@<TRIPOS>MOLECULE
NONAME
36 37 1 0 0 
SMALL
USER_CHARGES


@<TRIPOS>ATOM
  1 S        0.2080     0.2950    -0.5560 S.3   1 <1>  -0.3320 
  2 C       -1.2660    -0.7320    -0.4110 C.ar  1 <1>   0.1020 
  3 C        1.5510    -0.5790     0.3630 C.3   1 <1>   0.0700 
  4 C       -1.2770    -1.9120     0.3170 C.ar  1 <1>  -0.1500 
  5 C       -2.4040    -0.2910    -1.0620 C.ar  1 <1>  -0.1500 
  6 C        2.8200     0.2660     0.2600 C.3   1 <1>  -0.0990 
  7 C       -2.4440    -2.6550     0.3870 C.ar  1 <1>  -0.1500 
  8 C       -3.5680    -1.0370    -0.9890 C.ar  1 <1>  -0.1500 
  9 C        3.9830    -0.4450     0.9110 C.2   1 <1>   0.5690 
 10 C       -3.5860    -2.2180    -0.2650 C.ar  1 <1>  -0.1500 
 11 O        3.8790    -0.8050     2.0580 O.2   1 <1>  -0.5700 
 12 N        5.1020    -0.6610     0.1800 N.am  1 <1>  -0.7300 
 13 C        6.3160    -1.3400     0.6630 C.3   1 <1>   0.2200 
 14 C        7.5110    -0.4210     0.4420 C.3   1 <1>  -0.1600 
 15 C        6.6110    -2.5230    -0.2490 C.3   1 <1>  -0.1600 
 16 C        7.9040    -0.5910    -1.0300 C.3   1 <1>  -0.1600 
 17 C        7.3230    -1.9390    -1.4760 C.3   1 <1>  -0.1600 
 18 H        1.6820    -1.5430    -0.0960 H     1 <1>   0.0800 
 19 H        1.2350    -0.6860     1.3860 H     1 <1>   0.0800 
 20 H       -0.4020    -2.2630     0.8290 H     1 <1>   0.1500 
 21 H       -2.3760     0.6270    -1.6200 H     1 <1>   0.1500 
 22 H        2.6670     1.2040     0.7610 H     1 <1>   0.0800 
 23 H        3.0400     0.4590    -0.7730 H     1 <1>   0.0800 
 24 H       -2.4650    -3.5730     0.9480 H     1 <1>   0.1500 
 25 H       -4.4570    -0.7000    -1.4940 H     1 <1>   0.1500 
 26 H       -4.4920    -2.7980    -0.2090 H     1 <1>   0.1500 
 27 H        5.1610    -0.3440    -0.7860 H     1 <1>   0.3700 
 28 H        6.2080    -1.6330     1.6950 H     1 <1>   0.0800 
 29 H        8.3210    -0.7650     1.0610 H     1 <1>   0.0800 
 30 H        7.2930     0.6010     0.7020 H     1 <1>   0.0800 
 31 H        5.7220    -3.0730    -0.5040 H     1 <1>   0.0800 
 32 H        7.2870    -3.1850     0.2630 H     1 <1>   0.0800 
 33 H        8.9750    -0.5670    -1.1450 H     1 <1>   0.0800 
 34 H        7.4760     0.2030    -1.6190 H     1 <1>   0.0800 
 35 H        6.6140    -1.7840    -2.2710 H     1 <1>   0.0800 
 36 H        8.0940    -2.6040    -1.8240 H     1 <1>   0.0800 
@<TRIPOS>BOND
  1   1   2  1   
  2   1   3  1   
  3   2   4  ar  
  4   2   5  ar  
  5   3   6  1   
  6   3  18  1   
  7   3  19  1   
  8   4   7  ar  
  9   4  20  1   
 10   5   8  ar  
 11   5  21  1   
 12   6   9  1   
 13   6  22  1   
 14   6  23  1   
 15   7  10  ar  
 16   7  24  1   
 17   8  10  ar  
 18   8  25  1   
 19   9  11  2   
 20   9  12  am  
 21  10  26  1   
 22  12  13  1   
 23  12  27  1   
 24  13  14  1   
 25  13  15  1   
 26  13  28  1   
 27  14  16  1   
 28  14  29  1   
 29  14  30  1   
 30  15  17  1   
 31  15  31  1   
 32  15  32  1   
 33  16  17  1   
 34  16  33  1   
 35  16  34  1   
 36  17  35  1   
 37  17  36  1   
@<TRIPOS>SUBSTRUCTURE
  1 ****   3 GROUP 4 **** **** 0

# MOE 2024.06 (io_trps.svl 2023.06)
