@<TRIPOS>MOLECULE
NONAME
45 46 1 0 0 
SMALL
USER_CHARGES


@<TRIPOS>ATOM
  1 O       -6.9700    -1.2430    -0.2240 O.3   1 <1>  -0.3620 
  2 C       -8.3250    -1.1910    -0.2480 C.ar  1 <1>   0.0830 
  3 C       -6.2890    -2.2730     0.4600 C.3   1 <1>   0.1200 
  4 C       -9.1490    -2.1430     0.3450 C.ar  1 <1>  -0.1500 
  5 C       -8.8970    -0.1140    -0.9060 C.ar  1 <1>  -0.1500 
  6 C       -4.7810    -2.0420     0.3020 C.3   1 <1>   0.2000 
  7 C      -10.5250    -2.0090     0.2720 C.ar  1 <1>  -0.1500 
  8 C      -10.2720     0.0160    -0.9770 C.ar  1 <1>  -0.1500 
  9 O       -4.4860    -1.8800    -1.0530 O.3   1 <1>  -0.6800 
 10 C       -3.9380    -3.2070     0.8630 C.3   1 <1>   0.3430 
 11 C      -11.0950    -0.9320    -0.3890 C.ar  1 <1>  -0.1440 
 12 N       -2.5840    -3.2260     0.2270 N.4   1 <1>  -0.9590 
 13 C      -12.6060    -0.7900    -0.4660 C.3   1 <1>  -0.0170 
 14 C       -1.9850    -4.5890     0.1860 C.3   1 <1>   0.3430 
 15 C       -1.6630    -2.2030     0.7980 C.3   1 <1>   0.3430 
 16 C      -13.1310     0.0110     0.7280 C.3   1 <1>  -0.2400 
 17 C       -0.7080    -4.5640    -0.6560 C.3   1 <1>  -0.1600 
 18 C       -0.3820    -2.1430    -0.0360 C.3   1 <1>  -0.1600 
 19 C        0.2920    -3.5170    -0.1460 C.3   1 <1>  -0.1600 
 20 H       -6.5770    -3.2160     0.0280 H     1 <1>   0.0800 
 21 H       -6.5760    -2.2390     1.4970 H     1 <1>   0.0800 
 22 H       -8.7510    -2.9920     0.8650 H     1 <1>   0.1500 
 23 H       -8.2630     0.6230    -1.3630 H     1 <1>   0.1500 
 24 H       -4.5160    -1.1280     0.8060 H     1 <1>   0.0800 
 25 H      -11.1560    -2.7480     0.7340 H     1 <1>   0.1500 
 26 H      -10.7010     0.8580    -1.4900 H     1 <1>   0.1500 
 27 H       -5.1880    -1.3160    -1.4570 H     1 <1>   0.4000 
 28 H       -4.4490    -4.1260     0.6310 H     1 <1>   0.0800 
 29 H       -3.8580    -3.1340     1.9350 H     1 <1>   0.0800 
 30 H       -2.7800    -2.9260    -0.7480 H     1 <1>   0.4500 
 31 H      -13.0630    -1.7640    -0.4760 H     1 <1>   0.0800 
 32 H      -12.8770    -0.2930    -1.3810 H     1 <1>   0.0800 
 33 H       -2.6840    -5.2870    -0.2460 H     1 <1>   0.0800 
 34 H       -1.7500    -4.9140     1.1860 H     1 <1>   0.0800 
 35 H       -1.4180    -2.4580     1.8160 H     1 <1>   0.0800 
 36 H       -2.1370    -1.2340     0.7910 H     1 <1>   0.0800 
 37 H      -12.8810    -0.4870     1.6480 H     1 <1>   0.0800 
 38 H      -14.2000     0.1100     0.6670 H     1 <1>   0.0800 
 39 H      -12.6920     0.9930     0.7380 H     1 <1>   0.0800 
 40 H       -0.9630    -4.3570    -1.6810 H     1 <1>   0.0800 
 41 H       -0.2500    -5.5370    -0.6290 H     1 <1>   0.0800 
 42 H        0.3010    -1.4460     0.4180 H     1 <1>   0.0800 
 43 H       -0.6160    -1.7700    -1.0180 H     1 <1>   0.0800 
 44 H        1.1330    -3.4590    -0.8160 H     1 <1>   0.0800 
 45 H        0.6630    -3.8150     0.8210 H     1 <1>   0.0800 
@<TRIPOS>BOND
  1   1   2  1   
  2   1   3  1   
  3   2   4  ar  
  4   2   5  ar  
  5   3   6  1   
  6   3  20  1   
  7   3  21  1   
  8   4   7  ar  
  9   4  22  1   
 10   5   8  ar  
 11   5  23  1   
 12   6   9  1   
 13   6  10  1   
 14   6  24  1   
 15   7  11  ar  
 16   7  25  1   
 17   8  11  ar  
 18   8  26  1   
 19   9  27  1   
 20  10  12  1   
 21  10  28  1   
 22  10  29  1   
 23  11  13  1   
 24  12  14  1   
 25  12  15  1   
 26  12  30  1   
 27  13  16  1   
 28  13  31  1   
 29  13  32  1   
 30  14  17  1   
 31  14  33  1   
 32  14  34  1   
 33  15  18  1   
 34  15  35  1   
 35  15  36  1   
 36  16  37  1   
 37  16  38  1   
 38  16  39  1   
 39  17  19  1   
 40  17  40  1   
 41  17  41  1   
 42  18  19  1   
 43  18  42  1   
 44  18  43  1   
 45  19  44  1   
 46  19  45  1   
@<TRIPOS>SUBSTRUCTURE
  1 ****   3 GROUP 4 **** **** 0

# MOE 2024.06 (io_trps.svl 2023.06)
