@<TRIPOS>MOLECULE
NONAME
34 38 1 0 0 
SMALL
USER_CHARGES


@<TRIPOS>ATOM
  1 O       -0.0860     1.3410     1.5130 O.2   1 <1>  -0.5700 
  2 C        0.3850     2.3130     0.9760 C.2   1 <1>   0.5690 
  3 N       -0.2890     3.1850     0.1590 N.am  1 <1>  -0.1840 
  4 C        1.8330     2.7090     1.1580 C.3   1 <1>  -0.0190 
  5 C       -1.6350     3.0110    -0.2370 C.2   1 <1>   0.2500 
  6 C        0.5570     4.1960    -0.2380 C.2   1 <1>   0.5690 
  7 C        1.9510     4.0060     0.3210 C.3   1 <1>  -0.0190 
  8 C        2.8390     1.7560     0.4770 C.3   1 <1>   0.0580 
  9 N       -2.4510     2.1060     0.3050 N.pl3 1 <1>   0.0330 
 10 N       -2.2560     3.6690    -1.1640 N.2   1 <1>  -0.3380 
 11 O        0.2960     5.1500    -0.9230 O.2   1 <1>  -0.5700 
 12 C        3.0120     3.6470    -0.7410 C.3   1 <1>   0.0580 
 13 C        4.2040     2.3560     0.7480 C.2   1 <1>  -0.2880 
 14 C        2.7110     2.1690    -0.9900 C.3   1 <1>  -0.1600 
 15 C       -3.6110     2.2480    -0.3430 C.2   1 <1>   0.1860 
 16 N       -3.5010     3.1910    -1.2310 N.2   1 <1>  -0.3380 
 17 C        4.3070     3.4720     0.0300 C.2   1 <1>  -0.2880 
 18 C       -4.7690     1.4490    -0.0640 C.2   1 <1>   0.1400 
 19 O       -4.7230     0.5140     0.8800 O.3   1 <1>  -0.2800 
 20 C       -6.0120     1.4540    -0.6160 C.2   1 <1>  -0.1500 
 21 C       -5.9010    -0.0740     0.9420 C.2   1 <1>  -0.0100 
 22 C       -6.7480     0.4640     0.0390 C.2   1 <1>  -0.1500 
 23 H        2.0600     2.8640     2.1980 H     1 <1>   0.0800 
 24 H        2.2410     4.8570     0.9110 H     1 <1>   0.0800 
 25 H        2.7380     0.7020     0.6780 H     1 <1>   0.0800 
 26 H       -2.2220     1.4240     1.0340 H     1 <1>   0.2700 
 27 H        3.0630     4.2710    -1.6190 H     1 <1>   0.0800 
 28 H        4.8910     1.8880     1.4350 H     1 <1>   0.1500 
 29 H        1.7410     1.9850    -1.4190 H     1 <1>   0.0800 
 30 H        3.4650     1.7050    -1.6050 H     1 <1>   0.0800 
 31 H        5.1010     4.1960    -0.0500 H     1 <1>   0.1500 
 32 H       -6.3690     2.0930    -1.4040 H     1 <1>   0.1500 
 33 H       -6.0540    -0.8650     1.6560 H     1 <1>   0.1500 
 34 H       -7.7740     0.2080    -0.1600 H     1 <1>   0.1500 
@<TRIPOS>BOND
  1   1   2  2   
  2   2   3  am  
  3   2   4  1   
  4   3   5  1   
  5   3   6  am  
  6   4   7  1   
  7   4   8  1   
  8   4  23  1   
  9   5   9  1   
 10   5  10  2   
 11   6   7  1   
 12   6  11  2   
 13   7  12  1   
 14   7  24  1   
 15   8  13  1   
 16   8  14  1   
 17   8  25  1   
 18   9  15  1   
 19   9  26  1   
 20  10  16  1   
 21  12  14  1   
 22  12  17  1   
 23  12  27  1   
 24  13  17  2   
 25  13  28  1   
 26  14  29  1   
 27  14  30  1   
 28  15  16  2   
 29  15  18  1   
 30  17  31  1   
 31  18  19  1   
 32  18  20  2   
 33  19  21  1   
 34  20  22  1   
 35  20  32  1   
 36  21  22  2   
 37  21  33  1   
 38  22  34  1   
@<TRIPOS>SUBSTRUCTURE
  1 ****   3 GROUP 4 **** **** 0

# MOE 2024.06 (io_trps.svl 2023.06)
