@<TRIPOS>MOLECULE
NONAME
44 46 1 0 0 
SMALL
USER_CHARGES


@<TRIPOS>ATOM
  1 O        4.1130    -0.0830     1.6470 O.2   1 <1>  -0.5700 
  2 C        3.7010    -0.8450     0.7970 C.2   1 <1>   0.6340 
  3 O        2.5160    -0.5810     0.2310 O.3   1 <1>  -0.4300 
  4 C        4.4270    -2.0240     0.3570 C.ar  1 <1>   0.0860 
  5 C        1.7360     0.5300     0.6060 C.3   1 <1>   0.2000 
  6 C        3.9030    -2.9070    -0.5910 C.ar  1 <1>  -0.1500 
  7 C        5.6910    -2.3180     0.8720 C.ar  1 <1>  -0.1500 
  8 C        0.2820     0.2440     0.1970 C.3   1 <1>  -0.1600 
  9 C        2.3040     1.7940    -0.0680 C.3   1 <1>  -0.1600 
 10 C        4.6020    -4.0260    -1.0070 C.ar  1 <1>  -0.1440 
 11 C        6.4030    -3.4320     0.4660 C.ar  1 <1>  -0.1430 
 12 C       -0.5580     1.5270     0.1380 C.3   1 <1>   0.4230 
 13 C        1.2790     2.9340    -0.1010 C.3   1 <1>   0.4230 
 14 C        5.8540    -4.2830    -0.4770 C.ar  1 <1>  -0.1500 
 15 C        4.0130    -4.9700    -2.0400 C.3   1 <1>  -0.0960 
 16 C        7.7770    -3.7270     1.0400 C.3   1 <1>  -0.0960 
 17 N        0.1070     2.4160    -0.8380 N.4   1 <1>  -0.9590 
 18 C       -0.4930     2.3180     1.4500 C.3   1 <1>  -0.1600 
 19 C        0.7230     3.2440     1.2930 C.3   1 <1>  -0.1600 
 20 C       -0.7890     3.5040    -1.3450 C.3   1 <1>   0.2630 
 21 H        1.7840     0.6310     1.6790 H     1 <1>   0.0800 
 22 H        2.9320    -2.7150    -1.0090 H     1 <1>   0.1500 
 23 H        6.1180    -1.6550     1.6040 H     1 <1>   0.1500 
 24 H       -0.1540    -0.4330     0.9100 H     1 <1>   0.0800 
 25 H        0.2560    -0.2340    -0.7660 H     1 <1>   0.0800 
 26 H        2.6130     1.5710    -1.0740 H     1 <1>   0.0800 
 27 H        3.1730     2.1230     0.4750 H     1 <1>   0.0800 
 28 H       -1.5740     1.3030    -0.1480 H     1 <1>   0.0800 
 29 H        1.7000     3.8090    -0.5720 H     1 <1>   0.0800 
 30 H        6.4050    -5.1500    -0.7990 H     1 <1>   0.1500 
 31 H        2.9480    -4.8420    -2.1140 H     1 <1>   0.0800 
 32 H        4.2120    -5.9910    -1.7660 H     1 <1>   0.0800 
 33 H        4.4520    -4.7770    -3.0020 H     1 <1>   0.0800 
 34 H        7.9770    -3.1080     1.8950 H     1 <1>   0.0800 
 35 H        8.5300    -3.5410     0.2950 H     1 <1>   0.0800 
 36 H        7.8360    -4.7570     1.3450 H     1 <1>   0.0800 
 37 H        0.4420     1.8490    -1.6270 H     1 <1>   0.4500 
 38 H       -0.4020     1.6680     2.3030 H     1 <1>   0.0800 
 39 H       -1.3920     2.8970     1.5680 H     1 <1>   0.0800 
 40 H        0.4160     4.2750     1.3400 H     1 <1>   0.0800 
 41 H        1.4610     3.0820     2.0610 H     1 <1>   0.0800 
 42 H       -1.1460     4.1090    -0.5280 H     1 <1>   0.0800 
 43 H       -1.6380     3.0800    -1.8560 H     1 <1>   0.0800 
 44 H       -0.2540     4.1360    -2.0340 H     1 <1>   0.0800 
@<TRIPOS>BOND
  1   1   2  2   
  2   2   3  1   
  3   2   4  1   
  4   3   5  1   
  5   4   6  ar  
  6   4   7  ar  
  7   5   8  1   
  8   5   9  1   
  9   5  21  1   
 10   6  10  ar  
 11   6  22  1   
 12   7  11  ar  
 13   7  23  1   
 14   8  12  1   
 15   8  24  1   
 16   8  25  1   
 17   9  13  1   
 18   9  26  1   
 19   9  27  1   
 20  10  14  ar  
 21  10  15  1   
 22  11  14  ar  
 23  11  16  1   
 24  12  17  1   
 25  12  18  1   
 26  12  28  1   
 27  13  17  1   
 28  13  19  1   
 29  13  29  1   
 30  14  30  1   
 31  15  31  1   
 32  15  32  1   
 33  15  33  1   
 34  16  34  1   
 35  16  35  1   
 36  16  36  1   
 37  17  20  1   
 38  17  37  1   
 39  18  19  1   
 40  18  38  1   
 41  18  39  1   
 42  19  40  1   
 43  19  41  1   
 44  20  42  1   
 45  20  43  1   
 46  20  44  1   
@<TRIPOS>SUBSTRUCTURE
  1 ****   3 GROUP 4 **** **** 0

# MOE 2024.06 (io_trps.svl 2023.06)
