@<TRIPOS>MOLECULE
NONAME
46 46 1 0 0 
SMALL
USER_CHARGES


@<TRIPOS>ATOM
  1 O       -2.0870    -0.4030     2.0570 O.co2 1 <1>  -0.9000 
  2 C       -1.6490    -0.0720     0.9250 C.2   1 <1>   0.9060 
  3 O       -1.1290     1.0300     0.6410 O.co2 1 <1>  -0.9000 
  4 C       -1.8450    -1.1160    -0.2120 C.3   1 <1>   0.1140 
  5 N       -3.0290    -1.9430     0.0630 N.am  1 <1>  -0.7300 
  6 C       -0.6460    -2.0660    -0.4350 C.3   1 <1>  -0.1600 
  7 C       -3.7980    -2.5740    -0.8230 C.2   1 <1>   0.5690 
  8 C        0.7320    -1.3810    -0.5690 C.3   1 <1>  -0.0800 
  9 O       -3.5370    -2.5760    -2.0240 O.2   1 <1>  -0.5700 
 10 C       -5.0590    -3.2830    -0.2720 C.3   1 <1>   0.2810 
 11 C        1.6300    -2.1920    -1.5140 C.3   1 <1>  -0.2400 
 12 C        1.4510    -1.2590     0.7850 C.3   1 <1>  -0.2400 
 13 N       -5.3460    -4.6060    -0.8490 N.am  1 <1>  -0.7300 
 14 C       -6.2720    -2.3660    -0.4820 C.3   1 <1>  -0.0170 
 15 C       -4.5550    -5.6690    -0.8910 C.2   1 <1>   0.5690 
 16 C       -7.5910    -2.9240     0.0240 C.ar  1 <1>  -0.1440 
 17 O       -4.9870    -6.7080    -1.3620 O.2   1 <1>  -0.5700 
 18 C       -3.1390    -5.6110    -0.3430 C.3   1 <1>  -0.1790 
 19 C       -7.9020    -2.8610     1.3960 C.ar  1 <1>  -0.1500 
 20 C       -8.5030    -3.5130    -0.8730 C.ar  1 <1>  -0.1500 
 21 C       -9.1170    -3.3890     1.8680 C.ar  1 <1>  -0.1500 
 22 C       -9.7170    -4.0410    -0.3990 C.ar  1 <1>  -0.1500 
 23 C      -10.0240    -3.9800     0.9710 C.ar  1 <1>  -0.1500 
 24 H       -2.0050    -0.5440    -1.1260 H     1 <1>   0.0800 
 25 H       -3.2760    -1.8980     1.0480 H     1 <1>   0.3700 
 26 H       -0.8580    -2.6240    -1.3470 H     1 <1>   0.0800 
 27 H       -0.6080    -2.7820     0.3860 H     1 <1>   0.0800 
 28 H        0.5970    -0.3820    -0.9920 H     1 <1>   0.0800 
 29 H       -4.9240    -3.4090     0.8020 H     1 <1>   0.0800 
 30 H        1.7700    -3.2020    -1.1260 H     1 <1>   0.0800 
 31 H        2.6010    -1.7050    -1.6090 H     1 <1>   0.0800 
 32 H        1.1720    -2.2460    -2.5020 H     1 <1>   0.0800 
 33 H        1.6140    -2.2440     1.2210 H     1 <1>   0.0800 
 34 H        0.8580    -0.6610     1.4770 H     1 <1>   0.0800 
 35 H        2.4110    -0.7600     0.6500 H     1 <1>   0.0800 
 36 H       -6.2720    -4.7580    -1.2120 H     1 <1>   0.3700 
 37 H       -6.3600    -2.1520    -1.5480 H     1 <1>   0.0800 
 38 H       -6.0790    -1.4170     0.0200 H     1 <1>   0.0800 
 39 H       -2.5210    -5.0050    -1.0040 H     1 <1>   0.0800 
 40 H       -2.7330    -6.6200    -0.3000 H     1 <1>   0.0800 
 41 H       -3.1430    -5.1820     0.6570 H     1 <1>   0.0800 
 42 H       -7.2100    -2.4080     2.0920 H     1 <1>   0.1500 
 43 H       -8.2770    -3.5630    -1.9290 H     1 <1>   0.1500 
 44 H       -9.3550    -3.3410     2.9220 H     1 <1>   0.1500 
 45 H      -10.4140    -4.4950    -1.0890 H     1 <1>   0.1500 
 46 H      -10.9570    -4.3870     1.3350 H     1 <1>   0.1500 
@<TRIPOS>BOND
  1   1   2  ar  
  2   2   3  ar  
  3   2   4  1   
  4   4   5  1   
  5   4   6  1   
  6   4  24  1   
  7   5   7  am  
  8   5  25  1   
  9   6   8  1   
 10   6  26  1   
 11   6  27  1   
 12   7   9  2   
 13   7  10  1   
 14   8  11  1   
 15   8  12  1   
 16   8  28  1   
 17  10  13  1   
 18  10  14  1   
 19  10  29  1   
 20  11  30  1   
 21  11  31  1   
 22  11  32  1   
 23  12  33  1   
 24  12  34  1   
 25  12  35  1   
 26  13  15  am  
 27  13  36  1   
 28  14  16  1   
 29  14  37  1   
 30  14  38  1   
 31  15  17  2   
 32  15  18  1   
 33  16  19  ar  
 34  16  20  ar  
 35  18  39  1   
 36  18  40  1   
 37  18  41  1   
 38  19  21  ar  
 39  19  42  1   
 40  20  22  ar  
 41  20  43  1   
 42  21  23  ar  
 43  21  44  1   
 44  22  23  ar  
 45  22  45  1   
 46  23  46  1   
@<TRIPOS>SUBSTRUCTURE
  1 ****   7 GROUP 4 **** **** 0

# MOE 2024.06 (io_trps.svl 2023.06)
