@<TRIPOS>MOLECULE
NONAME
54 56 1 0 0 
SMALL
USER_CHARGES


@<TRIPOS>ATOM
  1 F        0.5610     1.6400    -0.0830 F     1 <1>  -0.3400 
  2 C        1.5700     1.1700    -0.8080 C.3   1 <1>   1.1640 
  3 F        1.4510    -0.1530    -0.7900 F     1 <1>  -0.3400 
  4 F        1.3400     1.5490    -2.0580 F     1 <1>  -0.3400 
  5 C        2.9430     1.6450    -0.3040 C.ar  1 <1>  -0.1440 
  6 C        4.0840     0.8920    -0.5550 C.ar  1 <1>  -0.1500 
  7 C        3.0770     2.8380     0.4000 C.ar  1 <1>  -0.1500 
  8 C        5.3380     1.2980    -0.1160 C.ar  1 <1>   0.1000 
  9 C        4.3190     3.2580     0.8420 C.ar  1 <1>  -0.1500 
 10 N        6.4490     0.5020    -0.3820 N.pl3 1 <1>  -0.8380 
 11 C        5.4410     2.4930     0.5860 C.ar  1 <1>  -0.1500 
 12 C        7.7220     1.1090    -0.8790 C.3   1 <1>   0.2090 
 13 C        6.5560    -0.8250     0.2940 C.3   1 <1>   0.2090 
 14 C        8.8320     1.0540     0.1930 C.3   1 <1>   0.3430 
 15 C        7.6850    -0.8280     1.3470 C.3   1 <1>   0.3430 
 16 N        8.9940    -0.3230     0.7960 N.4   1 <1>  -0.9590 
 17 C       10.0800    -0.3590     1.8130 C.3   1 <1>   0.4860 
 18 C       11.3780     0.0370     1.1380 C.ar  1 <1>  -0.1430 
 19 C       11.9510    -0.7920     0.1860 C.ar  1 <1>  -0.1500 
 20 C       11.9930     1.2430     1.4480 C.ar  1 <1>  -0.1500 
 21 C       13.1110    -0.4110    -0.4670 C.ar  1 <1>   0.0830 
 22 C       13.1540     1.6270     0.7990 C.ar  1 <1>  -0.1500 
 23 O       13.6150    -1.2320    -1.4190 O.3   1 <1>  -0.3630 
 24 C       13.7220     0.8090    -0.1740 C.ar  1 <1>   0.0830 
 25 C       14.3260    -2.3750    -0.9930 C.3   1 <1>   0.1200 
 26 O       14.8520     1.1450    -0.8570 O.3   1 <1>  -0.3630 
 27 C       15.7440    -1.9780    -0.5820 C.3   1 <1>  -0.2400 
 28 C       15.5740     2.3220    -0.5710 C.3   1 <1>   0.0400 
 29 H        4.0160    -0.0270    -1.1100 H     1 <1>   0.1500 
 30 H        2.2150     3.4510     0.6080 H     1 <1>   0.1500 
 31 H        4.4080     4.1830     1.3850 H     1 <1>   0.1500 
 32 H        6.3960     2.8310     0.9380 H     1 <1>   0.1500 
 33 H        7.5490     2.1320    -1.1690 H     1 <1>   0.0800 
 34 H        8.0430     0.5780    -1.7580 H     1 <1>   0.0800 
 35 H        6.7430    -1.5840    -0.4460 H     1 <1>   0.0800 
 36 H        5.6230    -1.0630     0.7760 H     1 <1>   0.0800 
 37 H        8.5850     1.7590     0.9680 H     1 <1>   0.0800 
 38 H        9.7600     1.3710    -0.2560 H     1 <1>   0.0800 
 39 H        7.8050    -1.8300     1.7240 H     1 <1>   0.0800 
 40 H        7.3740    -0.2020     2.1670 H     1 <1>   0.0800 
 41 H        9.2820    -0.9400     0.0270 H     1 <1>   0.4500 
 42 H       10.1780    -1.3520     2.2200 H     1 <1>   0.0800 
 43 H        9.8610     0.3220     2.6190 H     1 <1>   0.0800 
 44 H       11.5130    -1.7380    -0.0750 H     1 <1>   0.1500 
 45 H       11.5790     1.8990     2.1960 H     1 <1>   0.1500 
 46 H       13.6040     2.5670     1.0600 H     1 <1>   0.1500 
 47 H       14.3600    -3.0580    -1.8230 H     1 <1>   0.0800 
 48 H       13.7990    -2.8370    -0.1760 H     1 <1>   0.0800 
 49 H       16.2320    -1.4700    -1.3950 H     1 <1>   0.0800 
 50 H       16.3110    -2.8560    -0.3350 H     1 <1>   0.0800 
 51 H       15.7210    -1.3340     0.2780 H     1 <1>   0.0800 
 52 H       16.4330     2.3490    -1.2180 H     1 <1>   0.0800 
 53 H       15.8930     2.2970     0.4550 H     1 <1>   0.0800 
 54 H       14.9470     3.1740    -0.7640 H     1 <1>   0.0800 
@<TRIPOS>BOND
  1   1   2  1   
  2   2   3  1   
  3   2   4  1   
  4   2   5  1   
  5   5   6  ar  
  6   5   7  ar  
  7   6   8  ar  
  8   6  29  1   
  9   7   9  ar  
 10   7  30  1   
 11   8  10  1   
 12   8  11  ar  
 13   9  11  ar  
 14   9  31  1   
 15  10  12  1   
 16  10  13  1   
 17  11  32  1   
 18  12  14  1   
 19  12  33  1   
 20  12  34  1   
 21  13  15  1   
 22  13  35  1   
 23  13  36  1   
 24  14  16  1   
 25  14  37  1   
 26  14  38  1   
 27  15  16  1   
 28  15  39  1   
 29  15  40  1   
 30  16  17  1   
 31  16  41  1   
 32  17  18  1   
 33  17  42  1   
 34  17  43  1   
 35  18  19  ar  
 36  18  20  ar  
 37  19  21  ar  
 38  19  44  1   
 39  20  22  ar  
 40  20  45  1   
 41  21  23  1   
 42  21  24  ar  
 43  22  24  ar  
 44  22  46  1   
 45  23  25  1   
 46  24  26  1   
 47  25  27  1   
 48  25  47  1   
 49  25  48  1   
 50  26  28  1   
 51  27  49  1   
 52  27  50  1   
 53  27  51  1   
 54  28  52  1   
 55  28  53  1   
 56  28  54  1   
@<TRIPOS>SUBSTRUCTURE
  1 ****  14 GROUP 4 **** **** 0

# MOE 2024.06 (io_trps.svl 2023.06)
