@<TRIPOS>MOLECULE
NONAME
42 42 1 0 0 
SMALL
USER_CHARGES


@<TRIPOS>ATOM
  1 S        0.0020    -0.3400    -0.6630 S.o2  1 <1>   1.4470 
  2 O       -0.7210    -1.3260     0.1070 O.2   1 <1>  -0.6500 
  3 O        0.1030    -0.4410    -2.1010 O.2   1 <1>  -0.6500 
  4 N       -0.7250     1.1620    -0.4800 N.am  1 <1>  -0.9140 
  5 C        1.6410    -0.0950     0.0770 C.ar  1 <1>  -0.0090 
  6 C       -2.1560     1.2380    -0.3310 C.3   1 <1>   0.5560 
  7 C        2.6560    -1.0180    -0.1610 C.ar  1 <1>   0.0830 
  8 C        1.9250     0.9870     0.9080 C.ar  1 <1>  -0.1500 
  9 C       -2.8590     0.3460    -1.3060 C.1   1 <1>  -0.2000 
 10 C       -2.5540     0.9280     1.1340 C.3   1 <1>  -0.1600 
 11 C       -2.5220     2.7020    -0.6770 C.3   1 <1>  -0.1600 
 12 O        2.3570    -2.0810    -0.9500 O.3   1 <1>  -0.3620 
 13 C        3.9180    -0.8450     0.4010 C.ar  1 <1>  -0.1500 
 14 C        3.1770     1.1610     1.4710 C.ar  1 <1>  -0.1500 
 15 C       -3.4050    -0.3720    -2.0830 C.1   1 <1>  -0.1770 
 16 C       -4.0280     1.1840     1.5060 C.3   1 <1>  -0.2400 
 17 C       -2.0170     3.2360    -2.0370 C.3   1 <1>  -0.2400 
 18 C        3.3070    -3.0710    -1.2760 C.3   1 <1>   0.0400 
 19 C        4.1850     0.2400     1.2130 C.ar  1 <1>   0.0830 
 20 O        5.4390     0.3330     1.7180 O.3   1 <1>  -0.3620 
 21 C        5.8160     1.3970     2.5650 C.3   1 <1>   0.0400 
 22 H       -0.5880     1.5440    -1.4120 H     1 <1>   0.4200 
 23 H        1.1580     1.7090     1.1280 H     1 <1>   0.1500 
 24 H       -1.9340     1.5120     1.7910 H     1 <1>   0.0800 
 25 H       -2.3620    -0.1060     1.3460 H     1 <1>   0.0800 
 26 H       -2.1520     3.3450     0.1020 H     1 <1>   0.0800 
 27 H       -3.5930     2.7940    -0.6770 H     1 <1>   0.0800 
 28 H        4.7150    -1.5400     0.2260 H     1 <1>   0.1500 
 29 H        3.3460     2.0130     2.1020 H     1 <1>   0.1500 
 30 H       -3.8780    -1.0370    -2.7830 H     1 <1>   0.1770 
 31 H       -4.2670     2.2310     1.4640 H     1 <1>   0.0800 
 32 H       -4.2110     0.8420     2.5090 H     1 <1>   0.0800 
 33 H       -4.6850     0.6460     0.8440 H     1 <1>   0.0800 
 34 H       -0.9450     3.3140    -2.0560 H     1 <1>   0.0800 
 35 H       -2.4200     4.2180    -2.2090 H     1 <1>   0.0800 
 36 H       -2.3370     2.5990    -2.8440 H     1 <1>   0.0800 
 37 H        2.8300    -3.7920    -1.9140 H     1 <1>   0.0800 
 38 H        3.6400    -3.5470    -0.3700 H     1 <1>   0.0800 
 39 H        4.1280    -2.6100    -1.7960 H     1 <1>   0.0800 
 40 H        6.8470     1.2580     2.8350 H     1 <1>   0.0800 
 41 H        5.2010     1.3760     3.4470 H     1 <1>   0.0800 
 42 H        5.7000     2.3250     2.0330 H     1 <1>   0.0800 
@<TRIPOS>BOND
  1   1   2  2   
  2   1   3  2   
  3   1   4  am  
  4   1   5  1   
  5   4   6  1   
  6   4  22  1   
  7   5   7  ar  
  8   5   8  ar  
  9   6   9  1   
 10   6  10  1   
 11   6  11  1   
 12   7  12  1   
 13   7  13  ar  
 14   8  14  ar  
 15   8  23  1   
 16   9  15  3   
 17  10  16  1   
 18  10  24  1   
 19  10  25  1   
 20  11  17  1   
 21  11  26  1   
 22  11  27  1   
 23  12  18  1   
 24  13  19  ar  
 25  13  28  1   
 26  14  19  ar  
 27  14  29  1   
 28  15  30  1   
 29  16  31  1   
 30  16  32  1   
 31  16  33  1   
 32  17  34  1   
 33  17  35  1   
 34  17  36  1   
 35  18  37  1   
 36  18  38  1   
 37  18  39  1   
 38  19  20  1   
 39  20  21  1   
 40  21  40  1   
 41  21  41  1   
 42  21  42  1   
@<TRIPOS>SUBSTRUCTURE
  1 ****   5 GROUP 4 **** **** 0

# MOE 2024.06 (io_trps.svl 2023.06)
