@<TRIPOS>MOLECULE
NONAME
47 48 1 0 0 
SMALL
USER_CHARGES


@<TRIPOS>ATOM
  1 CL      -0.3470     0.2690     1.3700 Cl    1 <1>  -0.1770 
  2 C       -1.8000    -0.2740     0.5740 C.ar  1 <1>   0.1770 
  3 C       -2.0640    -1.6270     0.4920 C.ar  1 <1>  -0.1500 
  4 C       -2.6660     0.6570     0.0340 C.ar  1 <1>  -0.1500 
  5 C       -3.2200    -2.0580    -0.1370 C.ar  1 <1>  -0.1500 
  6 C       -3.8220     0.2250    -0.5950 C.ar  1 <1>  -0.1500 
  7 C       -4.1070    -1.1330    -0.6780 C.ar  1 <1>  -0.1430 
  8 C       -5.3810    -1.6020    -1.3590 C.3   1 <1>   0.4870 
  9 N       -6.3570    -2.0290    -0.3190 N.4   1 <1>  -0.9590 
 10 C       -7.5400    -2.6960    -0.9540 C.3   1 <1>   0.3430 
 11 C       -6.7640    -0.8850     0.5510 C.3   1 <1>   0.3430 
 12 C       -8.5380    -3.2080     0.0940 C.3   1 <1>  -0.0190 
 13 C       -7.7150    -1.3780     1.6440 C.3   1 <1>  -0.1600 
 14 C       -9.7480    -3.7750    -0.6420 C.2   1 <1>   0.5690 
 15 C       -8.9500    -2.0720     1.0510 C.3   1 <1>  -0.1600 
 16 O      -10.0030    -3.2780    -1.7140 O.2   1 <1>  -0.5700 
 17 N      -10.5020    -4.7950    -0.1170 N.am  1 <1>  -0.6600 
 18 C      -10.2760    -5.4490     1.2010 C.3   1 <1>   0.1400 
 19 C      -11.6850    -5.3090    -0.8660 C.3   1 <1>   0.1400 
 20 C       -9.4110    -6.6930     1.0130 C.3   1 <1>  -0.2400 
 21 C      -12.9350    -4.5500    -0.4280 C.3   1 <1>  -0.2400 
 22 H       -1.3650    -2.3280     0.9160 H     1 <1>   0.1500 
 23 H       -2.4300     1.7050     0.1080 H     1 <1>   0.1500 
 24 H       -3.4090    -3.1160    -0.2020 H     1 <1>   0.1500 
 25 H       -4.4860     0.9600    -1.0180 H     1 <1>   0.1500 
 26 H       -5.1490    -2.4290    -2.0110 H     1 <1>   0.0800 
 27 H       -5.7960    -0.8060    -1.9550 H     1 <1>   0.0800 
 28 H       -5.8730    -2.7060     0.2820 H     1 <1>   0.4500 
 29 H       -7.2190    -3.5250    -1.5650 H     1 <1>   0.0800 
 30 H       -8.0470    -1.9920    -1.5950 H     1 <1>   0.0800 
 31 H       -7.2590    -0.1330    -0.0420 H     1 <1>   0.0800 
 32 H       -5.8950    -0.4380     1.0090 H     1 <1>   0.0800 
 33 H       -8.0600    -3.9960     0.6430 H     1 <1>   0.0800 
 34 H       -8.0330    -0.5350     2.2340 H     1 <1>   0.0800 
 35 H       -7.1900    -2.0490     2.3010 H     1 <1>   0.0800 
 36 H       -9.5660    -2.4600     1.8440 H     1 <1>   0.0800 
 37 H       -9.5400    -1.3500     0.5110 H     1 <1>   0.0800 
 38 H      -11.2230    -5.7290     1.6330 H     1 <1>   0.0800 
 39 H       -9.8020    -4.7700     1.8860 H     1 <1>   0.0800 
 40 H      -11.8080    -6.3630    -0.6820 H     1 <1>   0.0800 
 41 H      -11.5370    -5.1760    -1.9250 H     1 <1>   0.0800 
 42 H       -9.9080    -7.4040     0.3770 H     1 <1>   0.0800 
 43 H       -9.2400    -7.1610     1.9660 H     1 <1>   0.0800 
 44 H       -8.4610    -6.4380     0.5830 H     1 <1>   0.0800 
 45 H      -13.1240    -4.6930     0.6200 H     1 <1>   0.0800 
 46 H      -13.7850    -4.9100    -0.9790 H     1 <1>   0.0800 
 47 H      -12.8200    -3.5000    -0.6330 H     1 <1>   0.0800 
@<TRIPOS>BOND
  1   1   2  1   
  2   2   3  ar  
  3   2   4  ar  
  4   3   5  ar  
  5   3  22  1   
  6   4   6  ar  
  7   4  23  1   
  8   5   7  ar  
  9   5  24  1   
 10   6   7  ar  
 11   6  25  1   
 12   7   8  1   
 13   8   9  1   
 14   8  26  1   
 15   8  27  1   
 16   9  10  1   
 17   9  11  1   
 18   9  28  1   
 19  10  12  1   
 20  10  29  1   
 21  10  30  1   
 22  11  13  1   
 23  11  31  1   
 24  11  32  1   
 25  12  14  1   
 26  12  15  1   
 27  12  33  1   
 28  13  15  1   
 29  13  34  1   
 30  13  35  1   
 31  14  16  2   
 32  14  17  am  
 33  15  36  1   
 34  15  37  1   
 35  17  18  1   
 36  17  19  1   
 37  18  20  1   
 38  18  38  1   
 39  18  39  1   
 40  19  21  1   
 41  19  40  1   
 42  19  41  1   
 43  20  42  1   
 44  20  43  1   
 45  20  44  1   
 46  21  45  1   
 47  21  46  1   
 48  21  47  1   
@<TRIPOS>SUBSTRUCTURE
  1 ****   9 GROUP 4 **** **** 0

# MOE 2024.06 (io_trps.svl 2023.06)
