@<TRIPOS>MOLECULE
NONAME
41 43 1 0 0 
SMALL
USER_CHARGES


@<TRIPOS>ATOM
  1 S        0.1950    -0.0930    -0.5730 S.o2  1 <1>   1.4470 
  2 O        0.1140    -1.3940     0.0510 O.2   1 <1>  -0.6500 
  3 O        0.6240     0.0240    -1.9480 O.2   1 <1>  -0.6500 
  4 N        1.2970     0.7250     0.3870 N.am  1 <1>  -0.9140 
  5 C       -1.3440     0.8290    -0.3150 C.ar  1 <1>  -0.0090 
  6 C        2.6740     0.4700     0.0090 C.3   1 <1>   0.2760 
  7 C       -1.3870     2.2060    -0.4900 C.ar  1 <1>  -0.1500 
  8 C       -2.5180     0.1850     0.0560 C.ar  1 <1>  -0.1500 
  9 C        3.6020     0.7490     1.2070 C.3   1 <1>  -0.0800 
 10 C        3.1530     1.5030    -1.0290 C.3   1 <1>  -0.1600 
 11 C       -2.5540     2.9300    -0.3000 C.ar  1 <1>  -0.1430 
 12 C       -3.6930     0.8890     0.2500 C.ar  1 <1>  -0.1500 
 13 C        3.8130     2.2540     1.1170 C.3   1 <1>  -0.1600 
 14 C        5.0070     0.2300     0.8510 C.3   1 <1>  -0.1600 
 15 C        4.3130     2.2200    -0.3170 C.3   1 <1>  -0.0800 
 16 C       -3.7190     2.2690     0.0740 C.ar  1 <1>   0.0830 
 17 C       -2.5490     4.4380    -0.5030 C.3   1 <1>  -0.0970 
 18 C        5.4910     1.2380    -0.2060 C.3   1 <1>  -0.1600 
 19 O       -4.8410     3.0150     0.2510 O.3   1 <1>  -0.3630 
 20 C       -6.0730     2.4330     0.6150 C.3   1 <1>   0.0400 
 21 H        1.1720     0.2840     1.2930 H     1 <1>   0.4200 
 22 H        2.7970    -0.5440    -0.3410 H     1 <1>   0.0800 
 23 H       -0.4830     2.7150    -0.7810 H     1 <1>   0.1500 
 24 H       -2.5130    -0.8840     0.1950 H     1 <1>   0.1500 
 25 H        3.2370     0.3820     2.1500 H     1 <1>   0.0800 
 26 H        2.3730     2.2050    -1.2660 H     1 <1>   0.0800 
 27 H        3.4780     1.0230    -1.9340 H     1 <1>   0.0800 
 28 H       -4.5730     0.3470     0.5370 H     1 <1>   0.1500 
 29 H        4.5540     2.6170     1.8100 H     1 <1>   0.0800 
 30 H        2.8980     2.8140     1.2240 H     1 <1>   0.0800 
 31 H        4.9820    -0.7760     0.4690 H     1 <1>   0.0800 
 32 H        5.6470     0.2630     1.7160 H     1 <1>   0.0800 
 33 H        4.5700     3.1750    -0.7410 H     1 <1>   0.0800 
 34 H       -1.5760     4.7910    -0.7920 H     1 <1>   0.0800 
 35 H       -2.8360     4.9280     0.4100 H     1 <1>   0.0800 
 36 H       -3.2530     4.7030    -1.2710 H     1 <1>   0.0800 
 37 H        5.7110     0.7650    -1.1470 H     1 <1>   0.0800 
 38 H        6.3710     1.7500     0.1450 H     1 <1>   0.0800 
 39 H       -6.8040     3.2180     0.6860 H     1 <1>   0.0800 
 40 H       -5.9620     1.9480     1.5680 H     1 <1>   0.0800 
 41 H       -6.3650     1.7300    -0.1460 H     1 <1>   0.0800 
@<TRIPOS>BOND
  1   1   2  2   
  2   1   3  2   
  3   1   4  am  
  4   1   5  1   
  5   4   6  1   
  6   4  21  1   
  7   5   7  ar  
  8   5   8  ar  
  9   6   9  1   
 10   6  10  1   
 11   6  22  1   
 12   7  11  ar  
 13   7  23  1   
 14   8  12  ar  
 15   8  24  1   
 16   9  13  1   
 17   9  14  1   
 18   9  25  1   
 19  10  15  1   
 20  10  26  1   
 21  10  27  1   
 22  11  16  ar  
 23  11  17  1   
 24  12  16  ar  
 25  12  28  1   
 26  13  15  1   
 27  13  29  1   
 28  13  30  1   
 29  14  18  1   
 30  14  31  1   
 31  14  32  1   
 32  15  18  1   
 33  15  33  1   
 34  16  19  1   
 35  17  34  1   
 36  17  35  1   
 37  17  36  1   
 38  18  37  1   
 39  18  38  1   
 40  19  20  1   
 41  20  39  1   
 42  20  40  1   
 43  20  41  1   
@<TRIPOS>SUBSTRUCTURE
  1 ****   4 GROUP 4 **** **** 0

# MOE 2024.06 (io_trps.svl 2023.06)
