@<TRIPOS>MOLECULE
NONAME
51 53 1 0 0 
SMALL
USER_CHARGES


@<TRIPOS>ATOM
  1 O       -1.0500    -1.0830    -1.7390 O.2   1 <1>  -0.5700 
  2 C       -1.3430    -1.6070    -0.6820 C.2   1 <1>   0.5440 
  3 N       -0.3770    -2.2730     0.0160 N.am  1 <1>  -0.7300 
  4 C       -2.7010    -1.5820    -0.1800 C.ar  1 <1>   0.0860 
  5 C        0.9530    -2.6560    -0.5090 C.3   1 <1>   0.1400 
  6 C       -2.9790    -1.4750     1.1850 C.ar  1 <1>  -0.1500 
  7 C       -3.7880    -1.7010    -1.0470 C.ar  1 <1>  -0.1500 
  8 C        1.0230    -4.1850    -0.6550 C.3   1 <1>   0.2000 
  9 C       -4.2740    -1.5290     1.6620 C.ar  1 <1>  -0.1500 
 10 C       -5.0840    -1.7600    -0.5730 C.ar  1 <1>  -0.1500 
 11 O        0.5600    -4.8090     0.5080 O.3   1 <1>  -0.5600 
 12 C        2.4270    -4.7320    -0.8600 C.3   1 <1>  -0.1600 
 13 C       -5.3410    -1.6930     0.7890 C.ar  1 <1>   0.1170 
 14 C        1.1680    -6.0520     0.6880 C.3   1 <1>   0.1200 
 15 C        2.2970    -6.1490    -0.3350 C.3   1 <1>  -0.1600 
 16 N       -6.6380    -1.8220     1.2710 N.am  1 <1>  -0.5470 
 17 C       -7.3020    -2.9740     1.5670 C.2   1 <1>   0.5690 
 18 O       -8.4390    -2.9220     1.9680 O.2   1 <1>  -0.5700 
 19 C       -6.6090    -4.3280     1.4360 C.3   1 <1>   0.1810 
 20 O       -6.3350    -4.6320     0.0760 O.3   1 <1>  -0.3630 
 21 C       -5.3070    -5.4690    -0.1940 C.ar  1 <1>   0.0830 
 22 C       -5.5530    -6.6560    -0.8760 C.ar  1 <1>  -0.1430 
 23 C       -4.0120    -5.1360     0.1830 C.ar  1 <1>  -0.1500 
 24 C       -4.4940    -7.5050    -1.1580 C.ar  1 <1>  -0.1500 
 25 C       -6.9640    -7.0220    -1.3090 C.3   1 <1>  -0.0970 
 26 C       -2.9620    -5.9870    -0.1050 C.ar  1 <1>  -0.1500 
 27 C       -3.2040    -7.1740    -0.7740 C.ar  1 <1>  -0.1500 
 28 H       -0.6680    -2.9010     0.7710 H     1 <1>   0.3700 
 29 H        1.7090    -2.3210     0.1780 H     1 <1>   0.0800 
 30 H        1.1340    -2.1900    -1.4620 H     1 <1>   0.0800 
 31 H       -2.1630    -1.3500     1.8760 H     1 <1>   0.1500 
 32 H       -3.6010    -1.7650    -2.1060 H     1 <1>   0.1500 
 33 H        0.3860    -4.5010    -1.4640 H     1 <1>   0.0800 
 34 H       -4.4650    -1.4520     2.7180 H     1 <1>   0.1500 
 35 H       -5.9040    -1.8770    -1.2600 H     1 <1>   0.1500 
 36 H        3.1290    -4.1780    -0.2610 H     1 <1>   0.0800 
 37 H        2.7280    -4.6960    -1.8920 H     1 <1>   0.0800 
 38 H        0.4300    -6.8230     0.5420 H     1 <1>   0.0800 
 39 H        1.5450    -6.0910     1.6950 H     1 <1>   0.0800 
 40 H        3.2080    -6.5090     0.1070 H     1 <1>   0.0800 
 41 H        2.0010    -6.8170    -1.1260 H     1 <1>   0.0800 
 42 H       -7.2050    -0.9780     1.3600 H     1 <1>   0.3700 
 43 H       -7.2460    -5.1030     1.8200 H     1 <1>   0.0800 
 44 H       -5.6940    -4.3150     1.9960 H     1 <1>   0.0800 
 45 H       -3.8200    -4.2110     0.6900 H     1 <1>   0.1500 
 46 H       -4.6660    -8.4290    -1.6820 H     1 <1>   0.1500 
 47 H       -7.5960    -7.1230    -0.4450 H     1 <1>   0.0800 
 48 H       -6.9760    -7.9470    -1.8550 H     1 <1>   0.0800 
 49 H       -7.3620    -6.2460    -1.9390 H     1 <1>   0.0800 
 50 H       -1.9590    -5.7240     0.1850 H     1 <1>   0.1500 
 51 H       -2.3900    -7.8390    -1.0000 H     1 <1>   0.1500 
@<TRIPOS>BOND
  1   1   2  2   
  2   2   3  am  
  3   2   4  1   
  4   3   5  1   
  5   3  28  1   
  6   4   6  ar  
  7   4   7  ar  
  8   5   8  1   
  9   5  29  1   
 10   5  30  1   
 11   6   9  ar  
 12   6  31  1   
 13   7  10  ar  
 14   7  32  1   
 15   8  11  1   
 16   8  12  1   
 17   8  33  1   
 18   9  13  ar  
 19   9  34  1   
 20  10  13  ar  
 21  10  35  1   
 22  11  14  1   
 23  12  15  1   
 24  12  36  1   
 25  12  37  1   
 26  13  16  1   
 27  14  15  1   
 28  14  38  1   
 29  14  39  1   
 30  15  40  1   
 31  15  41  1   
 32  16  17  am  
 33  16  42  1   
 34  17  18  2   
 35  17  19  1   
 36  19  20  1   
 37  19  43  1   
 38  19  44  1   
 39  20  21  1   
 40  21  22  ar  
 41  21  23  ar  
 42  22  24  ar  
 43  22  25  1   
 44  23  26  ar  
 45  23  45  1   
 46  24  27  ar  
 47  24  46  1   
 48  25  47  1   
 49  25  48  1   
 50  25  49  1   
 51  26  27  ar  
 52  26  50  1   
 53  27  51  1   
@<TRIPOS>SUBSTRUCTURE
  1 ****  23 GROUP 4 **** **** 0

# MOE 2024.06 (io_trps.svl 2023.06)
