@<TRIPOS>MOLECULE
NONAME
34 34 1 0 0 
SMALL
USER_CHARGES


@<TRIPOS>ATOM
  1 CL      -0.1100    -0.1480    -0.7340 Cl    1 <1>  -0.1770 
  2 C       -1.8340     0.0410    -0.5050 C.ar  1 <1>   0.1770 
  3 C       -2.3820     1.3010    -0.3290 C.ar  1 <1>  -0.1440 
  4 C       -2.6210    -1.0930    -0.5050 C.ar  1 <1>  -0.1500 
  5 C       -3.7520     1.4030    -0.1510 C.ar  1 <1>  -0.1500 
  6 C       -1.5030     2.5440    -0.3310 C.3   1 <1>  -0.0960 
  7 C       -3.9950    -0.9990    -0.3270 C.ar  1 <1>  -0.1430 
  8 C       -4.5630     0.2650    -0.1490 C.ar  1 <1>   0.0820 
  9 C       -4.8350    -2.2830    -0.3330 C.3   1 <1>   0.0640 
 10 O       -5.9100     0.3410     0.0240 O.3   1 <1>  -0.3630 
 11 C       -4.4190    -3.2150     0.8100 C.3   1 <1>  -0.2400 
 12 C       -4.7270    -3.0020    -1.6830 C.3   1 <1>  -0.2400 
 13 C       -6.5790     1.5630     0.2110 C.3   1 <1>   0.1200 
 14 C       -8.0660     1.2350     0.3670 C.3   1 <1>   0.3430 
 15 N       -8.8940     2.4610     0.5740 N.4   1 <1>  -0.8530 
 16 H       -2.1440    -2.0460    -0.6450 H     1 <1>   0.1500 
 17 H       -4.1670     2.3820    -0.0160 H     1 <1>   0.1500 
 18 H       -0.9870     2.6260    -1.2720 H     1 <1>   0.0800 
 19 H       -0.7740     2.4780     0.4560 H     1 <1>   0.0800 
 20 H       -2.0850     3.4360    -0.1830 H     1 <1>   0.0800 
 21 H       -5.8730    -2.0470    -0.1850 H     1 <1>   0.0800 
 22 H       -3.4080    -3.5560     0.6830 H     1 <1>   0.0800 
 23 H       -5.0660    -4.0740     0.8450 H     1 <1>   0.0800 
 24 H       -4.4900    -2.6960     1.7500 H     1 <1>   0.0800 
 25 H       -3.7220    -3.3380    -1.8620 H     1 <1>   0.0800 
 26 H       -5.0120    -2.3350    -2.4760 H     1 <1>   0.0800 
 27 H       -5.3810    -3.8560    -1.7030 H     1 <1>   0.0800 
 28 H       -6.4020     2.1740    -0.6570 H     1 <1>   0.0800 
 29 H       -6.1850     2.0230     1.1010 H     1 <1>   0.0800 
 30 H       -8.1860     0.5720     1.2090 H     1 <1>   0.0800 
 31 H       -8.3990     0.7200    -0.5200 H     1 <1>   0.0800 
 32 H       -8.6150     2.9640     1.4250 H     1 <1>   0.4500 
 33 H       -9.8860     2.2110     0.6750 H     1 <1>   0.4500 
 34 H       -8.8180     3.1050    -0.2240 H     1 <1>   0.4500 
@<TRIPOS>BOND
  1   1   2  1   
  2   2   3  ar  
  3   2   4  ar  
  4   3   5  ar  
  5   3   6  1   
  6   4   7  ar  
  7   4  16  1   
  8   5   8  ar  
  9   5  17  1   
 10   6  18  1   
 11   6  19  1   
 12   6  20  1   
 13   7   8  ar  
 14   7   9  1   
 15   8  10  1   
 16   9  11  1   
 17   9  12  1   
 18   9  21  1   
 19  10  13  1   
 20  11  22  1   
 21  11  23  1   
 22  11  24  1   
 23  12  25  1   
 24  12  26  1   
 25  12  27  1   
 26  13  14  1   
 27  13  28  1   
 28  13  29  1   
 29  14  15  1   
 30  14  30  1   
 31  14  31  1   
 32  15  32  1   
 33  15  33  1   
 34  15  34  1   
@<TRIPOS>SUBSTRUCTURE
  1 ****   8 GROUP 4 **** **** 0

# MOE 2024.06 (io_trps.svl 2023.06)
