@<TRIPOS>MOLECULE
NONAME
47 47 1 0 0 
SMALL
USER_CHARGES


@<TRIPOS>ATOM
  1 CL      -0.0410    -0.1580    -0.0720 Cl    1 <1>  -0.1770 
  2 C       -1.7870    -0.1940    -0.0510 C.ar  1 <1>   0.1770 
  3 C       -2.4890     0.9930    -0.1020 C.ar  1 <1>  -0.1500 
  4 C       -2.4330    -1.4080     0.0170 C.ar  1 <1>  -0.1500 
  5 C       -3.8850     1.0100    -0.0870 C.ar  1 <1>  -0.1440 
  6 C       -3.8130    -1.4230     0.0340 C.ar  1 <1>  -0.1500 
  7 C       -4.5410    -0.2320    -0.0170 C.ar  1 <1>   0.0830 
  8 C       -4.6550     2.3630    -0.1460 C.3   1 <1>   0.1440 
  9 O       -5.9010    -0.2580     0.0000 O.3   1 <1>  -0.3630 
 10 C       -3.7230     3.5900    -0.2180 C.3   1 <1>  -0.2400 
 11 C       -5.5120     2.5570     1.1180 C.3   1 <1>  -0.2400 
 12 C       -5.5420     2.4310    -1.4010 C.3   1 <1>  -0.2400 
 13 C       -6.6490    -1.4510     0.0820 C.3   1 <1>   0.1200 
 14 C       -8.1280    -1.0750     0.0850 C.3   1 <1>   0.1200 
 15 O       -8.8890    -2.2440     0.1680 O.3   1 <1>  -0.5600 
 16 C      -10.2610    -2.0320     0.1800 C.3   1 <1>   0.1200 
 17 C      -10.9350    -3.4060     0.2950 C.3   1 <1>   0.3430 
 18 N      -12.4340    -3.3210     0.3790 N.4   1 <1>  -0.9590 
 19 C      -12.9990    -4.6600     0.7380 C.3   1 <1>   0.2630 
 20 C      -13.0460    -2.8290    -0.8970 C.3   1 <1>   0.2630 
 21 H       -1.8980     1.8860    -0.1530 H     1 <1>   0.1500 
 22 H       -1.8630    -2.3180     0.0560 H     1 <1>   0.1500 
 23 H       -4.2970    -2.3790     0.0870 H     1 <1>   0.1500 
 24 H       -3.0900     3.6380     0.6500 H     1 <1>   0.0800 
 25 H       -4.2940     4.5000    -0.2570 H     1 <1>   0.0800 
 26 H       -3.1110     3.5500    -1.1020 H     1 <1>   0.0800 
 27 H       -4.8960     2.4660     1.9950 H     1 <1>   0.0800 
 28 H       -6.2950     1.8280     1.1830 H     1 <1>   0.0800 
 29 H       -5.9720     3.5280     1.1220 H     1 <1>   0.0800 
 30 H       -4.9470     2.2520    -2.2790 H     1 <1>   0.0800 
 31 H       -6.0030     3.3980    -1.4910 H     1 <1>   0.0800 
 32 H       -6.3270     1.7010    -1.3740 H     1 <1>   0.0800 
 33 H       -6.3870    -1.9530     0.9960 H     1 <1>   0.0800 
 34 H       -6.4170    -2.0570    -0.7750 H     1 <1>   0.0800 
 35 H       -8.3760    -0.5600    -0.8270 H     1 <1>   0.0800 
 36 H       -8.3460    -0.4550     0.9390 H     1 <1>   0.0800 
 37 H      -10.5330    -1.5400    -0.7380 H     1 <1>   0.0800 
 38 H      -10.5010    -1.4160     1.0290 H     1 <1>   0.0800 
 39 H      -10.5560    -3.8850     1.1830 H     1 <1>   0.0800 
 40 H      -10.6520    -4.0030    -0.5560 H     1 <1>   0.0800 
 41 H      -12.6760    -2.6650     1.1380 H     1 <1>   0.4500 
 42 H      -12.7630    -5.3840    -0.0260 H     1 <1>   0.0800 
 43 H      -14.0710    -4.6000     0.8370 H     1 <1>   0.0800 
 44 H      -12.5870    -5.0020     1.6740 H     1 <1>   0.0800 
 45 H      -12.7970    -3.4900    -1.7120 H     1 <1>   0.0800 
 46 H      -12.6860    -1.8410    -1.1330 H     1 <1>   0.0800 
 47 H      -14.1190    -2.7870    -0.8040 H     1 <1>   0.0800 
@<TRIPOS>BOND
  1   1   2  1   
  2   2   3  ar  
  3   2   4  ar  
  4   3   5  ar  
  5   3  21  1   
  6   4   6  ar  
  7   4  22  1   
  8   5   7  ar  
  9   5   8  1   
 10   6   7  ar  
 11   6  23  1   
 12   7   9  1   
 13   8  10  1   
 14   8  11  1   
 15   8  12  1   
 16   9  13  1   
 17  10  24  1   
 18  10  25  1   
 19  10  26  1   
 20  11  27  1   
 21  11  28  1   
 22  11  29  1   
 23  12  30  1   
 24  12  31  1   
 25  12  32  1   
 26  13  14  1   
 27  13  33  1   
 28  13  34  1   
 29  14  15  1   
 30  14  35  1   
 31  14  36  1   
 32  15  16  1   
 33  16  17  1   
 34  16  37  1   
 35  16  38  1   
 36  17  18  1   
 37  17  39  1   
 38  17  40  1   
 39  18  19  1   
 40  18  20  1   
 41  18  41  1   
 42  19  42  1   
 43  19  43  1   
 44  19  44  1   
 45  20  45  1   
 46  20  46  1   
 47  20  47  1   
@<TRIPOS>SUBSTRUCTURE
  1 ****   9 GROUP 4 **** **** 0

# MOE 2024.06 (io_trps.svl 2023.06)
