@<TRIPOS>MOLECULE
NONAME
36 36 1 0 0 
SMALL
USER_CHARGES


@<TRIPOS>ATOM
  1 S       -0.7870     2.1660    -0.2920 S.3   1 <1>  -0.2660 
  2 C        0.8700     1.5160    -0.5860 C.1   1 <1>   0.5930 
  3 C       -1.7760     0.6360    -0.0030 C.3   1 <1>   0.0700 
  4 N        1.9010     1.0730    -0.7660 N.1   1 <1>  -0.5570 
  5 C       -3.2330     1.0520     0.2450 C.3   1 <1>  -0.1600 
  6 C       -4.1680    -0.1390     0.5020 C.3   1 <1>   0.1200 
  7 O       -5.1030    -1.1580     0.7490 O.3   1 <1>  -0.3630 
  8 C       -6.2900    -1.1740     0.0890 C.ar  1 <1>   0.0830 
  9 C       -6.9490    -2.3930    -0.1410 C.ar  1 <1>  -0.1440 
 10 C       -6.8430     0.0270    -0.3500 C.ar  1 <1>  -0.1500 
 11 C       -8.1580    -2.3380    -0.8360 C.ar  1 <1>  -0.1500 
 12 C       -6.3740    -3.7560     0.3470 C.3   1 <1>   0.1440 
 13 C       -8.0400     0.0440    -1.0340 C.ar  1 <1>  -0.1500 
 14 C       -8.6970    -1.1430    -1.2790 C.ar  1 <1>  -0.1500 
 15 C       -7.2700    -4.9580    -0.0140 C.3   1 <1>  -0.2400 
 16 C       -6.2420    -3.7710     1.8800 C.3   1 <1>  -0.2400 
 17 C       -5.0080    -4.0340    -0.3030 C.3   1 <1>  -0.2400 
 18 H       -1.3500     0.1370     0.8510 H     1 <1>   0.0800 
 19 H       -1.6770     0.0210    -0.8810 H     1 <1>   0.0800 
 20 H       -3.5910     1.5970    -0.6120 H     1 <1>   0.0800 
 21 H       -3.2700     1.7140     1.0920 H     1 <1>   0.0800 
 22 H       -3.5390    -0.4820     1.3040 H     1 <1>   0.0800 
 23 H       -3.8560    -0.6020    -0.4180 H     1 <1>   0.0800 
 24 H       -6.3560     0.9630    -0.1550 H     1 <1>   0.1500 
 25 H       -8.7250    -3.2210    -1.0580 H     1 <1>   0.1500 
 26 H       -8.4610     0.9750    -1.3720 H     1 <1>   0.1500 
 27 H       -9.6310    -1.1400    -1.8120 H     1 <1>   0.1500 
 28 H       -8.2420    -4.8550     0.4360 H     1 <1>   0.0800 
 29 H       -6.8400    -5.8760     0.3430 H     1 <1>   0.0800 
 30 H       -7.3810    -5.0420    -1.0810 H     1 <1>   0.0800 
 31 H       -5.5220    -3.0530     2.2220 H     1 <1>   0.0800 
 32 H       -5.9270    -4.7380     2.2270 H     1 <1>   0.0800 
 33 H       -7.1890    -3.5350     2.3300 H     1 <1>   0.0800 
 34 H       -4.2660    -3.3300     0.0190 H     1 <1>   0.0800 
 35 H       -5.0920    -3.9690    -1.3730 H     1 <1>   0.0800 
 36 H       -4.6560    -5.0160    -0.0450 H     1 <1>   0.0800 
@<TRIPOS>BOND
  1   1   2  1   
  2   1   3  1   
  3   2   4  3   
  4   3   5  1   
  5   3  18  1   
  6   3  19  1   
  7   5   6  1   
  8   5  20  1   
  9   5  21  1   
 10   6   7  1   
 11   6  22  1   
 12   6  23  1   
 13   7   8  1   
 14   8   9  ar  
 15   8  10  ar  
 16   9  11  ar  
 17   9  12  1   
 18  10  13  ar  
 19  10  24  1   
 20  11  14  ar  
 21  11  25  1   
 22  12  15  1   
 23  12  16  1   
 24  12  17  1   
 25  13  14  ar  
 26  13  26  1   
 27  14  27  1   
 28  15  28  1   
 29  15  29  1   
 30  15  30  1   
 31  16  31  1   
 32  16  32  1   
 33  16  33  1   
 34  17  34  1   
 35  17  35  1   
 36  17  36  1   
@<TRIPOS>SUBSTRUCTURE
  1 ****   7 GROUP 4 **** **** 0

# MOE 2024.06 (io_trps.svl 2023.06)
