@<TRIPOS>MOLECULE
NONAME
47 48 1 0 0 
SMALL
USER_CHARGES


@<TRIPOS>ATOM
  1 S        0.9660    -0.4910     1.3920 S.o2  1 <1>   1.4470 
  2 O        2.1340    -1.3150     1.6100 O.2   1 <1>  -0.6500 
  3 O        0.5360     0.4450     2.4030 O.2   1 <1>  -0.6500 
  4 N        1.2790     0.4790     0.0620 N.am  1 <1>  -0.9140 
  5 C       -0.4260    -1.5130     0.8350 C.ar  1 <1>  -0.0090 
  6 C        2.6020     1.0640     0.0950 C.3   1 <1>   0.1960 
  7 C       -1.7200    -1.0180     0.8210 C.ar  1 <1>  -0.1500 
  8 C       -0.2300    -2.8090     0.3800 C.ar  1 <1>  -0.1500 
  9 C        2.7150     2.0400    -1.0670 C.3   1 <1>  -0.2400 
 10 C       -2.8240    -1.7500     0.3760 C.ar  1 <1>   0.0860 
 11 C       -1.2900    -3.5740    -0.0650 C.ar  1 <1>  -0.1500 
 12 C       -2.5850    -3.0620    -0.0740 C.ar  1 <1>   0.0830 
 13 C       -4.1340    -1.1140     0.4010 C.2   1 <1>   0.5440 
 14 O       -3.6270    -3.8100    -0.5200 O.3   1 <1>  -0.3630 
 15 O       -4.2260     0.1000     0.4290 O.2   1 <1>  -0.5700 
 16 N       -5.2870    -1.8410     0.4100 N.am  1 <1>  -0.7300 
 17 C       -3.4730    -5.0920    -1.0930 C.3   1 <1>   0.0400 
 18 C       -6.6600    -1.3150     0.4070 C.3   1 <1>   0.2200 
 19 C       -7.4480    -1.9840     1.5370 C.3   1 <1>  -0.1600 
 20 C       -7.2940    -1.5990    -0.9580 C.3   1 <1>  -0.1600 
 21 C       -8.9230    -1.5560     1.5150 C.3   1 <1>  -0.1600 
 22 C       -8.7680    -1.1710    -0.9860 C.3   1 <1>  -0.1600 
 23 C       -9.5610    -1.8360     0.1470 C.3   1 <1>  -0.1600 
 24 H        0.6180     1.2460     0.1650 H     1 <1>   0.4200 
 25 H        3.3460     0.2890    -0.0030 H     1 <1>   0.0800 
 26 H        2.7590     1.5790     1.0300 H     1 <1>   0.0800 
 27 H       -1.8830    -0.0120     1.1750 H     1 <1>   0.1500 
 28 H        0.7660    -3.2210     0.3740 H     1 <1>   0.1500 
 29 H        2.5590     1.5260    -1.9990 H     1 <1>   0.0800 
 30 H        3.6990     2.4730    -1.0790 H     1 <1>   0.0800 
 31 H        1.9960     2.8330    -0.9690 H     1 <1>   0.0800 
 32 H       -1.0800    -4.5720    -0.4010 H     1 <1>   0.1500 
 33 H       -5.1970    -2.8470     0.2440 H     1 <1>   0.3700 
 34 H       -4.4430    -5.4370    -1.4040 H     1 <1>   0.0800 
 35 H       -3.0690    -5.7600    -0.3540 H     1 <1>   0.0800 
 36 H       -2.8220    -5.0180    -1.9460 H     1 <1>   0.0800 
 37 H       -6.6420    -0.2500     0.5730 H     1 <1>   0.0800 
 38 H       -7.0120    -1.7100     2.4820 H     1 <1>   0.0800 
 39 H       -7.3920    -3.0530     1.4310 H     1 <1>   0.0800 
 40 H       -7.2300    -2.6520    -1.1730 H     1 <1>   0.0800 
 41 H       -6.7520    -1.0620    -1.7170 H     1 <1>   0.0800 
 42 H       -8.9890    -0.5020     1.7290 H     1 <1>   0.0800 
 43 H       -9.4640    -2.0830     2.2820 H     1 <1>   0.0800 
 44 H       -9.2030    -1.4340    -1.9350 H     1 <1>   0.0800 
 45 H       -8.8280    -0.1000    -0.8810 H     1 <1>   0.0800 
 46 H      -10.5740    -1.4710     0.1410 H     1 <1>   0.0800 
 47 H       -9.5940    -2.9000    -0.0180 H     1 <1>   0.0800 
@<TRIPOS>BOND
  1   1   2  2   
  2   1   3  2   
  3   1   4  am  
  4   1   5  1   
  5   4   6  1   
  6   4  24  1   
  7   5   7  ar  
  8   5   8  ar  
  9   6   9  1   
 10   6  25  1   
 11   6  26  1   
 12   7  10  ar  
 13   7  27  1   
 14   8  11  ar  
 15   8  28  1   
 16   9  29  1   
 17   9  30  1   
 18   9  31  1   
 19  10  12  ar  
 20  10  13  1   
 21  11  12  ar  
 22  11  32  1   
 23  12  14  1   
 24  13  15  2   
 25  13  16  am  
 26  14  17  1   
 27  16  18  1   
 28  16  33  1   
 29  17  34  1   
 30  17  35  1   
 31  17  36  1   
 32  18  19  1   
 33  18  20  1   
 34  18  37  1   
 35  19  21  1   
 36  19  38  1   
 37  19  39  1   
 38  20  22  1   
 39  20  40  1   
 40  20  41  1   
 41  21  23  1   
 42  21  42  1   
 43  21  43  1   
 44  22  23  1   
 45  22  44  1   
 46  22  45  1   
 47  23  46  1   
 48  23  47  1   
@<TRIPOS>SUBSTRUCTURE
  1 ****  10 GROUP 4 **** **** 0

# MOE 2024.06 (io_trps.svl 2023.06)
