@<TRIPOS>MOLECULE
NONAME
54 56 1 0 0 
SMALL
USER_CHARGES


@<TRIPOS>ATOM
  1 O       -2.2490    -0.8760    -0.2340 O.2   1 <1>  -0.5700 
  2 C       -1.4450    -1.7590    -0.4640 C.2   1 <1>   0.6900 
  3 N       -1.7480    -2.7470    -1.3680 N.am  1 <1>  -0.4200 
  4 N       -0.2160    -1.7510     0.1560 N.am  1 <1>  -0.4200 
  5 C       -0.8610    -3.7410    -1.7000 C.2   1 <1>   0.5690 
  6 C       -3.1020    -2.7450    -2.0020 C.3   1 <1>   0.0600 
  7 C        0.6790    -2.7910     0.0450 C.2   1 <1>   0.5690 
  8 C        0.0870    -0.6280     1.0970 C.3   1 <1>   0.0600 
  9 O       -1.0550    -4.4420    -2.6690 O.2   1 <1>  -0.5700 
 10 C        0.4020    -3.9980    -0.8650 C.3   1 <1>   0.1220 
 11 O        1.6940    -2.7880     0.7020 O.2   1 <1>  -0.5700 
 12 C        0.1170    -5.2390     0.0230 C.3   1 <1>  -0.0160 
 13 C        1.5730    -4.2580    -1.8820 C.3   1 <1>  -0.1600 
 14 C       -0.9710    -4.9990     1.0750 C.ar  1 <1>  -0.1430 
 15 C        3.0400    -4.3850    -1.4170 C.3   1 <1>  -0.0160 
 16 C       -2.3270    -5.2090     0.8280 C.ar  1 <1>   0.0820 
 17 C       -0.5910    -4.5410     2.3290 C.ar  1 <1>  -0.1500 
 18 C        3.3030    -5.5780    -0.5140 C.ar  1 <1>  -0.1440 
 19 O       -2.7590    -5.6630    -0.3660 O.3   1 <1>  -0.3630 
 20 C       -3.2740    -4.9260     1.7980 C.ar  1 <1>  -0.1500 
 21 C       -1.5360    -4.2730     3.3050 C.ar  1 <1>  -0.1500 
 22 C        3.6560    -5.4210     0.8110 C.ar  1 <1>  -0.1500 
 23 C        3.2010    -6.8770    -0.9680 C.ar  1 <1>  -0.1500 
 24 C       -2.7440    -7.0570    -0.5750 C.3   1 <1>   0.1200 
 25 C       -2.8800    -4.4590     3.0380 C.ar  1 <1>  -0.1500 
 26 C        3.8700    -6.5390     1.5990 C.ar  1 <1>   0.1600 
 27 C        3.4380    -7.9270    -0.0960 C.ar  1 <1>   0.1600 
 28 C       -4.1230    -7.6250    -0.2470 C.3   1 <1>  -0.2400 
 29 N        3.7660    -7.7890     1.1780 N.ar  1 <1>  -0.6200 
 30 H       -3.1160    -2.0490    -2.8210 H     1 <1>   0.0800 
 31 H       -3.8470    -2.4580    -1.2800 H     1 <1>   0.0800 
 32 H       -3.3540    -3.7260    -2.3650 H     1 <1>   0.0800 
 33 H       -0.3590    -0.8360     2.0530 H     1 <1>   0.0800 
 34 H       -0.3130     0.2970     0.7170 H     1 <1>   0.0800 
 35 H        1.1480    -0.5050     1.2220 H     1 <1>   0.0800 
 36 H        1.0020    -5.5230     0.5510 H     1 <1>   0.0800 
 37 H       -0.1470    -6.0730    -0.6010 H     1 <1>   0.0800 
 38 H        1.5560    -3.4510    -2.5950 H     1 <1>   0.0800 
 39 H        1.3430    -5.1500    -2.4390 H     1 <1>   0.0800 
 40 H        3.3690    -3.4790    -0.9410 H     1 <1>   0.0800 
 41 H        3.6580    -4.5000    -2.2910 H     1 <1>   0.0800 
 42 H        0.4500    -4.3840     2.5560 H     1 <1>   0.1500 
 43 H       -4.3150    -5.0710     1.5770 H     1 <1>   0.1500 
 44 H       -1.2240    -3.9160     4.2710 H     1 <1>   0.1500 
 45 H        3.7570    -4.4390     1.2390 H     1 <1>   0.1500 
 46 H        2.9390    -7.0830    -1.9900 H     1 <1>   0.1500 
 47 H       -1.9820    -7.5020     0.0430 H     1 <1>   0.0800 
 48 H       -2.5040    -7.2230    -1.6110 H     1 <1>   0.0800 
 49 H       -3.6160    -4.2430     3.7930 H     1 <1>   0.1500 
 50 H        4.1400    -6.3950     2.6320 H     1 <1>   0.1500 
 51 H        3.3540    -8.9340    -0.4670 H     1 <1>   0.1500 
 52 H       -4.3450    -7.4900     0.7960 H     1 <1>   0.0800 
 53 H       -4.1400    -8.6780    -0.4640 H     1 <1>   0.0800 
 54 H       -4.8740    -7.1390    -0.8440 H     1 <1>   0.0800 
@<TRIPOS>BOND
  1   1   2  2   
  2   2   3  am  
  3   2   4  am  
  4   3   5  am  
  5   3   6  1   
  6   4   7  am  
  7   4   8  1   
  8   5   9  2   
  9   5  10  1   
 10   6  30  1   
 11   6  31  1   
 12   6  32  1   
 13   7  10  1   
 14   7  11  2   
 15   8  33  1   
 16   8  34  1   
 17   8  35  1   
 18  10  12  1   
 19  10  13  1   
 20  12  14  1   
 21  12  36  1   
 22  12  37  1   
 23  13  15  1   
 24  13  38  1   
 25  13  39  1   
 26  14  16  ar  
 27  14  17  ar  
 28  15  18  1   
 29  15  40  1   
 30  15  41  1   
 31  16  19  1   
 32  16  20  ar  
 33  17  21  ar  
 34  17  42  1   
 35  18  22  ar  
 36  18  23  ar  
 37  19  24  1   
 38  20  25  ar  
 39  20  43  1   
 40  21  25  ar  
 41  21  44  1   
 42  22  26  ar  
 43  22  45  1   
 44  23  27  ar  
 45  23  46  1   
 46  24  28  1   
 47  24  47  1   
 48  24  48  1   
 49  25  49  1   
 50  26  29  ar  
 51  26  50  1   
 52  27  29  ar  
 53  27  51  1   
 54  28  52  1   
 55  28  53  1   
 56  28  54  1   
@<TRIPOS>SUBSTRUCTURE
  1 ****  12 GROUP 4 **** **** 0

# MOE 2024.06 (io_trps.svl 2023.06)
