@<TRIPOS>MOLECULE
NONAME
54 56 1 0 0 
SMALL
USER_CHARGES


@<TRIPOS>ATOM
  1 O        0.0590     3.7910     1.4320 O.2   1 <1>  -0.5700 
  2 C       -0.4400     3.1880     0.5090 C.2   1 <1>   0.5690 
  3 N        0.0810     2.0010     0.0920 N.am  1 <1>  -0.7300 
  4 C       -1.6880     3.7400    -0.2290 C.3   1 <1>   0.2040 
  5 C        1.1910     1.2770     0.7260 C.3   1 <1>   0.2200 
  6 C       -2.6110     2.5400    -0.5630 C.ar  1 <1>  -0.1440 
  7 C       -1.2140     4.4980    -1.4920 C.3   1 <1>  -0.1600 
  8 C       -2.4980     4.7450     0.6310 C.3   1 <1>  -0.1600 
  9 C        2.2310     0.9340    -0.3440 C.3   1 <1>  -0.1600 
 10 C        0.6330     0.0130     1.3870 C.3   1 <1>  -0.1600 
 11 C       -3.0850     1.7610     0.4880 C.ar  1 <1>  -0.1500 
 12 C       -2.9810     2.1800    -1.8580 C.ar  1 <1>  -0.1500 
 13 C       -0.5190     5.8120    -1.1300 C.3   1 <1>   0.1200 
 14 C       -1.7990     6.1010     0.8070 C.3   1 <1>   0.1200 
 15 C        3.3620     0.0730     0.2380 C.3   1 <1>  -0.1600 
 16 C        1.7600    -0.8520     1.9720 C.3   1 <1>  -0.1600 
 17 C       -3.9010     0.6640     0.2700 C.ar  1 <1>   0.0830 
 18 C       -3.7870     1.0770    -2.0880 C.ar  1 <1>  -0.1500 
 19 O       -1.4300     6.6040    -0.4390 O.3   1 <1>  -0.5600 
 20 C        2.8070    -1.1950     0.9030 C.3   1 <1>  -0.1600 
 21 O       -4.3400    -0.0130     1.3590 O.3   1 <1>  -0.3630 
 22 C       -4.2390     0.3030    -1.0360 C.ar  1 <1>   0.0830 
 23 C       -5.7250     0.0580     1.6180 C.3   1 <1>   0.0400 
 24 O       -4.9930    -0.7830    -1.3360 O.3   1 <1>  -0.3630 
 25 C       -4.4500    -2.0430    -1.0030 C.3   1 <1>   0.0400 
 26 H       -0.4460     1.4620    -0.5980 H     1 <1>   0.3700 
 27 H        1.6500     1.8980     1.4790 H     1 <1>   0.0800 
 28 H       -2.0540     4.7520    -2.1130 H     1 <1>   0.0800 
 29 H       -0.5410     3.8840    -2.0630 H     1 <1>   0.0800 
 30 H       -2.6880     4.3300     1.6040 H     1 <1>   0.0800 
 31 H       -3.4510     4.9220     0.1630 H     1 <1>   0.0800 
 32 H        2.6460     1.8440    -0.7400 H     1 <1>   0.0800 
 33 H        1.7590     0.3950    -1.1470 H     1 <1>   0.0800 
 34 H        0.0890    -0.5660     0.6610 H     1 <1>   0.0800 
 35 H       -0.0440     0.2940     2.1750 H     1 <1>   0.0800 
 36 H       -2.8240     1.9930     1.5060 H     1 <1>   0.1500 
 37 H       -2.6560     2.7360    -2.7170 H     1 <1>   0.1500 
 38 H       -0.2310     6.3460    -2.0180 H     1 <1>   0.0800 
 39 H        0.3520     5.6580    -0.5140 H     1 <1>   0.0800 
 40 H       -0.9170     6.0260     1.4200 H     1 <1>   0.0800 
 41 H       -2.4690     6.8110     1.2600 H     1 <1>   0.0800 
 42 H        3.9070     0.6480     0.9670 H     1 <1>   0.0800 
 43 H        4.0480    -0.2010    -0.5450 H     1 <1>   0.0800 
 44 H        1.3460    -1.7590     2.3770 H     1 <1>   0.0800 
 45 H        2.2350    -0.3180     2.7770 H     1 <1>   0.0800 
 46 H       -4.0650     0.8070    -3.0910 H     1 <1>   0.1500 
 47 H        3.6140    -1.7470     1.3540 H     1 <1>   0.0800 
 48 H        2.3580    -1.8230     0.1530 H     1 <1>   0.0800 
 49 H       -5.9200    -0.4480     2.5460 H     1 <1>   0.0800 
 50 H       -6.2620    -0.4200     0.8190 H     1 <1>   0.0800 
 51 H       -6.0110     1.0920     1.6940 H     1 <1>   0.0800 
 52 H       -5.0870    -2.8030    -1.4170 H     1 <1>   0.0800 
 53 H       -4.4090    -2.1430     0.0660 H     1 <1>   0.0800 
 54 H       -3.4630    -2.1180    -1.4240 H     1 <1>   0.0800 
@<TRIPOS>BOND
  1   1   2  2   
  2   2   3  am  
  3   2   4  1   
  4   3   5  1   
  5   3  26  1   
  6   4   6  1   
  7   4   7  1   
  8   4   8  1   
  9   5   9  1   
 10   5  10  1   
 11   5  27  1   
 12   6  11  ar  
 13   6  12  ar  
 14   7  13  1   
 15   7  28  1   
 16   7  29  1   
 17   8  14  1   
 18   8  30  1   
 19   8  31  1   
 20   9  15  1   
 21   9  32  1   
 22   9  33  1   
 23  10  16  1   
 24  10  34  1   
 25  10  35  1   
 26  11  17  ar  
 27  11  36  1   
 28  12  18  ar  
 29  12  37  1   
 30  13  19  1   
 31  13  38  1   
 32  13  39  1   
 33  14  19  1   
 34  14  40  1   
 35  14  41  1   
 36  15  20  1   
 37  15  42  1   
 38  15  43  1   
 39  16  20  1   
 40  16  44  1   
 41  16  45  1   
 42  17  21  1   
 43  17  22  ar  
 44  18  22  ar  
 45  18  46  1   
 46  20  47  1   
 47  20  48  1   
 48  21  23  1   
 49  22  24  1   
 50  23  49  1   
 51  23  50  1   
 52  23  51  1   
 53  24  25  1   
 54  25  52  1   
 55  25  53  1   
 56  25  54  1   
@<TRIPOS>SUBSTRUCTURE
  1 ****   6 GROUP 4 **** **** 0

# MOE 2024.06 (io_trps.svl 2023.06)
