@<TRIPOS>MOLECULE
NONAME
36 38 1 0 0 
SMALL
USER_CHARGES


@<TRIPOS>ATOM
  1 CL       3.6350    -0.7240    -2.5470 Cl    1 <1>  -0.2900 
  2 C        2.6800    -0.0010    -1.2480 C.3   1 <1>   0.1910 
  3 C        3.5330     0.3060    -0.0250 C.2   1 <1>   0.5690 
  4 O        2.9940     0.7840     0.9440 O.2   1 <1>  -0.5700 
  5 N        4.8640     0.0440    -0.0340 N.am  1 <1>  -0.7300 
  6 C        5.7760     0.2530     1.1010 C.3   1 <1>   0.2840 
  7 C        6.9700    -0.6640     0.9230 C.ar  1 <1>  -0.1430 
  8 C        8.1910    -0.1610     0.5280 C.ar  1 <1>  -0.1500 
  9 C        6.8230    -2.0390     1.1580 C.ar  1 <1>  -0.1500 
 10 C        9.2790    -1.0240     0.3650 C.ar  1 <1>   0.0000 
 11 C        7.8840    -2.9010     1.0030 C.ar  1 <1>  -0.1500 
 12 C        9.1190    -2.3860     0.6040 C.ar  1 <1>  -0.1520 
 13 C       10.6260    -0.8500    -0.0180 C.2   1 <1>  -0.1810 
 14 N       10.3210    -3.0110     0.3780 N.pl3 1 <1>   0.0330 
 15 C       11.2270    -2.0590     0.0060 C.2   1 <1>  -0.3320 
 16 C       11.3280     0.4400    -0.3940 C.3   1 <1>   0.0210 
 17 C       12.6810    -2.3140    -0.3380 C.3   1 <1>   0.0200 
 18 C       12.6670     0.1310    -1.0920 C.3   1 <1>  -0.1600 
 19 C       13.4530    -0.9820    -0.3680 C.3   1 <1>  -0.1600 
 20 H        1.9040    -0.6960    -0.9900 H     1 <1>   0.0800 
 21 H        2.2450     0.9040    -1.6290 H     1 <1>   0.0800 
 22 H        5.2980    -0.3880    -0.8560 H     1 <1>   0.3700 
 23 H        5.2690     0.0330     2.0260 H     1 <1>   0.0800 
 24 H        6.0890     1.2830     1.1210 H     1 <1>   0.0800 
 25 H        8.3360     0.8860     0.3370 H     1 <1>   0.1500 
 26 H        5.8630    -2.4190     1.4620 H     1 <1>   0.1500 
 27 H        7.7740    -3.9550     1.1820 H     1 <1>   0.1500 
 28 H       10.4950    -4.0140     0.4770 H     1 <1>   0.2700 
 29 H       11.5050     1.0070     0.5020 H     1 <1>   0.0800 
 30 H       10.7020     1.0190    -1.0480 H     1 <1>   0.0800 
 31 H       12.7320    -2.7850    -1.3040 H     1 <1>   0.0800 
 32 H       13.1270    -2.9720     0.3870 H     1 <1>   0.0800 
 33 H       13.2590     1.0270    -1.1410 H     1 <1>   0.0800 
 34 H       12.4650    -0.1890    -2.1000 H     1 <1>   0.0800 
 35 H       14.4040    -1.1310    -0.8480 H     1 <1>   0.0800 
 36 H       13.6390    -0.6680     0.6450 H     1 <1>   0.0800 
@<TRIPOS>BOND
  1   1   2  1   
  2   2   3  1   
  3   2  20  1   
  4   2  21  1   
  5   3   4  2   
  6   3   5  am  
  7   5   6  1   
  8   5  22  1   
  9   6   7  1   
 10   6  23  1   
 11   6  24  1   
 12   7   8  ar  
 13   7   9  ar  
 14   8  10  ar  
 15   8  25  1   
 16   9  11  ar  
 17   9  26  1   
 18  10  12  ar  
 19  10  13  1   
 20  11  12  ar  
 21  11  27  1   
 22  12  14  1   
 23  13  15  2   
 24  13  16  1   
 25  14  15  1   
 26  14  28  1   
 27  15  17  1   
 28  16  18  1   
 29  16  29  1   
 30  16  30  1   
 31  17  19  1   
 32  17  31  1   
 33  17  32  1   
 34  18  19  1   
 35  18  33  1   
 36  18  34  1   
 37  19  35  1   
 38  19  36  1   
@<TRIPOS>SUBSTRUCTURE
  1 ****   8 GROUP 4 **** **** 0

# MOE 2024.06 (io_trps.svl 2023.06)
