@<TRIPOS>MOLECULE
NONAME
44 45 1 0 0 
SMALL
USER_CHARGES


@<TRIPOS>ATOM
  1 S       -0.0490    -0.0950     0.0500 S.o2  1 <1>   1.3330 
  2 O        0.1850    -0.4230     1.4390 O.2   1 <1>  -0.6500 
  3 O        0.4710    -0.9610    -0.9850 O.2   1 <1>  -0.6500 
  4 N       -1.7260     0.0390    -0.1630 N.am  1 <1>  -0.8490 
  5 C        0.5250     1.5770    -0.2810 C.3   1 <1>  -0.0550 
  6 C       -2.4030     0.5190     1.0480 C.3   1 <1>   0.1960 
  7 C       -2.3160    -1.2100    -0.6540 C.3   1 <1>   0.1960 
  8 C        2.0480     1.7640    -0.1620 C.3   1 <1>  -0.2400 
  9 C       -3.8810     0.7870     0.7610 C.3   1 <1>  -0.1600 
 10 C       -3.8000    -1.0130    -0.9790 C.3   1 <1>  -0.1600 
 11 C       -4.5790    -0.4780     0.2330 C.3   1 <1>  -0.0190 
 12 C       -6.0450    -0.2200    -0.1140 C.2   1 <1>   0.5690 
 13 O       -6.3170     0.6890    -0.8590 O.2   1 <1>  -0.5700 
 14 N       -6.9820    -1.0550     0.4340 N.am  1 <1>  -0.5470 
 15 C       -8.3830    -1.0510     0.3390 C.ar  1 <1>   0.1170 
 16 C       -9.1220     0.0880     0.0410 C.ar  1 <1>  -0.1500 
 17 C       -9.0670    -2.2390     0.5750 C.ar  1 <1>  -0.1500 
 18 C      -10.5040     0.0510    -0.0240 C.ar  1 <1>   0.0820 
 19 C      -10.4480    -2.2890     0.5110 C.ar  1 <1>  -0.1500 
 20 O      -11.1350     1.2160    -0.3190 O.3   1 <1>  -0.3620 
 21 C      -11.1710    -1.1480     0.2120 C.ar  1 <1>  -0.1500 
 22 C      -12.5360     1.2770    -0.4610 C.3   1 <1>   0.0400 
 23 H        0.0460     2.2530     0.4000 H     1 <1>   0.0800 
 24 H        0.2230     1.8520    -1.2740 H     1 <1>   0.0800 
 25 H       -1.9410     1.4310     1.3850 H     1 <1>   0.0800 
 26 H       -2.3100    -0.2130     1.8340 H     1 <1>   0.0800 
 27 H       -2.1910    -1.9870     0.0830 H     1 <1>   0.0800 
 28 H       -1.8140    -1.5210    -1.5560 H     1 <1>   0.0800 
 29 H        2.3750     1.5170     0.8340 H     1 <1>   0.0800 
 30 H        2.3170     2.7830    -0.3750 H     1 <1>   0.0800 
 31 H        2.5540     1.1180    -0.8590 H     1 <1>   0.0800 
 32 H       -3.9570     1.5790     0.0360 H     1 <1>   0.0800 
 33 H       -4.3660     1.1200     1.6610 H     1 <1>   0.0800 
 34 H       -4.2210    -1.9480    -1.3010 H     1 <1>   0.0800 
 35 H       -3.8840    -0.3190    -1.7980 H     1 <1>   0.0800 
 36 H       -4.5390    -1.2220     1.0090 H     1 <1>   0.0800 
 37 H       -6.6060    -1.8300     0.9750 H     1 <1>   0.3700 
 38 H       -8.6300     1.0250    -0.1410 H     1 <1>   0.1500 
 39 H       -8.5200    -3.1340     0.8050 H     1 <1>   0.1500 
 40 H      -10.9620    -3.2170     0.6940 H     1 <1>   0.1500 
 41 H      -12.2410    -1.2110     0.1690 H     1 <1>   0.1500 
 42 H      -12.8010     2.2870    -0.7140 H     1 <1>   0.0800 
 43 H      -12.9940     1.0010     0.4720 H     1 <1>   0.0800 
 44 H      -12.8360     0.6110    -1.2510 H     1 <1>   0.0800 
@<TRIPOS>BOND
  1   1   2  2   
  2   1   3  2   
  3   1   4  am  
  4   1   5  1   
  5   4   6  1   
  6   4   7  1   
  7   5   8  1   
  8   5  23  1   
  9   5  24  1   
 10   6   9  1   
 11   6  25  1   
 12   6  26  1   
 13   7  10  1   
 14   7  27  1   
 15   7  28  1   
 16   8  29  1   
 17   8  30  1   
 18   8  31  1   
 19   9  11  1   
 20   9  32  1   
 21   9  33  1   
 22  10  11  1   
 23  10  34  1   
 24  10  35  1   
 25  11  12  1   
 26  11  36  1   
 27  12  13  2   
 28  12  14  am  
 29  14  15  1   
 30  14  37  1   
 31  15  16  ar  
 32  15  17  ar  
 33  16  18  ar  
 34  16  38  1   
 35  17  19  ar  
 36  17  39  1   
 37  18  20  1   
 38  18  21  ar  
 39  19  21  ar  
 40  19  40  1   
 41  20  22  1   
 42  21  41  1   
 43  22  42  1   
 44  22  43  1   
 45  22  44  1   
@<TRIPOS>SUBSTRUCTURE
  1 ****  12 GROUP 4 **** **** 0

# MOE 2024.06 (io_trps.svl 2023.06)
