@<TRIPOS>MOLECULE
NONAME
30 29 1 0 0 
SMALL
USER_CHARGES


@<TRIPOS>ATOM
  1 S       -0.3100     1.1380     0.3960 S.3   1 <1>  -0.2300 
  2 S        1.6760     1.3430     1.0590 S.3   1 <1>  -0.2300 
  3 C       -0.3580    -0.6490     0.1300 C.3   1 <1>   0.0700 
  4 C        2.5590     1.5770    -0.5110 C.3   1 <1>   0.0700 
  5 C       -1.7920    -1.1410    -0.0030 C.3   1 <1>   0.1400 
  6 C        3.5260     0.4090    -0.7470 C.3   1 <1>   0.1400 
  7 N       -1.7600    -2.6020    -0.2460 N.am  1 <1>  -0.7300 
  8 N        2.7940    -0.8420    -1.0770 N.am  1 <1>  -0.7300 
  9 C       -2.7710    -3.4520     0.0480 C.2   1 <1>   0.5690 
 10 C        2.6160    -1.9530    -0.3260 C.2   1 <1>   0.5690 
 11 O       -3.8210    -3.0770     0.5040 O.2   1 <1>  -0.5700 
 12 C       -2.5600    -4.9190    -0.2130 C.3   1 <1>  -0.1790 
 13 O        1.8350    -2.7980    -0.6860 O.2   1 <1>  -0.5700 
 14 C        3.3530    -2.1380     0.9770 C.3   1 <1>  -0.1790 
 15 H        0.1330    -1.1070     0.9700 H     1 <1>   0.0800 
 16 H        0.1810    -0.8310    -0.7790 H     1 <1>   0.0800 
 17 H        3.0970     2.5030    -0.4160 H     1 <1>   0.0800 
 18 H        1.8300     1.6620    -1.2970 H     1 <1>   0.0800 
 19 H       -2.2770    -0.6530    -0.8300 H     1 <1>   0.0800 
 20 H       -2.3440    -0.9350     0.8990 H     1 <1>   0.0800 
 21 H        4.1400     0.2710     0.1260 H     1 <1>   0.0800 
 22 H        4.1760     0.6510    -1.5710 H     1 <1>   0.0800 
 23 H       -0.8760    -2.9760    -0.6100 H     1 <1>   0.3700 
 24 H        2.2830    -0.8360    -1.9620 H     1 <1>   0.3700 
 25 H       -2.4950    -5.0910    -1.2700 H     1 <1>   0.0800 
 26 H       -3.3850    -5.4800     0.1840 H     1 <1>   0.0800 
 27 H       -1.6540    -5.2470     0.2620 H     1 <1>   0.0800 
 28 H        3.1270    -3.1050     1.3870 H     1 <1>   0.0800 
 29 H        4.4110    -2.0710     0.8100 H     1 <1>   0.0800 
 30 H        3.0480    -1.3850     1.6780 H     1 <1>   0.0800 
@<TRIPOS>BOND
  1   1   2  1   
  2   1   3  1   
  3   2   4  1   
  4   3   5  1   
  5   3  15  1   
  6   3  16  1   
  7   4   6  1   
  8   4  17  1   
  9   4  18  1   
 10   5   7  1   
 11   5  19  1   
 12   5  20  1   
 13   6   8  1   
 14   6  21  1   
 15   6  22  1   
 16   7   9  am  
 17   7  23  1   
 18   8  10  am  
 19   8  24  1   
 20   9  11  2   
 21   9  12  1   
 22  10  13  2   
 23  10  14  1   
 24  12  25  1   
 25  12  26  1   
 26  12  27  1   
 27  14  28  1   
 28  14  29  1   
 29  14  30  1   
@<TRIPOS>SUBSTRUCTURE
  1 ****   3 GROUP 4 **** **** 0

# MOE 2024.06 (io_trps.svl 2023.06)
