@<TRIPOS>MOLECULE
NONAME
47 48 1 0 0 
SMALL
USER_CHARGES


@<TRIPOS>ATOM
  1 O        0.9000     3.3580     1.6880 O.2   1 <1>  -0.5700 
  2 C        0.2900     2.8200     0.7830 C.2   1 <1>   0.5440 
  3 N        0.9620     1.9650    -0.0550 N.am  1 <1>  -0.5470 
  4 C       -1.1240     3.0950     0.5870 C.ar  1 <1>   0.0860 
  5 C        2.2890     1.5140     0.0020 C.ar  1 <1>   0.1170 
  6 C       -2.0240     2.2140    -0.0420 C.ar  1 <1>   0.0830 
  7 C       -1.6400     4.3100     1.0420 C.ar  1 <1>  -0.1500 
  8 C        3.3670     2.3720    -0.2340 C.ar  1 <1>  -0.1430 
  9 C        2.5370     0.1660     0.2700 C.ar  1 <1>  -0.1430 
 10 O       -1.5580     1.0130    -0.4840 O.3   1 <1>  -0.3620 
 11 C       -3.3650     2.5640    -0.1970 C.ar  1 <1>  -0.1500 
 12 C       -2.9630     4.6660     0.8830 C.ar  1 <1>   0.0830 
 13 C        4.6610     1.8800    -0.1930 C.ar  1 <1>  -0.1500 
 14 C        3.1610     3.8500    -0.5410 C.3   1 <1>  -0.0970 
 15 C        3.8380    -0.3060     0.3000 C.ar  1 <1>  -0.1500 
 16 C        1.3930    -0.8040     0.5430 C.3   1 <1>  -0.0970 
 17 C       -2.3960     0.0020    -1.0070 C.3   1 <1>   0.0400 
 18 C       -3.8530     3.7800     0.2650 C.ar  1 <1>   0.0830 
 19 O       -3.3120     5.8900     1.3700 O.3   1 <1>  -0.3620 
 20 C        4.9050     0.5430     0.0690 C.ar  1 <1>  -0.1430 
 21 O       -5.1650     4.1210     0.1480 O.3   1 <1>  -0.3630 
 22 C       -4.0930     6.7530     0.5720 C.3   1 <1>   0.0400 
 23 C        6.3280     0.0190     0.1110 C.3   1 <1>  -0.0970 
 24 C       -6.1600     3.2080    -0.2620 C.3   1 <1>   0.0400 
 25 H        0.3360     1.3850    -0.6150 H     1 <1>   0.3700 
 26 H       -0.9830     5.0050     1.5360 H     1 <1>   0.1500 
 27 H       -4.0360     1.8870    -0.6820 H     1 <1>   0.1500 
 28 H        5.4890     2.5430    -0.3670 H     1 <1>   0.1500 
 29 H        2.9380     4.3800     0.3680 H     1 <1>   0.0800 
 30 H        2.3450     3.9800    -1.2280 H     1 <1>   0.0800 
 31 H        4.0420     4.2790    -0.9800 H     1 <1>   0.0800 
 32 H        4.0280    -1.3440     0.5100 H     1 <1>   0.1500 
 33 H        0.7950    -0.9240    -0.3410 H     1 <1>   0.0800 
 34 H        0.7750    -0.4240     1.3370 H     1 <1>   0.0800 
 35 H        1.7650    -1.7680     0.8380 H     1 <1>   0.0800 
 36 H       -1.7880    -0.8580    -1.2240 H     1 <1>   0.0800 
 37 H       -2.8550     0.3590    -1.9120 H     1 <1>   0.0800 
 38 H       -3.1380    -0.2540    -0.2710 H     1 <1>   0.0800 
 39 H       -3.9090     7.7620     0.8920 H     1 <1>   0.0800 
 40 H       -5.1310     6.5120     0.7120 H     1 <1>   0.0800 
 41 H       -3.8110     6.6350    -0.4590 H     1 <1>   0.0800 
 42 H        6.9540     0.5770    -0.5620 H     1 <1>   0.0800 
 43 H        6.3570    -1.0160    -0.1790 H     1 <1>   0.0800 
 44 H        6.7190     0.1120     1.1080 H     1 <1>   0.0800 
 45 H       -7.1140     3.6970    -0.1800 H     1 <1>   0.0800 
 46 H       -6.1340     2.3500     0.3860 H     1 <1>   0.0800 
 47 H       -5.9800     2.9290    -1.2840 H     1 <1>   0.0800 
@<TRIPOS>BOND
  1   1   2  2   
  2   2   3  am  
  3   2   4  1   
  4   3   5  1   
  5   3  25  1   
  6   4   6  ar  
  7   4   7  ar  
  8   5   8  ar  
  9   5   9  ar  
 10   6  10  1   
 11   6  11  ar  
 12   7  12  ar  
 13   7  26  1   
 14   8  13  ar  
 15   8  14  1   
 16   9  15  ar  
 17   9  16  1   
 18  10  17  1   
 19  11  18  ar  
 20  11  27  1   
 21  12  18  ar  
 22  12  19  1   
 23  13  20  ar  
 24  13  28  1   
 25  14  29  1   
 26  14  30  1   
 27  14  31  1   
 28  15  20  ar  
 29  15  32  1   
 30  16  33  1   
 31  16  34  1   
 32  16  35  1   
 33  17  36  1   
 34  17  37  1   
 35  17  38  1   
 36  18  21  1   
 37  19  22  1   
 38  20  23  1   
 39  21  24  1   
 40  22  39  1   
 41  22  40  1   
 42  22  41  1   
 43  23  42  1   
 44  23  43  1   
 45  23  44  1   
 46  24  45  1   
 47  24  46  1   
 48  24  47  1   
@<TRIPOS>SUBSTRUCTURE
  1 ****   2 GROUP 4 **** **** 0

# MOE 2024.06 (io_trps.svl 2023.06)
