@<TRIPOS>MOLECULE
NONAME
44 46 1 0 0 
SMALL
USER_CHARGES


@<TRIPOS>ATOM
  1 CL       2.5710     3.3000    -3.8090 Cl    1 <1>  -0.1240 
  2 C        3.0870     2.2080    -2.5540 C.2   1 <1>   0.1640 
  3 S        4.2870     1.0150    -2.9940 S.3   1 <1>  -0.0800 
  4 C        2.7250     2.1050    -1.2650 C.2   1 <1>  -0.1500 
  5 C        4.2900     0.3580    -1.3530 C.2   1 <1>  -0.0220 
  6 C        3.4140     1.0480    -0.5870 C.2   1 <1>  -0.1500 
  7 S        5.3860    -1.0350    -0.9990 S.o2  1 <1>   1.5000 
  8 O        5.0740    -2.1550    -1.8510 O.2   1 <1>  -0.6500 
  9 O        5.5150    -1.2100     0.4290 O.2   1 <1>  -0.6500 
 10 N        6.9090    -0.4800    -1.5560 N.am  1 <1>  -0.7570 
 11 C        7.8010     0.1720    -0.7230 C.ar  1 <1>   0.1990 
 12 C        8.9300    -0.4940    -0.2280 C.ar  1 <1>   0.0860 
 13 C        7.5690     1.4950    -0.3600 C.ar  1 <1>  -0.1500 
 14 C        9.1690    -1.8690    -0.5940 C.2   1 <1>   0.5440 
 15 C        9.7940     0.1950     0.6240 C.ar  1 <1>  -0.1500 
 16 C        8.4330     2.1590     0.4860 C.ar  1 <1>  -0.1500 
 17 O        9.3500    -2.1370    -1.7700 O.2   1 <1>  -0.5700 
 18 N        9.1530    -2.8870     0.3380 N.am  1 <1>  -0.6600 
 19 C        9.5510     1.5070     0.9810 C.ar  1 <1>  -0.1500 
 20 C        8.5900    -2.6830     1.7060 C.3   1 <1>   0.1400 
 21 C        9.6030    -4.2560    -0.0410 C.3   1 <1>   0.1400 
 22 C        7.8350    -3.8930     2.2750 C.3   1 <1>  -0.1600 
 23 C        8.4370    -5.0600    -0.6290 C.3   1 <1>  -0.1600 
 24 C        6.8200    -4.5220     1.3080 C.3   1 <1>  -0.1600 
 25 C        7.4440    -5.5990     0.4110 C.3   1 <1>  -0.1600 
 26 H        2.0030     2.7280    -0.7670 H     1 <1>   0.1500 
 27 H        3.2230     0.8480     0.4550 H     1 <1>   0.1500 
 28 H        7.3250    -1.2450    -2.0960 H     1 <1>   0.4200 
 29 H        6.7070     2.0040    -0.7500 H     1 <1>   0.1500 
 30 H       10.6640    -0.3130     1.0030 H     1 <1>   0.1500 
 31 H        8.2440     3.1830     0.7610 H     1 <1>   0.1500 
 32 H       10.2280     2.0250     1.6390 H     1 <1>   0.1500 
 33 H        7.8980    -1.8580     1.6810 H     1 <1>   0.0800 
 34 H        9.3900    -2.4200     2.3760 H     1 <1>   0.0800 
 35 H       10.0260    -4.7600     0.8100 H     1 <1>   0.0800 
 36 H       10.3760    -4.1720    -0.7850 H     1 <1>   0.0800 
 37 H        7.3000    -3.5480     3.1430 H     1 <1>   0.0800 
 38 H        8.5340    -4.6330     2.6220 H     1 <1>   0.0800 
 39 H        8.8480    -5.8990    -1.1610 H     1 <1>   0.0800 
 40 H        7.9180    -4.4530    -1.3510 H     1 <1>   0.0800 
 41 H        6.3530    -3.7620     0.7050 H     1 <1>   0.0800 
 42 H        6.0440    -4.9890     1.8900 H     1 <1>   0.0800 
 43 H        7.9340    -6.3350     1.0250 H     1 <1>   0.0800 
 44 H        6.6510    -6.1020    -0.1160 H     1 <1>   0.0800 
@<TRIPOS>BOND
  1   1   2  1   
  2   2   3  1   
  3   2   4  2   
  4   3   5  1   
  5   4   6  1   
  6   4  26  1   
  7   5   6  2   
  8   5   7  1   
  9   6  27  1   
 10   7   8  2   
 11   7   9  2   
 12   7  10  am  
 13  10  11  1   
 14  10  28  1   
 15  11  12  ar  
 16  11  13  ar  
 17  12  14  1   
 18  12  15  ar  
 19  13  16  ar  
 20  13  29  1   
 21  14  17  2   
 22  14  18  am  
 23  15  19  ar  
 24  15  30  1   
 25  16  19  ar  
 26  16  31  1   
 27  18  20  1   
 28  18  21  1   
 29  19  32  1   
 30  20  22  1   
 31  20  33  1   
 32  20  34  1   
 33  21  23  1   
 34  21  35  1   
 35  21  36  1   
 36  22  24  1   
 37  22  37  1   
 38  22  38  1   
 39  23  25  1   
 40  23  39  1   
 41  23  40  1   
 42  24  25  1   
 43  24  41  1   
 44  24  42  1   
 45  25  43  1   
 46  25  44  1   
@<TRIPOS>SUBSTRUCTURE
  1 ****  10 GROUP 4 **** **** 0

# MOE 2024.06 (io_trps.svl 2023.06)
