@<TRIPOS>MOLECULE
NONAME
41 43 1 0 0 
SMALL
USER_CHARGES


@<TRIPOS>ATOM
  1 S        1.7380    -0.7410     2.7500 S.3   1 <1>  -0.0800 
  2 C        1.2650    -0.8700     1.0500 C.2   1 <1>  -0.0450 
  3 C        0.2310    -1.4410     3.2970 C.2   1 <1>  -0.1100 
  4 C        2.1690    -0.4130     0.0280 C.2   1 <1>   0.7150 
  5 C        0.0260    -1.4200     0.9870 C.2   1 <1>  -0.1500 
  6 C       -0.5560    -1.7420     2.2480 C.2   1 <1>  -0.1500 
  7 O        1.8730    -0.4810    -1.1480 O.2   1 <1>  -0.5700 
  8 N        3.3790     0.1070     0.3560 N.am  1 <1>  -0.7300 
  9 C        4.2920     0.8560    -0.5650 C.3   1 <1>   0.6610 
 10 N        4.6200    -0.0760    -1.6670 N.am  1 <1>  -0.7300 
 11 C        5.6810     1.0120     0.0610 C.2   1 <1>   0.5690 
 12 C        3.8350     2.3020    -0.9940 C.3   1 <1>   1.0200 
 13 C        5.9210    -0.4040    -1.6350 C.2   1 <1>   0.6900 
 14 O        5.9030     1.6360     1.0730 O.2   1 <1>  -0.5700 
 15 N        6.5840     0.2740    -0.6520 N.am  1 <1>  -0.4200 
 16 F        4.7790     2.9790    -1.6470 F     1 <1>  -0.3400 
 17 F        2.7780     2.3030    -1.8010 F     1 <1>  -0.3400 
 18 F        3.4880     3.0630     0.0410 F     1 <1>  -0.3400 
 19 O        6.4140    -1.2300    -2.3670 O.2   1 <1>  -0.5700 
 20 C        8.0300     0.0980    -0.3800 C.3   1 <1>   0.2200 
 21 C        8.2490    -0.6180     0.9610 C.3   1 <1>  -0.1600 
 22 C        8.7640     1.4480    -0.4250 C.3   1 <1>  -0.1600 
 23 C        9.7470    -0.7960     1.2490 C.3   1 <1>  -0.1600 
 24 C       10.2610     1.2670    -0.1360 C.3   1 <1>  -0.1600 
 25 C       10.4840     0.5490     1.2030 C.3   1 <1>  -0.1600 
 26 H        0.0880    -1.5560     4.3580 H     1 <1>   0.1500 
 27 H       -0.5030    -1.6110     0.0690 H     1 <1>   0.1500 
 28 H       -1.5360    -2.1820     2.3120 H     1 <1>   0.1500 
 29 H        3.5800     0.2500     1.3490 H     1 <1>   0.3700 
 30 H        3.8840    -0.6690    -2.0610 H     1 <1>   0.3700 
 31 H        8.4480    -0.5230    -1.1550 H     1 <1>   0.0800 
 32 H        7.7770    -1.5840     0.9340 H     1 <1>   0.0800 
 33 H        7.8120    -0.0440     1.7590 H     1 <1>   0.0800 
 34 H        8.3520     2.1150     0.3120 H     1 <1>   0.0800 
 35 H        8.6420     1.8930    -1.3960 H     1 <1>   0.0800 
 36 H       10.1750    -1.4630     0.5190 H     1 <1>   0.0800 
 37 H        9.8760    -1.2440     2.2190 H     1 <1>   0.0800 
 38 H       10.7420     2.2300    -0.1120 H     1 <1>   0.0800 
 39 H       10.7130     0.6930    -0.9280 H     1 <1>   0.0800 
 40 H       11.5380     0.3870     1.3530 H     1 <1>   0.0800 
 41 H       10.1310     1.1760     2.0050 H     1 <1>   0.0800 
@<TRIPOS>BOND
  1   1   2  1   
  2   1   3  1   
  3   2   4  1   
  4   2   5  2   
  5   3   6  2   
  6   3  26  1   
  7   4   7  2   
  8   4   8  am  
  9   5   6  1   
 10   5  27  1   
 11   6  28  1   
 12   8   9  1   
 13   8  29  1   
 14   9  10  1   
 15   9  11  1   
 16   9  12  1   
 17  10  13  am  
 18  10  30  1   
 19  11  14  2   
 20  11  15  am  
 21  12  16  1   
 22  12  17  1   
 23  12  18  1   
 24  13  15  am  
 25  13  19  2   
 26  15  20  1   
 27  20  21  1   
 28  20  22  1   
 29  20  31  1   
 30  21  23  1   
 31  21  32  1   
 32  21  33  1   
 33  22  24  1   
 34  22  34  1   
 35  22  35  1   
 36  23  25  1   
 37  23  36  1   
 38  23  37  1   
 39  24  25  1   
 40  24  38  1   
 41  24  39  1   
 42  25  40  1   
 43  25  41  1   
@<TRIPOS>SUBSTRUCTURE
  1 ****   9 GROUP 4 **** **** 0

# MOE 2024.06 (io_trps.svl 2023.06)
