@<TRIPOS>MOLECULE
NONAME
37 38 1 0 0 
SMALL
USER_CHARGES


@<TRIPOS>ATOM
  1 F      -10.5760     5.4490     0.6840 F     1 <1>  -0.1900 
  2 C      -11.0480     4.3360     0.1870 C.ar  1 <1>   0.1900 
  3 C      -10.1650     3.3350    -0.2280 C.ar  1 <1>   0.0530 
  4 C      -12.4220     4.2180     0.1130 C.ar  1 <1>  -0.1500 
  5 C       -8.7240     3.4610    -0.1570 C.2   1 <1>   0.0870 
  6 C      -10.7560     2.1740    -0.7300 C.ar  1 <1>  -0.1500 
  7 C      -12.9690     3.0530    -0.3930 C.ar  1 <1>  -0.1500 
  8 O       -7.9660     2.3720    -0.1160 O.3   1 <1>  -0.2800 
  9 C       -7.9070     4.5470    -0.1210 C.2   1 <1>  -0.1500 
 10 C      -12.1320     2.0320    -0.8130 C.ar  1 <1>  -0.1500 
 11 C       -6.7010     2.7240    -0.0470 C.2   1 <1>  -0.0400 
 12 C       -6.5960     4.0730    -0.0480 C.2   1 <1>  -0.1500 
 13 C       -5.6760     1.6090     0.0190 C.3   1 <1>   0.5230 
 14 N       -4.3140     2.1890     0.1300 N.4   1 <1>  -0.9060 
 15 C       -3.1970     1.2510     0.2130 C.3   1 <1>   0.5030 
 16 C       -1.9340     2.0990     0.3160 C.3   1 <1>  -0.2400 
 17 C       -3.3420     0.3820     1.4610 C.3   1 <1>  -0.2400 
 18 C       -3.1450     0.3940    -1.0520 C.3   1 <1>  -0.2400 
 19 H      -13.0520     5.0230     0.4470 H     1 <1>   0.1500 
 20 H      -10.1290     1.3670    -1.0650 H     1 <1>   0.1500 
 21 H      -14.0380     2.9390    -0.4600 H     1 <1>   0.1500 
 22 H       -8.1890     5.5860    -0.1440 H     1 <1>   0.1500 
 23 H      -12.5550     1.1240    -1.2060 H     1 <1>   0.1500 
 24 H       -5.7330     4.7130    -0.0030 H     1 <1>   0.1500 
 25 H       -5.7580     1.0060    -0.8700 H     1 <1>   0.0800 
 26 H       -5.8910     0.9900     0.8750 H     1 <1>   0.0800 
 27 H       -4.2960     2.7860     0.9600 H     1 <1>   0.4500 
 28 H       -4.1660     2.7970    -0.6790 H     1 <1>   0.4500 
 29 H       -1.9480     2.7150     1.1980 H     1 <1>   0.0800 
 30 H       -1.8100     2.7240    -0.5510 H     1 <1>   0.0800 
 31 H       -1.0690     1.4610     0.3810 H     1 <1>   0.0800 
 32 H       -3.4280     0.9850     2.3480 H     1 <1>   0.0800 
 33 H       -2.4690    -0.2390     1.5730 H     1 <1>   0.0800 
 34 H       -4.1900    -0.2770     1.3940 H     1 <1>   0.0800 
 35 H       -3.0920     1.0070    -1.9350 H     1 <1>   0.0800 
 36 H       -3.9920    -0.2640    -1.1240 H     1 <1>   0.0800 
 37 H       -2.2650    -0.2250    -1.0320 H     1 <1>   0.0800 
@<TRIPOS>BOND
  1   1   2  1   
  2   2   3  ar  
  3   2   4  ar  
  4   3   5  1   
  5   3   6  ar  
  6   4   7  ar  
  7   4  19  1   
  8   5   8  1   
  9   5   9  2   
 10   6  10  ar  
 11   6  20  1   
 12   7  10  ar  
 13   7  21  1   
 14   8  11  1   
 15   9  12  1   
 16   9  22  1   
 17  10  23  1   
 18  11  12  2   
 19  11  13  1   
 20  12  24  1   
 21  13  14  1   
 22  13  25  1   
 23  13  26  1   
 24  14  15  1   
 25  14  27  1   
 26  14  28  1   
 27  15  16  1   
 28  15  17  1   
 29  15  18  1   
 30  16  29  1   
 31  16  30  1   
 32  16  31  1   
 33  17  32  1   
 34  17  33  1   
 35  17  34  1   
 36  18  35  1   
 37  18  36  1   
 38  18  37  1   
@<TRIPOS>SUBSTRUCTURE
  1 ****   8 GROUP 4 **** **** 0

# MOE 2024.06 (io_trps.svl 2023.06)
