@<TRIPOS>MOLECULE
NONAME
38 40 1 0 0 
SMALL
USER_CHARGES


@<TRIPOS>ATOM
  1 O       -1.0110     0.2540     0.3050 O.3   1 <1>  -0.3630 
  2 C       -0.7250     1.5100    -0.1310 C.ar  1 <1>   0.0830 
  3 C       -0.2170    -0.4000     1.2700 C.3   1 <1>   0.0400 
  4 C       -1.6060     2.1050    -1.0300 C.ar  1 <1>  -0.1440 
  5 C        0.4090     2.2060     0.2860 C.ar  1 <1>  -0.1500 
  6 C       -1.3380     3.3810    -1.5050 C.ar  1 <1>  -0.1500 
  7 C       -2.8580     1.3810    -1.5120 C.3   1 <1>   0.3530 
  8 C        0.6620     3.4790    -0.1920 C.ar  1 <1>  -0.1500 
  9 C       -0.2110     4.0680    -1.0890 C.ar  1 <1>  -0.1500 
 10 N       -4.0350     2.2420    -1.2640 N.pl3 1 <1>  -0.8690 
 11 C       -5.2560     1.6170    -1.0550 C.ar  1 <1>   0.1000 
 12 C       -5.9780     1.8770     0.1050 C.ar  1 <1>  -0.1500 
 13 C       -5.7800     0.7280    -1.9920 C.ar  1 <1>  -0.1500 
 14 C       -7.1880     1.2450     0.3140 C.ar  1 <1>  -0.1430 
 15 C       -6.9930     0.0960    -1.7760 C.ar  1 <1>  -0.1500 
 16 C       -7.6900     0.3650    -0.6120 C.ar  1 <1>  -0.1430 
 17 C       -8.1150     1.3840     1.4960 C.3   1 <1>  -0.0170 
 18 C       -9.0160    -0.2000    -0.1710 C.3   1 <1>  -0.0170 
 19 C       -9.4060     0.6940     1.0200 C.3   1 <1>  -0.1600 
 20 H       -0.6600    -1.3580     1.4730 H     1 <1>   0.0800 
 21 H       -0.2000     0.1920     2.1680 H     1 <1>   0.0800 
 22 H        0.7740    -0.5330     0.8750 H     1 <1>   0.0800 
 23 H        1.1060     1.7760     0.9780 H     1 <1>   0.1500 
 24 H       -2.0140     3.8450    -2.2040 H     1 <1>   0.1500 
 25 H       -2.9910     0.4410    -1.0060 H     1 <1>   0.0800 
 26 H       -2.7750     1.1890    -2.5670 H     1 <1>   0.0800 
 27 H        1.5380     4.0130     0.1320 H     1 <1>   0.1500 
 28 H       -0.0150     5.0570    -1.4630 H     1 <1>   0.1500 
 29 H       -3.7910     2.9050    -0.5220 H     1 <1>   0.4000 
 30 H       -5.5920     2.5650     0.8330 H     1 <1>   0.1500 
 31 H       -5.2320     0.5390    -2.8950 H     1 <1>   0.1500 
 32 H       -7.3900    -0.5890    -2.5030 H     1 <1>   0.1500 
 33 H       -8.2860     2.4160     1.7440 H     1 <1>   0.0800 
 34 H       -7.6960     0.8660     2.3400 H     1 <1>   0.0800 
 35 H       -8.8830    -1.2190     0.1460 H     1 <1>   0.0800 
 36 H       -9.7480    -0.1520    -0.9580 H     1 <1>   0.0800 
 37 H      -10.0920     1.4480     0.6750 H     1 <1>   0.0800 
 38 H       -9.8720     0.1300     1.8080 H     1 <1>   0.0800 
@<TRIPOS>BOND
  1   1   2  1   
  2   1   3  1   
  3   2   4  ar  
  4   2   5  ar  
  5   3  20  1   
  6   3  21  1   
  7   3  22  1   
  8   4   6  ar  
  9   4   7  1   
 10   5   8  ar  
 11   5  23  1   
 12   6   9  ar  
 13   6  24  1   
 14   7  10  1   
 15   7  25  1   
 16   7  26  1   
 17   8   9  ar  
 18   8  27  1   
 19   9  28  1   
 20  10  11  1   
 21  10  29  1   
 22  11  12  ar  
 23  11  13  ar  
 24  12  14  ar  
 25  12  30  1   
 26  13  15  ar  
 27  13  31  1   
 28  14  16  ar  
 29  14  17  1   
 30  15  16  ar  
 31  15  32  1   
 32  16  18  1   
 33  17  19  1   
 34  17  33  1   
 35  17  34  1   
 36  18  19  1   
 37  18  35  1   
 38  18  36  1   
 39  19  37  1   
 40  19  38  1   
@<TRIPOS>SUBSTRUCTURE
  1 ****  10 GROUP 4 **** **** 0

# MOE 2024.06 (io_trps.svl 2023.06)
