@<TRIPOS>MOLECULE
NONAME
28 30 1 0 0 
SMALL
USER_CHARGES


@<TRIPOS>ATOM
  1 N       -5.5190     1.6330     0.1350 N.pl3 1 <1>  -0.8440 
  2 C       -6.8080     1.9380     0.0810 C.cat 1 <1>   1.2000 
  3 C       -4.4470     2.6500     0.2630 C.3   1 <1>   0.1680 
  4 N       -7.2320     3.1980     0.1290 N.pl3 1 <1>  -0.7050 
  5 N       -7.8240     1.0730    -0.0160 N.pl3 1 <1>  -0.7050 
  6 C       -4.9490     3.9990    -0.2740 C.3   1 <1>  -0.1600 
  7 C       -8.6130     3.1680     0.0690 C.ar  1 <1>   0.3110 
  8 C       -6.3400     4.3700     0.2580 C.3   1 <1>   0.1680 
  9 C       -8.9860     1.8370    -0.0240 C.ar  1 <1>   0.3110 
 10 C       -7.8060    -0.4120    -0.1030 C.3   1 <1>   0.0880 
 11 C       -9.5680     4.1780     0.0870 C.ar  1 <1>  -0.1500 
 12 C      -10.3280     1.4830    -0.1030 C.ar  1 <1>  -0.1500 
 13 C      -10.9020     3.8250     0.0090 C.ar  1 <1>  -0.1500 
 14 C      -11.2800     2.4850    -0.0850 C.ar  1 <1>  -0.1500 
 15 H       -5.2460     0.6540     0.1320 H     1 <1>   0.4500 
 16 H       -3.5770     2.3390    -0.2930 H     1 <1>   0.0800 
 17 H       -4.1710     2.7460     1.3010 H     1 <1>   0.0800 
 18 H       -4.9840     3.9580    -1.3500 H     1 <1>   0.0800 
 19 H       -4.2480     4.7720    -0.0130 H     1 <1>   0.0800 
 20 H       -6.2770     4.6530     1.2960 H     1 <1>   0.0800 
 21 H       -6.7380     5.2010    -0.3020 H     1 <1>   0.0800 
 22 H       -6.7980    -0.7880    -0.1070 H     1 <1>   0.0800 
 23 H       -8.2960    -0.7300    -1.0080 H     1 <1>   0.0800 
 24 H       -8.3290    -0.8330     0.7400 H     1 <1>   0.0800 
 25 H       -9.2680     5.2070     0.1610 H     1 <1>   0.1500 
 26 H      -10.6130     0.4490    -0.1750 H     1 <1>   0.1500 
 27 H      -11.6650     4.5880     0.0210 H     1 <1>   0.1500 
 28 H      -12.3280     2.2360    -0.1450 H     1 <1>   0.1500 
@<TRIPOS>BOND
  1   1   2  ar  
  2   1   3  1   
  3   1  15  1   
  4   2   4  ar  
  5   2   5  ar  
  6   3   6  1   
  7   3  16  1   
  8   3  17  1   
  9   4   7  1   
 10   4   8  1   
 11   5   9  1   
 12   5  10  1   
 13   6   8  1   
 14   6  18  1   
 15   6  19  1   
 16   7   9  ar  
 17   7  11  ar  
 18   8  20  1   
 19   8  21  1   
 20   9  12  ar  
 21  10  22  1   
 22  10  23  1   
 23  10  24  1   
 24  11  13  ar  
 25  11  25  1   
 26  12  14  ar  
 27  12  26  1   
 28  13  14  ar  
 29  13  27  1   
 30  14  28  1   
@<TRIPOS>SUBSTRUCTURE
  1 ****   4 GROUP 4 **** **** 0

# MOE 2024.06 (io_trps.svl 2023.06)
