@<TRIPOS>MOLECULE
NONAME
48 51 1 0 0 
SMALL
USER_CHARGES


@<TRIPOS>ATOM
  1 O       -5.7000    -3.1970     1.4030 O.3   1 <1>  -0.6800 
  2 C       -6.0320    -2.0820     0.6270 C.3   1 <1>   0.2000 
  3 C       -4.7260    -1.4290     0.1110 C.3   1 <1>   0.3430 
  4 C       -6.8900    -1.1130     1.4600 C.3   1 <1>   0.0960 
  5 N       -3.7260    -2.4590    -0.3000 N.4   1 <1>  -0.9590 
  6 N       -7.0210     0.1780     0.7500 N.pl3 1 <1>   0.0480 
  7 C       -2.3380    -1.9280    -0.2170 C.3   1 <1>   0.3430 
  8 C       -4.0390    -3.0380    -1.6370 C.3   1 <1>   0.3430 
  9 C       -7.5320     0.2490    -0.5330 C.ar  1 <1>  -0.1520 
 10 C       -6.0800     1.1850     0.8850 C.ar  1 <1>  -0.1520 
 11 C       -1.3400    -3.0530    -0.4970 C.3   1 <1>  -0.1600 
 12 C       -3.0700    -4.1820    -1.9400 C.3   1 <1>  -0.1600 
 13 C       -6.9020     1.2800    -1.2180 C.ar  1 <1>   0.0000 
 14 C       -8.5020    -0.5330    -1.1650 C.ar  1 <1>  -0.1500 
 15 C       -5.9790     1.8750    -0.3170 C.ar  1 <1>   0.0000 
 16 C       -5.2780     1.5390     1.9730 C.ar  1 <1>  -0.1500 
 17 C       -1.6070    -3.7290    -1.8480 C.3   1 <1>  -0.1600 
 18 C       -7.2280     1.5340    -2.5490 C.ar  1 <1>  -0.1500 
 19 C       -8.8140    -0.2760    -2.4830 C.ar  1 <1>  -0.1500 
 20 C       -5.0660     2.9200    -0.4480 C.ar  1 <1>  -0.1500 
 21 C       -4.3760     2.5710     1.8330 C.ar  1 <1>  -0.1500 
 22 C       -8.1770     0.7550    -3.1750 C.ar  1 <1>  -0.1500 
 23 C       -4.2690     3.2610     0.6240 C.ar  1 <1>  -0.1500 
 24 H       -6.5020    -3.6680     1.7200 H     1 <1>   0.4000 
 25 H       -6.6080    -2.4330    -0.2120 H     1 <1>   0.0800 
 26 H       -4.3160    -0.8340     0.9100 H     1 <1>   0.0800 
 27 H       -4.9450    -0.7610    -0.7070 H     1 <1>   0.0800 
 28 H       -6.4310    -0.9380     2.4160 H     1 <1>   0.0800 
 29 H       -7.8730    -1.5180     1.6150 H     1 <1>   0.0800 
 30 H       -3.8350    -3.2130     0.4000 H     1 <1>   0.4500 
 31 H       -2.1560    -1.5210     0.7640 H     1 <1>   0.0800 
 32 H       -2.2060    -1.1410    -0.9420 H     1 <1>   0.0800 
 33 H       -3.9440    -2.2760    -2.3940 H     1 <1>   0.0800 
 34 H       -5.0500    -3.4110    -1.6520 H     1 <1>   0.0800 
 35 H       -1.3940    -3.7810     0.2940 H     1 <1>   0.0800 
 36 H       -0.3430    -2.6470    -0.4920 H     1 <1>   0.0800 
 37 H       -3.2660    -4.5550    -2.9310 H     1 <1>   0.0800 
 38 H       -3.2480    -4.9890    -1.2510 H     1 <1>   0.0800 
 39 H       -9.0090    -1.3170    -0.6320 H     1 <1>   0.1500 
 40 H       -5.3670     1.0250     2.9140 H     1 <1>   0.1500 
 41 H       -0.9530    -4.5760    -1.9700 H     1 <1>   0.0800 
 42 H       -1.3950    -3.0350    -2.6450 H     1 <1>   0.0800 
 43 H       -6.7380     2.3360    -3.0720 H     1 <1>   0.1500 
 44 H       -9.5610    -0.8640    -2.9890 H     1 <1>   0.1500 
 45 H       -4.9970     3.4510    -1.3800 H     1 <1>   0.1500 
 46 H       -3.7520     2.8630     2.6600 H     1 <1>   0.1500 
 47 H       -8.4400     0.9420    -4.2020 H     1 <1>   0.1500 
 48 H       -3.5620     4.0690     0.5380 H     1 <1>   0.1500 
@<TRIPOS>BOND
  1   1   2  1   
  2   1  24  1   
  3   2   3  1   
  4   2   4  1   
  5   2  25  1   
  6   3   5  1   
  7   3  26  1   
  8   3  27  1   
  9   4   6  1   
 10   4  28  1   
 11   4  29  1   
 12   5   7  1   
 13   5   8  1   
 14   5  30  1   
 15   6   9  1   
 16   6  10  1   
 17   7  11  1   
 18   7  31  1   
 19   7  32  1   
 20   8  12  1   
 21   8  33  1   
 22   8  34  1   
 23   9  13  ar  
 24   9  14  ar  
 25  10  15  ar  
 26  10  16  ar  
 27  11  17  1   
 28  11  35  1   
 29  11  36  1   
 30  12  17  1   
 31  12  37  1   
 32  12  38  1   
 33  13  15  1   
 34  13  18  ar  
 35  14  19  ar  
 36  14  39  1   
 37  15  20  ar  
 38  16  21  ar  
 39  16  40  1   
 40  17  41  1   
 41  17  42  1   
 42  18  22  ar  
 43  18  43  1   
 44  19  22  ar  
 45  19  44  1   
 46  20  23  ar  
 47  20  45  1   
 48  21  23  ar  
 49  21  46  1   
 50  22  47  1   
 51  23  48  1   
@<TRIPOS>SUBSTRUCTURE
  1 ****   3 GROUP 4 **** **** 0

# MOE 2024.06 (io_trps.svl 2023.06)
