@<TRIPOS>MOLECULE
NONAME
37 38 1 0 0 
SMALL
USER_CHARGES


@<TRIPOS>ATOM
  1 O       -0.7660    -2.9750     1.4930 O.2   1 <1>  -0.5700 
  2 C       -0.9740    -2.2470     0.5400 C.2   1 <1>   0.6900 
  3 N       -2.2530    -1.8580     0.2360 N.am  1 <1>  -0.6600 
  4 N        0.0440    -1.8170    -0.2590 N.am  1 <1>  -0.5470 
  5 C       -3.4380    -2.4940     0.8870 C.3   1 <1>   0.1400 
  6 C       -2.5960    -0.6090    -0.5090 C.3   1 <1>   0.1400 
  7 C        1.4450    -1.9410    -0.2090 C.ar  1 <1>   0.1170 
  8 C       -4.2420    -1.4530     1.6820 C.3   1 <1>   0.1200 
  9 C       -3.4570     0.3210     0.3650 C.3   1 <1>   0.1200 
 10 C        2.1780    -1.6010    -1.3510 C.ar  1 <1>   0.0830 
 11 C        2.1290    -2.3700     0.9230 C.ar  1 <1>  -0.1500 
 12 O       -4.5700    -0.3600     0.8700 O.3   1 <1>  -0.5600 
 13 O        1.4720    -1.1690    -2.4420 O.3   1 <1>  -0.3630 
 14 C        3.5650    -1.7050    -1.3450 C.ar  1 <1>  -0.1500 
 15 C        3.5090    -2.4730     0.9260 C.ar  1 <1>  -0.1500 
 16 C        2.1240    -0.8890    -3.6630 C.3   1 <1>   0.0400 
 17 C        4.2330    -2.1410    -0.2140 C.ar  1 <1>   0.0830 
 18 O        5.5890    -2.2140    -0.2980 O.3   1 <1>  -0.3630 
 19 C        6.3570    -2.6660     0.7950 C.3   1 <1>   0.0400 
 20 H       -0.2740    -1.4500    -1.1510 H     1 <1>   0.3700 
 21 H       -3.1330    -3.2880     1.5460 H     1 <1>   0.0800 
 22 H       -4.0690    -2.9230     0.1280 H     1 <1>   0.0800 
 23 H       -3.1440    -0.8660    -1.3980 H     1 <1>   0.0800 
 24 H       -1.7080    -0.0790    -0.8030 H     1 <1>   0.0800 
 25 H       -3.6720    -1.1020     2.5250 H     1 <1>   0.0800 
 26 H       -5.1590    -1.8860     2.0390 H     1 <1>   0.0800 
 27 H       -3.8160     1.1510    -0.2170 H     1 <1>   0.0800 
 28 H       -2.8820     0.7020     1.1910 H     1 <1>   0.0800 
 29 H        1.5870    -2.6270     1.8140 H     1 <1>   0.1500 
 30 H        4.1580    -1.4550    -2.2020 H     1 <1>   0.1500 
 31 H        3.9940    -2.8120     1.8210 H     1 <1>   0.1500 
 32 H        1.3790    -0.6060    -4.3840 H     1 <1>   0.0800 
 33 H        2.6360    -1.7750    -3.9960 H     1 <1>   0.0800 
 34 H        2.8140    -0.0780    -3.5130 H     1 <1>   0.0800 
 35 H        7.3920    -2.6510     0.5050 H     1 <1>   0.0800 
 36 H        6.0600    -3.6710     1.0380 H     1 <1>   0.0800 
 37 H        6.2010    -2.0050     1.6290 H     1 <1>   0.0800 
@<TRIPOS>BOND
  1   1   2  2   
  2   2   3  am  
  3   2   4  am  
  4   3   5  1   
  5   3   6  1   
  6   4   7  1   
  7   4  20  1   
  8   5   8  1   
  9   5  21  1   
 10   5  22  1   
 11   6   9  1   
 12   6  23  1   
 13   6  24  1   
 14   7  10  ar  
 15   7  11  ar  
 16   8  12  1   
 17   8  25  1   
 18   8  26  1   
 19   9  12  1   
 20   9  27  1   
 21   9  28  1   
 22  10  13  1   
 23  10  14  ar  
 24  11  15  ar  
 25  11  29  1   
 26  13  16  1   
 27  14  17  ar  
 28  14  30  1   
 29  15  17  ar  
 30  15  31  1   
 31  16  32  1   
 32  16  33  1   
 33  16  34  1   
 34  17  18  1   
 35  18  19  1   
 36  19  35  1   
 37  19  36  1   
 38  19  37  1   
@<TRIPOS>SUBSTRUCTURE
  1 ****   4 GROUP 4 **** **** 0

# MOE 2024.06 (io_trps.svl 2023.06)
