@<TRIPOS>MOLECULE
NONAME
41 42 1 0 0 
SMALL
USER_CHARGES


@<TRIPOS>ATOM
  1 CL      -1.3360    -1.2790    -2.4690 Cl    1 <1>  -0.1770 
  2 C       -2.6710    -1.2250    -1.3500 C.ar  1 <1>   0.1770 
  3 C       -3.9650    -1.2380    -1.8330 C.ar  1 <1>  -0.1500 
  4 C       -2.4200    -1.1700     0.0070 C.ar  1 <1>  -0.1500 
  5 C       -5.0210    -1.1920    -0.9380 C.ar  1 <1>  -0.1500 
  6 C       -3.4850    -1.1250     0.8920 C.ar  1 <1>  -0.1500 
  7 C       -4.8020    -1.1320     0.4360 C.ar  1 <1>  -0.0090 
  8 S       -6.1990    -1.0650     1.5950 S.o2  1 <1>   1.4470 
  9 O       -5.7470    -0.6930     2.9170 O.2   1 <1>  -0.6500 
 10 O       -7.0140    -2.2460     1.4200 O.2   1 <1>  -0.6500 
 11 N       -7.1230     0.2320     1.0230 N.am  1 <1>  -0.8490 
 12 C       -8.4270     0.2740     1.7420 C.3   1 <1>   0.2570 
 13 C       -6.4310     1.5220     1.1340 C.3   1 <1>   0.1960 
 14 C       -9.4840     1.2070     1.1350 C.2   1 <1>   0.5690 
 15 C       -6.6090     2.2950    -0.1690 C.3   1 <1>  -0.2400 
 16 O       -9.7990     2.1830     1.7790 O.2   1 <1>  -0.5700 
 17 N      -10.0470     0.9450    -0.0910 N.am  1 <1>  -0.6600 
 18 C       -9.6640    -0.1930    -0.9820 C.3   1 <1>   0.1400 
 19 C      -11.0700     1.8480    -0.6970 C.3   1 <1>   0.1400 
 20 C      -10.9140    -0.8830    -1.5540 C.3   1 <1>   0.1200 
 21 C      -12.2350     1.0370    -1.2850 C.3   1 <1>   0.1200 
 22 O      -11.7610     0.0510    -2.1600 O.3   1 <1>  -0.5600 
 23 H       -4.1380    -1.2830    -2.8940 H     1 <1>   0.1500 
 24 H       -1.4040    -1.1640     0.3620 H     1 <1>   0.1500 
 25 H       -6.0330    -1.2030    -1.3080 H     1 <1>   0.1500 
 26 H       -3.2910    -1.0830     1.9520 H     1 <1>   0.1500 
 27 H       -8.2630     0.5630     2.7660 H     1 <1>   0.0800 
 28 H       -8.8650    -0.7080     1.7650 H     1 <1>   0.0800 
 29 H       -5.3760     1.3760     1.2950 H     1 <1>   0.0800 
 30 H       -6.8060     2.0970     1.9660 H     1 <1>   0.0800 
 31 H       -7.6420     2.5390    -0.3350 H     1 <1>   0.0800 
 32 H       -6.2390     1.7200    -0.9980 H     1 <1>   0.0800 
 33 H       -6.0550     3.2150    -0.1170 H     1 <1>   0.0800 
 34 H       -9.0760    -0.9220    -0.4550 H     1 <1>   0.0800 
 35 H       -9.0680     0.1840    -1.7950 H     1 <1>   0.0800 
 36 H      -10.6110     2.4270    -1.4790 H     1 <1>   0.0800 
 37 H      -11.4530     2.5330     0.0400 H     1 <1>   0.0800 
 38 H      -11.4580    -1.3890    -0.7750 H     1 <1>   0.0800 
 39 H      -10.6310    -1.6030    -2.3010 H     1 <1>   0.0800 
 40 H      -12.8920     1.6810    -1.8420 H     1 <1>   0.0800 
 41 H      -12.7990     0.5620    -0.5010 H     1 <1>   0.0800 
@<TRIPOS>BOND
  1   1   2  1   
  2   2   3  ar  
  3   2   4  ar  
  4   3   5  ar  
  5   3  23  1   
  6   4   6  ar  
  7   4  24  1   
  8   5   7  ar  
  9   5  25  1   
 10   6   7  ar  
 11   6  26  1   
 12   7   8  1   
 13   8   9  2   
 14   8  10  2   
 15   8  11  am  
 16  11  12  1   
 17  11  13  1   
 18  12  14  1   
 19  12  27  1   
 20  12  28  1   
 21  13  15  1   
 22  13  29  1   
 23  13  30  1   
 24  14  16  2   
 25  14  17  am  
 26  15  31  1   
 27  15  32  1   
 28  15  33  1   
 29  17  18  1   
 30  17  19  1   
 31  18  20  1   
 32  18  34  1   
 33  18  35  1   
 34  19  21  1   
 35  19  36  1   
 36  19  37  1   
 37  20  22  1   
 38  20  38  1   
 39  20  39  1   
 40  21  22  1   
 41  21  40  1   
 42  21  41  1   
@<TRIPOS>SUBSTRUCTURE
  1 ****  11 GROUP 4 **** **** 0

# MOE 2024.06 (io_trps.svl 2023.06)
