@<TRIPOS>MOLECULE
NONAME
36 37 1 0 0 
SMALL
USER_CHARGES


@<TRIPOS>ATOM
  1 O        0.3010     0.1530     0.8270 O.2   1 <1>  -0.5700 
  2 C        0.0460     1.2850     0.5000 C.2   1 <1>   0.6300 
  3 N       -1.2040     1.7380     0.1900 N.am  1 <1>  -0.5470 
  4 C        1.1790     2.2990     0.4430 C.3   1 <1>  -0.1000 
  5 C       -2.4490     1.0890     0.1380 C.ar  1 <1>   0.1170 
  6 C        1.3300     3.2630    -0.7020 C.3   1 <1>  -0.2000 
  7 C        2.2990     2.1340    -0.5430 C.3   1 <1>  -0.2000 
  8 C       -3.6010     1.8660     0.1300 C.ar  1 <1>  -0.1500 
  9 C       -2.5880    -0.2950     0.0810 C.ar  1 <1>  -0.1500 
 10 C       -4.8530     1.2810     0.0720 C.ar  1 <1>  -0.1500 
 11 C       -3.8370    -0.8870     0.0240 C.ar  1 <1>  -0.1500 
 12 C       -4.9830    -0.0960     0.0200 C.ar  1 <1>   0.0830 
 13 O       -6.2480    -0.5900    -0.0340 O.3   1 <1>  -0.3630 
 14 C       -6.4800    -1.9800    -0.0600 C.3   1 <1>   0.1200 
 15 C       -7.9910    -2.2120    -0.1010 C.3   1 <1>  -0.1600 
 16 C       -8.3220    -3.7100    -0.1310 C.3   1 <1>  -0.1600 
 17 C       -9.8350    -3.9370    -0.1720 C.3   1 <1>  -0.2400 
 18 H       -1.2360     2.7330    -0.0170 H     1 <1>   0.3700 
 19 H        1.4520     2.6330     1.4280 H     1 <1>   0.1000 
 20 H        1.6720     4.2630    -0.4980 H     1 <1>   0.1000 
 21 H        0.6530     3.2210    -1.5380 H     1 <1>   0.1000 
 22 H        2.2540     1.3010    -1.2250 H     1 <1>   0.1000 
 23 H        3.3030     2.3440    -0.2170 H     1 <1>   0.1000 
 24 H       -3.5260     2.9370     0.1730 H     1 <1>   0.1500 
 25 H       -1.7170    -0.9240     0.0780 H     1 <1>   0.1500 
 26 H       -5.7410     1.8880     0.0680 H     1 <1>   0.1500 
 27 H       -3.8950    -1.9570    -0.0160 H     1 <1>   0.1500 
 28 H       -6.0530    -2.4120     0.8280 H     1 <1>   0.0800 
 29 H       -6.0090    -2.3860    -0.9380 H     1 <1>   0.0800 
 30 H       -8.3940    -1.7380    -0.9790 H     1 <1>   0.0800 
 31 H       -8.4370    -1.7630     0.7690 H     1 <1>   0.0800 
 32 H       -7.9160    -4.1880     0.7440 H     1 <1>   0.0800 
 33 H       -7.8730    -4.1630    -0.9990 H     1 <1>   0.0800 
 34 H      -10.3030    -3.5110     0.6980 H     1 <1>   0.0800 
 35 H      -10.0490    -4.9910    -0.1930 H     1 <1>   0.0800 
 36 H      -10.2600    -3.4850    -1.0510 H     1 <1>   0.0800 
@<TRIPOS>BOND
  1   1   2  2   
  2   2   3  am  
  3   2   4  1   
  4   3   5  1   
  5   3  18  1   
  6   4   6  1   
  7   4   7  1   
  8   4  19  1   
  9   5   8  ar  
 10   5   9  ar  
 11   6   7  1   
 12   6  20  1   
 13   6  21  1   
 14   7  22  1   
 15   7  23  1   
 16   8  10  ar  
 17   8  24  1   
 18   9  11  ar  
 19   9  25  1   
 20  10  12  ar  
 21  10  26  1   
 22  11  12  ar  
 23  11  27  1   
 24  12  13  1   
 25  13  14  1   
 26  14  15  1   
 27  14  28  1   
 28  14  29  1   
 29  15  16  1   
 30  15  30  1   
 31  15  31  1   
 32  16  17  1   
 33  16  32  1   
 34  16  33  1   
 35  17  34  1   
 36  17  35  1   
 37  17  36  1   
@<TRIPOS>SUBSTRUCTURE
  1 ****   9 GROUP 4 **** **** 0

# MOE 2024.06 (io_trps.svl 2023.06)
