@<TRIPOS>MOLECULE
NONAME
43 44 1 0 0 
SMALL
USER_CHARGES


@<TRIPOS>ATOM
  1 O        0.4200     1.1700    -1.3690 O.2   1 <1>  -0.5700 
  2 C       -0.4880     0.3800    -1.4610 C.2   1 <1>   0.6590 
  3 O       -1.7540     0.7470    -1.3100 O.3   1 <1>  -0.4300 
  4 C       -0.2380    -1.1000    -1.7730 C.3   1 <1>   0.1710 
  5 C       -2.1050     2.0720    -0.9740 C.3   1 <1>   0.1200 
  6 N       -0.3950    -2.0340    -0.6220 N.3   1 <1>  -0.8100 
  7 C       -3.6220     2.1590    -0.7590 C.3   1 <1>  -0.0800 
  8 C        0.5840    -1.7410     0.4390 C.3   1 <1>   0.1100 
  9 C       -0.3010    -3.4300    -1.0700 C.3   1 <1>   0.1100 
 10 C       -4.0330     3.6170    -0.4800 C.3   1 <1>  -0.0220 
 11 C       -4.1010     1.2420     0.3820 C.3   1 <1>  -0.1600 
 12 C        0.3250    -2.6380     1.6540 C.3   1 <1>  -0.1600 
 13 C       -0.5920    -4.3770     0.0970 C.3   1 <1>  -0.1600 
 14 C       -5.4740     3.7130    -0.0080 C.2   1 <1>  -0.2880 
 15 C       -5.6310     1.2590     0.5110 C.3   1 <1>  -0.0220 
 16 C        0.3590    -4.1220     1.2720 C.3   1 <1>  -0.1600 
 17 C       -6.1930     2.6730     0.4230 C.2   1 <1>  -0.2760 
 18 C       -7.6420     2.7920     0.8640 C.3   1 <1>  -0.1020 
 19 H        0.7550    -1.1930    -2.1740 H     1 <1>   0.0800 
 20 H       -0.9330    -1.3800    -2.5440 H     1 <1>   0.0800 
 21 H       -1.7930     2.7140    -1.7800 H     1 <1>   0.0800 
 22 H       -1.5770     2.3430    -0.0760 H     1 <1>   0.0800 
 23 H       -4.1070     1.8510    -1.6700 H     1 <1>   0.0800 
 24 H        0.4970    -0.7120     0.7460 H     1 <1>   0.0800 
 25 H        1.5830    -1.9020     0.0710 H     1 <1>   0.0800 
 26 H        0.6840    -3.6240    -1.4620 H     1 <1>   0.0800 
 27 H       -1.0220    -3.6060    -1.8510 H     1 <1>   0.0800 
 28 H       -3.9150     4.1940    -1.3810 H     1 <1>   0.0800 
 29 H       -3.3990     4.0440     0.2770 H     1 <1>   0.0800 
 30 H       -3.6680     1.5780     1.3080 H     1 <1>   0.0800 
 31 H       -3.7770     0.2300     0.2140 H     1 <1>   0.0800 
 32 H       -0.6390    -2.3900     2.0630 H     1 <1>   0.0800 
 33 H        1.0650    -2.4390     2.4090 H     1 <1>   0.0800 
 34 H       -0.4940    -5.3950    -0.2340 H     1 <1>   0.0800 
 35 H       -1.6090    -4.2290     0.4150 H     1 <1>   0.0800 
 36 H       -5.8630     4.7160    -0.0540 H     1 <1>   0.1500 
 37 H       -5.9020     0.8140     1.4530 H     1 <1>   0.0800 
 38 H       -6.0650     0.6660    -0.2750 H     1 <1>   0.0800 
 39 H        0.0730    -4.7260     2.1160 H     1 <1>   0.0800 
 40 H        1.3610    -4.3940     0.9870 H     1 <1>   0.0800 
 41 H       -7.7420     2.4960     1.8930 H     1 <1>   0.0800 
 42 H       -8.2650     2.1610     0.2560 H     1 <1>   0.0800 
 43 H       -7.9850     3.8060     0.7660 H     1 <1>   0.0800 
@<TRIPOS>BOND
  1   1   2  2   
  2   2   3  1   
  3   2   4  1   
  4   3   5  1   
  5   4   6  1   
  6   4  19  1   
  7   4  20  1   
  8   5   7  1   
  9   5  21  1   
 10   5  22  1   
 11   6   8  1   
 12   6   9  1   
 13   7  10  1   
 14   7  11  1   
 15   7  23  1   
 16   8  12  1   
 17   8  24  1   
 18   8  25  1   
 19   9  13  1   
 20   9  26  1   
 21   9  27  1   
 22  10  14  1   
 23  10  28  1   
 24  10  29  1   
 25  11  15  1   
 26  11  30  1   
 27  11  31  1   
 28  12  16  1   
 29  12  32  1   
 30  12  33  1   
 31  13  16  1   
 32  13  34  1   
 33  13  35  1   
 34  14  17  2   
 35  14  36  1   
 36  15  17  1   
 37  15  37  1   
 38  15  38  1   
 39  16  39  1   
 40  16  40  1   
 41  17  18  1   
 42  18  41  1   
 43  18  42  1   
 44  18  43  1   
@<TRIPOS>SUBSTRUCTURE
  1 ****   3 GROUP 4 **** **** 0

# MOE 2024.06 (io_trps.svl 2023.06)
