@<TRIPOS>MOLECULE
NONAME
41 44 1 0 0 
SMALL
USER_CHARGES


@<TRIPOS>ATOM
  1 O       -1.1840     0.7070     0.6770 O.2   1 <1>  -0.5700 
  2 C       -1.1540     1.8880     0.4470 C.2   1 <1>   0.5690 
  3 N       -2.1970     2.6190    -0.0260 N.am  1 <1>  -0.4200 
  4 C        0.0620     2.7620     0.6760 C.3   1 <1>  -0.0190 
  5 C       -1.8750     3.9350    -0.1390 C.2   1 <1>   0.5690 
  6 C       -3.5130     2.0450    -0.3900 C.3   1 <1>   0.1400 
  7 C       -0.4370     4.1780     0.2740 C.3   1 <1>  -0.0190 
  8 C        1.3030     2.2350    -0.0690 C.3   1 <1>  -0.0220 
  9 O       -2.6230     4.8060    -0.5010 O.2   1 <1>  -0.5700 
 10 C       -4.3760     1.8550     0.8580 C.3   1 <1>   0.0200 
 11 C        0.3660     4.9030    -0.8230 C.3   1 <1>  -0.0220 
 12 C        2.2690     3.3610    -0.3770 C.2   1 <1>  -0.2880 
 13 C       -5.7110     1.2540     0.4790 C.2   1 <1>   0.2980 
 14 C        1.8420     4.5760    -0.7200 C.2   1 <1>  -0.2880 
 15 O       -5.7460     0.0220     0.0440 O.3   1 <1>  -0.0190 
 16 N       -6.8300     1.8440     0.5370 N.2   1 <1>  -0.5650 
 17 N       -7.0000    -0.1900    -0.1990 N.2   1 <1>  -0.4100 
 18 C       -7.6480     0.8830     0.0930 C.2   1 <1>   0.4620 
 19 C       -9.0850     1.0680    -0.0330 C.ar  1 <1>   0.0540 
 20 C       -9.9120     0.0350    -0.4790 C.ar  1 <1>  -0.1500 
 21 C       -9.7010     2.2810     0.2840 C.ar  1 <1>  -0.1500 
 22 C      -11.2790     0.2000    -0.6020 C.ar  1 <1>  -0.1500 
 23 C      -11.0680     2.4550     0.1640 C.ar  1 <1>  -0.1500 
 24 C      -11.8610     1.4130    -0.2810 C.ar  1 <1>  -0.1500 
 25 H        0.2780     2.7650     1.7300 H     1 <1>   0.0800 
 26 H       -3.3600     1.0960    -0.8760 H     1 <1>   0.0800 
 27 H       -4.0140     2.7020    -1.0810 H     1 <1>   0.0800 
 28 H       -0.4430     4.7980     1.1530 H     1 <1>   0.0800 
 29 H        1.0170     1.7690    -0.9970 H     1 <1>   0.0800 
 30 H        1.7850     1.4880     0.5380 H     1 <1>   0.0800 
 31 H       -4.5430     2.8070     1.3300 H     1 <1>   0.0800 
 32 H       -3.8860     1.1980     1.5530 H     1 <1>   0.0800 
 33 H        0.2140     5.9650    -0.7240 H     1 <1>   0.0800 
 34 H        0.0200     4.6120    -1.8000 H     1 <1>   0.0800 
 35 H        3.3090     3.0840    -0.3170 H     1 <1>   0.1500 
 36 H        2.4980     5.3950    -0.9700 H     1 <1>   0.1500 
 37 H       -9.4750    -0.9160    -0.7340 H     1 <1>   0.1500 
 38 H       -9.0990     3.1030     0.6320 H     1 <1>   0.1500 
 39 H      -11.8920    -0.6140    -0.9490 H     1 <1>   0.1500 
 40 H      -11.5150     3.4010     0.4160 H     1 <1>   0.1500 
 41 H      -12.9250     1.5450    -0.3760 H     1 <1>   0.1500 
@<TRIPOS>BOND
  1   1   2  2   
  2   2   3  am  
  3   2   4  1   
  4   3   5  am  
  5   3   6  1   
  6   4   7  1   
  7   4   8  1   
  8   4  25  1   
  9   5   7  1   
 10   5   9  2   
 11   6  10  1   
 12   6  26  1   
 13   6  27  1   
 14   7  11  1   
 15   7  28  1   
 16   8  12  1   
 17   8  29  1   
 18   8  30  1   
 19  10  13  1   
 20  10  31  1   
 21  10  32  1   
 22  11  14  1   
 23  11  33  1   
 24  11  34  1   
 25  12  14  2   
 26  12  35  1   
 27  13  15  1   
 28  13  16  2   
 29  14  36  1   
 30  15  17  1   
 31  16  18  1   
 32  17  18  2   
 33  18  19  1   
 34  19  20  ar  
 35  19  21  ar  
 36  20  22  ar  
 37  20  37  1   
 38  21  23  ar  
 39  21  38  1   
 40  22  24  ar  
 41  22  39  1   
 42  23  24  ar  
 43  23  40  1   
 44  24  41  1   
@<TRIPOS>SUBSTRUCTURE
  1 ****  10 GROUP 4 **** **** 0

# MOE 2024.06 (io_trps.svl 2023.06)
