@<TRIPOS>MOLECULE
NONAME
33 34 1 0 0 
SMALL
USER_CHARGES


@<TRIPOS>ATOM
  1 O       -0.0660    -0.6570    -0.9110 O.2   1 <1>  -0.5700 
  2 C       -0.3830    -1.7800    -0.5930 C.2   1 <1>   0.4950 
  3 C        0.5610    -2.7700    -0.1680 C.2   1 <1>   0.0290 
  4 C       -1.8680    -2.0790    -0.6840 C.3   1 <1>  -0.0990 
  5 C        0.0790    -4.0960     0.1080 C.2   1 <1>   0.4950 
  6 C        1.8900    -2.4200    -0.0410 C.2   1 <1>  -0.0500 
  7 C       -2.2820    -3.2230     0.2400 C.3   1 <1>   0.1000 
  8 O        0.7740    -5.0260     0.4520 O.2   1 <1>  -0.5700 
  9 C       -1.3930    -4.4340    -0.0350 C.3   1 <1>  -0.0990 
 10 N        2.9020    -3.2310     0.3490 N.pl3 1 <1>  -0.8690 
 11 C       -3.7570    -3.5460     0.0530 C.2   1 <1>  -0.0400 
 12 C        4.3300    -2.8560     0.4890 C.3   1 <1>   0.2090 
 13 O       -4.6340    -2.6020     0.3350 O.3   1 <1>  -0.2800 
 14 C       -4.3930    -4.6650    -0.3640 C.2   1 <1>  -0.1500 
 15 C        5.1750    -3.6240    -0.5320 C.3   1 <1>   0.1200 
 16 C       -5.8370    -3.0880     0.1070 C.2   1 <1>  -0.0100 
 17 C       -5.7600    -4.3620    -0.3290 C.2   1 <1>  -0.1500 
 18 O        6.4980    -3.2030    -0.4640 O.3   1 <1>  -0.6800 
 19 H       -2.1090    -2.3210    -1.7040 H     1 <1>   0.0800 
 20 H       -2.4180    -1.1940    -0.4200 H     1 <1>   0.0800 
 21 H        2.1700    -1.4010    -0.2720 H     1 <1>   0.1500 
 22 H       -2.1400    -2.9140     1.2630 H     1 <1>   0.0800 
 23 H       -1.6400    -5.2170     0.6610 H     1 <1>   0.0800 
 24 H       -1.5610    -4.8060    -1.0290 H     1 <1>   0.0800 
 25 H        2.6790    -4.2180     0.5870 H     1 <1>   0.4000 
 26 H        4.6610    -3.0920     1.4860 H     1 <1>   0.0800 
 27 H        4.4350    -1.7970     0.3250 H     1 <1>   0.0800 
 28 H       -3.9840    -5.6120    -0.6680 H     1 <1>   0.1500 
 29 H        4.8150    -3.4520    -1.5310 H     1 <1>   0.0800 
 30 H        5.1530    -4.6780    -0.3140 H     1 <1>   0.0800 
 31 H       -6.6930    -2.4590     0.2810 H     1 <1>   0.1500 
 32 H       -6.5580    -5.0310    -0.5990 H     1 <1>   0.1500 
 33 H        6.5920    -2.2970    -0.8200 H     1 <1>   0.4000 
@<TRIPOS>BOND
  1   1   2  2   
  2   2   3  1   
  3   2   4  1   
  4   3   5  1   
  5   3   6  2   
  6   4   7  1   
  7   4  19  1   
  8   4  20  1   
  9   5   8  2   
 10   5   9  1   
 11   6  10  1   
 12   6  21  1   
 13   7   9  1   
 14   7  11  1   
 15   7  22  1   
 16   9  23  1   
 17   9  24  1   
 18  10  12  1   
 19  10  25  1   
 20  11  13  1   
 21  11  14  2   
 22  12  15  1   
 23  12  26  1   
 24  12  27  1   
 25  13  16  1   
 26  14  17  1   
 27  14  28  1   
 28  15  18  1   
 29  15  29  1   
 30  15  30  1   
 31  16  17  2   
 32  16  31  1   
 33  17  32  1   
 34  18  33  1   
@<TRIPOS>SUBSTRUCTURE
  1 ****   5 GROUP 4 **** **** 0

# MOE 2024.06 (io_trps.svl 2023.06)
