@<TRIPOS>MOLECULE
NONAME
52 54 1 0 0 
SMALL
USER_CHARGES


@<TRIPOS>ATOM
  1 O       -0.6230    -0.4550    -0.4870 O.3   1 <1>  -0.2800 
  2 C       -0.7220    -1.5180    -1.2660 C.2   1 <1>  -0.0400 
  3 C       -1.3540     0.5010    -1.0240 C.2   1 <1>  -0.0100 
  4 C       -1.5230    -1.2550    -2.3220 C.2   1 <1>  -0.1500 
  5 C        0.0350    -2.7860    -0.9010 C.3   1 <1>   0.2900 
  6 C       -1.9400     0.0720    -2.1620 C.2   1 <1>  -0.1500 
  7 N       -0.7110    -3.6060     0.0800 N.3   1 <1>  -0.8100 
  8 C       -0.0720    -4.9240     0.3010 C.3   1 <1>   0.1100 
  9 C       -0.9110    -2.8940     1.3750 C.3   1 <1>   0.1100 
 10 C       -0.9230    -5.8330     1.2240 C.3   1 <1>   0.3430 
 11 C       -1.5710    -3.7810     2.4590 C.3   1 <1>   0.3430 
 12 N       -2.0400    -5.0570     1.8490 N.4   1 <1>  -0.9590 
 13 C       -3.0140    -5.8470     2.6320 C.3   1 <1>   0.4860 
 14 C       -3.6910    -6.8250     1.6890 C.ar  1 <1>  -0.1430 
 15 C       -4.3930    -6.3590     0.5770 C.ar  1 <1>   0.0830 
 16 C       -3.6040    -8.1860     1.9370 C.ar  1 <1>  -0.1500 
 17 O       -4.4160    -5.0030     0.3970 O.3   1 <1>  -0.3620 
 18 C       -5.0280    -7.2720    -0.2770 C.ar  1 <1>   0.0830 
 19 C       -4.2030    -9.0880     1.0780 C.ar  1 <1>  -0.1500 
 20 C       -4.3360    -4.4430    -0.9010 C.3   1 <1>   0.0400 
 21 O       -5.7820    -6.8350    -1.3210 O.3   1 <1>  -0.3630 
 22 C       -4.9000    -8.6430    -0.0310 C.ar  1 <1>   0.0830 
 23 C       -7.1790    -6.9500    -1.1550 C.3   1 <1>   0.0400 
 24 O       -5.4490    -9.5920    -0.8290 O.3   1 <1>  -0.3630 
 25 C       -4.9670    -9.6800    -2.1530 C.3   1 <1>   0.0400 
 26 H       -1.4020     1.4580    -0.5340 H     1 <1>   0.1500 
 27 H       -1.8030    -1.9010    -3.1350 H     1 <1>   0.1500 
 28 H        1.0060    -2.5250    -0.5160 H     1 <1>   0.0800 
 29 H        0.1750    -3.3600    -1.8000 H     1 <1>   0.0800 
 30 H       -2.5910     0.6090    -2.8290 H     1 <1>   0.1500 
 31 H        0.9030    -4.7870     0.7400 H     1 <1>   0.0800 
 32 H        0.0650    -5.4250    -0.6430 H     1 <1>   0.0800 
 33 H       -1.5510    -2.0430     1.2140 H     1 <1>   0.0800 
 34 H        0.0290    -2.5210     1.7440 H     1 <1>   0.0800 
 35 H       -0.2940    -6.2660     1.9830 H     1 <1>   0.0800 
 36 H       -1.3320    -6.6380     0.6340 H     1 <1>   0.0800 
 37 H       -2.3990    -3.2450     2.8930 H     1 <1>   0.0800 
 38 H       -0.8580    -3.9860     3.2400 H     1 <1>   0.0800 
 39 H       -2.5870    -4.7370     1.0260 H     1 <1>   0.4500 
 40 H       -3.7630    -5.1940     3.0520 H     1 <1>   0.0800 
 41 H       -2.5180    -6.3700     3.4320 H     1 <1>   0.0800 
 42 H       -3.0730    -8.5630     2.7960 H     1 <1>   0.1500 
 43 H       -4.1380   -10.1470     1.2610 H     1 <1>   0.1500 
 44 H       -3.9340    -3.4480    -0.8190 H     1 <1>   0.0800 
 45 H       -5.3240    -4.3990    -1.3230 H     1 <1>   0.0800 
 46 H       -3.6910    -5.0490    -1.5140 H     1 <1>   0.0800 
 47 H       -7.6570    -6.5350    -2.0240 H     1 <1>   0.0800 
 48 H       -7.4710    -6.4020    -0.2770 H     1 <1>   0.0800 
 49 H       -7.4410    -7.9880    -1.0540 H     1 <1>   0.0800 
 50 H       -5.3760   -10.5680    -2.6000 H     1 <1>   0.0800 
 51 H       -3.8940    -9.7400    -2.1320 H     1 <1>   0.0800 
 52 H       -5.2850    -8.8160    -2.7090 H     1 <1>   0.0800 
@<TRIPOS>BOND
  1   1   2  1   
  2   1   3  1   
  3   2   4  2   
  4   2   5  1   
  5   3   6  2   
  6   3  26  1   
  7   4   6  1   
  8   4  27  1   
  9   5   7  1   
 10   5  28  1   
 11   5  29  1   
 12   6  30  1   
 13   7   8  1   
 14   7   9  1   
 15   8  10  1   
 16   8  31  1   
 17   8  32  1   
 18   9  11  1   
 19   9  33  1   
 20   9  34  1   
 21  10  12  1   
 22  10  35  1   
 23  10  36  1   
 24  11  12  1   
 25  11  37  1   
 26  11  38  1   
 27  12  13  1   
 28  12  39  1   
 29  13  14  1   
 30  13  40  1   
 31  13  41  1   
 32  14  15  ar  
 33  14  16  ar  
 34  15  17  1   
 35  15  18  ar  
 36  16  19  ar  
 37  16  42  1   
 38  17  20  1   
 39  18  21  1   
 40  18  22  ar  
 41  19  22  ar  
 42  19  43  1   
 43  20  44  1   
 44  20  45  1   
 45  20  46  1   
 46  21  23  1   
 47  22  24  1   
 48  23  47  1   
 49  23  48  1   
 50  23  49  1   
 51  24  25  1   
 52  25  50  1   
 53  25  51  1   
 54  25  52  1   
@<TRIPOS>SUBSTRUCTURE
  1 ****  17 GROUP 4 **** **** 0

# MOE 2024.06 (io_trps.svl 2023.06)
