@<TRIPOS>MOLECULE
NONAME
51 53 1 0 0 
SMALL
USER_CHARGES


@<TRIPOS>ATOM
  1 F        6.9060    -6.2580    -0.1820 F     1 <1>  -0.1900 
  2 C        5.6010    -6.3360    -0.1140 C.ar  1 <1>   0.1900 
  3 C        4.9940    -7.5580    -0.3310 C.ar  1 <1>  -0.1500 
  4 C        4.8790    -5.1930     0.1730 C.ar  1 <1>  -0.1500 
  5 C        3.6140    -7.6310    -0.2570 C.ar  1 <1>  -0.1500 
  6 C        3.5000    -5.2820     0.2440 C.ar  1 <1>  -0.1500 
  7 C        2.8560    -6.5000     0.0300 C.ar  1 <1>   0.1000 
  8 N        1.4720    -6.6070     0.0970 N.pl3 1 <1>  -0.8380 
  9 C        0.7070    -5.8990    -0.9720 C.3   1 <1>   0.2090 
 10 C        0.8730    -6.4810     1.4590 C.3   1 <1>   0.2090 
 11 C       -0.7730    -6.3390    -0.9720 C.3   1 <1>   0.3430 
 12 C       -0.6090    -6.9140     1.4520 C.3   1 <1>   0.3430 
 13 N       -1.4110    -6.2070     0.3890 N.4   1 <1>  -0.9590 
 14 C       -2.8600    -6.5780     0.3920 C.3   1 <1>   0.3430 
 15 C       -3.7070    -5.4300    -0.1980 C.3   1 <1>   0.2000 
 16 O       -3.1240    -4.2090     0.1520 O.3   1 <1>  -0.6800 
 17 C       -5.1590    -5.4470     0.2950 C.3   1 <1>   0.1200 
 18 O       -5.7880    -4.2630    -0.1440 O.3   1 <1>  -0.3630 
 19 C       -7.0930    -4.0010     0.1320 C.ar  1 <1>   0.0830 
 20 C       -7.6370    -2.8270    -0.3830 C.ar  1 <1>  -0.1430 
 21 C       -7.8890    -4.8510     0.8990 C.ar  1 <1>  -0.1500 
 22 C       -8.9640    -2.5170    -0.1270 C.ar  1 <1>  -0.1500 
 23 C       -6.7960    -1.8770    -1.2240 C.3   1 <1>  -0.0970 
 24 C       -9.2110    -4.5310     1.1470 C.ar  1 <1>  -0.1500 
 25 C       -9.7490    -3.3650     0.6350 C.ar  1 <1>  -0.1500 
 26 H        5.5900    -8.4250    -0.5510 H     1 <1>   0.1500 
 27 H        5.3910    -4.2610     0.3350 H     1 <1>   0.1500 
 28 H        3.1130    -8.5670    -0.4210 H     1 <1>   0.1500 
 29 H        2.9220    -4.4040     0.4660 H     1 <1>   0.1500 
 30 H        1.1470    -6.1250    -1.9290 H     1 <1>   0.0800 
 31 H        0.7700    -4.8350    -0.8220 H     1 <1>   0.0800 
 32 H        0.9540    -5.4630     1.7980 H     1 <1>   0.0800 
 33 H        1.4230    -7.1030     2.1450 H     1 <1>   0.0800 
 34 H       -0.8150    -7.3670    -1.2920 H     1 <1>   0.0800 
 35 H       -1.3120    -5.7430    -1.6890 H     1 <1>   0.0800 
 36 H       -1.0340    -6.7190     2.4230 H     1 <1>   0.0800 
 37 H       -0.6440    -7.9770     1.2810 H     1 <1>   0.0800 
 38 H       -1.4290    -5.1910     0.6030 H     1 <1>   0.4500 
 39 H       -3.1800    -6.7390     1.4080 H     1 <1>   0.0800 
 40 H       -3.0260    -7.4910    -0.1550 H     1 <1>   0.0800 
 41 H       -3.7060    -5.4960    -1.2730 H     1 <1>   0.0800 
 42 H       -3.7970    -3.5000     0.0130 H     1 <1>   0.4000 
 43 H       -5.1980    -5.4720     1.3710 H     1 <1>   0.0800 
 44 H       -5.6930    -6.2880    -0.1140 H     1 <1>   0.0800 
 45 H       -7.5080    -5.7630     1.3140 H     1 <1>   0.1500 
 46 H       -9.3970    -1.6130    -0.5190 H     1 <1>   0.1500 
 47 H       -6.4050    -2.3970    -2.0800 H     1 <1>   0.0800 
 48 H       -5.9780    -1.5000    -0.6390 H     1 <1>   0.0800 
 49 H       -7.3810    -1.0450    -1.5700 H     1 <1>   0.0800 
 50 H       -9.8250    -5.1880     1.7390 H     1 <1>   0.1500 
 51 H      -10.7780    -3.1150     0.8270 H     1 <1>   0.1500 
@<TRIPOS>BOND
  1   1   2  1   
  2   2   3  ar  
  3   2   4  ar  
  4   3   5  ar  
  5   3  26  1   
  6   4   6  ar  
  7   4  27  1   
  8   5   7  ar  
  9   5  28  1   
 10   6   7  ar  
 11   6  29  1   
 12   7   8  1   
 13   8   9  1   
 14   8  10  1   
 15   9  11  1   
 16   9  30  1   
 17   9  31  1   
 18  10  12  1   
 19  10  32  1   
 20  10  33  1   
 21  11  13  1   
 22  11  34  1   
 23  11  35  1   
 24  12  13  1   
 25  12  36  1   
 26  12  37  1   
 27  13  14  1   
 28  13  38  1   
 29  14  15  1   
 30  14  39  1   
 31  14  40  1   
 32  15  16  1   
 33  15  17  1   
 34  15  41  1   
 35  16  42  1   
 36  17  18  1   
 37  17  43  1   
 38  17  44  1   
 39  18  19  1   
 40  19  20  ar  
 41  19  21  ar  
 42  20  22  ar  
 43  20  23  1   
 44  21  24  ar  
 45  21  45  1   
 46  22  25  ar  
 47  22  46  1   
 48  23  47  1   
 49  23  48  1   
 50  23  49  1   
 51  24  25  ar  
 52  24  50  1   
 53  25  51  1   
@<TRIPOS>SUBSTRUCTURE
  1 ****  13 GROUP 4 **** **** 0

# MOE 2024.06 (io_trps.svl 2023.06)
