@<TRIPOS>MOLECULE
NONAME
35 36 1 0 0 
SMALL
USER_CHARGES


@<TRIPOS>ATOM
  1 BR      -0.3240    -0.4230    -1.7500 Br    1 <1>  -0.1110 
  2 C       -1.8380    -1.1580    -0.8050 C.ar  1 <1>   0.1110 
  3 C       -1.8010    -2.4740    -0.3680 C.ar  1 <1>   0.0830 
  4 C       -2.9190    -0.3310    -0.5810 C.ar  1 <1>  -0.1500 
  5 O       -0.6940    -3.2210    -0.5900 O.3   1 <1>  -0.3630 
  6 C       -2.9240    -2.9700     0.3020 C.ar  1 <1>   0.0830 
  7 C       -4.0350    -0.8120     0.1030 C.ar  1 <1>   0.0860 
  8 C        0.1470    -3.4230     0.5240 C.3   1 <1>   0.0400 
  9 O       -3.0320    -4.2490     0.7470 O.3   1 <1>  -0.3630 
 10 C       -4.0030    -2.1360     0.5450 C.ar  1 <1>  -0.1500 
 11 C       -5.1770     0.0440     0.3510 C.2   1 <1>   0.5440 
 12 C       -2.8010    -5.2960    -0.1730 C.3   1 <1>   0.0400 
 13 O       -5.0030     1.1120     0.9060 O.2   1 <1>  -0.5700 
 14 N       -6.4550    -0.3080    -0.0290 N.am  1 <1>  -0.6600 
 15 C       -6.7950    -1.3830    -1.0080 C.3   1 <1>   0.1400 
 16 C       -7.6520     0.4620     0.4240 C.3   1 <1>   0.1400 
 17 C       -7.9540    -2.2430    -0.4770 C.3   1 <1>   0.1200 
 18 C       -8.7730    -0.4950     0.8630 C.3   1 <1>   0.1200 
 19 O       -9.0470    -1.4380    -0.1370 O.3   1 <1>  -0.5600 
 20 H       -2.9040     0.6880    -0.9260 H     1 <1>   0.1500 
 21 H        0.9790    -4.0280     0.2120 H     1 <1>   0.0800 
 22 H       -0.4060    -3.9250     1.2980 H     1 <1>   0.0800 
 23 H        0.4970    -2.4670     0.8720 H     1 <1>   0.0800 
 24 H       -4.8450    -2.5250     1.0900 H     1 <1>   0.1500 
 25 H       -3.2470    -6.1910     0.2190 H     1 <1>   0.0800 
 26 H       -1.7430    -5.4420    -0.2890 H     1 <1>   0.0800 
 27 H       -3.2510    -5.0430    -1.1170 H     1 <1>   0.0800 
 28 H       -5.9460    -2.0090    -1.2130 H     1 <1>   0.0800 
 29 H       -7.0970    -0.9280    -1.9350 H     1 <1>   0.0800 
 30 H       -8.0030     1.0790    -0.3840 H     1 <1>   0.0800 
 31 H       -7.3960     1.1060     1.2470 H     1 <1>   0.0800 
 32 H       -7.6490    -2.7980     0.3930 H     1 <1>   0.0800 
 33 H       -8.2800    -2.9350    -1.2330 H     1 <1>   0.0800 
 34 H       -9.6770     0.0560     1.0520 H     1 <1>   0.0800 
 35 H       -8.4920    -1.0160     1.7610 H     1 <1>   0.0800 
@<TRIPOS>BOND
  1   1   2  1   
  2   2   3  ar  
  3   2   4  ar  
  4   3   5  1   
  5   3   6  ar  
  6   4   7  ar  
  7   4  20  1   
  8   5   8  1   
  9   6   9  1   
 10   6  10  ar  
 11   7  10  ar  
 12   7  11  1   
 13   8  21  1   
 14   8  22  1   
 15   8  23  1   
 16   9  12  1   
 17  10  24  1   
 18  11  13  2   
 19  11  14  am  
 20  12  25  1   
 21  12  26  1   
 22  12  27  1   
 23  14  15  1   
 24  14  16  1   
 25  15  17  1   
 26  15  28  1   
 27  15  29  1   
 28  16  18  1   
 29  16  30  1   
 30  16  31  1   
 31  17  19  1   
 32  17  32  1   
 33  17  33  1   
 34  18  19  1   
 35  18  34  1   
 36  18  35  1   
@<TRIPOS>SUBSTRUCTURE
  1 ****  10 GROUP 4 **** **** 0

# MOE 2024.06 (io_trps.svl 2023.06)
