@<TRIPOS>MOLECULE
NONAME
47 49 1 0 0 
SMALL
USER_CHARGES


@<TRIPOS>ATOM
  1 O        2.6490    -4.8900     1.0250 O.2   1 <1>  -0.5750 
  2 C        1.4810    -4.7730     0.7230 C.2   1 <1>   0.6860 
  3 N        0.6920    -5.9080     0.5470 N.am  1 <1>  -0.4260 
  4 N        0.9320    -3.5100     0.5490 N.am  1 <1>  -0.4420 
  5 C       -0.6490    -5.8020     0.2100 C.2   1 <1>   0.6990 
  6 C        1.3370    -7.2460     0.7360 C.3   1 <1>   0.0510 
  7 C       -0.3950    -3.4220     0.1790 C.2   1 <1>   0.4200 
  8 C        1.7700    -2.2860     0.7350 C.3   1 <1>   0.0510 
  9 O       -1.3510    -6.8000     0.0780 O.2   1 <1>  -0.5750 
 10 C       -1.1990    -4.4910     0.0180 C.2   1 <1>   0.2700 
 11 N       -1.1110    -2.3020    -0.0930 N.pl3 1 <1>  -0.7040 
 12 N       -2.4720    -3.9950    -0.3510 N.pl3 1 <1>  -0.7680 
 13 C       -2.3580    -2.6510    -0.4110 C.cat 1 <1>   1.0680 
 14 C       -3.5390    -4.8970    -0.8660 C.3   1 <1>   0.3470 
 15 N       -3.3030    -1.7470    -0.7450 N.pl3 1 <1>  -0.5970 
 16 C       -4.2830    -5.5910     0.2910 C.3   1 <1>  -0.1680 
 17 C       -4.7690    -1.9090    -0.4800 C.3   1 <1>   0.1600 
 18 C       -2.9820    -0.3930    -1.3150 C.3   1 <1>   0.1600 
 19 C       -4.8310    -6.9720    -0.0960 C.3   1 <1>   0.3360 
 20 C       -5.3350    -0.6970     0.2800 C.3   1 <1>   0.1120 
 21 C       -3.6410     0.7280    -0.4960 C.3   1 <1>   0.1120 
 22 N       -3.8350    -8.0350     0.1840 N.4   1 <1>  -0.8560 
 23 O       -5.0070     0.4830    -0.3830 O.3   1 <1>  -0.5650 
 24 H        2.2550    -7.2900     0.1750 H     1 <1>   0.0710 
 25 H        0.6990    -8.0460     0.4020 H     1 <1>   0.0710 
 26 H        1.5660    -7.3920     1.7780 H     1 <1>   0.0710 
 27 H        2.6010    -2.4930     1.3890 H     1 <1>   0.0710 
 28 H        1.1900    -1.4950     1.1760 H     1 <1>   0.0710 
 29 H        2.1560    -1.9630    -0.2160 H     1 <1>   0.0710 
 30 H       -0.7730    -1.3460    -0.0380 H     1 <1>   0.4440 
 31 H       -3.0770    -5.6360    -1.5000 H     1 <1>   0.0710 
 32 H       -4.2330    -4.3500    -1.4830 H     1 <1>   0.0710 
 33 H       -5.1220    -4.9750     0.5600 H     1 <1>   0.0710 
 34 H       -3.6600    -5.6790     1.1640 H     1 <1>   0.0710 
 35 H       -4.9530    -2.7840     0.1120 H     1 <1>   0.0710 
 36 H       -5.2950    -2.0090    -1.4150 H     1 <1>   0.0710 
 37 H       -3.3590    -0.3400    -2.3230 H     1 <1>   0.0710 
 38 H       -1.9210    -0.2240    -1.3610 H     1 <1>   0.0710 
 39 H       -5.0970    -6.9790    -1.1420 H     1 <1>   0.0710 
 40 H       -5.7260    -7.1760     0.4720 H     1 <1>   0.0710 
 41 H       -4.9490    -0.6480     1.2840 H     1 <1>   0.0710 
 42 H       -6.4090    -0.7540     0.3290 H     1 <1>   0.0710 
 43 H       -3.5200     1.6750    -0.9940 H     1 <1>   0.0710 
 44 H       -3.2170     0.8010     0.4910 H     1 <1>   0.0710 
 45 H       -2.8690    -7.7500    -0.0640 H     1 <1>   0.4440 
 46 H       -4.0460    -8.9050    -0.3210 H     1 <1>   0.4440 
 47 H       -3.8120    -8.2660     1.1840 H     1 <1>   0.4440 
@<TRIPOS>BOND
  1   1   2  2   
  2   2   3  am  
  3   2   4  am  
  4   3   5  am  
  5   3   6  1   
  6   4   7  1   
  7   4   8  1   
  8   5   9  2   
  9   5  10  1   
 10   6  24  1   
 11   6  25  1   
 12   6  26  1   
 13   7  10  2   
 14   7  11  1   
 15   8  27  1   
 16   8  28  1   
 17   8  29  1   
 18  10  12  1   
 19  11  13  ar  
 20  11  30  1   
 21  12  13  ar  
 22  12  14  1   
 23  13  15  ar  
 24  14  16  1   
 25  14  31  1   
 26  14  32  1   
 27  15  17  1   
 28  15  18  1   
 29  16  19  1   
 30  16  33  1   
 31  16  34  1   
 32  17  20  1   
 33  17  35  1   
 34  17  36  1   
 35  18  21  1   
 36  18  37  1   
 37  18  38  1   
 38  19  22  1   
 39  19  39  1   
 40  19  40  1   
 41  20  23  1   
 42  20  41  1   
 43  20  42  1   
 44  21  23  1   
 45  21  43  1   
 46  21  44  1   
 47  22  45  1   
 48  22  46  1   
 49  22  47  1   
@<TRIPOS>SUBSTRUCTURE
  1 ****  12 GROUP 4 **** **** 0

# MOE 2024.06 (io_trps.svl 2023.06)
