@<TRIPOS>MOLECULE
NONAME
41 42 1 0 0 
SMALL
USER_CHARGES


@<TRIPOS>ATOM
  1 S        0.3970    -0.0520     0.6970 S.3   1 <1>  -0.3710 
  2 C       -1.1920     0.6680     1.0970 C.2   1 <1>   0.6510 
  3 C        1.6060     1.2230     1.3290 C.3   1 <1>   0.1310 
  4 N       -1.1650     1.8060     1.6770 N.2   1 <1>  -0.6210 
  5 N       -2.3100    -0.0650     0.7430 N.am  1 <1>  -0.2370 
  6 C        3.0430     0.8350     1.0080 C.2   1 <1>   0.5690 
  7 C       -2.3630     2.3790     1.9880 C.2   1 <1>   0.0210 
  8 C       -3.5380     0.5100     1.0570 C.2   1 <1>   0.6160 
  9 C       -2.2280    -1.3140     0.0990 C.ar  1 <1>   0.1170 
 10 O        3.9400     1.4590     1.5240 O.2   1 <1>  -0.5700 
 11 N        3.2630    -0.1990     0.1480 N.am  1 <1>  -0.7300 
 12 O       -2.3340     3.4750     2.5430 O.3   1 <1>  -0.8500 
 13 C       -3.5490     1.7420     1.6840 C.2   1 <1>  -0.1360 
 14 O       -4.5850    -0.0970     0.7640 O.2   1 <1>  -0.5700 
 15 C       -2.1300    -2.4860     0.8400 C.ar  1 <1>  -0.1500 
 16 C       -2.2370    -1.3960    -1.2890 C.ar  1 <1>  -0.1500 
 17 C        4.5190    -0.7810    -0.3220 C.3   1 <1>   0.3000 
 18 C       -2.0330    -3.7130     0.2080 C.ar  1 <1>  -0.1500 
 19 C       -2.1400    -2.6210    -1.9230 C.ar  1 <1>  -0.1500 
 20 C        5.3280     0.2770    -1.0720 C.3   1 <1>  -0.2400 
 21 C        4.1410    -1.9130    -1.2740 C.3   1 <1>  -0.2400 
 22 C        5.2990    -1.3430     0.8660 C.3   1 <1>  -0.2400 
 23 C       -2.0370    -3.7820    -1.1750 C.ar  1 <1>  -0.1500 
 24 H        1.4620     1.3010     2.3910 H     1 <1>   0.0800 
 25 H        1.3590     2.1600     0.8650 H     1 <1>   0.0800 
 26 H        2.4300    -0.6800    -0.1960 H     1 <1>   0.3700 
 27 H       -4.4740     2.2130     1.9390 H     1 <1>   0.1500 
 28 H       -2.1300    -2.4300     1.9140 H     1 <1>   0.1500 
 29 H       -2.3210    -0.4930    -1.8660 H     1 <1>   0.1500 
 30 H       -1.9570    -4.6140     0.7920 H     1 <1>   0.1500 
 31 H       -2.1480    -2.6720    -2.9980 H     1 <1>   0.1500 
 32 H        4.7480     0.6950    -1.8740 H     1 <1>   0.0800 
 33 H        6.2190    -0.1600    -1.4840 H     1 <1>   0.0800 
 34 H        5.6230     1.0690    -0.4070 H     1 <1>   0.0800 
 35 H        5.0280    -2.3850    -1.6560 H     1 <1>   0.0800 
 36 H        3.5770    -1.5330    -2.1070 H     1 <1>   0.0800 
 37 H        3.5580    -2.6580    -0.7620 H     1 <1>   0.0800 
 38 H        6.1910    -1.8350     0.5240 H     1 <1>   0.0800 
 39 H        4.7010    -2.0530     1.4070 H     1 <1>   0.0800 
 40 H        5.5910    -0.5530     1.5340 H     1 <1>   0.0800 
 41 H       -1.9630    -4.7360    -1.6680 H     1 <1>   0.1500 
@<TRIPOS>BOND
  1   1   2  1   
  2   1   3  1   
  3   2   4  2   
  4   2   5  1   
  5   3   6  1   
  6   3  24  1   
  7   3  25  1   
  8   4   7  1   
  9   5   8  am  
 10   5   9  1   
 11   6  10  2   
 12   6  11  am  
 13   7  12  1   
 14   7  13  2   
 15   8  13  1   
 16   8  14  2   
 17   9  15  ar  
 18   9  16  ar  
 19  11  17  1   
 20  11  26  1   
 21  13  27  1   
 22  15  18  ar  
 23  15  28  1   
 24  16  19  ar  
 25  16  29  1   
 26  17  20  1   
 27  17  21  1   
 28  17  22  1   
 29  18  23  ar  
 30  18  30  1   
 31  19  23  ar  
 32  19  31  1   
 33  20  32  1   
 34  20  33  1   
 35  20  34  1   
 36  21  35  1   
 37  21  36  1   
 38  21  37  1   
 39  22  38  1   
 40  22  39  1   
 41  22  40  1   
 42  23  41  1   
@<TRIPOS>SUBSTRUCTURE
  1 ****   1 GROUP 4 **** **** 0

# MOE 2024.06 (io_trps.svl 2023.06)
