@<TRIPOS>MOLECULE
NONAME
42 44 1 0 0 
SMALL
USER_CHARGES


@<TRIPOS>ATOM
  1 O       -2.1310    -1.9730     1.7290 O.2   1 <1>  -0.5700 
  2 C       -1.5450    -1.9360     0.6760 C.2   1 <1>   0.5690 
  3 N       -1.8040    -1.0000    -0.2720 N.am  1 <1>  -0.7300 
  4 C       -0.4720    -2.9700     0.3900 C.3   1 <1>  -0.0990 
  5 C       -2.8070     0.0780    -0.1500 C.3   1 <1>   0.1400 
  6 C       -0.9040    -4.0000    -0.6660 C.3   1 <1>  -0.2400 
  7 C       -2.1230     1.4240    -0.4080 C.3   1 <1>  -0.1600 
  8 C       -3.0450     2.6620    -0.3170 C.3   1 <1>   0.0000 
  9 C       -4.1880     2.6020    -1.3590 C.3   1 <1>  -0.1600 
 10 C       -2.1980     3.9250    -0.6000 C.3   1 <1>  -0.1600 
 11 C       -3.6710     2.8050     1.0920 C.3   1 <1>  -0.1600 
 12 C       -5.0610     3.8690    -1.2860 C.3   1 <1>  -0.0800 
 13 C       -3.0590     5.1990    -0.5240 C.3   1 <1>  -0.0800 
 14 C       -4.5420     4.0740     1.1760 C.3   1 <1>  -0.0800 
 15 C       -4.1880     5.1060    -1.5670 C.3   1 <1>  -0.1600 
 16 C       -5.6660     3.9860     0.1260 C.3   1 <1>  -0.1600 
 17 C       -3.6720     5.3090     0.8830 C.3   1 <1>  -0.1600 
 18 H       -1.2920    -1.0300    -1.1530 H     1 <1>   0.3700 
 19 H       -0.2400    -3.4810     1.3080 H     1 <1>   0.0800 
 20 H        0.4180    -2.4640     0.0650 H     1 <1>   0.0800 
 21 H       -3.2370     0.0580     0.8370 H     1 <1>   0.0800 
 22 H       -3.5910    -0.0960    -0.8660 H     1 <1>   0.0800 
 23 H       -1.7910    -4.5130    -0.3350 H     1 <1>   0.0800 
 24 H       -0.1240    -4.7240    -0.8170 H     1 <1>   0.0800 
 25 H       -1.1150    -3.5170    -1.6030 H     1 <1>   0.0800 
 26 H       -1.6800     1.3990    -1.3870 H     1 <1>   0.0800 
 27 H       -1.3300     1.5360     0.3110 H     1 <1>   0.0800 
 28 H       -4.8140     1.7460    -1.1810 H     1 <1>   0.0800 
 29 H       -3.7770     2.5070    -2.3490 H     1 <1>   0.0800 
 30 H       -1.7530     3.8570    -1.5770 H     1 <1>   0.0800 
 31 H       -1.3980     3.9970     0.1160 H     1 <1>   0.0800 
 32 H       -2.8940     2.8540     1.8340 H     1 <1>   0.0800 
 33 H       -4.2860     1.9540     1.3190 H     1 <1>   0.0800 
 34 H       -5.8510     3.8100    -2.0150 H     1 <1>   0.0800 
 35 H       -2.4500     6.0630    -0.7240 H     1 <1>   0.0800 
 36 H       -4.9700     4.1560     2.1600 H     1 <1>   0.0800 
 37 H       -4.7930     5.9950    -1.5280 H     1 <1>   0.0800 
 38 H       -3.7680     5.0390    -2.5550 H     1 <1>   0.0800 
 39 H       -6.2880     3.1310     0.3280 H     1 <1>   0.0800 
 40 H       -6.2870     4.8630     0.1840 H     1 <1>   0.0800 
 41 H       -2.8890     5.3850     1.6170 H     1 <1>   0.0800 
 42 H       -4.2710     6.2010     0.9510 H     1 <1>   0.0800 
@<TRIPOS>BOND
  1   1   2  2   
  2   2   3  am  
  3   2   4  1   
  4   3   5  1   
  5   3  18  1   
  6   4   6  1   
  7   4  19  1   
  8   4  20  1   
  9   5   7  1   
 10   5  21  1   
 11   5  22  1   
 12   6  23  1   
 13   6  24  1   
 14   6  25  1   
 15   7   8  1   
 16   7  26  1   
 17   7  27  1   
 18   8   9  1   
 19   8  10  1   
 20   8  11  1   
 21   9  12  1   
 22   9  28  1   
 23   9  29  1   
 24  10  13  1   
 25  10  30  1   
 26  10  31  1   
 27  11  14  1   
 28  11  32  1   
 29  11  33  1   
 30  12  15  1   
 31  12  16  1   
 32  12  34  1   
 33  13  15  1   
 34  13  17  1   
 35  13  35  1   
 36  14  16  1   
 37  14  17  1   
 38  14  36  1   
 39  15  37  1   
 40  15  38  1   
 41  16  39  1   
 42  16  40  1   
 43  17  41  1   
 44  17  42  1   
@<TRIPOS>SUBSTRUCTURE
  1 ****   8 GROUP 4 **** **** 0

# MOE 2024.06 (io_trps.svl 2023.06)
