@<TRIPOS>MOLECULE
NONAME
58 62 1 0 0 
SMALL
USER_CHARGES


@<TRIPOS>ATOM
  1 O       -1.0490    -0.0640    -1.0370 O.2   1 <1>  -0.5700 
  2 C       -1.4160    -1.1190    -0.5550 C.2   1 <1>   0.6900 
  3 N       -2.7500    -1.3970    -0.4400 N.am  1 <1>  -0.6600 
  4 N       -0.5240    -2.0510    -0.1380 N.am  1 <1>  -0.7300 
  5 C       -3.7670    -0.4950    -1.0670 C.3   1 <1>   0.1400 
  6 C       -3.2990    -2.4690     0.4510 C.3   1 <1>   0.1400 
  7 C        0.9460    -2.0070    -0.1780 C.3   1 <1>   0.3000 
  8 C       -5.0720    -1.2370    -1.4130 C.3   1 <1>   0.2090 
  9 C       -4.7410    -2.1820     0.9040 C.3   1 <1>   0.2090 
 10 C        1.4620    -3.3220     0.4380 C.3   1 <1>  -0.1600 
 11 C        1.4890    -0.8270     0.6510 C.3   1 <1>  -0.1600 
 12 C        1.4550    -1.9070    -1.6290 C.3   1 <1>  -0.1600 
 13 N       -5.6660    -1.9900    -0.2550 N.pl3 1 <1>  -0.8380 
 14 C        3.0030    -3.3530     0.4290 C.3   1 <1>  -0.0800 
 15 C        3.0310    -0.8370     0.6370 C.3   1 <1>  -0.0800 
 16 C        2.9960    -1.9200    -1.6490 C.3   1 <1>  -0.0800 
 17 C       -6.9710    -1.6170     0.1000 C.ar  1 <1>   0.1000 
 18 C        3.5340    -2.1590     1.2450 C.3   1 <1>  -0.1600 
 19 C        3.5000    -3.2350    -1.0240 C.3   1 <1>  -0.1600 
 20 C        3.5220    -0.7320    -0.8210 C.3   1 <1>  -0.1600 
 21 C       -7.3220    -0.3460     0.5900 C.ar  1 <1>   0.0820 
 22 C       -7.9650    -2.5730    -0.0450 C.ar  1 <1>  -0.1500 
 23 O       -6.3340     0.5920     0.7300 O.3   1 <1>  -0.3620 
 24 C       -8.6480    -0.0770     0.9180 C.ar  1 <1>  -0.1500 
 25 C       -9.2810    -2.2990     0.2830 C.ar  1 <1>  -0.1500 
 26 C       -6.5990     1.8730     1.2550 C.3   1 <1>   0.0400 
 27 C       -9.6220    -1.0490     0.7650 C.ar  1 <1>  -0.1500 
 28 H       -0.9030    -2.9720     0.0410 H     1 <1>   0.3700 
 29 H       -3.3630    -0.0630    -1.9650 H     1 <1>   0.0800 
 30 H       -3.9870     0.3090    -0.3870 H     1 <1>   0.0800 
 31 H       -2.6770    -2.5630     1.3240 H     1 <1>   0.0800 
 32 H       -3.2870    -3.4040    -0.0800 H     1 <1>   0.0800 
 33 H       -4.8690    -1.9360    -2.2050 H     1 <1>   0.0800 
 34 H       -5.7880    -0.5260    -1.7860 H     1 <1>   0.0800 
 35 H       -4.7480    -1.3010     1.5220 H     1 <1>   0.0800 
 36 H       -5.0980    -3.0040     1.4980 H     1 <1>   0.0800 
 37 H        1.1120    -3.4100     1.4510 H     1 <1>   0.0800 
 38 H        1.0900    -4.1600    -0.1250 H     1 <1>   0.0800 
 39 H        1.1330    -0.8960     1.6630 H     1 <1>   0.0800 
 40 H        1.1440     0.1040     0.2370 H     1 <1>   0.0800 
 41 H        1.1070    -0.9930    -2.0770 H     1 <1>   0.0800 
 42 H        1.0750    -2.7290    -2.2080 H     1 <1>   0.0800 
 43 H        3.3540    -4.2740     0.8610 H     1 <1>   0.0800 
 44 H        3.4050    -0.0050     1.2080 H     1 <1>   0.0800 
 45 H        3.3470    -1.8400    -2.6640 H     1 <1>   0.0800 
 46 H        4.6100    -2.1710     1.2480 H     1 <1>   0.0800 
 47 H        3.2050    -2.2390     2.2670 H     1 <1>   0.0800 
 48 H        3.1470    -4.0720    -1.6010 H     1 <1>   0.0800 
 49 H        4.5760    -3.2560    -1.0430 H     1 <1>   0.0800 
 50 H        3.1780     0.1920    -1.2530 H     1 <1>   0.0800 
 51 H        4.5980    -0.7210    -0.8420 H     1 <1>   0.0800 
 52 H       -7.6930    -3.5420    -0.4220 H     1 <1>   0.1500 
 53 H       -8.9490     0.8810     1.2930 H     1 <1>   0.1500 
 54 H      -10.0350    -3.0570     0.1620 H     1 <1>   0.1500 
 55 H       -6.9920     1.7670     2.2500 H     1 <1>   0.0800 
 56 H       -5.6730     2.4180     1.2850 H     1 <1>   0.0800 
 57 H       -7.2980     2.3760     0.6120 H     1 <1>   0.0800 
 58 H      -10.6450    -0.8330     1.0200 H     1 <1>   0.1500 
@<TRIPOS>BOND
  1   1   2  2   
  2   2   3  am  
  3   2   4  am  
  4   3   5  1   
  5   3   6  1   
  6   4   7  1   
  7   4  28  1   
  8   5   8  1   
  9   5  29  1   
 10   5  30  1   
 11   6   9  1   
 12   6  31  1   
 13   6  32  1   
 14   7  10  1   
 15   7  11  1   
 16   7  12  1   
 17   8  13  1   
 18   8  33  1   
 19   8  34  1   
 20   9  13  1   
 21   9  35  1   
 22   9  36  1   
 23  10  14  1   
 24  10  37  1   
 25  10  38  1   
 26  11  15  1   
 27  11  39  1   
 28  11  40  1   
 29  12  16  1   
 30  12  41  1   
 31  12  42  1   
 32  13  17  1   
 33  14  18  1   
 34  14  19  1   
 35  14  43  1   
 36  15  18  1   
 37  15  20  1   
 38  15  44  1   
 39  16  19  1   
 40  16  20  1   
 41  16  45  1   
 42  17  21  ar  
 43  17  22  ar  
 44  18  46  1   
 45  18  47  1   
 46  19  48  1   
 47  19  49  1   
 48  20  50  1   
 49  20  51  1   
 50  21  23  1   
 51  21  24  ar  
 52  22  25  ar  
 53  22  52  1   
 54  23  26  1   
 55  24  27  ar  
 56  24  53  1   
 57  25  27  ar  
 58  25  54  1   
 59  26  55  1   
 60  26  56  1   
 61  26  57  1   
 62  27  58  1   
@<TRIPOS>SUBSTRUCTURE
  1 ****   3 GROUP 4 **** **** 0

# MOE 2024.06 (io_trps.svl 2023.06)
