@<TRIPOS>MOLECULE
NONAME
41 42 1 0 0 
SMALL
USER_CHARGES


@<TRIPOS>ATOM
  1 F       -4.6690    -3.7640     1.2880 F     1 <1>  -0.1900 
  2 C       -3.6710    -4.4810     0.8490 C.ar  1 <1>   0.1900 
  3 C       -3.1480    -5.4660     1.6640 C.ar  1 <1>  -0.1500 
  4 C       -3.1740    -4.2310    -0.4140 C.ar  1 <1>  -0.1500 
  5 C       -2.0870    -6.2240     1.1960 C.ar  1 <1>  -0.1500 
  6 C       -2.1130    -4.9920    -0.8760 C.ar  1 <1>  -0.1500 
  7 C       -1.5640    -5.9860    -0.0720 C.ar  1 <1>  -0.1430 
  8 C       -0.3940    -6.8030    -0.5730 C.3   1 <1>   0.4870 
  9 N        0.8290    -6.0740    -0.1610 N.4   1 <1>  -0.9060 
 10 C        2.0920    -6.7350    -0.5810 C.3   1 <1>   0.3430 
 11 C        3.2950    -5.9130    -0.1020 C.3   1 <1>  -0.1600 
 12 C        4.6210    -6.5830    -0.4940 C.3   1 <1>   0.3430 
 13 N        5.7800    -5.8530     0.0910 N.4   1 <1>  -0.9590 
 14 C        6.0600    -4.4920    -0.5020 C.3   1 <1>   0.3430 
 15 C        7.0490    -6.6660     0.0700 C.3   1 <1>   0.3430 
 16 C        7.2900    -3.8320     0.1640 C.3   1 <1>   0.1200 
 17 C        8.2040    -5.9120     0.7730 C.3   1 <1>   0.1200 
 18 O        7.7890    -4.6400     1.1940 O.3   1 <1>  -0.5600 
 19 H       -3.5710    -5.6310     2.6400 H     1 <1>   0.1500 
 20 H       -3.6170    -3.4570    -1.0180 H     1 <1>   0.1500 
 21 H       -1.6890    -6.9970     1.8320 H     1 <1>   0.1500 
 22 H       -1.7360    -4.7980    -1.8670 H     1 <1>   0.1500 
 23 H       -0.4430    -6.8950    -1.6460 H     1 <1>   0.0800 
 24 H       -0.4200    -7.7890    -0.1350 H     1 <1>   0.0800 
 25 H        0.7740    -5.9630     0.8600 H     1 <1>   0.4500 
 26 H        0.7450    -5.1230    -0.5430 H     1 <1>   0.4500 
 27 H        2.1150    -6.8240    -1.6570 H     1 <1>   0.0800 
 28 H        2.1370    -7.7280    -0.1580 H     1 <1>   0.0800 
 29 H        3.2550    -5.8270     0.9700 H     1 <1>   0.0800 
 30 H        3.2480    -4.9330    -0.5430 H     1 <1>   0.0800 
 31 H        4.7200    -6.6200    -1.5680 H     1 <1>   0.0800 
 32 H        4.6250    -7.5970    -0.1240 H     1 <1>   0.0800 
 33 H        5.6330    -5.6680     1.0970 H     1 <1>   0.4500 
 34 H        5.2090    -3.8450    -0.3680 H     1 <1>   0.0800 
 35 H        6.2410    -4.5770    -1.5610 H     1 <1>   0.0800 
 36 H        7.3390    -6.8770    -0.9470 H     1 <1>   0.0800 
 37 H        6.8980    -7.6100     0.5680 H     1 <1>   0.0800 
 38 H        7.0190    -2.8820     0.5920 H     1 <1>   0.0800 
 39 H        8.0740    -3.6640    -0.5560 H     1 <1>   0.0800 
 40 H        9.0480    -5.8020     0.1140 H     1 <1>   0.0800 
 41 H        8.5270    -6.4560     1.6440 H     1 <1>   0.0800 
@<TRIPOS>BOND
  1   1   2  1   
  2   2   3  ar  
  3   2   4  ar  
  4   3   5  ar  
  5   3  19  1   
  6   4   6  ar  
  7   4  20  1   
  8   5   7  ar  
  9   5  21  1   
 10   6   7  ar  
 11   6  22  1   
 12   7   8  1   
 13   8   9  1   
 14   8  23  1   
 15   8  24  1   
 16   9  10  1   
 17   9  25  1   
 18   9  26  1   
 19  10  11  1   
 20  10  27  1   
 21  10  28  1   
 22  11  12  1   
 23  11  29  1   
 24  11  30  1   
 25  12  13  1   
 26  12  31  1   
 27  12  32  1   
 28  13  14  1   
 29  13  15  1   
 30  13  33  1   
 31  14  16  1   
 32  14  34  1   
 33  14  35  1   
 34  15  17  1   
 35  15  36  1   
 36  15  37  1   
 37  16  18  1   
 38  16  38  1   
 39  16  39  1   
 40  17  18  1   
 41  17  40  1   
 42  17  41  1   
@<TRIPOS>SUBSTRUCTURE
  1 ****   9 GROUP 4 **** **** 0

# MOE 2024.06 (io_trps.svl 2023.06)
