@<TRIPOS>MOLECULE
NONAME
46 46 1 0 0 
SMALL
USER_CHARGES


@<TRIPOS>ATOM
  1 N        0.4560    -0.2930     0.1600 N.4   1 <1>  -0.9590 
  2 C        1.6610     0.6140     0.0560 C.3   1 <1>   0.3430 
  3 C       -0.6730     0.3960     0.8610 C.3   1 <1>   0.3430 
  4 C        0.7580    -1.5820     0.8540 C.3   1 <1>   0.3430 
  5 C        2.7870     0.0930    -0.8860 C.3   1 <1>   0.3430 
  6 C       -1.3080     1.4220    -0.0710 C.3   1 <1>  -0.2400 
  7 C       -0.2590    -2.6330     0.4280 C.3   1 <1>  -0.2400 
  8 N        3.9840     1.0050    -0.9870 N.4   1 <1>  -0.9590 
  9 C        5.1050     0.3350    -1.7000 C.3   1 <1>   0.4810 
 10 C        3.6860     2.3310    -1.6320 C.3   1 <1>   0.2630 
 11 C        6.3670     0.9810    -1.1900 C.2   1 <1>  -0.2880 
 12 C        7.2170     0.4160    -0.3150 C.2   1 <1>  -0.1780 
 13 C        8.4340     0.9820     0.2250 C.ar  1 <1>   0.0280 
 14 C        9.0280     0.4090     1.3470 C.ar  1 <1>  -0.1500 
 15 C        9.0560     2.0970    -0.3350 C.ar  1 <1>  -0.1500 
 16 C       10.1860     0.9310     1.8950 C.ar  1 <1>  -0.1500 
 17 C       10.2130     2.6240     0.2090 C.ar  1 <1>  -0.1500 
 18 C       10.7800     2.0420     1.3280 C.ar  1 <1>  -0.1500 
 19 H        0.0940    -0.5300    -0.7770 H     1 <1>   0.4500 
 20 H        1.3400     1.5730    -0.3140 H     1 <1>   0.0800 
 21 H        2.0710     0.7610     1.0420 H     1 <1>   0.0800 
 22 H       -1.4290    -0.3230     1.1380 H     1 <1>   0.0800 
 23 H       -0.3250     0.8750     1.7630 H     1 <1>   0.0800 
 24 H        1.7420    -1.9320     0.5870 H     1 <1>   0.0800 
 25 H        0.7280    -1.4500     1.9250 H     1 <1>   0.0800 
 26 H        2.3750    -0.0510    -1.8720 H     1 <1>   0.0800 
 27 H        3.1160    -0.8660    -0.5200 H     1 <1>   0.0800 
 28 H       -1.6520     0.9580    -0.9790 H     1 <1>   0.0800 
 29 H       -0.6360     2.2280    -0.3030 H     1 <1>   0.0800 
 30 H       -2.1650     1.8500     0.4180 H     1 <1>   0.0800 
 31 H       -0.2360    -2.7870    -0.6370 H     1 <1>   0.0800 
 32 H       -1.2560    -2.3720     0.7330 H     1 <1>   0.0800 
 33 H       -0.0140    -3.5700     0.8980 H     1 <1>   0.0800 
 34 H        4.3850     1.1890    -0.0510 H     1 <1>   0.4500 
 35 H        5.1290    -0.7150    -1.4560 H     1 <1>   0.0800 
 36 H        5.0190     0.4420    -2.7710 H     1 <1>   0.0800 
 37 H        3.3340     2.1920    -2.6410 H     1 <1>   0.0800 
 38 H        4.5750     2.9410    -1.6650 H     1 <1>   0.0800 
 39 H        2.9360     2.8690    -1.0740 H     1 <1>   0.0800 
 40 H        6.5330     1.9620    -1.6000 H     1 <1>   0.1500 
 41 H        7.0180    -0.5720     0.0670 H     1 <1>   0.1500 
 42 H        8.5850    -0.4560     1.8050 H     1 <1>   0.1500 
 43 H        8.6460     2.5640    -1.2100 H     1 <1>   0.1500 
 44 H       10.6260     0.4730     2.7650 H     1 <1>   0.1500 
 45 H       10.6770     3.4870    -0.2380 H     1 <1>   0.1500 
 46 H       11.6800     2.4510     1.7530 H     1 <1>   0.1500 
@<TRIPOS>BOND
  1   1   2  1   
  2   1   3  1   
  3   1   4  1   
  4   1  19  1   
  5   2   5  1   
  6   2  20  1   
  7   2  21  1   
  8   3   6  1   
  9   3  22  1   
 10   3  23  1   
 11   4   7  1   
 12   4  24  1   
 13   4  25  1   
 14   5   8  1   
 15   5  26  1   
 16   5  27  1   
 17   6  28  1   
 18   6  29  1   
 19   6  30  1   
 20   7  31  1   
 21   7  32  1   
 22   7  33  1   
 23   8   9  1   
 24   8  10  1   
 25   8  34  1   
 26   9  11  1   
 27   9  35  1   
 28   9  36  1   
 29  10  37  1   
 30  10  38  1   
 31  10  39  1   
 32  11  12  2   
 33  11  40  1   
 34  12  13  1   
 35  12  41  1   
 36  13  14  ar  
 37  13  15  ar  
 38  14  16  ar  
 39  14  42  1   
 40  15  17  ar  
 41  15  43  1   
 42  16  18  ar  
 43  16  44  1   
 44  17  18  ar  
 45  17  45  1   
 46  18  46  1   
@<TRIPOS>SUBSTRUCTURE
  1 ****   8 GROUP 4 **** **** 0

# MOE 2024.06 (io_trps.svl 2023.06)
