@<TRIPOS>MOLECULE
NONAME
42 44 1 0 0 
SMALL
USER_CHARGES


@<TRIPOS>ATOM
  1 O       -0.4020    -0.2290    -1.5400 O.3   1 <1>  -0.3630 
  2 C       -0.3970    -1.4570    -0.9630 C.ar  1 <1>   0.0830 
  3 C        0.6170     0.7080    -1.2680 C.3   1 <1>   0.0400 
  4 C        0.5800    -1.8890    -0.0730 C.ar  1 <1>  -0.1500 
  5 C       -1.4380    -2.3070    -1.2980 C.ar  1 <1>  -0.1500 
  6 C        0.5130    -3.1580     0.4760 C.ar  1 <1>   0.0830 
  7 C       -1.5150    -3.5820    -0.7600 C.ar  1 <1>  -0.1430 
  8 O        1.5020    -3.5020     1.3390 O.3   1 <1>  -0.3630 
  9 C       -0.5380    -4.0040     0.1290 C.ar  1 <1>  -0.1500 
 10 C       -2.6560    -4.5120    -1.1320 C.3   1 <1>   0.3530 
 11 C        1.5060    -4.7560     1.9860 C.3   1 <1>   0.0400 
 12 N       -3.5020    -4.6980     0.0610 N.pl3 1 <1>  -0.8690 
 13 C       -4.8680    -4.8360    -0.1370 C.ar  1 <1>   0.1000 
 14 C       -5.7510    -3.9510     0.4720 C.ar  1 <1>  -0.1500 
 15 C       -5.3780    -5.8550    -0.9410 C.ar  1 <1>  -0.1500 
 16 C       -7.1090    -4.0860     0.2620 C.ar  1 <1>  -0.1430 
 17 C       -6.7420    -5.9860    -1.1480 C.ar  1 <1>  -0.1500 
 18 C       -7.6000    -5.0890    -0.5380 C.ar  1 <1>  -0.1430 
 19 C       -8.2240    -3.2370     0.8200 C.3   1 <1>  -0.0170 
 20 C       -9.1050    -5.0400    -0.6190 C.3   1 <1>  -0.0170 
 21 C       -9.4900    -4.0490     0.4940 C.3   1 <1>  -0.1600 
 22 H        0.4110     1.5990    -1.8310 H     1 <1>   0.0800 
 23 H        1.5620     0.2930    -1.5710 H     1 <1>   0.0800 
 24 H        0.6140     0.9310    -0.2150 H     1 <1>   0.0800 
 25 H        1.4020    -1.2630     0.2130 H     1 <1>   0.1500 
 26 H       -2.1870    -1.9540    -1.9840 H     1 <1>   0.1500 
 27 H       -0.6150    -4.9920     0.5420 H     1 <1>   0.1500 
 28 H       -2.2680    -5.4650    -1.4480 H     1 <1>   0.0800 
 29 H       -3.2390    -4.0930    -1.9350 H     1 <1>   0.0800 
 30 H        2.3660    -4.7970     2.6290 H     1 <1>   0.0800 
 31 H        1.5680    -5.5310     1.2430 H     1 <1>   0.0800 
 32 H        0.6070    -4.8510     2.5690 H     1 <1>   0.0800 
 33 H       -3.2650    -3.9680     0.7400 H     1 <1>   0.4000 
 34 H       -5.3750    -3.1660     1.1000 H     1 <1>   0.1500 
 35 H       -4.6990    -6.5500    -1.3970 H     1 <1>   0.1500 
 36 H       -7.1280    -6.7730    -1.7690 H     1 <1>   0.1500 
 37 H       -8.2380    -2.2890     0.3120 H     1 <1>   0.0800 
 38 H       -8.1130    -3.0860     1.8790 H     1 <1>   0.0800 
 39 H       -9.5410    -6.0090    -0.4540 H     1 <1>   0.0800 
 40 H       -9.3990    -4.6640    -1.5830 H     1 <1>   0.0800 
 41 H      -10.3070    -3.4150     0.2000 H     1 <1>   0.0800 
 42 H       -9.7760    -4.6070     1.3680 H     1 <1>   0.0800 
@<TRIPOS>BOND
  1   1   2  1   
  2   1   3  1   
  3   2   4  ar  
  4   2   5  ar  
  5   3  22  1   
  6   3  23  1   
  7   3  24  1   
  8   4   6  ar  
  9   4  25  1   
 10   5   7  ar  
 11   5  26  1   
 12   6   8  1   
 13   6   9  ar  
 14   7   9  ar  
 15   7  10  1   
 16   8  11  1   
 17   9  27  1   
 18  10  12  1   
 19  10  28  1   
 20  10  29  1   
 21  11  30  1   
 22  11  31  1   
 23  11  32  1   
 24  12  13  1   
 25  12  33  1   
 26  13  14  ar  
 27  13  15  ar  
 28  14  16  ar  
 29  14  34  1   
 30  15  17  ar  
 31  15  35  1   
 32  16  18  ar  
 33  16  19  1   
 34  17  18  ar  
 35  17  36  1   
 36  18  20  1   
 37  19  21  1   
 38  19  37  1   
 39  19  38  1   
 40  20  21  1   
 41  20  39  1   
 42  20  40  1   
 43  21  41  1   
 44  21  42  1   
@<TRIPOS>SUBSTRUCTURE
  1 ****  12 GROUP 4 **** **** 0

# MOE 2024.06 (io_trps.svl 2023.06)
