@<TRIPOS>MOLECULE
NONAME
36 37 1 0 0 
SMALL
USER_CHARGES


@<TRIPOS>ATOM
  1 O        0.9200     1.6990    -2.2910 O.2   1 <1>  -0.5700 
  2 C        0.1270     1.4710    -1.4100 C.2   1 <1>   0.5690 
  3 N        0.5070     1.0940    -0.1590 N.am  1 <1>  -0.7300 
  4 C       -1.3540     1.6130    -1.7220 C.3   1 <1>   0.0440 
  5 C        1.8800     0.8500     0.3530 C.3   1 <1>   0.2200 
  6 C       -2.2530     1.3030    -0.5280 C.ar  1 <1>  -0.1440 
  7 C        2.8800     1.9670    -0.0280 C.3   1 <1>   0.2000 
  8 C        2.3300    -0.5280    -0.1350 C.3   1 <1>  -0.2400 
  9 C       -2.6280     2.3120     0.3470 C.ar  1 <1>  -0.1500 
 10 C       -2.6860     0.0060    -0.2970 C.ar  1 <1>  -0.1500 
 11 O        4.0770     1.7930     0.6640 O.3   1 <1>  -0.5600 
 12 C        2.4440     3.3790     0.3500 C.3   1 <1>  -0.1600 
 13 C       -3.4270     2.0270     1.4400 C.ar  1 <1>  -0.1500 
 14 C       -3.4850    -0.2790     0.7970 C.ar  1 <1>  -0.1500 
 15 C        4.7970     2.9810     0.6530 C.3   1 <1>   0.1200 
 16 C        3.7580     4.0990     0.6170 C.3   1 <1>  -0.1600 
 17 C       -3.8550     0.7310     1.6670 C.ar  1 <1>  -0.1500 
 18 H       -0.2440     0.8930     0.5090 H     1 <1>   0.3700 
 19 H       -1.5900     0.9530    -2.5360 H     1 <1>   0.0800 
 20 H       -1.5310     2.6170    -2.0610 H     1 <1>   0.0800 
 21 H        1.8230     0.8310     1.4280 H     1 <1>   0.0800 
 22 H        3.1130     1.9170    -1.0780 H     1 <1>   0.0800 
 23 H        2.4060    -0.5360    -1.2070 H     1 <1>   0.0800 
 24 H        1.6350    -1.2830     0.1830 H     1 <1>   0.0800 
 25 H        3.2970    -0.7590     0.2760 H     1 <1>   0.0800 
 26 H       -2.3000     3.3240     0.1820 H     1 <1>   0.1500 
 27 H       -2.4030    -0.7890    -0.9660 H     1 <1>   0.1500 
 28 H        1.8460     3.3510     1.2440 H     1 <1>   0.0800 
 29 H        1.8770     3.8330    -0.4430 H     1 <1>   0.0800 
 30 H       -3.7160     2.8140     2.1160 H     1 <1>   0.1500 
 31 H       -3.8180    -1.2880     0.9710 H     1 <1>   0.1500 
 32 H        5.4100     2.9890    -0.2320 H     1 <1>   0.0800 
 33 H        5.4150     3.0200     1.5340 H     1 <1>   0.0800 
 34 H        3.7310     4.6240     1.5550 H     1 <1>   0.0800 
 35 H        3.9940     4.7930    -0.1700 H     1 <1>   0.0800 
 36 H       -4.4770     0.5090     2.5170 H     1 <1>   0.1500 
@<TRIPOS>BOND
  1   1   2  2   
  2   2   3  am  
  3   2   4  1   
  4   3   5  1   
  5   3  18  1   
  6   4   6  1   
  7   4  19  1   
  8   4  20  1   
  9   5   7  1   
 10   5   8  1   
 11   5  21  1   
 12   6   9  ar  
 13   6  10  ar  
 14   7  11  1   
 15   7  12  1   
 16   7  22  1   
 17   8  23  1   
 18   8  24  1   
 19   8  25  1   
 20   9  13  ar  
 21   9  26  1   
 22  10  14  ar  
 23  10  27  1   
 24  11  15  1   
 25  12  16  1   
 26  12  28  1   
 27  12  29  1   
 28  13  17  ar  
 29  13  30  1   
 30  14  17  ar  
 31  14  31  1   
 32  15  16  1   
 33  15  32  1   
 34  15  33  1   
 35  16  34  1   
 36  16  35  1   
 37  17  36  1   
@<TRIPOS>SUBSTRUCTURE
  1 ****   3 GROUP 4 **** **** 0

# MOE 2024.06 (io_trps.svl 2023.06)
