@<TRIPOS>MOLECULE
NONAME
44 46 1 0 0 
SMALL
USER_CHARGES


@<TRIPOS>ATOM
  1 F       -1.8740     2.8660    -2.0000 F     1 <1>  -0.1900 
  2 C       -1.1340     2.8950    -0.9220 C.ar  1 <1>   0.1900 
  3 C       -1.5750     2.2260     0.2090 C.ar  1 <1>  -0.1440 
  4 C        0.0510     3.6040    -0.9550 C.ar  1 <1>  -0.1500 
  5 C       -0.7840     2.2780     1.3480 C.ar  1 <1>  -0.1500 
  6 C       -2.8850     1.4650     0.1900 C.3   1 <1>   0.4870 
  7 C        0.8260     3.6470     0.1900 C.ar  1 <1>  -0.1500 
  8 C        0.4080     2.9860     1.3350 C.ar  1 <1>  -0.1500 
  9 N       -4.0040     2.4260     0.0120 N.4   1 <1>  -0.9590 
 10 C       -4.0930     3.4200     1.1470 C.3   1 <1>   0.3430 
 11 C       -5.3230     1.7300    -0.2030 C.3   1 <1>   0.3430 
 12 C       -5.2500     4.4210     0.9610 C.3   1 <1>   0.2090 
 13 C       -6.4860     2.7240    -0.3970 C.3   1 <1>   0.2090 
 14 N       -6.5410     3.7080     0.7240 N.pl3 1 <1>  -0.8380 
 15 C       -7.6670     4.5430     0.7060 C.ar  1 <1>   0.1000 
 16 C       -7.9120     5.5120    -0.2860 C.ar  1 <1>   0.0830 
 17 C       -8.5860     4.3930     1.7340 C.ar  1 <1>  -0.1500 
 18 O       -6.9980     5.6540    -1.2980 O.3   1 <1>  -0.3630 
 19 C       -9.0630     6.2920    -0.2140 C.ar  1 <1>  -0.1500 
 20 C       -9.7270     5.1720     1.7970 C.ar  1 <1>  -0.1500 
 21 C       -7.1720     6.6230    -2.3100 C.3   1 <1>   0.0400 
 22 C       -9.9650     6.1220     0.8230 C.ar  1 <1>  -0.1500 
 23 H        0.3600     4.1090    -1.8540 H     1 <1>   0.1500 
 24 H       -1.0760     1.7700     2.2530 H     1 <1>   0.1500 
 25 H       -3.0080     0.9190     1.1110 H     1 <1>   0.0800 
 26 H       -2.8710     0.7620    -0.6260 H     1 <1>   0.0800 
 27 H        1.7560     4.1930     0.1920 H     1 <1>   0.1500 
 28 H        1.0220     3.0230     2.2210 H     1 <1>   0.1500 
 29 H       -3.7910     2.9660    -0.8400 H     1 <1>   0.4500 
 30 H       -3.1690     3.9680     1.2300 H     1 <1>   0.0800 
 31 H       -4.2520     2.8960     2.0740 H     1 <1>   0.0800 
 32 H       -5.5520     1.1160     0.6520 H     1 <1>   0.0800 
 33 H       -5.2650     1.0900    -1.0680 H     1 <1>   0.0800 
 34 H       -5.0320     5.0740     0.1340 H     1 <1>   0.0800 
 35 H       -5.3430     5.0290     1.8440 H     1 <1>   0.0800 
 36 H       -7.4170     2.1840    -0.4350 H     1 <1>   0.0800 
 37 H       -6.3680     3.2390    -1.3340 H     1 <1>   0.0800 
 38 H       -8.4010     3.6540     2.4920 H     1 <1>   0.1500 
 39 H       -9.2850     7.0400    -0.9500 H     1 <1>   0.1500 
 40 H      -10.4270     5.0390     2.6040 H     1 <1>   0.1500 
 41 H       -6.3360     6.5600    -2.9830 H     1 <1>   0.0800 
 42 H       -7.2040     7.5990    -1.8590 H     1 <1>   0.0800 
 43 H       -8.0840     6.4140    -2.8420 H     1 <1>   0.0800 
 44 H      -10.8520     6.7300     0.8710 H     1 <1>   0.1500 
@<TRIPOS>BOND
  1   1   2  1   
  2   2   3  ar  
  3   2   4  ar  
  4   3   5  ar  
  5   3   6  1   
  6   4   7  ar  
  7   4  23  1   
  8   5   8  ar  
  9   5  24  1   
 10   6   9  1   
 11   6  25  1   
 12   6  26  1   
 13   7   8  ar  
 14   7  27  1   
 15   8  28  1   
 16   9  10  1   
 17   9  11  1   
 18   9  29  1   
 19  10  12  1   
 20  10  30  1   
 21  10  31  1   
 22  11  13  1   
 23  11  32  1   
 24  11  33  1   
 25  12  14  1   
 26  12  34  1   
 27  12  35  1   
 28  13  14  1   
 29  13  36  1   
 30  13  37  1   
 31  14  15  1   
 32  15  16  ar  
 33  15  17  ar  
 34  16  18  1   
 35  16  19  ar  
 36  17  20  ar  
 37  17  38  1   
 38  18  21  1   
 39  19  22  ar  
 40  19  39  1   
 41  20  22  ar  
 42  20  40  1   
 43  21  41  1   
 44  21  42  1   
 45  21  43  1   
 46  22  44  1   
@<TRIPOS>SUBSTRUCTURE
  1 ****  12 GROUP 4 **** **** 0

# MOE 2024.06 (io_trps.svl 2023.06)
