@<TRIPOS>MOLECULE
NONAME
30 30 1 0 0 
SMALL
USER_CHARGES


@<TRIPOS>ATOM
  1 F        1.1340     0.5900     1.6750 F     1 <1>  -0.1900 
  2 C        2.0510     1.2200     0.9910 C.ar  1 <1>   0.1900 
  3 C        2.7620     2.2330     1.6040 C.ar  1 <1>  -0.1500 
  4 C        2.2760     0.8490    -0.3200 C.ar  1 <1>  -0.1500 
  5 C        3.7330     2.8970     0.8730 C.ar  1 <1>  -0.1500 
  6 C        3.2490     1.5210    -1.0410 C.ar  1 <1>  -0.1500 
  7 C        3.9770     2.5470    -0.4490 C.ar  1 <1>  -0.1430 
  8 C        5.0470     3.2770    -1.2520 C.3   1 <1>   0.0440 
  9 C        6.3650     2.5320    -1.2360 C.2   1 <1>   0.6590 
 10 O        6.7710     1.9710    -2.2220 O.2   1 <1>  -0.5700 
 11 O        7.0180     2.5560    -0.0780 O.3   1 <1>  -0.4300 
 12 C        8.2350     1.9190     0.2380 C.3   1 <1>   0.2800 
 13 C        9.3630     2.4800    -0.6340 C.3   1 <1>  -0.2400 
 14 C        8.5020     2.2620     1.7040 C.3   1 <1>  -0.2400 
 15 C        8.0830     0.4020     0.0880 C.3   1 <1>  -0.2400 
 16 H        2.5600     2.4900     2.6280 H     1 <1>   0.1500 
 17 H        1.7040     0.0530    -0.7620 H     1 <1>   0.1500 
 18 H        4.2990     3.6850     1.3410 H     1 <1>   0.1500 
 19 H        3.4410     1.2400    -2.0630 H     1 <1>   0.1500 
 20 H        5.2040     4.2610    -0.8530 H     1 <1>   0.0800 
 21 H        4.7230     3.3850    -2.2710 H     1 <1>   0.0800 
 22 H        9.4000     3.5520    -0.5560 H     1 <1>   0.0800 
 23 H        9.2310     2.2040    -1.6630 H     1 <1>   0.0800 
 24 H       10.3080     2.0830    -0.3100 H     1 <1>   0.0800 
 25 H        9.4190     1.8090     2.0320 H     1 <1>   0.0800 
 26 H        7.7020     1.8970     2.3230 H     1 <1>   0.0800 
 27 H        8.5850     3.3270     1.8290 H     1 <1>   0.0800 
 28 H        8.9650    -0.0930     0.4500 H     1 <1>   0.0800 
 29 H        7.9550     0.1250    -0.9420 H     1 <1>   0.0800 
 30 H        7.2390     0.0520     0.6550 H     1 <1>   0.0800 
@<TRIPOS>BOND
  1   1   2  1   
  2   2   3  ar  
  3   2   4  ar  
  4   3   5  ar  
  5   3  16  1   
  6   4   6  ar  
  7   4  17  1   
  8   5   7  ar  
  9   5  18  1   
 10   6   7  ar  
 11   6  19  1   
 12   7   8  1   
 13   8   9  1   
 14   8  20  1   
 15   8  21  1   
 16   9  10  2   
 17   9  11  1   
 18  11  12  1   
 19  12  13  1   
 20  12  14  1   
 21  12  15  1   
 22  13  22  1   
 23  13  23  1   
 24  13  24  1   
 25  14  25  1   
 26  14  26  1   
 27  14  27  1   
 28  15  28  1   
 29  15  29  1   
 30  15  30  1   
@<TRIPOS>SUBSTRUCTURE
  1 ****   7 GROUP 4 **** **** 0

# MOE 2024.06 (io_trps.svl 2023.06)
