@<TRIPOS>MOLECULE
NONAME
49 50 1 0 0 
SMALL
USER_CHARGES


@<TRIPOS>ATOM
  1 O        0.6810     0.4600     0.7950 O.2   1 <1>  -0.5700 
  2 C        0.3880     1.5480     0.3710 C.2   1 <1>   0.6590 
  3 O       -0.8450     2.0250     0.4150 O.3   1 <1>  -0.4300 
  4 C        1.4290     2.4580    -0.2580 C.3   1 <1>  -0.0190 
  5 C       -1.9050     1.2850     0.9760 C.3   1 <1>   0.1200 
  6 C        2.7010     1.6450    -0.5660 C.3   1 <1>   0.3430 
  7 C        1.7360     3.6860     0.6230 C.3   1 <1>  -0.1600 
  8 C       -3.1740     2.1250     0.8730 C.3   1 <1>  -0.2400 
  9 N        3.9550     2.4710    -0.5030 N.4   1 <1>  -0.9590 
 10 C        2.7870     4.5970    -0.0420 C.3   1 <1>  -0.1600 
 11 C        3.7570     3.8680    -0.9830 C.3   1 <1>   0.3430 
 12 C        5.0940     1.7900    -1.1760 C.3   1 <1>   0.4860 
 13 C        6.3650     2.5420    -0.8400 C.ar  1 <1>  -0.1440 
 14 C        6.9240     2.4430     0.4250 C.ar  1 <1>  -0.1500 
 15 C        6.9780     3.3430    -1.7920 C.ar  1 <1>  -0.1500 
 16 C        8.0710     3.1510     0.7360 C.ar  1 <1>  -0.1500 
 17 C        8.1250     4.0480    -1.4760 C.ar  1 <1>  -0.1500 
 18 C        8.6810     3.9620    -0.2090 C.ar  1 <1>  -0.1440 
 19 C        9.9490     4.7480     0.1210 C.3   1 <1>   0.0630 
 20 C       11.0990     3.8040     0.4850 C.3   1 <1>  -0.2400 
 21 C        9.6930     5.7520     1.2490 C.3   1 <1>  -0.2400 
 22 H        1.0170     2.8000    -1.1900 H     1 <1>   0.0800 
 23 H       -1.6670     1.0700     2.0050 H     1 <1>   0.0800 
 24 H       -2.0070     0.3620     0.4300 H     1 <1>   0.0800 
 25 H        2.5950     1.2040    -1.5440 H     1 <1>   0.0800 
 26 H        2.7910     0.8380     0.1440 H     1 <1>   0.0800 
 27 H        2.1050     3.3480     1.5770 H     1 <1>   0.0800 
 28 H        0.8340     4.2480     0.8090 H     1 <1>   0.0800 
 29 H       -3.0570     3.0450     1.4160 H     1 <1>   0.0800 
 30 H       -4.0010     1.5830     1.2950 H     1 <1>   0.0800 
 31 H       -3.3970     2.3390    -0.1570 H     1 <1>   0.0800 
 32 H        4.2280     2.5590     0.4850 H     1 <1>   0.4500 
 33 H        3.3500     5.1050     0.7230 H     1 <1>   0.0800 
 34 H        2.2880     5.3610    -0.6140 H     1 <1>   0.0800 
 35 H        3.3490     3.8500    -1.9810 H     1 <1>   0.0800 
 36 H        4.6950     4.4010    -1.0090 H     1 <1>   0.0800 
 37 H        4.9450     1.7740    -2.2440 H     1 <1>   0.0800 
 38 H        5.1810     0.7740    -0.8260 H     1 <1>   0.0800 
 39 H        6.4840     1.8170     1.1830 H     1 <1>   0.1500 
 40 H        6.5770     3.4290    -2.7880 H     1 <1>   0.1500 
 41 H        8.4940     3.0650     1.7220 H     1 <1>   0.1500 
 42 H        8.5890     4.6660    -2.2260 H     1 <1>   0.1500 
 43 H       10.2490     5.3060    -0.7500 H     1 <1>   0.0800 
 44 H       10.8790     3.2560     1.3830 H     1 <1>   0.0800 
 45 H       12.0050     4.3630     0.6380 H     1 <1>   0.0800 
 46 H       11.2630     3.1020    -0.3130 H     1 <1>   0.0800 
 47 H        9.4400     5.2480     2.1640 H     1 <1>   0.0800 
 48 H        8.8820     6.4060     0.9810 H     1 <1>   0.0800 
 49 H       10.5700     6.3510     1.4200 H     1 <1>   0.0800 
@<TRIPOS>BOND
  1   1   2  2   
  2   2   3  1   
  3   2   4  1   
  4   3   5  1   
  5   4   6  1   
  6   4   7  1   
  7   4  22  1   
  8   5   8  1   
  9   5  23  1   
 10   5  24  1   
 11   6   9  1   
 12   6  25  1   
 13   6  26  1   
 14   7  10  1   
 15   7  27  1   
 16   7  28  1   
 17   8  29  1   
 18   8  30  1   
 19   8  31  1   
 20   9  11  1   
 21   9  12  1   
 22   9  32  1   
 23  10  11  1   
 24  10  33  1   
 25  10  34  1   
 26  11  35  1   
 27  11  36  1   
 28  12  13  1   
 29  12  37  1   
 30  12  38  1   
 31  13  14  ar  
 32  13  15  ar  
 33  14  16  ar  
 34  14  39  1   
 35  15  17  ar  
 36  15  40  1   
 37  16  18  ar  
 38  16  41  1   
 39  17  18  ar  
 40  17  42  1   
 41  18  19  1   
 42  19  20  1   
 43  19  21  1   
 44  19  43  1   
 45  20  44  1   
 46  20  45  1   
 47  20  46  1   
 48  21  47  1   
 49  21  48  1   
 50  21  49  1   
@<TRIPOS>SUBSTRUCTURE
  1 ****   9 GROUP 4 **** **** 0

# MOE 2024.06 (io_trps.svl 2023.06)
