@<TRIPOS>MOLECULE
NONAME
49 50 1 0 0 
SMALL
USER_CHARGES


@<TRIPOS>ATOM
  1 S        0.3770     0.3900     0.8030 S.o2  1 <1>   1.4470 
  2 O        0.5300     1.6440     1.5120 O.2   1 <1>  -0.6500 
  3 O        0.0580    -0.7890     1.5840 O.2   1 <1>  -0.6500 
  4 N       -0.8780     0.5410    -0.3350 N.am  1 <1>  -0.8490 
  5 C        1.8590     0.0660    -0.1850 C.ar  1 <1>  -0.0090 
  6 C       -1.9890     1.3720     0.1620 C.3   1 <1>   0.2760 
  7 C       -1.2120    -0.7390    -0.9750 C.3   1 <1>   0.1160 
  8 C        2.3260     0.9850    -1.1180 C.ar  1 <1>   0.0830 
  9 C        2.5730    -1.1180    -0.0310 C.ar  1 <1>  -0.1500 
 10 C       -3.3990     0.8810    -0.2290 C.3   1 <1>  -0.1600 
 11 C       -1.7790     2.7980    -0.3680 C.3   1 <1>  -0.1600 
 12 O        1.6740     2.1470    -1.3200 O.3   1 <1>  -0.3630 
 13 C        3.4570     0.7220    -1.8760 C.ar  1 <1>  -0.1500 
 14 C        3.7110    -1.3950    -0.7770 C.ar  1 <1>  -0.1430 
 15 C       -4.4880     1.8310     0.2910 C.3   1 <1>  -0.1600 
 16 C       -2.8630     3.7630     0.1340 C.3   1 <1>  -0.1600 
 17 C        2.2430     3.2990    -0.7420 C.3   1 <1>   0.0400 
 18 C        4.1470    -0.4620    -1.7040 C.ar  1 <1>  -0.1500 
 19 C        4.4800    -2.7020    -0.5900 C.3   1 <1>   0.0630 
 20 C       -4.2660     3.2580    -0.2230 C.3   1 <1>  -0.1600 
 21 C        3.5990    -3.9070    -0.9360 C.3   1 <1>  -0.2400 
 22 C        5.0230    -2.8180     0.8370 C.3   1 <1>  -0.2400 
 23 H       -1.9570     1.3990     1.2400 H     1 <1>   0.0800 
 24 H       -0.3150    -1.2180    -1.3290 H     1 <1>   0.0800 
 25 H       -1.8500    -0.5800    -1.8260 H     1 <1>   0.0800 
 26 H       -1.6980    -1.3970    -0.2740 H     1 <1>   0.0800 
 27 H        2.2280    -1.8370     0.6910 H     1 <1>   0.1500 
 28 H       -3.5760    -0.0930     0.1900 H     1 <1>   0.0800 
 29 H       -3.4830     0.8280    -1.3000 H     1 <1>   0.0800 
 30 H       -1.7900     2.7780    -1.4440 H     1 <1>   0.0800 
 31 H       -0.8200     3.1660    -0.0540 H     1 <1>   0.0800 
 32 H        3.7880     1.4440    -2.6000 H     1 <1>   0.1500 
 33 H       -4.4760     1.8340     1.3680 H     1 <1>   0.0800 
 34 H       -5.4550     1.4810    -0.0260 H     1 <1>   0.0800 
 35 H       -2.7080     4.7360    -0.2990 H     1 <1>   0.0800 
 36 H       -2.7800     3.8610     1.2040 H     1 <1>   0.0800 
 37 H        1.5910     4.1310    -0.9410 H     1 <1>   0.0800 
 38 H        3.2100     3.4730    -1.1800 H     1 <1>   0.0800 
 39 H        2.3310     3.1510     0.3200 H     1 <1>   0.0800 
 40 H        5.0240    -0.6520    -2.2980 H     1 <1>   0.1500 
 41 H        5.3220    -2.7080    -1.2620 H     1 <1>   0.0800 
 42 H       -5.0050     3.9150     0.2020 H     1 <1>   0.0800 
 43 H       -4.3870     3.2750    -1.2930 H     1 <1>   0.0800 
 44 H        2.7670    -3.9820    -0.2600 H     1 <1>   0.0800 
 45 H        4.1720    -4.8150    -0.8770 H     1 <1>   0.0800 
 46 H        3.2200    -3.8070    -1.9380 H     1 <1>   0.0800 
 47 H        4.2210    -2.8680     1.5520 H     1 <1>   0.0800 
 48 H        5.6320    -1.9610     1.0670 H     1 <1>   0.0800 
 49 H        5.6260    -3.7020     0.9360 H     1 <1>   0.0800 
@<TRIPOS>BOND
  1   1   2  2   
  2   1   3  2   
  3   1   4  am  
  4   1   5  1   
  5   4   6  1   
  6   4   7  1   
  7   5   8  ar  
  8   5   9  ar  
  9   6  10  1   
 10   6  11  1   
 11   6  23  1   
 12   7  24  1   
 13   7  25  1   
 14   7  26  1   
 15   8  12  1   
 16   8  13  ar  
 17   9  14  ar  
 18   9  27  1   
 19  10  15  1   
 20  10  28  1   
 21  10  29  1   
 22  11  16  1   
 23  11  30  1   
 24  11  31  1   
 25  12  17  1   
 26  13  18  ar  
 27  13  32  1   
 28  14  18  ar  
 29  14  19  1   
 30  15  20  1   
 31  15  33  1   
 32  15  34  1   
 33  16  20  1   
 34  16  35  1   
 35  16  36  1   
 36  17  37  1   
 37  17  38  1   
 38  17  39  1   
 39  18  40  1   
 40  19  21  1   
 41  19  22  1   
 42  19  41  1   
 43  20  42  1   
 44  20  43  1   
 45  21  44  1   
 46  21  45  1   
 47  21  46  1   
 48  22  47  1   
 49  22  48  1   
 50  22  49  1   
@<TRIPOS>SUBSTRUCTURE
  1 ****   1 GROUP 4 **** **** 0

# MOE 2024.06 (io_trps.svl 2023.06)
