@<TRIPOS>MOLECULE
NONAME
41 42 1 0 0 
SMALL
USER_CHARGES


@<TRIPOS>ATOM
  1 O       -0.5880    -0.4110     0.7920 O.co2 1 <1>  -0.9000 
  2 C        0.0350    -1.0330    -0.0900 C.2   1 <1>   0.9790 
  3 O        0.5550    -0.3870    -1.0170 O.co2 1 <1>  -0.9000 
  4 C        0.0130    -2.4830    -0.0830 C.ar  1 <1>  -0.1790 
  5 C        1.1460    -3.2930    -0.1830 C.ar  1 <1>   0.0830 
  6 C       -1.2170    -3.1270     0.0290 C.ar  1 <1>  -0.1500 
  7 O        2.3740    -2.7550    -0.2430 O.3   1 <1>  -0.5320 
  8 C        1.0370    -4.6750    -0.2090 C.ar  1 <1>  -0.1500 
  9 C       -1.3530    -4.5070     0.0130 C.ar  1 <1>   0.1170 
 10 C       -0.2030    -5.2790    -0.1140 C.ar  1 <1>  -0.1500 
 11 N       -2.6510    -5.0280     0.1240 N.am  1 <1>  -0.5470 
 12 C       -3.1750    -6.2940     0.1250 C.2   1 <1>   0.7160 
 13 O       -2.4520    -7.2710     0.1130 O.2   1 <1>  -0.5700 
 14 C       -4.6130    -6.4300     0.1480 C.2   1 <1>  -0.0860 
 15 C       -5.4010    -7.4790     0.5190 C.2   1 <1>  -0.0400 
 16 C       -5.5390    -5.4320    -0.2340 C.2   1 <1>  -0.1500 
 17 O       -6.6700    -7.1810     0.3950 O.3   1 <1>  -0.2800 
 18 C       -5.0580    -8.8630     1.0320 C.3   1 <1>  -0.0600 
 19 C       -6.7730    -5.9490    -0.0600 C.2   1 <1>  -0.0400 
 20 C       -8.1660    -5.3600    -0.2980 C.3   1 <1>   0.1800 
 21 C       -8.9410    -5.3380     1.0250 C.3   1 <1>  -0.2400 
 22 C       -8.9170    -6.2240    -1.3180 C.3   1 <1>  -0.2400 
 23 C       -8.0640    -3.9270    -0.8390 C.3   1 <1>  -0.2400 
 24 H       -2.0870    -2.5020     0.1290 H     1 <1>   0.1500 
 25 H        3.0720    -3.3990    -0.4340 H     1 <1>   0.4500 
 26 H        1.9160    -5.2840    -0.2970 H     1 <1>   0.1500 
 27 H       -0.2640    -6.3500    -0.1360 H     1 <1>   0.1500 
 28 H       -3.3560    -4.3080     0.2490 H     1 <1>   0.3700 
 29 H       -5.2840    -4.4550    -0.6020 H     1 <1>   0.1500 
 30 H       -3.9960    -8.9890     1.1370 H     1 <1>   0.0800 
 31 H       -5.4280    -9.6030     0.3460 H     1 <1>   0.0800 
 32 H       -5.5190    -9.0160     1.9900 H     1 <1>   0.0800 
 33 H       -9.0450    -6.3360     1.4110 H     1 <1>   0.0800 
 34 H       -9.9220    -4.9210     0.8860 H     1 <1>   0.0800 
 35 H       -8.4140    -4.7490     1.7540 H     1 <1>   0.0800 
 36 H       -8.3710    -6.2630    -2.2440 H     1 <1>   0.0800 
 37 H       -9.8970    -5.8250    -1.5100 H     1 <1>   0.0800 
 38 H       -9.0230    -7.2290    -0.9490 H     1 <1>   0.0800 
 39 H       -9.0440    -3.5160    -1.0060 H     1 <1>   0.0800 
 40 H       -7.5470    -3.2970    -0.1370 H     1 <1>   0.0800 
 41 H       -7.5280    -3.9160    -1.7720 H     1 <1>   0.0800 
@<TRIPOS>BOND
  1   1   2  ar  
  2   2   3  ar  
  3   2   4  1   
  4   4   5  ar  
  5   4   6  ar  
  6   5   7  1   
  7   5   8  ar  
  8   6   9  ar  
  9   6  24  1   
 10   7  25  1   
 11   8  10  ar  
 12   8  26  1   
 13   9  10  ar  
 14   9  11  1   
 15  10  27  1   
 16  11  12  am  
 17  11  28  1   
 18  12  13  2   
 19  12  14  1   
 20  14  15  2   
 21  14  16  1   
 22  15  17  1   
 23  15  18  1   
 24  16  19  2   
 25  16  29  1   
 26  17  19  1   
 27  18  30  1   
 28  18  31  1   
 29  18  32  1   
 30  19  20  1   
 31  20  21  1   
 32  20  22  1   
 33  20  23  1   
 34  21  33  1   
 35  21  34  1   
 36  21  35  1   
 37  22  36  1   
 38  22  37  1   
 39  22  38  1   
 40  23  39  1   
 41  23  40  1   
 42  23  41  1   
@<TRIPOS>SUBSTRUCTURE
  1 ****  11 GROUP 4 **** **** 0

# MOE 2024.06 (io_trps.svl 2023.06)
