@<TRIPOS>MOLECULE
NONAME
48 50 1 0 0 
SMALL
USER_CHARGES


@<TRIPOS>ATOM
  1 O       -0.3710    -0.7720    -1.5920 O.3   1 <1>  -0.6800 
  2 C       -0.5460    -2.0650    -1.1430 C.3   1 <1>   0.2000 
  3 C       -1.3710    -2.0370     0.1550 C.3   1 <1>  -0.0800 
  4 C        0.8360    -2.7160    -0.9450 C.3   1 <1>  -0.0800 
  5 C       -1.4420    -3.4300     0.8240 C.3   1 <1>   0.5670 
  6 C       -2.7730    -1.4220    -0.0590 C.3   1 <1>  -0.2400 
  7 C        0.6120    -4.1450    -0.4120 C.3   1 <1>   0.5660 
  8 C        1.8070    -1.8610    -0.0870 C.3   1 <1>  -0.2400 
  9 N       -0.1110    -4.1170     0.8920 N.4   1 <1>  -0.9590 
 10 C       -2.5270    -4.3650     0.2710 C.ar  1 <1>  -0.1440 
 11 C        1.9080    -4.9510    -0.3020 C.ar  1 <1>  -0.1440 
 12 C       -0.2450    -5.4940     1.4820 C.3   1 <1>   0.2630 
 13 C       -2.5790    -4.8270    -1.0420 C.ar  1 <1>  -0.1500 
 14 C       -3.5170    -4.7770     1.1550 C.ar  1 <1>  -0.1500 
 15 C        2.8090    -4.8080     0.7500 C.ar  1 <1>  -0.1500 
 16 C        2.1850    -5.8820    -1.2950 C.ar  1 <1>  -0.1500 
 17 C       -3.5870    -5.6820    -1.4500 C.ar  1 <1>  -0.1500 
 18 C       -4.5250    -5.6310     0.7470 C.ar  1 <1>  -0.1500 
 19 C        3.9560    -5.5790     0.8050 C.ar  1 <1>  -0.1500 
 20 C        3.3310    -6.6530    -1.2390 C.ar  1 <1>  -0.1500 
 21 C       -4.5600    -6.0870    -0.5570 C.ar  1 <1>  -0.1500 
 22 C        4.2170    -6.5030    -0.1890 C.ar  1 <1>  -0.1500 
 23 H       -1.2260    -0.3520    -1.8130 H     1 <1>   0.4000 
 24 H       -1.0850    -2.5830    -1.9170 H     1 <1>   0.0800 
 25 H       -0.8590    -1.3970     0.8520 H     1 <1>   0.0800 
 26 H        1.2790    -2.8130    -1.9220 H     1 <1>   0.0800 
 27 H       -1.7390    -3.2340     1.8410 H     1 <1>   0.0800 
 28 H       -3.3180    -1.9470    -0.8260 H     1 <1>   0.0800 
 29 H       -2.6960    -0.3880    -0.3470 H     1 <1>   0.0800 
 30 H       -3.3460    -1.4620     0.8510 H     1 <1>   0.0800 
 31 H       -0.0050    -4.6630    -1.1240 H     1 <1>   0.0800 
 32 H        1.4820    -1.7680     0.9320 H     1 <1>   0.0800 
 33 H        1.8950    -0.8690    -0.4970 H     1 <1>   0.0800 
 34 H        2.7970    -2.2800    -0.1030 H     1 <1>   0.0800 
 35 H        0.4880    -3.5590     1.5060 H     1 <1>   0.4500 
 36 H       -0.8090    -6.1330     0.8200 H     1 <1>   0.0800 
 37 H       -0.7560    -5.4500     2.4300 H     1 <1>   0.0800 
 38 H        0.7240    -5.9410     1.6390 H     1 <1>   0.0800 
 39 H       -1.8580    -4.5430    -1.7810 H     1 <1>   0.1500 
 40 H       -3.5250    -4.4380     2.1780 H     1 <1>   0.1500 
 41 H        2.6420    -4.0970     1.5390 H     1 <1>   0.1500 
 42 H        1.5150    -6.0220    -2.1270 H     1 <1>   0.1500 
 43 H       -3.6220    -6.0350    -2.4670 H     1 <1>   0.1500 
 44 H       -5.2880    -5.9430     1.4410 H     1 <1>   0.1500 
 45 H        4.6520    -5.4620     1.6190 H     1 <1>   0.1500 
 46 H        3.5390    -7.3720    -2.0140 H     1 <1>   0.1500 
 47 H       -5.3450    -6.7510    -0.8760 H     1 <1>   0.1500 
 48 H        5.1110    -7.1030    -0.1470 H     1 <1>   0.1500 
@<TRIPOS>BOND
  1   1   2  1   
  2   1  23  1   
  3   2   3  1   
  4   2   4  1   
  5   2  24  1   
  6   3   5  1   
  7   3   6  1   
  8   3  25  1   
  9   4   7  1   
 10   4   8  1   
 11   4  26  1   
 12   5   9  1   
 13   5  10  1   
 14   5  27  1   
 15   6  28  1   
 16   6  29  1   
 17   6  30  1   
 18   7   9  1   
 19   7  11  1   
 20   7  31  1   
 21   8  32  1   
 22   8  33  1   
 23   8  34  1   
 24   9  12  1   
 25   9  35  1   
 26  10  13  ar  
 27  10  14  ar  
 28  11  15  ar  
 29  11  16  ar  
 30  12  36  1   
 31  12  37  1   
 32  12  38  1   
 33  13  17  ar  
 34  13  39  1   
 35  14  18  ar  
 36  14  40  1   
 37  15  19  ar  
 38  15  41  1   
 39  16  20  ar  
 40  16  42  1   
 41  17  21  ar  
 42  17  43  1   
 43  18  21  ar  
 44  18  44  1   
 45  19  22  ar  
 46  19  45  1   
 47  20  22  ar  
 48  20  46  1   
 49  21  47  1   
 50  22  48  1   
@<TRIPOS>SUBSTRUCTURE
  1 ****   7 GROUP 4 **** **** 0

# MOE 2024.06 (io_trps.svl 2023.06)
