@<TRIPOS>MOLECULE
NONAME
54 58 1 0 0 
SMALL
USER_CHARGES


@<TRIPOS>ATOM
  1 O        0.0070     1.1530    -1.9600 O.2   1 <1>  -0.5700 
  2 C       -0.0250     0.2680    -1.1390 C.2   1 <1>   0.4950 
  3 C        1.1230    -0.3620    -0.5780 C.2   1 <1>  -0.1240 
  4 C       -1.3920    -0.2180    -0.6850 C.3   1 <1>  -0.0990 
  5 C        1.0620    -1.4540     0.2260 C.2   1 <1>  -0.0380 
  6 C        2.4790     0.2640    -0.9110 C.3   1 <1>   0.3400 
  7 C       -1.3830    -1.7230    -0.3670 C.3   1 <1>  -0.1600 
  8 N        2.1940    -2.0530     0.7210 N.pl3 1 <1>  -0.6000 
  9 C       -0.2640    -2.0880     0.6210 C.3   1 <1>  -0.0220 
 10 C        3.6700    -0.5830    -0.4490 C.2   1 <1>  -0.1240 
 11 C        2.5900     1.6290    -0.2280 C.ar  1 <1>  -0.1440 
 12 C        3.4630    -1.6750     0.3350 C.2   1 <1>  -0.0380 
 13 C        4.9220    -0.0620    -0.9030 C.2   1 <1>   0.6160 
 14 C        2.8290     2.7730    -0.9860 C.ar  1 <1>  -0.1500 
 15 C        2.4700     1.7310     1.1600 C.ar  1 <1>  -0.1500 
 16 C        4.5510    -2.6060     0.8490 C.3   1 <1>  -0.1020 
 17 O        5.0820     0.2350    -2.0710 O.2   1 <1>  -0.5700 
 18 N        5.9320     0.1160     0.0020 N.am  1 <1>  -0.5470 
 19 C        2.9410     3.9810    -0.3300 C.ar  1 <1>   0.0820 
 20 C        2.5840     2.9560     1.8030 C.ar  1 <1>  -0.1500 
 21 C        7.2420     0.5230    -0.0890 C.ar  1 <1>   0.4270 
 22 O        3.1710     5.1910    -0.8520 O.3   1 <1>  -0.3630 
 23 C        2.8220     4.0710     1.0260 C.ar  1 <1>   0.0820 
 24 N        7.9100     0.3270     1.0380 N.ar  1 <1>  -0.6200 
 25 C        7.8160     1.0880    -1.2270 C.ar  1 <1>  -0.1500 
 26 C        3.2000     6.1070     0.2390 C.3   1 <1>   0.4000 
 27 O        2.9710     5.3410     1.4200 O.3   1 <1>  -0.3620 
 28 C        9.1800     0.6960     1.0320 C.ar  1 <1>   0.1600 
 29 C        9.1390     1.4650    -1.2170 C.ar  1 <1>  -0.1500 
 30 C        9.8420     1.2610    -0.0470 C.ar  1 <1>  -0.1440 
 31 C       11.3070     1.6560     0.0340 C.3   1 <1>  -0.0970 
 32 H       -2.1110    -0.0180    -1.4590 H     1 <1>   0.0800 
 33 H       -1.6750     0.3420     0.1870 H     1 <1>   0.0800 
 34 H        2.5330     0.3810    -1.9800 H     1 <1>   0.0800 
 35 H       -1.2240    -2.2660    -1.2830 H     1 <1>   0.0800 
 36 H       -2.3370    -2.0210     0.0320 H     1 <1>   0.0800 
 37 H        2.0950    -2.8730     1.3310 H     1 <1>   0.4000 
 38 H       -0.5260    -1.7520     1.6090 H     1 <1>   0.0800 
 39 H       -0.1640    -3.1600     0.6480 H     1 <1>   0.0800 
 40 H        2.9260     2.7340    -2.0570 H     1 <1>   0.1500 
 41 H        2.2870     0.8460     1.7460 H     1 <1>   0.1500 
 42 H        4.2730    -3.6280     0.6650 H     1 <1>   0.0800 
 43 H        4.6850    -2.4680     1.9070 H     1 <1>   0.0800 
 44 H        5.4910    -2.4380     0.3560 H     1 <1>   0.0800 
 45 H        5.6930    -0.1220     0.9590 H     1 <1>   0.3700 
 46 H        2.4940     3.0470     2.8700 H     1 <1>   0.1500 
 47 H        7.2330     1.2360    -2.1140 H     1 <1>   0.1500 
 48 H        2.4150     6.8320     0.1220 H     1 <1>   0.0800 
 49 H        4.1680     6.5720     0.2930 H     1 <1>   0.0800 
 50 H        9.7270     0.5390     1.9450 H     1 <1>   0.1500 
 51 H        9.6000     1.9020    -2.0860 H     1 <1>   0.1500 
 52 H       11.4090     2.7150    -0.1210 H     1 <1>   0.0800 
 53 H       11.8680     1.1390    -0.7240 H     1 <1>   0.0800 
 54 H       11.7210     1.4080     0.9950 H     1 <1>   0.0800 
@<TRIPOS>BOND
  1   1   2  2   
  2   2   3  1   
  3   2   4  1   
  4   3   5  2   
  5   3   6  1   
  6   4   7  1   
  7   4  32  1   
  8   4  33  1   
  9   5   8  1   
 10   5   9  1   
 11   6  10  1   
 12   6  11  1   
 13   6  34  1   
 14   7   9  1   
 15   7  35  1   
 16   7  36  1   
 17   8  12  1   
 18   8  37  1   
 19   9  38  1   
 20   9  39  1   
 21  10  12  2   
 22  10  13  1   
 23  11  14  ar  
 24  11  15  ar  
 25  12  16  1   
 26  13  17  2   
 27  13  18  am  
 28  14  19  ar  
 29  14  40  1   
 30  15  20  ar  
 31  15  41  1   
 32  16  42  1   
 33  16  43  1   
 34  16  44  1   
 35  18  21  1   
 36  18  45  1   
 37  19  22  1   
 38  19  23  ar  
 39  20  23  ar  
 40  20  46  1   
 41  21  24  ar  
 42  21  25  ar  
 43  22  26  1   
 44  23  27  1   
 45  24  28  ar  
 46  25  29  ar  
 47  25  47  1   
 48  26  27  1   
 49  26  48  1   
 50  26  49  1   
 51  28  30  ar  
 52  28  50  1   
 53  29  30  ar  
 54  29  51  1   
 55  30  31  1   
 56  31  52  1   
 57  31  53  1   
 58  31  54  1   
@<TRIPOS>SUBSTRUCTURE
  1 ****  11 GROUP 4 **** **** 0

# MOE 2024.06 (io_trps.svl 2023.06)
