@<TRIPOS>MOLECULE
Structure2312
23 24 1 0 0 
SMALL
USER_CHARGES


@<TRIPOS>ATOM
  1 CL      -0.0660    -0.3790     0.8620 Cl    1 <1>  -0.1770 
  2 C        1.5410    -1.0040     0.5930 C.ar  1 <1>   0.1770 
  3 C        1.9750    -2.0950     1.3220 C.ar  1 <1>  -0.1500 
  4 C        2.3540    -0.3990    -0.3480 C.ar  1 <1>  -0.1500 
  5 C        3.2520    -2.5850     1.1070 C.ar  1 <1>  -0.1500 
  6 C        3.6310    -0.8910    -0.5630 C.ar  1 <1>  -0.1500 
  7 C        4.0870    -1.9850     0.1740 C.ar  1 <1>   0.0830 
  8 O        5.3270    -2.5170     0.0400 O.3   1 <1>  -0.3400 
  9 C        6.3510    -1.8280    -0.6620 C.3   1 <1>   0.2580 
 10 C        7.7200    -2.5160    -0.4420 C.3   1 <1>   0.4720 
 11 C        6.9670    -0.6890     0.1910 C.3   1 <1>   0.4720 
 12 N        7.8310    -1.7350     0.8390 N.4   1 <1>  -0.8440 
 13 H        1.3190    -2.5500     2.0430 H     1 <1>   0.1500 
 14 H        1.9810     0.4430    -0.9040 H     1 <1>   0.1500 
 15 H        3.5970    -3.4370     1.6660 H     1 <1>   0.1500 
 16 H        4.2340    -0.4120    -1.3100 H     1 <1>   0.1500 
 17 H        6.0890    -1.6120    -1.6820 H     1 <1>   0.0000 
 18 H        8.4680    -2.2040    -1.1490 H     1 <1>   0.0000 
 19 H        7.6680    -3.5780    -0.2810 H     1 <1>   0.0000 
 20 H        6.2850    -0.2250     0.8800 H     1 <1>   0.0000 
 21 H        7.5600    -0.0020    -0.3860 H     1 <1>   0.0000 
 22 H        8.7800    -1.4280     1.0770 H     1 <1>   0.4500 
 23 H        7.3370    -2.2060     1.6070 H     1 <1>   0.4500 
@<TRIPOS>BOND
  1   1   2  1   
  2   2   3  ar  
  3   2   4  ar  
  4   3   5  ar  
  5   3  13  1   
  6   4   6  ar  
  7   4  14  1   
  8   5   7  ar  
  9   5  15  1   
 10   6   7  ar  
 11   6  16  1   
 12   7   8  1   
 13   8   9  1   
 14   9  10  1   
 15   9  11  1   
 16   9  17  1   
 17  10  12  1   
 18  10  18  1   
 19  10  19  1   
 20  11  12  1   
 21  11  20  1   
 22  11  21  1   
 23  12  22  1   
 24  12  23  1   
@<TRIPOS>SUBSTRUCTURE
  1 ****   7 GROUP 4 **** **** 0

# MOE 2024.06 (io_trps.svl 2023.06)
