@<TRIPOS>MOLECULE
NONAME
34 34 1 0 0 
SMALL
USER_CHARGES


@<TRIPOS>ATOM
  1 O        0.1500     0.5460     1.4440 O.2   1 <1>  -0.5700 
  2 C        0.7100     0.8080     0.4090 C.2   1 <1>   0.5690 
  3 N        1.9180     0.2910     0.0900 N.am  1 <1>  -0.7300 
  4 C        0.0500     1.7540    -0.5760 C.3   1 <1>  -0.0990 
  5 C        2.7480    -0.5130     0.9880 C.3   1 <1>   0.3640 
  6 C        0.7730     3.1070    -0.6770 C.3   1 <1>  -0.2400 
  7 C        4.2220    -0.2560     0.6540 C.ar  1 <1>  -0.1440 
  8 C        2.3350    -1.9820     0.9180 C.3   1 <1>  -0.2400 
  9 C        4.8530    -0.5930    -0.5490 C.ar  1 <1>  -0.1440 
 10 C        4.9700     0.3740     1.6410 C.ar  1 <1>  -0.1500 
 11 C        6.1990    -0.2970    -0.7180 C.ar  1 <1>  -0.1500 
 12 C        4.1630    -1.2890    -1.7170 C.3   1 <1>  -0.0970 
 13 C        6.3080     0.6650     1.4580 C.ar  1 <1>  -0.1500 
 14 C        6.9320     0.3310     0.2720 C.ar  1 <1>  -0.1440 
 15 C        8.4020     0.6420     0.0590 C.3   1 <1>  -0.0970 
 16 H        2.4240     0.6300    -0.7260 H     1 <1>   0.3700 
 17 H       -0.9660     1.9180    -0.2610 H     1 <1>   0.0800 
 18 H        0.0210     1.2820    -1.5410 H     1 <1>   0.0800 
 19 H        2.5600    -0.1800     1.9950 H     1 <1>   0.0800 
 20 H        0.7970     3.5830     0.2880 H     1 <1>   0.0800 
 21 H        0.2580     3.7520    -1.3660 H     1 <1>   0.0800 
 22 H        1.7840     2.9730    -1.0190 H     1 <1>   0.0800 
 23 H        2.3150    -2.3460    -0.0890 H     1 <1>   0.0800 
 24 H        1.3550    -2.0950     1.3440 H     1 <1>   0.0800 
 25 H        3.0240    -2.5750     1.4910 H     1 <1>   0.0800 
 26 H        4.5120     0.6500     2.5750 H     1 <1>   0.1500 
 27 H        6.6920    -0.5610    -1.6370 H     1 <1>   0.1500 
 28 H        3.1500    -0.9590    -1.8400 H     1 <1>   0.0800 
 29 H        4.1690    -2.3520    -1.5560 H     1 <1>   0.0800 
 30 H        4.6800    -1.0870    -2.6370 H     1 <1>   0.0800 
 31 H        6.8590     1.1530     2.2420 H     1 <1>   0.1500 
 32 H        8.9960    -0.2170     0.3140 H     1 <1>   0.0800 
 33 H        8.7060     1.4690     0.6740 H     1 <1>   0.0800 
 34 H        8.5850     0.8990    -0.9690 H     1 <1>   0.0800 
@<TRIPOS>BOND
  1   1   2  2   
  2   2   3  am  
  3   2   4  1   
  4   3   5  1   
  5   3  16  1   
  6   4   6  1   
  7   4  17  1   
  8   4  18  1   
  9   5   7  1   
 10   5   8  1   
 11   5  19  1   
 12   6  20  1   
 13   6  21  1   
 14   6  22  1   
 15   7   9  ar  
 16   7  10  ar  
 17   8  23  1   
 18   8  24  1   
 19   8  25  1   
 20   9  11  ar  
 21   9  12  1   
 22  10  13  ar  
 23  10  26  1   
 24  11  14  ar  
 25  11  27  1   
 26  12  28  1   
 27  12  29  1   
 28  12  30  1   
 29  13  14  ar  
 30  13  31  1   
 31  14  15  1   
 32  15  32  1   
 33  15  33  1   
 34  15  34  1   
@<TRIPOS>SUBSTRUCTURE
  1 ****   7 GROUP 4 **** **** 0

# MOE 2024.06 (io_trps.svl 2023.06)
