@<TRIPOS>MOLECULE
NONAME
47 49 1 0 0 
SMALL
USER_CHARGES


@<TRIPOS>ATOM
  1 S       -0.0710    -0.9930    -1.6040 S.o2  1 <1>   1.4470 
  2 O        0.4120    -1.8250    -2.6850 O.2   1 <1>  -0.6500 
  3 O       -0.1480     0.4370    -1.8150 O.2   1 <1>  -0.6500 
  4 N        0.9840    -1.2230    -0.2980 N.am  1 <1>  -0.8490 
  5 C       -1.6610    -1.6240    -0.9700 C.ar  1 <1>  -0.0090 
  6 C        0.6900    -0.3270     0.8330 C.3   1 <1>   0.1960 
  7 C        2.3850    -1.0380    -0.7060 C.3   1 <1>   0.1960 
  8 C       -1.9220    -2.9800    -0.7580 C.ar  1 <1>  -0.1440 
  9 C       -2.6620    -0.7160    -0.6480 C.ar  1 <1>  -0.1500 
 10 C        1.6810    -0.5550     1.9890 C.3   1 <1>   0.1200 
 11 C        3.3410    -1.2390     0.4840 C.3   1 <1>   0.1200 
 12 C       -3.1490    -3.3810    -0.2530 C.ar  1 <1>  -0.1500 
 13 C       -0.8880    -4.0570    -1.0660 C.3   1 <1>  -0.0960 
 14 C       -3.9010    -1.0920    -0.1350 C.ar  1 <1>   0.0860 
 15 O        2.9980    -0.3920     1.5450 O.3   1 <1>  -0.5600 
 16 C       -4.1220    -2.4530     0.0560 C.ar  1 <1>  -0.1500 
 17 C       -4.9040    -0.0950     0.1910 C.2   1 <1>   0.5440 
 18 O       -4.5810     1.0090     0.5790 O.2   1 <1>  -0.5700 
 19 N       -6.2320    -0.3690     0.0620 N.am  1 <1>  -0.7300 
 20 C       -7.3070     0.5850     0.3710 C.3   1 <1>   0.2840 
 21 C       -8.6210    -0.1720     0.3410 C.ar  1 <1>  -0.1440 
 22 C       -9.0860    -0.8620     1.4420 C.ar  1 <1>  -0.1500 
 23 C       -9.4140    -0.2170    -0.7890 C.ar  1 <1>  -0.1500 
 24 C      -10.2880    -1.5460     1.3630 C.ar  1 <1>   0.1600 
 25 C      -10.6000    -0.9310    -0.7630 C.ar  1 <1>   0.1600 
 26 N      -11.0550    -1.5970     0.2860 N.ar  1 <1>  -0.6200 
 27 H       -0.3090    -0.5080     1.1910 H     1 <1>   0.0800 
 28 H        0.7530     0.7030     0.5240 H     1 <1>   0.0800 
 29 H        2.5250    -0.0490    -1.1100 H     1 <1>   0.0800 
 30 H        2.6340    -1.7490    -1.4750 H     1 <1>   0.0800 
 31 H       -2.4820     0.3370    -0.7970 H     1 <1>   0.1500 
 32 H        1.5720    -1.5480     2.3900 H     1 <1>   0.0800 
 33 H        1.5090     0.1590     2.7740 H     1 <1>   0.0800 
 34 H        4.3510    -1.0090     0.1930 H     1 <1>   0.0800 
 35 H        3.3020    -2.2570     0.8300 H     1 <1>   0.0800 
 36 H       -3.3530    -4.4270    -0.0920 H     1 <1>   0.1500 
 37 H       -0.7370    -4.1320    -2.1290 H     1 <1>   0.0800 
 38 H       -1.2060    -5.0180    -0.7050 H     1 <1>   0.0800 
 39 H        0.0520    -3.8250    -0.5980 H     1 <1>   0.0800 
 40 H       -5.0610    -2.7900     0.4590 H     1 <1>   0.1500 
 41 H       -6.5480    -1.2480    -0.3500 H     1 <1>   0.3700 
 42 H       -7.3050     1.3760    -0.3600 H     1 <1>   0.0800 
 43 H       -7.1400     1.0170     1.3430 H     1 <1>   0.0800 
 44 H       -8.5240    -0.8750     2.3580 H     1 <1>   0.1500 
 45 H       -9.1200     0.2950    -1.6880 H     1 <1>   0.1500 
 46 H      -10.6370    -2.0780     2.2310 H     1 <1>   0.1500 
 47 H      -11.2070    -0.9550    -1.6520 H     1 <1>   0.1500 
@<TRIPOS>BOND
  1   1   2  2   
  2   1   3  2   
  3   1   4  am  
  4   1   5  1   
  5   4   6  1   
  6   4   7  1   
  7   5   8  ar  
  8   5   9  ar  
  9   6  10  1   
 10   6  27  1   
 11   6  28  1   
 12   7  11  1   
 13   7  29  1   
 14   7  30  1   
 15   8  12  ar  
 16   8  13  1   
 17   9  14  ar  
 18   9  31  1   
 19  10  15  1   
 20  10  32  1   
 21  10  33  1   
 22  11  15  1   
 23  11  34  1   
 24  11  35  1   
 25  12  16  ar  
 26  12  36  1   
 27  13  37  1   
 28  13  38  1   
 29  13  39  1   
 30  14  16  ar  
 31  14  17  1   
 32  16  40  1   
 33  17  18  2   
 34  17  19  am  
 35  19  20  1   
 36  19  41  1   
 37  20  21  1   
 38  20  42  1   
 39  20  43  1   
 40  21  22  ar  
 41  21  23  ar  
 42  22  24  ar  
 43  22  44  1   
 44  23  25  ar  
 45  23  45  1   
 46  24  26  ar  
 47  24  46  1   
 48  25  26  ar  
 49  25  47  1   
@<TRIPOS>SUBSTRUCTURE
  1 ****  14 GROUP 4 **** **** 0

# MOE 2024.06 (io_trps.svl 2023.06)
