@<TRIPOS>MOLECULE
NONAME
44 45 1 0 0 
SMALL
USER_CHARGES


@<TRIPOS>ATOM
  1 S       -3.1940     0.0760    -0.8620 S.o2  1 <1>   1.3330 
  2 O       -4.2810     0.4710    -1.7210 O.2   1 <1>  -0.6500 
  3 O       -3.4880    -0.1850     0.5260 O.2   1 <1>  -0.6500 
  4 N       -2.6390    -1.3990    -1.5240 N.am  1 <1>  -0.7570 
  5 C       -1.8020     1.1680    -1.0500 C.3   1 <1>  -0.1350 
  6 C       -2.0860    -2.3900    -0.7310 C.ar  1 <1>   0.1990 
  7 C       -2.8810    -3.3880    -0.1400 C.ar  1 <1>   0.0860 
  8 C       -0.7130    -2.3820    -0.5120 C.ar  1 <1>  -0.1500 
  9 C       -4.3150    -3.4200    -0.3380 C.2   1 <1>   0.5440 
 10 C       -2.2500    -4.3490     0.6540 C.ar  1 <1>  -0.1500 
 11 C       -0.1130    -3.3380     0.2810 C.ar  1 <1>  -0.1500 
 12 O       -4.8100    -3.1800    -1.4250 O.2   1 <1>  -0.5700 
 13 N       -5.1640    -3.6960     0.7010 N.am  1 <1>  -0.7300 
 14 C       -0.8850    -4.3260     0.8670 C.ar  1 <1>  -0.1500 
 15 C       -6.6070    -4.0740     0.5780 C.3   1 <1>   0.1400 
 16 C       -7.4710    -3.1440    -0.3100 C.3   1 <1>   0.3430 
 17 N       -7.6500    -1.7480     0.2160 N.4   1 <1>  -0.9590 
 18 C       -8.7260    -1.0090    -0.5220 C.3   1 <1>   0.3430 
 19 C       -6.3900    -0.9300     0.1820 C.3   1 <1>   0.3430 
 20 C       -8.8910     0.4390    -0.0020 C.3   1 <1>   0.1200 
 21 C       -6.6360     0.5240     0.6440 C.3   1 <1>   0.1200 
 22 O       -7.9750     0.7210     1.0200 O.3   1 <1>  -0.5600 
 23 H       -3.3910    -1.7450    -2.1290 H     1 <1>   0.4200 
 24 H       -1.5240     1.2390    -2.0840 H     1 <1>   0.0800 
 25 H       -0.9640     0.8020    -0.4900 H     1 <1>   0.0800 
 26 H       -2.0500     2.1480    -0.6940 H     1 <1>   0.0800 
 27 H       -0.1120    -1.6210    -0.9750 H     1 <1>   0.1500 
 28 H       -2.8320    -5.1320     1.1070 H     1 <1>   0.1500 
 29 H        0.9520    -3.3210     0.4440 H     1 <1>   0.1500 
 30 H       -4.7420    -3.8710     1.6190 H     1 <1>   0.3700 
 31 H       -0.4160    -5.0760     1.4830 H     1 <1>   0.1500 
 32 H       -7.0430    -4.1240     1.5600 H     1 <1>   0.0800 
 33 H       -6.6500    -5.0640     0.1580 H     1 <1>   0.0800 
 34 H       -8.4420    -3.6000    -0.4020 H     1 <1>   0.0800 
 35 H       -7.0470    -3.1070    -1.3000 H     1 <1>   0.0800 
 36 H       -7.9330    -1.7560     1.2050 H     1 <1>   0.4500 
 37 H       -9.6670    -1.5250    -0.4230 H     1 <1>   0.0800 
 38 H       -8.4860    -0.9720    -1.5720 H     1 <1>   0.0800 
 39 H       -5.9860    -0.9190    -0.8170 H     1 <1>   0.0800 
 40 H       -5.6420    -1.3650     0.8220 H     1 <1>   0.0800 
 41 H       -9.8800     0.5810     0.3970 H     1 <1>   0.0800 
 42 H       -8.7450     1.1480    -0.7990 H     1 <1>   0.0800 
 43 H       -6.3890     1.2160    -0.1430 H     1 <1>   0.0800 
 44 H       -6.0140     0.7490     1.4930 H     1 <1>   0.0800 
@<TRIPOS>BOND
  1   1   2  2   
  2   1   3  2   
  3   1   4  am  
  4   1   5  1   
  5   4   6  1   
  6   4  23  1   
  7   5  24  1   
  8   5  25  1   
  9   5  26  1   
 10   6   7  ar  
 11   6   8  ar  
 12   7   9  1   
 13   7  10  ar  
 14   8  11  ar  
 15   8  27  1   
 16   9  12  2   
 17   9  13  am  
 18  10  14  ar  
 19  10  28  1   
 20  11  14  ar  
 21  11  29  1   
 22  13  15  1   
 23  13  30  1   
 24  14  31  1   
 25  15  16  1   
 26  15  32  1   
 27  15  33  1   
 28  16  17  1   
 29  16  34  1   
 30  16  35  1   
 31  17  18  1   
 32  17  19  1   
 33  17  36  1   
 34  18  20  1   
 35  18  37  1   
 36  18  38  1   
 37  19  21  1   
 38  19  39  1   
 39  19  40  1   
 40  20  22  1   
 41  20  41  1   
 42  20  42  1   
 43  21  22  1   
 44  21  43  1   
 45  21  44  1   
@<TRIPOS>SUBSTRUCTURE
  1 ****   9 GROUP 4 **** **** 0

# MOE 2024.06 (io_trps.svl 2023.06)
