@<TRIPOS>MOLECULE
NONAME
40 42 1 0 0 
SMALL
USER_CHARGES


@<TRIPOS>ATOM
  1 F       -1.8400     1.8920    -2.0820 F     1 <1>  -0.1900 
  2 C       -1.0770     2.4470    -1.1790 C.ar  1 <1>   0.1900 
  3 C       -1.4360     2.3370     0.1590 C.ar  1 <1>  -0.1440 
  4 C        0.0470     3.1300    -1.6000 C.ar  1 <1>  -0.1500 
  5 C       -0.6260     2.9400     1.1160 C.ar  1 <1>  -0.1500 
  6 C       -2.6810     1.5660     0.5570 C.3   1 <1>   0.4870 
  7 C        0.8240     3.7170    -0.6210 C.ar  1 <1>   0.1900 
  8 C        0.5090     3.6360     0.7250 C.ar  1 <1>  -0.1500 
  9 N       -3.8830     2.2620     0.0250 N.4   1 <1>  -0.9590 
 10 F        1.8920     4.3750    -0.9780 F     1 <1>  -0.1900 
 11 C       -4.0470     3.6480     0.6040 C.3   1 <1>   0.3430 
 12 C       -5.1350     1.4430     0.2130 C.3   1 <1>   0.3430 
 13 C       -5.2990     4.3690     0.0620 C.3   1 <1>   0.2090 
 14 C       -6.3920     2.1530    -0.3310 C.3   1 <1>   0.2090 
 15 N       -6.5210     3.5280     0.2400 N.pl3 1 <1>  -0.8380 
 16 C       -7.7320     4.1750    -0.0410 C.ar  1 <1>   0.1000 
 17 C       -8.1320     4.5980    -1.3150 C.ar  1 <1>   0.1900 
 18 C       -8.6110     4.4240     1.0060 C.ar  1 <1>  -0.1500 
 19 F       -7.3400     4.3890    -2.3420 F     1 <1>  -0.1900 
 20 C       -9.3340     5.2330    -1.5520 C.ar  1 <1>  -0.1500 
 21 C       -9.8230     5.0610     0.7880 C.ar  1 <1>  -0.1500 
 22 C      -10.1880     5.4660    -0.4870 C.ar  1 <1>  -0.1500 
 23 H        0.3110     3.2040    -2.6390 H     1 <1>   0.1500 
 24 H       -0.8590     2.8750     2.1670 H     1 <1>   0.1500 
 25 H       -2.7410     1.4910     1.6310 H     1 <1>   0.0800 
 26 H       -2.6220     0.5700     0.1480 H     1 <1>   0.0800 
 27 H        1.1510     4.1090     1.4490 H     1 <1>   0.1500 
 28 H       -3.7300     2.3720    -0.9890 H     1 <1>   0.4500 
 29 H       -3.1780     4.2460     0.3820 H     1 <1>   0.0800 
 30 H       -4.1390     3.5830     1.6750 H     1 <1>   0.0800 
 31 H       -5.2900     1.2560     1.2630 H     1 <1>   0.0800 
 32 H       -5.0310     0.4920    -0.2820 H     1 <1>   0.0800 
 33 H       -5.1610     4.6000    -0.9800 H     1 <1>   0.0800 
 34 H       -5.4310     5.2980     0.5910 H     1 <1>   0.0800 
 35 H       -7.2660     1.5810    -0.0710 H     1 <1>   0.0800 
 36 H       -6.3420     2.2060    -1.4050 H     1 <1>   0.0800 
 37 H       -8.3390     4.1150     1.9980 H     1 <1>   0.1500 
 38 H       -9.5980     5.5390    -2.5490 H     1 <1>   0.1500 
 39 H      -10.4880     5.2420     1.6160 H     1 <1>   0.1500 
 40 H      -11.1310     5.9600    -0.6470 H     1 <1>   0.1500 
@<TRIPOS>BOND
  1   1   2  1   
  2   2   3  ar  
  3   2   4  ar  
  4   3   5  ar  
  5   3   6  1   
  6   4   7  ar  
  7   4  23  1   
  8   5   8  ar  
  9   5  24  1   
 10   6   9  1   
 11   6  25  1   
 12   6  26  1   
 13   7   8  ar  
 14   7  10  1   
 15   8  27  1   
 16   9  11  1   
 17   9  12  1   
 18   9  28  1   
 19  11  13  1   
 20  11  29  1   
 21  11  30  1   
 22  12  14  1   
 23  12  31  1   
 24  12  32  1   
 25  13  15  1   
 26  13  33  1   
 27  13  34  1   
 28  14  15  1   
 29  14  35  1   
 30  14  36  1   
 31  15  16  1   
 32  16  17  ar  
 33  16  18  ar  
 34  17  19  1   
 35  17  20  ar  
 36  18  21  ar  
 37  18  37  1   
 38  20  22  ar  
 39  20  38  1   
 40  21  22  ar  
 41  21  39  1   
 42  22  40  1   
@<TRIPOS>SUBSTRUCTURE
  1 ****  11 GROUP 4 **** **** 0

# MOE 2024.06 (io_trps.svl 2023.06)
