@<TRIPOS>MOLECULE
NONAME
40 41 1 0 0 
SMALL
USER_CHARGES


@<TRIPOS>ATOM
  1 N       -2.4050     2.4800    -2.0790 N.1   1 <1>  -0.5570 
  2 C       -2.7070     1.7240    -1.2850 C.1   1 <1>   0.3570 
  3 C       -3.1170     0.7520    -0.2220 C.3   1 <1>   0.3800 
  4 C       -4.6570     0.6790    -0.0680 C.2   1 <1>   0.0060 
  5 C       -2.4930     1.1670     1.1370 C.3   1 <1>  -0.1600 
  6 C       -2.5840    -0.6530    -0.6330 C.3   1 <1>  -0.1600 
  7 N       -5.1840    -0.3440     0.5170 N.2   1 <1>  -0.5650 
  8 N       -5.5990     1.6090    -0.4650 N.pl3 1 <1>   0.0480 
  9 C       -3.0720     2.4570     1.7570 C.3   1 <1>   0.0400 
 10 C       -1.0700    -0.7700    -0.9220 C.3   1 <1>   0.0400 
 11 C       -6.5210    -0.1250     0.5070 C.ar  1 <1>   0.2270 
 12 C       -6.8020     1.0820    -0.0970 C.ar  1 <1>  -0.1520 
 13 C       -5.5260     2.9600    -1.0830 C.3   1 <1>   0.0960 
 14 C       -2.3400     2.8240     3.0010 C.1   1 <1>   0.3570 
 15 C       -0.7050    -2.1610    -1.3120 C.1   1 <1>   0.3570 
 16 C       -7.5470    -0.9270     0.9990 C.ar  1 <1>  -0.1500 
 17 C       -8.1250     1.5230    -0.2210 C.ar  1 <1>  -0.1500 
 18 C       -5.7750     2.8830    -2.5930 C.3   1 <1>   0.0400 
 19 N       -1.7600     3.0980     3.9380 N.1   1 <1>  -0.5570 
 20 N       -0.4300    -3.2230    -1.6090 N.1   1 <1>  -0.5570 
 21 C       -8.8510    -0.5000     0.8770 C.ar  1 <1>  -0.1500 
 22 C       -9.1370     0.7260     0.2670 C.ar  1 <1>  -0.1500 
 23 C       -5.8410     4.2570    -3.1550 C.1   1 <1>   0.3570 
 24 N       -5.9100     5.3220    -3.5420 N.1   1 <1>  -0.5570 
 25 H       -1.4310     1.2960     1.0210 H     1 <1>   0.0800 
 26 H       -2.6450     0.3670     1.8420 H     1 <1>   0.0800 
 27 H       -3.1210    -0.9700    -1.5130 H     1 <1>   0.0800 
 28 H       -2.8270    -1.3600     0.1420 H     1 <1>   0.0800 
 29 H       -4.1080     2.3220     2.0120 H     1 <1>   0.0800 
 30 H       -2.9880     3.2810     1.0730 H     1 <1>   0.0800 
 31 H       -0.4940    -0.5160    -0.0520 H     1 <1>   0.0800 
 32 H       -0.7770    -0.1210    -1.7280 H     1 <1>   0.0800 
 33 H       -4.5820     3.4250    -0.8730 H     1 <1>   0.0800 
 34 H       -6.2830     3.5770    -0.6300 H     1 <1>   0.0800 
 35 H       -7.2970    -1.8630     1.4630 H     1 <1>   0.1500 
 36 H       -8.3560     2.4640    -0.6870 H     1 <1>   0.1500 
 37 H       -6.7100     2.3920    -2.7940 H     1 <1>   0.0800 
 38 H       -4.9870     2.3470    -3.0870 H     1 <1>   0.0800 
 39 H       -9.6590    -1.1050     1.2510 H     1 <1>   0.1500 
 40 H      -10.1640     1.0390     0.1840 H     1 <1>   0.1500 
@<TRIPOS>BOND
  1   1   2  3   
  2   2   3  1   
  3   3   4  1   
  4   3   5  1   
  5   3   6  1   
  6   4   7  2   
  7   4   8  1   
  8   5   9  1   
  9   5  25  1   
 10   5  26  1   
 11   6  10  1   
 12   6  27  1   
 13   6  28  1   
 14   7  11  1   
 15   8  12  1   
 16   8  13  1   
 17   9  14  1   
 18   9  29  1   
 19   9  30  1   
 20  10  15  1   
 21  10  31  1   
 22  10  32  1   
 23  11  12  ar  
 24  11  16  ar  
 25  12  17  ar  
 26  13  18  1   
 27  13  33  1   
 28  13  34  1   
 29  14  19  3   
 30  15  20  3   
 31  16  21  ar  
 32  16  35  1   
 33  17  22  ar  
 34  17  36  1   
 35  18  23  1   
 36  18  37  1   
 37  18  38  1   
 38  21  22  ar  
 39  21  39  1   
 40  22  40  1   
 41  23  24  3   
@<TRIPOS>SUBSTRUCTURE
  1 ****   4 GROUP 4 **** **** 0

# MOE 2024.06 (io_trps.svl 2023.06)
