@<TRIPOS>MOLECULE
NONAME
49 51 1 0 0 
SMALL
USER_CHARGES


@<TRIPOS>ATOM
  1 O       -0.4100     1.2820    -0.9310 O.2   1 <1>  -0.5700 
  2 C       -0.6090     1.6750     0.1910 C.2   1 <1>   0.5690 
  3 N        0.3800     2.1050     1.0150 N.am  1 <1>  -0.7300 
  4 C       -2.0420     1.7210     0.7170 C.3   1 <1>  -0.0190 
  5 C        1.8210     2.2590     0.7040 C.3   1 <1>   0.5070 
  6 C       -2.8230     0.4340     0.3840 C.3   1 <1>  -0.1600 
  7 C       -2.7890     2.9490     0.1670 C.3   1 <1>  -0.1600 
  8 C        2.0470     3.6500     0.1030 C.ar  1 <1>  -0.1440 
  9 C        2.4270     1.0820    -0.0760 C.ar  1 <1>  -0.1440 
 10 C       -4.2690     0.5080     0.8800 C.3   1 <1>   0.1400 
 11 C       -4.2380     2.9990     0.6600 C.3   1 <1>   0.1400 
 12 C        2.8320     4.5780     0.7770 C.ar  1 <1>  -0.1500 
 13 C        1.4810     4.0120    -1.1130 C.ar  1 <1>  -0.1500 
 14 C        3.3020     1.2730    -1.1410 C.ar  1 <1>  -0.1500 
 15 C        2.1290    -0.2210     0.3060 C.ar  1 <1>  -0.1500 
 16 N       -4.9250     1.7220     0.3200 N.am  1 <1>  -0.6600 
 17 C        3.0410     5.8400     0.2490 C.ar  1 <1>  -0.1500 
 18 C        1.6880     5.2740    -1.6420 C.ar  1 <1>  -0.1500 
 19 C        3.8540     0.1930    -1.8080 C.ar  1 <1>  -0.1500 
 20 C        2.6810    -1.3030    -0.3580 C.ar  1 <1>  -0.1500 
 21 C       -6.0410     1.7180    -0.4790 C.2   1 <1>   0.5690 
 22 C        2.4690     6.1890    -0.9610 C.ar  1 <1>  -0.1500 
 23 C        3.5450    -1.0960    -1.4170 C.ar  1 <1>  -0.1500 
 24 O       -6.5490     2.7350    -0.8840 O.2   1 <1>  -0.5700 
 25 C       -6.6910     0.4170    -0.8910 C.3   1 <1>  -0.1790 
 26 H        0.1170     2.5720     1.8780 H     1 <1>   0.3700 
 27 H       -2.0010     1.8080     1.7880 H     1 <1>   0.0800 
 28 H        2.3310     2.2460     1.6510 H     1 <1>   0.0800 
 29 H       -2.3330    -0.4120     0.8320 H     1 <1>   0.0800 
 30 H       -2.8320     0.2780    -0.6810 H     1 <1>   0.0800 
 31 H       -2.7920     2.9190    -0.9100 H     1 <1>   0.0800 
 32 H       -2.2820     3.8500     0.4640 H     1 <1>   0.0800 
 33 H       -4.2840     0.5700     1.9550 H     1 <1>   0.0800 
 34 H       -4.7900    -0.3880     0.5950 H     1 <1>   0.0800 
 35 H       -4.7410     3.8370     0.2060 H     1 <1>   0.0800 
 36 H       -4.2640     3.1370     1.7270 H     1 <1>   0.0800 
 37 H        3.2890     4.3260     1.7180 H     1 <1>   0.1500 
 38 H        0.8780     3.3050    -1.6580 H     1 <1>   0.1500 
 39 H        3.5660     2.2640    -1.4670 H     1 <1>   0.1500 
 40 H        1.4560    -0.4020     1.1250 H     1 <1>   0.1500 
 41 H        3.6510     6.5510     0.7780 H     1 <1>   0.1500 
 42 H        1.2420     5.5380    -2.5850 H     1 <1>   0.1500 
 43 H        4.5250     0.3590    -2.6320 H     1 <1>   0.1500 
 44 H        2.4340    -2.3040    -0.0530 H     1 <1>   0.1500 
 45 H        2.6320     7.1700    -1.3720 H     1 <1>   0.1500 
 46 H        3.9730    -1.9350    -1.9370 H     1 <1>   0.1500 
 47 H       -7.0460    -0.1040    -0.0230 H     1 <1>   0.0800 
 48 H       -5.9840    -0.1900    -1.4230 H     1 <1>   0.0800 
 49 H       -7.5260     0.6190    -1.5360 H     1 <1>   0.0800 
@<TRIPOS>BOND
  1   1   2  2   
  2   2   3  am  
  3   2   4  1   
  4   3   5  1   
  5   3  26  1   
  6   4   6  1   
  7   4   7  1   
  8   4  27  1   
  9   5   8  1   
 10   5   9  1   
 11   5  28  1   
 12   6  10  1   
 13   6  29  1   
 14   6  30  1   
 15   7  11  1   
 16   7  31  1   
 17   7  32  1   
 18   8  12  ar  
 19   8  13  ar  
 20   9  14  ar  
 21   9  15  ar  
 22  10  16  1   
 23  10  33  1   
 24  10  34  1   
 25  11  16  1   
 26  11  35  1   
 27  11  36  1   
 28  12  17  ar  
 29  12  37  1   
 30  13  18  ar  
 31  13  38  1   
 32  14  19  ar  
 33  14  39  1   
 34  15  20  ar  
 35  15  40  1   
 36  16  21  am  
 37  17  22  ar  
 38  17  41  1   
 39  18  22  ar  
 40  18  42  1   
 41  19  23  ar  
 42  19  43  1   
 43  20  23  ar  
 44  20  44  1   
 45  21  24  2   
 46  21  25  1   
 47  22  45  1   
 48  23  46  1   
 49  25  47  1   
 50  25  48  1   
 51  25  49  1   
@<TRIPOS>SUBSTRUCTURE
  1 ****   2 GROUP 4 **** **** 0

# MOE 2024.06 (io_trps.svl 2023.06)
