@<TRIPOS>MOLECULE
NONAME
39 39 1 0 0 
SMALL
USER_CHARGES


@<TRIPOS>ATOM
  1 CL      -2.2710     1.0900     1.6790 Cl    1 <1>  -0.1770 
  2 C       -1.1750     2.1110     0.7670 C.ar  1 <1>   0.1770 
  3 C        0.0030     2.5560     1.3450 C.ar  1 <1>   0.1770 
  4 C       -1.5130     2.4760    -0.5290 C.ar  1 <1>  -0.1440 
  5 CL       0.4150     2.1030     2.9810 Cl    1 <1>  -0.1770 
  6 C        0.8650     3.3710     0.6360 C.ar  1 <1>  -0.1500 
  7 C       -0.6410     3.2940    -1.2390 C.ar  1 <1>  -0.1500 
  8 C       -2.8030     1.9830    -1.1610 C.3   1 <1>   0.4870 
  9 C        0.5380     3.7380    -0.6590 C.ar  1 <1>  -0.1500 
 10 N       -3.9700     2.5550    -0.4150 N.4   1 <1>  -0.9590 
 11 C       -5.2330     1.7880    -0.7310 C.3   1 <1>   0.3430 
 12 C       -4.0550     4.0290    -0.6380 C.3   1 <1>   0.3430 
 13 C       -6.4370     2.0960     0.2080 C.3   1 <1>   0.3430 
 14 C       -4.2800     4.7150     0.7030 C.3   1 <1>  -0.2400 
 15 N       -7.6620     1.2430    -0.0310 N.4   1 <1>  -0.9590 
 16 C       -8.8170     1.7580     0.7800 C.3   1 <1>   0.2630 
 17 C       -7.4540    -0.2090     0.3000 C.3   1 <1>   0.2630 
 18 H        1.7800     3.7100     1.0930 H     1 <1>   0.1500 
 19 H       -0.8580     3.5940    -2.2530 H     1 <1>   0.1500 
 20 H       -2.8180     0.9060    -1.1070 H     1 <1>   0.0800 
 21 H       -2.8400     2.2700    -2.2000 H     1 <1>   0.0800 
 22 H        1.2110     4.3700    -1.2180 H     1 <1>   0.1500 
 23 H       -3.7120     2.4160     0.5770 H     1 <1>   0.4500 
 24 H       -5.0160     0.7350    -0.6550 H     1 <1>   0.0800 
 25 H       -5.5230     1.9950    -1.7480 H     1 <1>   0.0800 
 26 H       -4.8480     4.2700    -1.3280 H     1 <1>   0.0800 
 27 H       -3.1300     4.3980    -1.0550 H     1 <1>   0.0800 
 28 H       -6.7090     3.1310     0.0780 H     1 <1>   0.0800 
 29 H       -6.1200     1.9630     1.2300 H     1 <1>   0.0800 
 30 H       -5.2100     4.4290     1.1560 H     1 <1>   0.0800 
 31 H       -4.3060     5.7800     0.5490 H     1 <1>   0.0800 
 32 H       -3.4680     4.5070     1.3780 H     1 <1>   0.0800 
 33 H       -7.9570     1.3070    -1.0220 H     1 <1>   0.4500 
 34 H       -8.5960     1.7020     1.8350 H     1 <1>   0.0800 
 35 H       -9.7020     1.1710     0.5880 H     1 <1>   0.0800 
 36 H       -9.0320     2.7840     0.5280 H     1 <1>   0.0800 
 37 H       -7.1740    -0.3250     1.3350 H     1 <1>   0.0800 
 38 H       -6.6820    -0.6380    -0.3180 H     1 <1>   0.0800 
 39 H       -8.3640    -0.7640     0.1320 H     1 <1>   0.0800 
@<TRIPOS>BOND
  1   1   2  1   
  2   2   3  ar  
  3   2   4  ar  
  4   3   5  1   
  5   3   6  ar  
  6   4   7  ar  
  7   4   8  1   
  8   6   9  ar  
  9   6  18  1   
 10   7   9  ar  
 11   7  19  1   
 12   8  10  1   
 13   8  20  1   
 14   8  21  1   
 15   9  22  1   
 16  10  11  1   
 17  10  12  1   
 18  10  23  1   
 19  11  13  1   
 20  11  24  1   
 21  11  25  1   
 22  12  14  1   
 23  12  26  1   
 24  12  27  1   
 25  13  15  1   
 26  13  28  1   
 27  13  29  1   
 28  14  30  1   
 29  14  31  1   
 30  14  32  1   
 31  15  16  1   
 32  15  17  1   
 33  15  33  1   
 34  16  34  1   
 35  16  35  1   
 36  16  36  1   
 37  17  37  1   
 38  17  38  1   
 39  17  39  1   
@<TRIPOS>SUBSTRUCTURE
  1 ****  10 GROUP 4 **** **** 0

# MOE 2024.06 (io_trps.svl 2023.06)
