@<TRIPOS>MOLECULE
22229
40 41 1 0 0 
SMALL
USER_CHARGES


@<TRIPOS>ATOM
  1 CL      -0.5620     2.5120    -0.9520 Cl    1 <1>  -0.1770 
  2 C        1.1610     2.3230    -0.7400 C.ar  1 <1>   0.1770 
  3 C        1.6730     1.0730    -0.4440 C.ar  1 <1>  -0.1500 
  4 C        1.9840     3.4250    -0.8750 C.ar  1 <1>  -0.1500 
  5 C        3.0400     0.9120    -0.2700 C.ar  1 <1>  -0.1440 
  6 C        3.3490     3.2720    -0.7040 C.ar  1 <1>  -0.1500 
  7 C        3.8740     2.0220    -0.3890 C.ar  1 <1>   0.0830 
  8 C        3.6090    -0.4640     0.0400 C.3   1 <1>  -0.0960 
  9 O        5.2070     1.8670    -0.2160 O.3   1 <1>  -0.3630 
 10 C        5.8670     2.6420     0.7730 C.3   1 <1>   0.2610 
 11 C        7.2670     3.0700     0.2970 C.2   1 <1>   0.5690 
 12 C        5.8540     1.8720     2.1020 C.3   1 <1>  -0.2400 
 13 O        7.4540     4.2480     0.1220 O.2   1 <1>  -0.5700 
 14 N        8.3340     2.2340     0.1290 N.am  1 <1>  -0.4940 
 15 C        8.5500     0.8730     0.1200 C.2   1 <1>   0.4420 
 16 S        7.3340    -0.2540    -0.3890 S.3   1 <1>  -0.0800 
 17 N        9.6490     0.2890     0.4250 N.2   1 <1>  -0.3380 
 18 C        8.4830    -1.5170    -0.1030 C.2   1 <1>   0.1980 
 19 N        9.6020    -1.0720     0.3050 N.2   1 <1>  -0.3380 
 20 C        8.0710    -2.9650    -0.3510 C.3   1 <1>   0.1000 
 21 C        7.7040    -3.2010    -1.8220 C.3   1 <1>  -0.2400 
 22 C        6.9130    -3.3830     0.5660 C.3   1 <1>  -0.2400 
 23 H        1.0000     0.2400    -0.3550 H     1 <1>   0.1500 
 24 H        1.5590     4.3840    -1.1150 H     1 <1>   0.1500 
 25 H        4.0010     4.1180    -0.8260 H     1 <1>   0.1500 
 26 H        2.8260    -1.1930     0.1450 H     1 <1>   0.0800 
 27 H        4.1730    -0.4340     0.9550 H     1 <1>   0.0800 
 28 H        4.2600    -0.7730    -0.7580 H     1 <1>   0.0800 
 29 H        5.3040     3.5470     0.9170 H     1 <1>   0.0800 
 30 H        6.3740     0.9380     2.0200 H     1 <1>   0.0800 
 31 H        4.8400     1.6890     2.4080 H     1 <1>   0.0800 
 32 H        6.3340     2.4610     2.8630 H     1 <1>   0.0800 
 33 H        9.1980     2.7630     0.0280 H     1 <1>   0.3700 
 34 H        8.9210    -3.5830    -0.1170 H     1 <1>   0.0800 
 35 H        6.8350    -2.6310    -2.0980 H     1 <1>   0.0800 
 36 H        7.5000    -4.2430    -1.9920 H     1 <1>   0.0800 
 37 H        8.5230    -2.9070    -2.4550 H     1 <1>   0.0800 
 38 H        6.0250    -2.8180     0.3450 H     1 <1>   0.0800 
 39 H        7.1820    -3.2150     1.5940 H     1 <1>   0.0800 
 40 H        6.6960    -4.4280     0.4370 H     1 <1>   0.0800 
@<TRIPOS>BOND
  1   1   2  1   
  2   2   3  ar  
  3   2   4  ar  
  4   3   5  ar  
  5   3  23  1   
  6   4   6  ar  
  7   4  24  1   
  8   5   7  ar  
  9   5   8  1   
 10   6   7  ar  
 11   6  25  1   
 12   7   9  1   
 13   8  26  1   
 14   8  27  1   
 15   8  28  1   
 16   9  10  1   
 17  10  11  1   
 18  10  12  1   
 19  10  29  1   
 20  11  13  2   
 21  11  14  am  
 22  12  30  1   
 23  12  31  1   
 24  12  32  1   
 25  14  15  1   
 26  14  33  1   
 27  15  16  1   
 28  15  17  2   
 29  16  18  1   
 30  17  19  1   
 31  18  19  2   
 32  18  20  1   
 33  20  21  1   
 34  20  22  1   
 35  20  34  1   
 36  21  35  1   
 37  21  36  1   
 38  21  37  1   
 39  22  38  1   
 40  22  39  1   
 41  22  40  1   
@<TRIPOS>SUBSTRUCTURE
  1 ****   9 GROUP 4 **** **** 0

# MOE 2024.06 (io_trps.svl 2023.06)
