@<TRIPOS>MOLECULE
NONAME
45 46 1 0 0 
SMALL
USER_CHARGES


@<TRIPOS>ATOM
  1 O       -0.8720    -0.7620     0.5220 O.3   1 <1>  -0.5600 
  2 C       -0.8900    -1.7960    -0.4190 C.3   1 <1>   0.1200 
  3 C       -1.9890     0.0780     0.4970 C.3   1 <1>   0.1200 
  4 C       -2.1210    -2.6960    -0.1980 C.3   1 <1>   0.3430 
  5 C       -3.2730    -0.7330     0.7580 C.3   1 <1>   0.3430 
  6 N       -3.3980    -1.8990    -0.1910 N.4   1 <1>  -0.9590 
  7 C       -4.5610    -2.7720     0.1260 C.3   1 <1>   0.3430 
  8 C       -5.8740    -2.0550    -0.1950 C.3   1 <1>  -0.1600 
  9 C       -7.0750    -2.9860     0.0210 C.3   1 <1>  -0.1600 
 10 C       -8.3910    -2.2640    -0.3020 C.3   1 <1>  -0.1600 
 11 C       -9.6010    -3.1770    -0.0950 C.3   1 <1>   0.1200 
 12 O      -10.7570    -2.4380    -0.4080 O.3   1 <1>  -0.3630 
 13 C      -11.9930    -2.9900    -0.3180 C.ar  1 <1>   0.0820 
 14 C      -12.2300    -4.3030     0.0820 C.ar  1 <1>  -0.1500 
 15 C      -13.0630    -2.1760    -0.6490 C.ar  1 <1>  -0.1500 
 16 C      -13.5260    -4.7920     0.1480 C.ar  1 <1>  -0.1430 
 17 C      -14.3570    -2.6600    -0.5860 C.ar  1 <1>  -0.1500 
 18 C      -14.5870    -3.9660    -0.1880 C.ar  1 <1>  -0.1500 
 19 C      -13.7860    -6.2230     0.5820 C.3   1 <1>  -0.0970 
 20 H        0.0140    -2.3670    -0.2930 H     1 <1>   0.0800 
 21 H       -0.8890    -1.3680    -1.4060 H     1 <1>   0.0800 
 22 H       -2.0280     0.5760    -0.4570 H     1 <1>   0.0800 
 23 H       -1.8570     0.8200     1.2650 H     1 <1>   0.0800 
 24 H       -2.0020    -3.2020     0.7460 H     1 <1>   0.0800 
 25 H       -2.1570    -3.4450    -0.9720 H     1 <1>   0.0800 
 26 H       -4.1260    -0.0830     0.6610 H     1 <1>   0.0800 
 27 H       -3.2450    -1.0920     1.7730 H     1 <1>   0.0800 
 28 H       -3.5290    -1.5180    -1.1380 H     1 <1>   0.4500 
 29 H       -4.5420    -3.0540     1.1660 H     1 <1>   0.0800 
 30 H       -4.5080    -3.6720    -0.4660 H     1 <1>   0.0800 
 31 H       -5.8680    -1.7310    -1.2220 H     1 <1>   0.0800 
 32 H       -5.9920    -1.1940     0.4400 H     1 <1>   0.0800 
 33 H       -7.0990    -3.3210     1.0450 H     1 <1>   0.0800 
 34 H       -6.9850    -3.8530    -0.6140 H     1 <1>   0.0800 
 35 H       -8.3830    -1.9340    -1.3260 H     1 <1>   0.0800 
 36 H       -8.5000    -1.4040     0.3360 H     1 <1>   0.0800 
 37 H       -9.6720    -3.4970     0.9300 H     1 <1>   0.0800 
 38 H       -9.5580    -4.0290    -0.7520 H     1 <1>   0.0800 
 39 H      -11.4200    -4.9550     0.3420 H     1 <1>   0.1500 
 40 H      -12.8760    -1.1630    -0.9570 H     1 <1>   0.1500 
 41 H      -15.1840    -2.0230    -0.8460 H     1 <1>   0.1500 
 42 H      -15.5960    -4.3360    -0.1430 H     1 <1>   0.1500 
 43 H      -13.0010    -6.5730     1.2270 H     1 <1>   0.0800 
 44 H      -13.8360    -6.8610    -0.2820 H     1 <1>   0.0800 
 45 H      -14.7170    -6.2890     1.1170 H     1 <1>   0.0800 
@<TRIPOS>BOND
  1   1   2  1   
  2   1   3  1   
  3   2   4  1   
  4   2  20  1   
  5   2  21  1   
  6   3   5  1   
  7   3  22  1   
  8   3  23  1   
  9   4   6  1   
 10   4  24  1   
 11   4  25  1   
 12   5   6  1   
 13   5  26  1   
 14   5  27  1   
 15   6   7  1   
 16   6  28  1   
 17   7   8  1   
 18   7  29  1   
 19   7  30  1   
 20   8   9  1   
 21   8  31  1   
 22   8  32  1   
 23   9  10  1   
 24   9  33  1   
 25   9  34  1   
 26  10  11  1   
 27  10  35  1   
 28  10  36  1   
 29  11  12  1   
 30  11  37  1   
 31  11  38  1   
 32  12  13  1   
 33  13  14  ar  
 34  13  15  ar  
 35  14  16  ar  
 36  14  39  1   
 37  15  17  ar  
 38  15  40  1   
 39  16  18  ar  
 40  16  19  1   
 41  17  18  ar  
 42  17  41  1   
 43  18  42  1   
 44  19  43  1   
 45  19  44  1   
 46  19  45  1   
@<TRIPOS>SUBSTRUCTURE
  1 ****  10 GROUP 4 **** **** 0

# MOE 2024.06 (io_trps.svl 2023.06)
