@<TRIPOS>MOLECULE
NONAME
45 46 1 0 0 
SMALL
USER_CHARGES


@<TRIPOS>ATOM
  1 O       -2.8930     3.5550    -0.1080 O.3   1 <1>  -0.3630 
  2 C       -4.1070     2.9670    -0.2800 C.ar  1 <1>   0.0830 
  3 C       -1.7600     2.8170     0.2960 C.3   1 <1>   0.1200 
  4 C       -5.1750     3.7860    -0.6360 C.ar  1 <1>  -0.1440 
  5 C       -4.3130     1.5980    -0.1170 C.ar  1 <1>  -0.1500 
  6 C       -0.5720     3.7790     0.4060 C.3   1 <1>   0.2000 
  7 C       -6.4310     3.2310    -0.8230 C.ar  1 <1>  -0.1500 
  8 C       -4.9830     5.2850    -0.8230 C.3   1 <1>  -0.0960 
  9 C       -5.5710     1.0560    -0.3050 C.ar  1 <1>  -0.1500 
 10 O       -0.4710     4.5110    -0.7790 O.3   1 <1>  -0.6800 
 11 C        0.7650     3.0490     0.6600 C.3   1 <1>   0.3430 
 12 C       -6.6310     1.8720    -0.6580 C.ar  1 <1>  -0.1500 
 13 N        1.9130     3.8980     0.2190 N.4   1 <1>  -0.9590 
 14 C        3.1020     3.1010    -0.2180 C.3   1 <1>   0.3430 
 15 C        2.2620     4.9800     1.1760 C.3   1 <1>   0.3430 
 16 C        4.3570     3.9770    -0.4130 C.3   1 <1>  -0.0800 
 17 C        3.1390     6.0210     0.4690 C.3   1 <1>  -0.1600 
 18 C        3.9990     5.4490    -0.6750 C.3   1 <1>  -0.1600 
 19 C        5.2250     3.4280    -1.5530 C.3   1 <1>  -0.2400 
 20 H       -1.5700     2.0570    -0.4420 H     1 <1>   0.0800 
 21 H       -1.9740     2.3620     1.2480 H     1 <1>   0.0800 
 22 H       -3.5170     0.9340     0.1550 H     1 <1>   0.1500 
 23 H       -0.7610     4.4750     1.2050 H     1 <1>   0.0800 
 24 H       -7.2650     3.8530    -1.0980 H     1 <1>   0.1500 
 25 H       -4.2910     5.4660    -1.6250 H     1 <1>   0.0800 
 26 H       -4.5930     5.7180     0.0800 H     1 <1>   0.0800 
 27 H       -5.9140     5.7680    -1.0580 H     1 <1>   0.0800 
 28 H       -5.7300    -0.0010    -0.1790 H     1 <1>   0.1500 
 29 H       -1.3830     4.7550    -1.0670 H     1 <1>   0.4000 
 30 H        0.7590     2.1380     0.0840 H     1 <1>   0.0800 
 31 H        0.8590     2.7850     1.7000 H     1 <1>   0.0800 
 32 H       -7.6100     1.4500    -0.8050 H     1 <1>   0.1500 
 33 H        1.5350     4.3870    -0.6170 H     1 <1>   0.4500 
 34 H        2.8670     2.6130    -1.1500 H     1 <1>   0.0800 
 35 H        3.3230     2.3370     0.5090 H     1 <1>   0.0800 
 36 H        2.8020     4.5590     2.0090 H     1 <1>   0.0800 
 37 H        1.3720     5.4580     1.5520 H     1 <1>   0.0800 
 38 H        4.9400     3.9270     0.4920 H     1 <1>   0.0800 
 39 H        3.7800     6.4690     1.2080 H     1 <1>   0.0800 
 40 H        2.5150     6.8070     0.0810 H     1 <1>   0.0800 
 41 H        3.4510     5.5200    -1.6000 H     1 <1>   0.0800 
 42 H        4.8930     6.0410    -0.7840 H     1 <1>   0.0800 
 43 H        4.6970     3.4610    -2.4910 H     1 <1>   0.0800 
 44 H        5.5120     2.4090    -1.3560 H     1 <1>   0.0800 
 45 H        6.1240     4.0120    -1.6520 H     1 <1>   0.0800 
@<TRIPOS>BOND
  1   1   2  1   
  2   1   3  1   
  3   2   4  ar  
  4   2   5  ar  
  5   3   6  1   
  6   3  20  1   
  7   3  21  1   
  8   4   7  ar  
  9   4   8  1   
 10   5   9  ar  
 11   5  22  1   
 12   6  10  1   
 13   6  11  1   
 14   6  23  1   
 15   7  12  ar  
 16   7  24  1   
 17   8  25  1   
 18   8  26  1   
 19   8  27  1   
 20   9  12  ar  
 21   9  28  1   
 22  10  29  1   
 23  11  13  1   
 24  11  30  1   
 25  11  31  1   
 26  12  32  1   
 27  13  14  1   
 28  13  15  1   
 29  13  33  1   
 30  14  16  1   
 31  14  34  1   
 32  14  35  1   
 33  15  17  1   
 34  15  36  1   
 35  15  37  1   
 36  16  18  1   
 37  16  19  1   
 38  16  38  1   
 39  17  18  1   
 40  17  39  1   
 41  17  40  1   
 42  18  41  1   
 43  18  42  1   
 44  19  43  1   
 45  19  44  1   
 46  19  45  1   
@<TRIPOS>SUBSTRUCTURE
  1 ****   6 GROUP 4 **** **** 0

# MOE 2024.06 (io_trps.svl 2023.06)
