@<TRIPOS>MOLECULE
NONAME
40 42 1 0 0 
SMALL
USER_CHARGES


@<TRIPOS>ATOM
  1 S        0.3510     0.3480    -0.9450 S.3   1 <1>  -0.0800 
  2 C       -0.8090    -0.3330     0.1890 C.2   1 <1>   0.1040 
  3 C        1.6880    -0.5020    -0.1910 C.2   1 <1>  -0.1400 
  4 N       -2.1690    -0.0060     0.0820 N.am  1 <1>  -0.4940 
  5 C       -0.1680    -1.1510     1.0670 C.2   1 <1>   0.0190 
  6 C        1.2550    -1.2410     0.8460 C.2   1 <1>  -0.1810 
  7 C        3.0630    -0.2870    -0.7890 C.3   1 <1>   0.0200 
  8 C       -2.8420     0.8870    -0.7140 C.2   1 <1>   0.5690 
  9 C       -0.8410    -1.8550     2.1150 C.1   1 <1>   0.5380 
 10 C        2.1880    -2.0830     1.7110 C.3   1 <1>   0.0210 
 11 C        3.7500    -1.6160    -1.1280 C.3   1 <1>  -0.1600 
 12 O       -2.3100     1.6300    -1.4990 O.2   1 <1>  -0.5700 
 13 C       -4.3570     0.9690    -0.6140 C.3   1 <1>   0.1310 
 14 N       -1.3810    -2.4150     2.9490 N.1   1 <1>  -0.5570 
 15 C        3.0180    -3.0740     0.8830 C.3   1 <1>  -0.1600 
 16 C        4.1780    -2.4370     0.0990 C.3   1 <1>  -0.1600 
 17 S       -5.0340    -0.2020     0.6620 S.3   1 <1>  -0.3310 
 18 C       -6.8210    -0.0220     0.6480 C.ar  1 <1>   0.4120 
 19 N       -7.4370    -0.8270     1.4940 N.ar  1 <1>  -0.6200 
 20 C       -7.4470     0.8910    -0.1920 C.ar  1 <1>  -0.1500 
 21 C       -8.7550    -0.7200     1.5080 C.ar  1 <1>   0.1600 
 22 C       -8.8220     0.9860    -0.1620 C.ar  1 <1>  -0.1500 
 23 C       -9.4840     0.1530     0.7160 C.ar  1 <1>  -0.1500 
 24 H       -2.7930    -0.5180     0.7140 H     1 <1>   0.3700 
 25 H        3.6670     0.2820    -0.1040 H     1 <1>   0.0800 
 26 H        2.9650     0.2890    -1.6920 H     1 <1>   0.0800 
 27 H        1.6280    -2.6480     2.4330 H     1 <1>   0.0800 
 28 H        2.8430    -1.4310     2.2630 H     1 <1>   0.0800 
 29 H        4.6310    -1.3930    -1.7050 H     1 <1>   0.0800 
 30 H        3.0990    -2.2040    -1.7520 H     1 <1>   0.0800 
 31 H       -4.7980     0.7070    -1.5570 H     1 <1>   0.0800 
 32 H       -4.6490     1.9620    -0.3270 H     1 <1>   0.0800 
 33 H        2.3710    -3.6130     0.2110 H     1 <1>   0.0800 
 34 H        3.4400    -3.7940     1.5630 H     1 <1>   0.0800 
 35 H        4.7760    -1.8290     0.7570 H     1 <1>   0.0800 
 36 H        4.8110    -3.2360    -0.2510 H     1 <1>   0.0800 
 37 H       -6.8930     1.5190    -0.8580 H     1 <1>   0.1500 
 38 H       -9.2860    -1.3640     2.1890 H     1 <1>   0.1500 
 39 H       -9.3560     1.6760    -0.7930 H     1 <1>   0.1500 
 40 H      -10.5560     0.1770     0.7880 H     1 <1>   0.1500 
@<TRIPOS>BOND
  1   1   2  1   
  2   1   3  1   
  3   2   4  1   
  4   2   5  2   
  5   3   6  2   
  6   3   7  1   
  7   4   8  am  
  8   4  24  1   
  9   5   6  1   
 10   5   9  1   
 11   6  10  1   
 12   7  11  1   
 13   7  25  1   
 14   7  26  1   
 15   8  12  2   
 16   8  13  1   
 17   9  14  3   
 18  10  15  1   
 19  10  27  1   
 20  10  28  1   
 21  11  16  1   
 22  11  29  1   
 23  11  30  1   
 24  13  17  1   
 25  13  31  1   
 26  13  32  1   
 27  15  16  1   
 28  15  33  1   
 29  15  34  1   
 30  16  35  1   
 31  16  36  1   
 32  17  18  1   
 33  18  19  ar  
 34  18  20  ar  
 35  19  21  ar  
 36  20  22  ar  
 37  20  37  1   
 38  21  23  ar  
 39  21  38  1   
 40  22  23  ar  
 41  22  39  1   
 42  23  40  1   
@<TRIPOS>SUBSTRUCTURE
  1 ****   4 GROUP 4 **** **** 0

# MOE 2024.06 (io_trps.svl 2023.06)
