@<TRIPOS>MOLECULE
NONAME
52 54 1 0 0 
SMALL
USER_CHARGES


@<TRIPOS>ATOM
  1 O        1.1110    -0.6870    -1.5070 O.2   1 <1>  -0.5700 
  2 C        2.1090    -1.1770    -1.0070 C.2   1 <1>   0.6900 
  3 N        2.0070    -2.3660    -0.2960 N.am  1 <1>  -0.4200 
  4 N        3.3330    -0.5480    -1.1420 N.am  1 <1>  -0.4230 
  5 C        3.1100    -2.9090     0.3340 C.2   1 <1>   0.7150 
  6 C        0.6760    -3.0340    -0.1830 C.3   1 <1>   0.0600 
  7 C        4.4470    -1.1040    -0.5240 C.2   1 <1>   0.2900 
  8 C        3.4920     0.7070    -1.9270 C.3   1 <1>   0.0600 
  9 O        3.0110    -3.9190     1.0060 O.2   1 <1>  -0.5700 
 10 C        4.3590    -2.2470     0.1880 C.2   1 <1>  -0.2370 
 11 N        5.6910    -0.6130    -0.5410 N.2   1 <1>  -0.5650 
 12 N        5.6180    -2.5060     0.6420 N.pl3 1 <1>   0.0480 
 13 C        6.3680    -1.4730     0.1670 C.2   1 <1>   0.0060 
 14 C        6.0420    -3.6670     1.4760 C.3   1 <1>   0.1570 
 15 C        7.8710    -1.3120     0.4080 C.3   1 <1>   0.5230 
 16 C        7.0810    -4.4940     0.7550 C.2   1 <1>   0.6590 
 17 N        8.2530     0.0920     0.0910 N.4   1 <1>  -0.9590 
 18 O        8.2260    -4.1210     0.6980 O.2   1 <1>  -0.5700 
 19 O        6.6640    -5.6150     0.1880 O.3   1 <1>  -0.4300 
 20 C        9.6600     0.2910    -0.3520 C.3   1 <1>   0.4230 
 21 C        7.8480     0.9950     1.2050 C.3   1 <1>   0.3430 
 22 C        7.5370    -6.4750    -0.5180 C.3   1 <1>   0.0400 
 23 C        9.8560     1.7550    -0.7700 C.3   1 <1>  -0.1600 
 24 C        9.9920    -0.6240    -1.5330 C.3   1 <1>  -0.2400 
 25 C        8.0180     2.4540     0.7900 C.3   1 <1>  -0.1600 
 26 C        9.4510     2.7400     0.3330 C.3   1 <1>  -0.1600 
 27 H        0.1070    -2.5670     0.6020 H     1 <1>   0.0800 
 28 H        0.7890    -4.0810     0.0380 H     1 <1>   0.0800 
 29 H        0.1350    -2.9410    -1.1090 H     1 <1>   0.0800 
 30 H        2.6030     0.9230    -2.4930 H     1 <1>   0.0800 
 31 H        4.3160     0.6030    -2.6100 H     1 <1>   0.0800 
 32 H        3.6870     1.5250    -1.2570 H     1 <1>   0.0800 
 33 H        5.2070    -4.2950     1.7140 H     1 <1>   0.0800 
 34 H        6.4570    -3.3030     2.3960 H     1 <1>   0.0800 
 35 H        8.3850    -1.9990    -0.2410 H     1 <1>   0.0800 
 36 H        8.1250    -1.5520     1.4270 H     1 <1>   0.0800 
 37 H        7.6270     0.3250    -0.6970 H     1 <1>   0.4500 
 38 H       10.3290     0.0720     0.4660 H     1 <1>   0.0800 
 39 H        8.4530     0.7960     2.0750 H     1 <1>   0.0800 
 40 H        6.8140     0.8200     1.4610 H     1 <1>   0.0800 
 41 H        6.9710    -7.3180    -0.8730 H     1 <1>   0.0800 
 42 H        8.3150    -6.8070     0.1470 H     1 <1>   0.0800 
 43 H        7.9600    -5.9390    -1.3490 H     1 <1>   0.0800 
 44 H        9.2800     1.9560    -1.6580 H     1 <1>   0.0800 
 45 H       10.8910     1.9170    -1.0170 H     1 <1>   0.0800 
 46 H        9.2610    -0.5270    -2.3160 H     1 <1>   0.0800 
 47 H       10.0660    -1.6510    -1.2280 H     1 <1>   0.0800 
 48 H       10.9510    -0.3530    -1.9390 H     1 <1>   0.0800 
 49 H        7.7740     3.0890     1.6240 H     1 <1>   0.0800 
 50 H        7.3240     2.6810    -0.0020 H     1 <1>   0.0800 
 51 H        9.5240     3.7510    -0.0350 H     1 <1>   0.0800 
 52 H       10.1250     2.6460     1.1680 H     1 <1>   0.0800 
@<TRIPOS>BOND
  1   1   2  2   
  2   2   3  am  
  3   2   4  am  
  4   3   5  am  
  5   3   6  1   
  6   4   7  1   
  7   4   8  1   
  8   5   9  2   
  9   5  10  1   
 10   6  27  1   
 11   6  28  1   
 12   6  29  1   
 13   7  10  2   
 14   7  11  1   
 15   8  30  1   
 16   8  31  1   
 17   8  32  1   
 18  10  12  1   
 19  11  13  2   
 20  12  13  1   
 21  12  14  1   
 22  13  15  1   
 23  14  16  1   
 24  14  33  1   
 25  14  34  1   
 26  15  17  1   
 27  15  35  1   
 28  15  36  1   
 29  16  18  2   
 30  16  19  1   
 31  17  20  1   
 32  17  21  1   
 33  17  37  1   
 34  19  22  1   
 35  20  23  1   
 36  20  24  1   
 37  20  38  1   
 38  21  25  1   
 39  21  39  1   
 40  21  40  1   
 41  22  41  1   
 42  22  42  1   
 43  22  43  1   
 44  23  26  1   
 45  23  44  1   
 46  23  45  1   
 47  24  46  1   
 48  24  47  1   
 49  24  48  1   
 50  25  26  1   
 51  25  49  1   
 52  25  50  1   
 53  26  51  1   
 54  26  52  1   
@<TRIPOS>SUBSTRUCTURE
  1 ****  13 GROUP 4 **** **** 0

# MOE 2024.06 (io_trps.svl 2023.06)
