@<TRIPOS>MOLECULE
NONAME
52 54 1 0 0 
SMALL
USER_CHARGES


@<TRIPOS>ATOM
  1 N        0.5860     1.4890     0.0910 N.pl3 1 <1>  -0.8380 
  2 C       -0.7290     1.0960    -0.1600 C.ar  1 <1>   0.1000 
  3 C        0.9890     1.6700     1.5150 C.3   1 <1>   0.2090 
  4 C        1.6390     1.0300    -0.8620 C.3   1 <1>   0.2090 
  5 C       -1.6680     2.0130    -0.6310 C.ar  1 <1>  -0.1440 
  6 C       -1.1220    -0.2210     0.0590 C.ar  1 <1>  -0.1500 
  7 C        1.8130     0.4730     2.0330 C.3   1 <1>   0.3430 
  8 C        2.4520    -0.1500    -0.2910 C.3   1 <1>   0.3430 
  9 C       -2.9680     1.6020    -0.8700 C.ar  1 <1>  -0.1500 
 10 C       -1.2820     3.4630    -0.8880 C.3   1 <1>  -0.0970 
 11 C       -2.4210    -0.6310    -0.1800 C.ar  1 <1>  -0.1440 
 12 N        2.9490     0.1090     1.1120 N.4   1 <1>  -0.9590 
 13 C       -3.3440     0.2890    -0.6460 C.ar  1 <1>  -0.1500 
 14 C       -2.8530    -2.0670     0.0590 C.3   1 <1>  -0.0970 
 15 C        3.7550    -1.0300     1.6300 C.3   1 <1>   0.4860 
 16 C        4.9450    -1.2290     0.7110 C.ar  1 <1>  -0.1430 
 17 C        5.0450    -2.3380    -0.1250 C.ar  1 <1>  -0.1430 
 18 C        5.9470    -0.2670     0.7040 C.ar  1 <1>  -0.1500 
 19 C        6.1390    -2.4490    -0.9690 C.ar  1 <1>  -0.1500 
 20 C        4.0010    -3.4480    -0.1410 C.3   1 <1>  -0.0970 
 21 C        7.0350    -0.3840    -0.1430 C.ar  1 <1>  -0.1430 
 22 C        7.1240    -1.4800    -0.9810 C.ar  1 <1>  -0.1500 
 23 C        8.1310     0.6680    -0.1490 C.3   1 <1>  -0.0970 
 24 H        0.1070     1.7860     2.1220 H     1 <1>   0.0800 
 25 H        1.5630     2.5750     1.6030 H     1 <1>   0.0800 
 26 H        2.2970     1.8530    -1.0810 H     1 <1>   0.0800 
 27 H        1.1770     0.7300    -1.7880 H     1 <1>   0.0800 
 28 H       -0.4060    -0.9290     0.4190 H     1 <1>   0.1500 
 29 H        1.1470    -0.3690     2.1330 H     1 <1>   0.0800 
 30 H        2.1930     0.7100     3.0130 H     1 <1>   0.0800 
 31 H        3.2850    -0.3460    -0.9470 H     1 <1>   0.0800 
 32 H        1.8200    -1.0220    -0.2940 H     1 <1>   0.0800 
 33 H       -3.7010     2.3010    -1.2330 H     1 <1>   0.1500 
 34 H       -0.4880     3.5050    -1.6100 H     1 <1>   0.0800 
 35 H       -0.9430     3.9160     0.0260 H     1 <1>   0.0800 
 36 H       -2.1160     4.0280    -1.2620 H     1 <1>   0.0800 
 37 H        3.5830     0.9130     1.0430 H     1 <1>   0.4500 
 38 H       -4.3600    -0.0120    -0.8380 H     1 <1>   0.1500 
 39 H       -2.0440    -2.6560     0.4510 H     1 <1>   0.0800 
 40 H       -3.1820    -2.5060    -0.8660 H     1 <1>   0.0800 
 41 H       -3.6670    -2.0910     0.7610 H     1 <1>   0.0800 
 42 H        3.1560    -1.9240     1.6680 H     1 <1>   0.0800 
 43 H        4.1090    -0.8140     2.6250 H     1 <1>   0.0800 
 44 H        5.8970     0.5840     1.3600 H     1 <1>   0.1500 
 45 H        6.2400    -3.2960    -1.6250 H     1 <1>   0.1500 
 46 H        3.0420    -3.0690    -0.4430 H     1 <1>   0.0800 
 47 H        3.9190    -3.8960     0.8330 H     1 <1>   0.0800 
 48 H        4.2810    -4.2240    -0.8320 H     1 <1>   0.0800 
 49 H        7.9660    -1.5880    -1.6430 H     1 <1>   0.1500 
 50 H        7.7450     1.6260     0.1490 H     1 <1>   0.0800 
 51 H        8.5510     0.7660    -1.1350 H     1 <1>   0.0800 
 52 H        8.9130     0.3820     0.5310 H     1 <1>   0.0800 
@<TRIPOS>BOND
  1   1   2  1   
  2   1   3  1   
  3   1   4  1   
  4   2   5  ar  
  5   2   6  ar  
  6   3   7  1   
  7   3  24  1   
  8   3  25  1   
  9   4   8  1   
 10   4  26  1   
 11   4  27  1   
 12   5   9  ar  
 13   5  10  1   
 14   6  11  ar  
 15   6  28  1   
 16   7  12  1   
 17   7  29  1   
 18   7  30  1   
 19   8  12  1   
 20   8  31  1   
 21   8  32  1   
 22   9  13  ar  
 23   9  33  1   
 24  10  34  1   
 25  10  35  1   
 26  10  36  1   
 27  11  13  ar  
 28  11  14  1   
 29  12  15  1   
 30  12  37  1   
 31  13  38  1   
 32  14  39  1   
 33  14  40  1   
 34  14  41  1   
 35  15  16  1   
 36  15  42  1   
 37  15  43  1   
 38  16  17  ar  
 39  16  18  ar  
 40  17  19  ar  
 41  17  20  1   
 42  18  21  ar  
 43  18  44  1   
 44  19  22  ar  
 45  19  45  1   
 46  20  46  1   
 47  20  47  1   
 48  20  48  1   
 49  21  22  ar  
 50  21  23  1   
 51  22  49  1   
 52  23  50  1   
 53  23  51  1   
 54  23  52  1   
@<TRIPOS>SUBSTRUCTURE
  1 ****   8 GROUP 4 **** **** 0

# MOE 2024.06 (io_trps.svl 2023.06)
