@<TRIPOS>MOLECULE
NONAME
47 49 1 0 0 
SMALL
USER_CHARGES


@<TRIPOS>ATOM
  1 O        1.7050     2.1960    -2.3060 O.2   1 <1>  -0.5700 
  2 C        1.4730     2.4950    -1.1500 C.2   1 <1>   0.7800 
  3 O        0.2560     2.9260    -0.8120 O.3   1 <1>  -0.4300 
  4 N        2.4180     2.4150    -0.1640 N.am  1 <1>  -0.6600 
  5 C       -0.7670     3.0300    -1.7740 C.3   1 <1>   0.1200 
  6 C        3.8190     1.9820    -0.4460 C.3   1 <1>   0.1400 
  7 C        2.1760     2.8280     1.2510 C.3   1 <1>   0.1400 
  8 C       -2.0210     3.5490    -1.0770 C.3   1 <1>  -0.2400 
  9 C        4.8310     3.0500     0.0000 C.3   1 <1>   0.1400 
 10 C        3.1820     3.9060     1.6810 C.3   1 <1>   0.1400 
 11 N        4.5900     3.4670     1.4200 N.am  1 <1>  -0.6600 
 12 C        5.5430     3.4990     2.4120 C.2   1 <1>   0.5690 
 13 O        5.2550     3.7950     3.5500 O.2   1 <1>  -0.5700 
 14 C        7.0010     3.1280     2.1470 C.3   1 <1>   0.1810 
 15 O        7.5620     3.9250     1.1140 O.3   1 <1>  -0.3630 
 16 C        8.7840     3.6610     0.5880 C.ar  1 <1>   0.0820 
 17 C        9.1190     4.3310    -0.6170 C.ar  1 <1>   0.0000 
 18 C        9.6710     2.7870     1.1740 C.ar  1 <1>  -0.1500 
 19 C       10.3730     4.0680    -1.2120 C.ar  1 <1>   0.0000 
 20 C        8.2600     5.2510    -1.2600 C.ar  1 <1>  -0.1500 
 21 C       10.9120     2.5370     0.5810 C.ar  1 <1>  -0.1500 
 22 C       11.2510     3.1630    -0.5850 C.ar  1 <1>  -0.1500 
 23 C       10.7110     4.7200    -2.4160 C.ar  1 <1>  -0.1500 
 24 C        8.6140     5.8710    -2.4270 C.ar  1 <1>  -0.1500 
 25 C        9.8540     5.6010    -3.0130 C.ar  1 <1>  -0.1500 
 26 H       -0.9350     2.0550    -2.2000 H     1 <1>   0.0800 
 27 H       -0.4430     3.7100    -2.5440 H     1 <1>   0.0800 
 28 H        3.9500     1.7900    -1.4970 H     1 <1>   0.0800 
 29 H        4.0140     1.0650     0.0810 H     1 <1>   0.0800 
 30 H        2.2830     1.9700     1.8920 H     1 <1>   0.0800 
 31 H        1.1790     3.2090     1.3760 H     1 <1>   0.0800 
 32 H       -2.3250     2.8650    -0.3050 H     1 <1>   0.0800 
 33 H       -2.8210     3.6380    -1.7900 H     1 <1>   0.0800 
 34 H       -1.8330     4.5170    -0.6490 H     1 <1>   0.0800 
 35 H        4.7370     3.9120    -0.6380 H     1 <1>   0.0800 
 36 H        5.8220     2.6560    -0.1280 H     1 <1>   0.0800 
 37 H        3.0380     4.1220     2.7250 H     1 <1>   0.0800 
 38 H        2.9900     4.8100     1.1310 H     1 <1>   0.0800 
 39 H        7.0590     2.0960     1.8550 H     1 <1>   0.0800 
 40 H        7.5770     3.2890     3.0400 H     1 <1>   0.0800 
 41 H        9.4520     2.2780     2.0930 H     1 <1>   0.1500 
 42 H        7.3080     5.4660    -0.8090 H     1 <1>   0.1500 
 43 H       11.5920     1.8500     1.0550 H     1 <1>   0.1500 
 44 H       12.2040     2.9720    -1.0450 H     1 <1>   0.1500 
 45 H       11.6670     4.5110    -2.8610 H     1 <1>   0.1500 
 46 H        7.9490     6.5690    -2.9050 H     1 <1>   0.1500 
 47 H       10.1180     6.0960    -3.9320 H     1 <1>   0.1500 
@<TRIPOS>BOND
  1   1   2  2   
  2   2   3  1   
  3   2   4  am  
  4   3   5  1   
  5   4   6  1   
  6   4   7  1   
  7   5   8  1   
  8   5  26  1   
  9   5  27  1   
 10   6   9  1   
 11   6  28  1   
 12   6  29  1   
 13   7  10  1   
 14   7  30  1   
 15   7  31  1   
 16   8  32  1   
 17   8  33  1   
 18   8  34  1   
 19   9  11  1   
 20   9  35  1   
 21   9  36  1   
 22  10  11  1   
 23  10  37  1   
 24  10  38  1   
 25  11  12  am  
 26  12  13  2   
 27  12  14  1   
 28  14  15  1   
 29  14  39  1   
 30  14  40  1   
 31  15  16  1   
 32  16  17  ar  
 33  16  18  ar  
 34  17  19  ar  
 35  17  20  ar  
 36  18  21  ar  
 37  18  41  1   
 38  19  22  ar  
 39  19  23  ar  
 40  20  24  ar  
 41  20  42  1   
 42  21  22  ar  
 43  21  43  1   
 44  22  44  1   
 45  23  25  ar  
 46  23  45  1   
 47  24  25  ar  
 48  24  46  1   
 49  25  47  1   
@<TRIPOS>SUBSTRUCTURE
  1 ****   9 GROUP 4 **** **** 0

# MOE 2024.06 (io_trps.svl 2023.06)
