@<TRIPOS>MOLECULE
NONAME
38 39 1 0 0 
SMALL
USER_CHARGES


@<TRIPOS>ATOM
  1 S       -0.0220    -0.2760    -0.0670 S.3   1 <1>  -0.3320 
  2 C       -1.4820     0.7500    -0.0330 C.ar  1 <1>   0.7220 
  3 C        1.3860     0.9240     0.0360 C.3   1 <1>   0.0700 
  4 N       -2.6230     0.0860    -0.0810 N.ar  1 <1>  -0.6200 
  5 N       -1.2680     2.0550     0.0350 N.ar  1 <1>  -0.6200 
  6 C        2.7100     0.1580    -0.0130 C.3   1 <1>   0.2000 
  7 C       -3.6950     0.8410    -0.0560 C.ar  1 <1>   0.1660 
  8 C       -2.3590     2.7840     0.0590 C.ar  1 <1>   0.1660 
  9 O        2.7310    -0.7460     1.0400 O.3   1 <1>  -0.6800 
 10 C        3.9130     1.1060     0.0870 C.3   1 <1>   0.1200 
 11 C       -3.6120     2.2140     0.0150 C.ar  1 <1>  -0.1500 
 12 C       -5.0320     0.1330    -0.1090 C.3   1 <1>  -0.0970 
 13 C       -2.1820     4.2850     0.1390 C.3   1 <1>  -0.0970 
 14 O        5.1110     0.4050    -0.1810 O.3   1 <1>  -0.3630 
 15 C        6.3140     1.0320    -0.1670 C.ar  1 <1>   0.0830 
 16 C        6.4820     2.3830     0.1260 C.ar  1 <1>  -0.1500 
 17 C        7.4230     0.2570    -0.4650 C.ar  1 <1>  -0.1500 
 18 C        7.7480     2.9420     0.1130 C.ar  1 <1>  -0.1500 
 19 C        8.6890     0.8170    -0.4770 C.ar  1 <1>  -0.1500 
 20 C        8.8510     2.1610    -0.1890 C.ar  1 <1>  -0.1500 
 21 H        1.2810     1.4720     0.9550 H     1 <1>   0.0800 
 22 H        1.2920     1.5930    -0.8010 H     1 <1>   0.0800 
 23 H        2.7680    -0.3970    -0.9340 H     1 <1>   0.0800 
 24 H        1.9250    -1.3000     1.0020 H     1 <1>   0.4000 
 25 H        3.9730     1.5280     1.0750 H     1 <1>   0.0800 
 26 H        3.8250     1.8900    -0.6430 H     1 <1>   0.0800 
 27 H       -4.4980     2.8200     0.0360 H     1 <1>   0.1500 
 28 H       -5.1190    -0.5320     0.7310 H     1 <1>   0.0800 
 29 H       -5.0970    -0.4440    -1.0130 H     1 <1>   0.0800 
 30 H       -5.8450     0.8350    -0.0830 H     1 <1>   0.0800 
 31 H       -1.6410     4.5370     1.0320 H     1 <1>   0.0800 
 32 H       -3.1320     4.7870     0.1550 H     1 <1>   0.0800 
 33 H       -1.6220     4.6270    -0.7130 H     1 <1>   0.0800 
 34 H        5.6460     3.0120     0.3650 H     1 <1>   0.1500 
 35 H        7.2870    -0.7860    -0.6860 H     1 <1>   0.1500 
 36 H        7.8780     3.9860     0.3380 H     1 <1>   0.1500 
 37 H        9.5440     0.2070    -0.7100 H     1 <1>   0.1500 
 38 H        9.8350     2.5980    -0.1980 H     1 <1>   0.1500 
@<TRIPOS>BOND
  1   1   2  1   
  2   1   3  1   
  3   2   4  ar  
  4   2   5  ar  
  5   3   6  1   
  6   3  21  1   
  7   3  22  1   
  8   4   7  ar  
  9   5   8  ar  
 10   6   9  1   
 11   6  10  1   
 12   6  23  1   
 13   7  11  ar  
 14   7  12  1   
 15   8  11  ar  
 16   8  13  1   
 17   9  24  1   
 18  10  14  1   
 19  10  25  1   
 20  10  26  1   
 21  11  27  1   
 22  12  28  1   
 23  12  29  1   
 24  12  30  1   
 25  13  31  1   
 26  13  32  1   
 27  13  33  1   
 28  14  15  1   
 29  15  16  ar  
 30  15  17  ar  
 31  16  18  ar  
 32  16  34  1   
 33  17  19  ar  
 34  17  35  1   
 35  18  20  ar  
 36  18  36  1   
 37  19  20  ar  
 38  19  37  1   
 39  20  38  1   
@<TRIPOS>SUBSTRUCTURE
  1 ****   3 GROUP 4 **** **** 0

# MOE 2024.06 (io_trps.svl 2023.06)
