@<TRIPOS>MOLECULE
NONAME
51 54 1 0 0 
SMALL
USER_CHARGES


@<TRIPOS>ATOM
  1 N        0.3340    -1.0740     0.1720 N.4   1 <1>  -0.9590 
  2 C       -0.0680     0.2790    -0.3090 C.3   1 <1>   0.3430 
  3 C       -0.6610    -1.6770     1.1100 C.3   1 <1>   0.3430 
  4 C        1.6920    -1.0030     0.7910 C.3   1 <1>   0.3430 
  5 C       -1.4320     0.2070    -0.9970 C.3   1 <1>  -0.1600 
  6 C       -2.0350    -1.7620     0.4410 C.3   1 <1>  -0.1600 
  7 C        2.2920    -2.4010     0.8820 C.3   1 <1>  -0.2400 
  8 C       -2.4880    -0.3900    -0.0670 C.3   1 <1>   0.4230 
  9 N       -3.7670    -0.5020    -0.8080 N.4   1 <1>  -0.9060 
 10 C       -4.9700    -0.8530    -0.0060 C.3   1 <1>   0.4230 
 11 C       -6.1570    -1.0850    -0.9660 C.3   1 <1>  -0.0800 
 12 C       -5.3270     0.2760     0.9900 C.3   1 <1>  -0.0800 
 13 C       -7.3780    -1.5300    -0.1340 C.3   1 <1>  -0.1600 
 14 C       -6.5250     0.2160    -1.7180 C.3   1 <1>  -0.1600 
 15 C       -6.5510    -0.1720     1.8150 C.3   1 <1>  -0.1600 
 16 C       -5.6920     1.5790     0.2400 C.3   1 <1>  -0.1600 
 17 C       -7.7490    -0.4350     0.8840 C.3   1 <1>  -0.0800 
 18 C       -6.8800     1.3240    -0.7080 C.3   1 <1>  -0.0800 
 19 C       -8.0900     0.8620     0.1260 C.3   1 <1>  -0.1600 
 20 H        0.4380    -1.6960    -0.6450 H     1 <1>   0.4500 
 21 H        0.6670     0.6550    -1.0050 H     1 <1>   0.0800 
 22 H       -0.1140     0.9630     0.5250 H     1 <1>   0.0800 
 23 H       -0.7260    -1.0760     2.0040 H     1 <1>   0.0800 
 24 H       -0.3440    -2.6670     1.3990 H     1 <1>   0.0800 
 25 H        1.6380    -0.5580     1.7730 H     1 <1>   0.0800 
 26 H        2.3390    -0.3910     0.1810 H     1 <1>   0.0800 
 27 H       -1.3370    -0.3780    -1.8950 H     1 <1>   0.0800 
 28 H       -1.7190     1.2060    -1.2760 H     1 <1>   0.0800 
 29 H       -2.7310    -2.1340     1.1710 H     1 <1>   0.0800 
 30 H       -1.9840    -2.4710    -0.3670 H     1 <1>   0.0800 
 31 H        1.7440    -3.0280     1.5610 H     1 <1>   0.0800 
 32 H        3.2980    -2.3240     1.2560 H     1 <1>   0.0800 
 33 H        2.3400    -2.8650    -0.0870 H     1 <1>   0.0800 
 34 H       -2.6180     0.2730     0.7750 H     1 <1>   0.0800 
 35 H       -3.6920    -1.1800    -1.5740 H     1 <1>   0.4500 
 36 H       -4.0010     0.3970    -1.2480 H     1 <1>   0.4500 
 37 H       -4.7920    -1.7640     0.5410 H     1 <1>   0.0800 
 38 H       -5.9230    -1.8670    -1.6680 H     1 <1>   0.0800 
 39 H       -4.5180     0.4560     1.6740 H     1 <1>   0.0800 
 40 H       -7.1660    -2.4500     0.3830 H     1 <1>   0.0800 
 41 H       -8.2170    -1.7150    -0.7840 H     1 <1>   0.0800 
 42 H       -7.3760     0.0340    -2.3540 H     1 <1>   0.0800 
 43 H       -5.7260     0.5420    -2.3600 H     1 <1>   0.0800 
 44 H       -6.3240    -1.0650     2.3720 H     1 <1>   0.0800 
 45 H       -6.8140     0.5910     2.5290 H     1 <1>   0.0800 
 46 H       -4.8550     1.9640    -0.3140 H     1 <1>   0.0800 
 47 H       -5.9690     2.3380     0.9530 H     1 <1>   0.0800 
 48 H       -8.6020    -0.7480     1.4630 H     1 <1>   0.0800 
 49 H       -7.1340     2.2320    -1.2320 H     1 <1>   0.0800 
 50 H       -8.3680     1.6320     0.8270 H     1 <1>   0.0800 
 51 H       -8.9370     0.6970    -0.5180 H     1 <1>   0.0800 
@<TRIPOS>BOND
  1   1   2  1   
  2   1   3  1   
  3   1   4  1   
  4   1  20  1   
  5   2   5  1   
  6   2  21  1   
  7   2  22  1   
  8   3   6  1   
  9   3  23  1   
 10   3  24  1   
 11   4   7  1   
 12   4  25  1   
 13   4  26  1   
 14   5   8  1   
 15   5  27  1   
 16   5  28  1   
 17   6   8  1   
 18   6  29  1   
 19   6  30  1   
 20   7  31  1   
 21   7  32  1   
 22   7  33  1   
 23   8   9  1   
 24   8  34  1   
 25   9  10  1   
 26   9  35  1   
 27   9  36  1   
 28  10  11  1   
 29  10  12  1   
 30  10  37  1   
 31  11  13  1   
 32  11  14  1   
 33  11  38  1   
 34  12  15  1   
 35  12  16  1   
 36  12  39  1   
 37  13  17  1   
 38  13  40  1   
 39  13  41  1   
 40  14  18  1   
 41  14  42  1   
 42  14  43  1   
 43  15  17  1   
 44  15  44  1   
 45  15  45  1   
 46  16  18  1   
 47  16  46  1   
 48  16  47  1   
 49  17  19  1   
 50  17  48  1   
 51  18  19  1   
 52  18  49  1   
 53  19  50  1   
 54  19  51  1   
@<TRIPOS>SUBSTRUCTURE
  1 ****   9 GROUP 4 **** **** 0

# MOE 2024.06 (io_trps.svl 2023.06)
