@<TRIPOS>MOLECULE
NONAME
42 43 1 0 0 
SMALL
USER_CHARGES


@<TRIPOS>ATOM
  1 N        0.1060     0.3110     0.1160 N.3   1 <1>  -0.3020 
  2 N        1.3400    -0.5050     0.0970 N.4   1 <1>  -0.6410 
  3 C       -0.9610    -0.3570     0.8820 C.3   1 <1>   0.1100 
  4 C       -0.3380     0.6650    -1.2460 C.3   1 <1>   0.1100 
  5 C        2.5670     0.3140    -0.0690 C.3   1 <1>   0.4230 
  6 C       -2.1830     0.5600     1.0070 C.3   1 <1>  -0.1600 
  7 C       -1.5400     1.6150    -1.1850 C.3   1 <1>  -0.1600 
  8 C        3.7090    -0.6280    -0.4740 C.3   1 <1>  -0.1600 
  9 C        2.8240     1.0890     1.2340 C.3   1 <1>  -0.1600 
 10 C       -2.6890     1.0090    -0.3690 C.3   1 <1>  -0.1600 
 11 C        4.7570     0.0490    -1.3780 C.3   1 <1>  -0.1600 
 12 C        3.9570     2.1260     1.1590 C.3   1 <1>  -0.1600 
 13 C        6.1230     0.2420    -0.7070 C.3   1 <1>  -0.1600 
 14 C        5.3660     1.5550     1.4010 C.3   1 <1>  -0.1600 
 15 C        6.2520     1.5100     0.1480 C.3   1 <1>  -0.1600 
 16 H        1.3000    -1.2070    -0.6520 H     1 <1>   0.4500 
 17 H        1.4410    -1.0150     0.9840 H     1 <1>   0.4500 
 18 H       -0.6030    -0.5930     1.8700 H     1 <1>   0.0800 
 19 H       -1.2460    -1.2720     0.3910 H     1 <1>   0.0800 
 20 H       -0.6130    -0.2270    -1.7840 H     1 <1>   0.0800 
 21 H        0.4610     1.1530    -1.7760 H     1 <1>   0.0800 
 22 H        2.4000     1.0140    -0.8710 H     1 <1>   0.0800 
 23 H       -1.9200     1.4220     1.5960 H     1 <1>   0.0800 
 24 H       -2.9710     0.0420     1.5270 H     1 <1>   0.0800 
 25 H       -1.8820     1.8270    -2.1830 H     1 <1>   0.0800 
 26 H       -1.2330     2.5470    -0.7420 H     1 <1>   0.0800 
 27 H        3.3070    -1.4480    -1.0450 H     1 <1>   0.0800 
 28 H        4.1740    -1.0510     0.3990 H     1 <1>   0.0800 
 29 H        3.0110     0.4110     2.0480 H     1 <1>   0.0800 
 30 H        1.9310     1.6400     1.4740 H     1 <1>   0.0800 
 31 H       -3.4760     1.7340    -0.2510 H     1 <1>   0.0800 
 32 H       -3.0980     0.1630    -0.8960 H     1 <1>   0.0800 
 33 H        4.4040     0.9880    -1.7690 H     1 <1>   0.0800 
 34 H        4.9180    -0.5930    -2.2290 H     1 <1>   0.0800 
 35 H        3.7750     2.8450     1.9420 H     1 <1>   0.0800 
 36 H        3.9100     2.6740     0.2340 H     1 <1>   0.0800 
 37 H        6.8620     0.3150    -1.4870 H     1 <1>   0.0800 
 38 H        6.3840    -0.6240    -0.1220 H     1 <1>   0.0800 
 39 H        5.3350     0.5900     1.8770 H     1 <1>   0.0800 
 40 H        5.8550     2.2150     2.0980 H     1 <1>   0.0800 
 41 H        6.0870     2.3840    -0.4600 H     1 <1>   0.0800 
 42 H        7.2770     1.5610     0.4760 H     1 <1>   0.0800 
@<TRIPOS>BOND
  1   1   2  1   
  2   1   3  1   
  3   1   4  1   
  4   2   5  1   
  5   2  16  1   
  6   2  17  1   
  7   3   6  1   
  8   3  18  1   
  9   3  19  1   
 10   4   7  1   
 11   4  20  1   
 12   4  21  1   
 13   5   8  1   
 14   5   9  1   
 15   5  22  1   
 16   6  10  1   
 17   6  23  1   
 18   6  24  1   
 19   7  10  1   
 20   7  25  1   
 21   7  26  1   
 22   8  11  1   
 23   8  27  1   
 24   8  28  1   
 25   9  12  1   
 26   9  29  1   
 27   9  30  1   
 28  10  31  1   
 29  10  32  1   
 30  11  13  1   
 31  11  33  1   
 32  11  34  1   
 33  12  14  1   
 34  12  35  1   
 35  12  36  1   
 36  13  15  1   
 37  13  37  1   
 38  13  38  1   
 39  14  15  1   
 40  14  39  1   
 41  14  40  1   
 42  15  41  1   
 43  15  42  1   
@<TRIPOS>SUBSTRUCTURE
  1 ****   5 GROUP 4 **** **** 0

# MOE 2024.06 (io_trps.svl 2023.06)
