@<TRIPOS>MOLECULE
NONAME
45 46 1 0 0 
SMALL
USER_CHARGES


@<TRIPOS>ATOM
  1 CL       1.6820    -2.7180    -2.9720 Cl    1 <1>  -0.1770 
  2 C        2.3600    -2.2670    -1.4230 C.ar  1 <1>   0.1770 
  3 C        1.5560    -2.2280    -0.2890 C.ar  1 <1>   0.0830 
  4 C        3.7050    -1.9580    -1.3670 C.ar  1 <1>  -0.1500 
  5 O        0.2420    -2.5460    -0.4170 O.3   1 <1>  -0.3630 
  6 C        2.1430    -1.8660     0.9200 C.ar  1 <1>  -0.1500 
  7 C        4.2980    -1.5960    -0.1630 C.ar  1 <1>  -0.0090 
  8 C       -0.6480    -2.4940     0.6750 C.3   1 <1>   0.1200 
  9 C        3.4930    -1.5570     0.9710 C.ar  1 <1>  -0.1500 
 10 S        6.0670    -1.2060    -0.0620 S.o2  1 <1>   1.4470 
 11 C       -2.0330    -2.8880     0.1710 C.3   1 <1>  -0.2400 
 12 O        6.6730    -1.3120    -1.3700 O.2   1 <1>  -0.6500 
 13 O        6.2320     0.0100     0.7040 O.2   1 <1>  -0.6500 
 14 N        6.6780    -2.4650     0.8950 N.am  1 <1>  -0.8490 
 15 C        8.0260    -2.1580     1.4470 C.3   1 <1>   0.2570 
 16 C        6.6770    -3.7680     0.2140 C.3   1 <1>   0.1160 
 17 C        9.2010    -2.1210     0.4450 C.2   1 <1>   0.5690 
 18 O        9.7020    -3.1890     0.1710 O.2   1 <1>  -0.5700 
 19 N        9.6860    -0.9550    -0.1040 N.am  1 <1>  -0.6600 
 20 C        9.2260     0.4360     0.2000 C.3   1 <1>   0.1400 
 21 C       10.6850    -0.9890    -1.2150 C.3   1 <1>   0.1400 
 22 C       10.4220     1.3950     0.3420 C.3   1 <1>   0.1200 
 23 C       11.8040     0.0370    -0.9800 C.3   1 <1>   0.1200 
 24 O       11.2690     1.3120    -0.7690 O.3   1 <1>  -0.5600 
 25 H        4.2900    -2.0000    -2.2690 H     1 <1>   0.1500 
 26 H        1.5700    -1.8180     1.8270 H     1 <1>   0.1500 
 27 H       -0.6560    -1.4900     1.0620 H     1 <1>   0.0800 
 28 H       -0.3070    -3.1840     1.4270 H     1 <1>   0.0800 
 29 H        3.9360    -1.2790     1.9140 H     1 <1>   0.1500 
 30 H       -2.3570    -2.2040    -0.5920 H     1 <1>   0.0800 
 31 H       -2.7380    -2.8590     0.9810 H     1 <1>   0.0800 
 32 H       -2.0110    -3.8860    -0.2290 H     1 <1>   0.0800 
 33 H        8.2650    -2.9190     2.1680 H     1 <1>   0.0800 
 34 H        7.9850    -1.2390     2.0000 H     1 <1>   0.0800 
 35 H        5.6730    -4.0450    -0.0570 H     1 <1>   0.0800 
 36 H        7.0730    -4.5280     0.8660 H     1 <1>   0.0800 
 37 H        7.2780    -3.7350    -0.6810 H     1 <1>   0.0800 
 38 H        8.6610     0.4720     1.1100 H     1 <1>   0.0800 
 39 H        8.5930     0.7800    -0.6000 H     1 <1>   0.0800 
 40 H       10.1860    -0.7630    -2.1420 H     1 <1>   0.0800 
 41 H       11.1220    -1.9680    -1.3080 H     1 <1>   0.0800 
 42 H       10.9900     1.1620     1.2250 H     1 <1>   0.0800 
 43 H       10.0740     2.4100     0.4130 H     1 <1>   0.0800 
 44 H       12.4450     0.0890    -1.8420 H     1 <1>   0.0800 
 45 H       12.3950    -0.2380    -0.1240 H     1 <1>   0.0800 
@<TRIPOS>BOND
  1   1   2  1   
  2   2   3  ar  
  3   2   4  ar  
  4   3   5  1   
  5   3   6  ar  
  6   4   7  ar  
  7   4  25  1   
  8   5   8  1   
  9   6   9  ar  
 10   6  26  1   
 11   7   9  ar  
 12   7  10  1   
 13   8  11  1   
 14   8  27  1   
 15   8  28  1   
 16   9  29  1   
 17  10  12  2   
 18  10  13  2   
 19  10  14  am  
 20  11  30  1   
 21  11  31  1   
 22  11  32  1   
 23  14  15  1   
 24  14  16  1   
 25  15  17  1   
 26  15  33  1   
 27  15  34  1   
 28  16  35  1   
 29  16  36  1   
 30  16  37  1   
 31  17  18  2   
 32  17  19  am  
 33  19  20  1   
 34  19  21  1   
 35  20  22  1   
 36  20  38  1   
 37  20  39  1   
 38  21  23  1   
 39  21  40  1   
 40  21  41  1   
 41  22  24  1   
 42  22  42  1   
 43  22  43  1   
 44  23  24  1   
 45  23  44  1   
 46  23  45  1   
@<TRIPOS>SUBSTRUCTURE
  1 ****  10 GROUP 4 **** **** 0

# MOE 2024.06 (io_trps.svl 2023.06)
