@<TRIPOS>MOLECULE
NONAME
41 42 1 0 0 
SMALL
USER_CHARGES


@<TRIPOS>ATOM
  1 S        1.9590    -0.2590    -2.6280 S.3   1 <1>  -0.3320 
  2 C        2.6490    -0.7700    -1.0420 C.ar  1 <1>   0.1020 
  3 C        2.9260     1.2180    -3.1720 C.3   1 <1>  -0.0100 
  4 C        3.7150    -0.1100    -0.4570 C.ar  1 <1>  -0.1500 
  5 C        2.0650    -1.8640    -0.4280 C.ar  1 <1>  -0.1500 
  6 C        4.2170    -0.5520     0.7590 C.ar  1 <1>   0.1000 
  7 C        2.5550    -2.3020     0.7910 C.ar  1 <1>  -0.1500 
  8 N        5.2990     0.0950     1.3360 N.pl3 1 <1>  -0.8690 
  9 C        3.6230    -1.6460     1.3780 C.ar  1 <1>  -0.1500 
 10 C        6.5500    -0.6750     1.4900 C.3   1 <1>   0.3530 
 11 C        7.6030    -0.0240     0.6040 C.ar  1 <1>  -0.1430 
 12 C        7.8880    -0.4790    -0.6810 C.ar  1 <1>  -0.1430 
 13 C        8.2910     1.0710     1.1070 C.ar  1 <1>  -0.1500 
 14 C        8.8600     0.1650    -1.4320 C.ar  1 <1>  -0.1500 
 15 C        7.1590    -1.6700    -1.2910 C.3   1 <1>  -0.0970 
 16 C        9.2600     1.7160     0.3580 C.ar  1 <1>  -0.1430 
 17 C        9.5500     1.2610    -0.9220 C.ar  1 <1>   0.0830 
 18 C        9.9960     2.9140     0.9410 C.3   1 <1>  -0.0970 
 19 O       10.5100     1.9220    -1.6240 O.3   1 <1>  -0.3620 
 20 C       10.9150     1.5020    -2.9070 C.3   1 <1>   0.0400 
 21 H        2.5240     1.5390    -4.1160 H     1 <1>   0.0800 
 22 H        3.9550     0.9230    -3.2750 H     1 <1>   0.0800 
 23 H        2.8080     1.9840    -2.4260 H     1 <1>   0.0800 
 24 H        4.1720     0.7370    -0.9250 H     1 <1>   0.1500 
 25 H        1.2370    -2.3620    -0.9000 H     1 <1>   0.1500 
 26 H        2.1050    -3.1480     1.2800 H     1 <1>   0.1500 
 27 H        5.5420     0.9710     0.8620 H     1 <1>   0.4000 
 28 H        4.0020    -1.9750     2.3280 H     1 <1>   0.1500 
 29 H        6.3980    -1.7060     1.2250 H     1 <1>   0.0800 
 30 H        6.8610    -0.6380     2.5190 H     1 <1>   0.0800 
 31 H        8.0650     1.4250     2.0970 H     1 <1>   0.1500 
 32 H        9.0710    -0.1970    -2.4180 H     1 <1>   0.1500 
 33 H        6.0960    -1.5240    -1.2380 H     1 <1>   0.0800 
 34 H        7.4160    -2.5700    -0.7620 H     1 <1>   0.0800 
 35 H        7.4240    -1.7990    -2.3250 H     1 <1>   0.0800 
 36 H        9.6510     3.1400     1.9330 H     1 <1>   0.0800 
 37 H        9.8400     3.7750     0.3170 H     1 <1>   0.0800 
 38 H       11.0500     2.7060     0.9820 H     1 <1>   0.0800 
 39 H       11.6940     2.1620    -3.2440 H     1 <1>   0.0800 
 40 H       10.0730     1.5590    -3.5740 H     1 <1>   0.0800 
 41 H       11.2910     0.4960    -2.8420 H     1 <1>   0.0800 
@<TRIPOS>BOND
  1   1   2  1   
  2   1   3  1   
  3   2   4  ar  
  4   2   5  ar  
  5   3  21  1   
  6   3  22  1   
  7   3  23  1   
  8   4   6  ar  
  9   4  24  1   
 10   5   7  ar  
 11   5  25  1   
 12   6   8  1   
 13   6   9  ar  
 14   7   9  ar  
 15   7  26  1   
 16   8  10  1   
 17   8  27  1   
 18   9  28  1   
 19  10  11  1   
 20  10  29  1   
 21  10  30  1   
 22  11  12  ar  
 23  11  13  ar  
 24  12  14  ar  
 25  12  15  1   
 26  13  16  ar  
 27  13  31  1   
 28  14  17  ar  
 29  14  32  1   
 30  15  33  1   
 31  15  34  1   
 32  15  35  1   
 33  16  17  ar  
 34  16  18  1   
 35  17  19  1   
 36  18  36  1   
 37  18  37  1   
 38  18  38  1   
 39  19  20  1   
 40  20  39  1   
 41  20  40  1   
 42  20  41  1   
@<TRIPOS>SUBSTRUCTURE
  1 ****  11 GROUP 4 **** **** 0

# MOE 2024.06 (io_trps.svl 2023.06)
