@<TRIPOS>MOLECULE
NONAME
39 40 1 0 0 
SMALL
USER_CHARGES


@<TRIPOS>ATOM
  1 S       -0.4730    -0.2710    -0.8590 S.o2  1 <1>   1.3330 
  2 O       -0.8940     0.0580    -2.2020 O.2   1 <1>  -0.6500 
  3 O        0.0170    -1.5950    -0.5520 O.2   1 <1>  -0.6500 
  4 N       -1.7530     0.0810     0.1930 N.am  1 <1>  -0.8490 
  5 C        0.7700     0.8930    -0.3450 C.3   1 <1>  -0.1350 
  6 C       -2.5660    -1.1170     0.4850 C.3   1 <1>   0.1960 
  7 C       -2.6250     1.1580    -0.3150 C.3   1 <1>   0.1960 
  8 C       -3.6690    -0.8200     1.5150 C.3   1 <1>   0.1400 
  9 C       -3.7300     1.5290     0.6910 C.3   1 <1>   0.1400 
 10 N       -4.5240     0.3230     1.0710 N.am  1 <1>  -0.6600 
 11 C       -5.7910     0.1010     0.6010 C.2   1 <1>   0.6900 
 12 O       -6.1390    -1.0210     0.2860 O.2   1 <1>  -0.5700 
 13 N       -6.6450     1.1620     0.5230 N.am  1 <1>  -0.5470 
 14 C       -7.9160     1.2920    -0.0570 C.ar  1 <1>   0.1170 
 15 C       -8.8110     2.2460     0.4340 C.ar  1 <1>  -0.1440 
 16 C       -8.3030     0.5040    -1.1360 C.ar  1 <1>  -0.1500 
 17 C      -10.0580     2.3900    -0.1560 C.ar  1 <1>  -0.1500 
 18 C       -8.4510     3.1350     1.6170 C.3   1 <1>  -0.0970 
 19 C       -9.5470     0.6520    -1.7190 C.ar  1 <1>  -0.1500 
 20 C      -10.4270     1.5980    -1.2280 C.ar  1 <1>  -0.1500 
 21 H        0.4200     1.8970    -0.4750 H     1 <1>   0.0800 
 22 H        1.6590     0.7590    -0.9300 H     1 <1>   0.0800 
 23 H        1.0120     0.7380     0.6880 H     1 <1>   0.0800 
 24 H       -1.9380    -1.8950     0.8850 H     1 <1>   0.0800 
 25 H       -3.0150    -1.4890    -0.4210 H     1 <1>   0.0800 
 26 H       -3.0890     0.8480    -1.2390 H     1 <1>   0.0800 
 27 H       -2.0340     2.0330    -0.5220 H     1 <1>   0.0800 
 28 H       -3.2140    -0.5740     2.4580 H     1 <1>   0.0800 
 29 H       -4.2670    -1.7030     1.6610 H     1 <1>   0.0800 
 30 H       -4.3630     2.2770     0.2470 H     1 <1>   0.0800 
 31 H       -3.2800     1.9490     1.5730 H     1 <1>   0.0800 
 32 H       -6.3660     1.9300     1.1210 H     1 <1>   0.3700 
 33 H       -7.6250    -0.2330    -1.5280 H     1 <1>   0.1500 
 34 H      -10.7550     3.1210     0.2150 H     1 <1>   0.1500 
 35 H       -7.6330     3.7820     1.3580 H     1 <1>   0.0800 
 36 H       -8.1750     2.5300     2.4620 H     1 <1>   0.0800 
 37 H       -9.2860     3.7480     1.9060 H     1 <1>   0.0800 
 38 H       -9.8270     0.0310    -2.5510 H     1 <1>   0.1500 
 39 H      -11.3980     1.7160    -1.6790 H     1 <1>   0.1500 
@<TRIPOS>BOND
  1   1   2  2   
  2   1   3  2   
  3   1   4  am  
  4   1   5  1   
  5   4   6  1   
  6   4   7  1   
  7   5  21  1   
  8   5  22  1   
  9   5  23  1   
 10   6   8  1   
 11   6  24  1   
 12   6  25  1   
 13   7   9  1   
 14   7  26  1   
 15   7  27  1   
 16   8  10  1   
 17   8  28  1   
 18   8  29  1   
 19   9  10  1   
 20   9  30  1   
 21   9  31  1   
 22  10  11  am  
 23  11  12  2   
 24  11  13  am  
 25  13  14  1   
 26  13  32  1   
 27  14  15  ar  
 28  14  16  ar  
 29  15  17  ar  
 30  15  18  1   
 31  16  19  ar  
 32  16  33  1   
 33  17  20  ar  
 34  17  34  1   
 35  18  35  1   
 36  18  36  1   
 37  18  37  1   
 38  19  20  ar  
 39  19  38  1   
 40  20  39  1   
@<TRIPOS>SUBSTRUCTURE
  1 ****  11 GROUP 4 **** **** 0

# MOE 2024.06 (io_trps.svl 2023.06)
