@<TRIPOS>MOLECULE
NONAME
43 44 1 0 0 
SMALL
USER_CHARGES


@<TRIPOS>ATOM
  1 O      -11.6620     2.1560     0.3760 O.3   1 <1>  -0.3630 
  2 C      -10.6330     3.0310     0.1800 C.ar  1 <1>   0.0830 
  3 C      -13.0000     2.5550     0.5740 C.3   1 <1>   0.0400 
  4 C      -10.7220     4.4210    -0.0020 C.ar  1 <1>   0.0830 
  5 C       -9.3880     2.4250     0.1700 C.ar  1 <1>  -0.1500 
  6 O      -11.9380     5.0410    -0.0130 O.3   1 <1>  -0.3630 
  7 C       -9.5460     5.1450    -0.1740 C.ar  1 <1>  -0.1500 
  8 C       -8.2160     3.1450    -0.0190 C.ar  1 <1>  -0.1430 
  9 C      -12.0930     6.4250    -0.2400 C.3   1 <1>   0.0400 
 10 C       -8.3070     4.5240    -0.1790 C.ar  1 <1>  -0.1430 
 11 C       -6.8620     2.4280    -0.0090 C.3   1 <1>   0.5660 
 12 C       -7.0640     5.3880    -0.3700 C.3   1 <1>  -0.0160 
 13 N       -5.8190     3.3050    -0.5870 N.4   1 <1>  -0.9060 
 14 C       -6.8390     1.1130    -0.8050 C.3   1 <1>  -0.0220 
 15 C       -5.7540     4.6550    -0.0290 C.3   1 <1>   0.5030 
 16 C       -5.4510     0.4780    -0.8960 C.2   1 <1>  -0.2880 
 17 C       -5.5170     4.5810     1.4840 C.3   1 <1>  -0.2400 
 18 C       -4.5630     5.3440    -0.6910 C.3   1 <1>  -0.2400 
 19 C       -4.4410     0.6010    -0.0270 C.2   1 <1>  -0.3000 
 20 H      -13.5820     1.6790     0.7940 H     1 <1>   0.0800 
 21 H      -13.3630     3.0180    -0.3260 H     1 <1>   0.0800 
 22 H      -13.0420     3.2400     1.4030 H     1 <1>   0.0800 
 23 H       -9.3760     1.3610     0.3260 H     1 <1>   0.1500 
 24 H       -9.5800     6.2100    -0.3070 H     1 <1>   0.1500 
 25 H      -13.1450     6.6490    -0.2200 H     1 <1>   0.0800 
 26 H      -11.6890     6.6700    -1.2060 H     1 <1>   0.0800 
 27 H      -11.5920     6.9670     0.5420 H     1 <1>   0.0800 
 28 H       -6.6090     2.2050     1.0150 H     1 <1>   0.0800 
 29 H       -7.1420     6.2740     0.2360 H     1 <1>   0.0800 
 30 H       -7.0410     5.7130    -1.3960 H     1 <1>   0.0800 
 31 H       -6.0230     3.3830    -1.5840 H     1 <1>   0.4500 
 32 H       -4.9230     2.8170    -0.5020 H     1 <1>   0.4500 
 33 H       -7.2090     1.3060    -1.7970 H     1 <1>   0.0800 
 34 H       -7.5010     0.3960    -0.3550 H     1 <1>   0.0800 
 35 H       -5.3540    -0.1450    -1.7740 H     1 <1>   0.1500 
 36 H       -5.3450     5.5700     1.8720 H     1 <1>   0.0800 
 37 H       -6.3710     4.1870     2.0050 H     1 <1>   0.0800 
 38 H       -4.6510     3.9860     1.7140 H     1 <1>   0.0800 
 39 H       -4.6760     5.3800    -1.7610 H     1 <1>   0.0800 
 40 H       -3.6430     4.8410    -0.4520 H     1 <1>   0.0800 
 41 H       -4.4830     6.3570    -0.3370 H     1 <1>   0.0800 
 42 H       -4.4510     1.1620     0.8920 H     1 <1>   0.1500 
 43 H       -3.4900     0.1060    -0.1620 H     1 <1>   0.1500 
@<TRIPOS>BOND
  1   1   2  1   
  2   1   3  1   
  3   2   4  ar  
  4   2   5  ar  
  5   3  20  1   
  6   3  21  1   
  7   3  22  1   
  8   4   6  1   
  9   4   7  ar  
 10   5   8  ar  
 11   5  23  1   
 12   6   9  1   
 13   7  10  ar  
 14   7  24  1   
 15   8  10  ar  
 16   8  11  1   
 17   9  25  1   
 18   9  26  1   
 19   9  27  1   
 20  10  12  1   
 21  11  13  1   
 22  11  14  1   
 23  11  28  1   
 24  12  15  1   
 25  12  29  1   
 26  12  30  1   
 27  13  15  1   
 28  13  31  1   
 29  13  32  1   
 30  14  16  1   
 31  14  33  1   
 32  14  34  1   
 33  15  17  1   
 34  15  18  1   
 35  16  19  2   
 36  16  35  1   
 37  17  36  1   
 38  17  37  1   
 39  17  38  1   
 40  18  39  1   
 41  18  40  1   
 42  18  41  1   
 43  19  42  1   
 44  19  43  1   
@<TRIPOS>SUBSTRUCTURE
  1 ****   8 GROUP 4 **** **** 0

# MOE 2024.06 (io_trps.svl 2023.06)
