@<TRIPOS>MOLECULE
NONAME
27 28 1 0 0 
SMALL
USER_CHARGES


@<TRIPOS>ATOM
  1 F        0.7330    -1.5810    -1.8220 F     1 <1>  -0.1900 
  2 C        0.7030    -2.2310    -0.6860 C.ar  1 <1>   0.1900 
  3 C        1.8540    -2.4020     0.0940 C.ar  1 <1>   0.0830 
  4 C       -0.5250    -2.7380    -0.3030 C.ar  1 <1>  -0.1500 
  5 O        3.1110    -1.9500    -0.1820 O.3   1 <1>  -0.3630 
  6 C        1.7230    -3.1060     1.2830 C.ar  1 <1>  -0.1500 
  7 C       -0.6270    -3.4360     0.8880 C.ar  1 <1>  -0.1500 
  8 C        3.4270    -1.2100    -1.3580 C.3   1 <1>   0.1810 
  9 C        0.4970    -3.6180     1.6780 C.ar  1 <1>  -0.1500 
 10 C        4.9040    -0.8380    -1.4010 C.2   1 <1>   0.5690 
 11 O        5.3110    -0.2080    -2.3490 O.2   1 <1>  -0.5700 
 12 N        5.7150    -1.2250    -0.3790 N.am  1 <1>  -0.5790 
 13 C        7.1530    -0.9540    -0.2580 C.3   1 <1>   0.0490 
 14 C        8.0100    -1.9930     0.3840 C.3   1 <1>  -0.2000 
 15 C        7.7090    -0.7140     1.1060 C.3   1 <1>  -0.2000 
 16 H       -1.3870    -2.5870    -0.9280 H     1 <1>   0.1500 
 17 H        2.5880    -3.2530     1.9040 H     1 <1>   0.1500 
 18 H       -1.5770    -3.8360     1.2000 H     1 <1>   0.1500 
 19 H        2.8380    -0.3120    -1.3650 H     1 <1>   0.0800 
 20 H        3.1920    -1.8140    -2.2150 H     1 <1>   0.0800 
 21 H        0.4170    -4.1610     2.6040 H     1 <1>   0.1500 
 22 H        5.2910    -1.7550     0.3850 H     1 <1>   0.3700 
 23 H        7.5520    -0.3920    -1.0880 H     1 <1>   0.1000 
 24 H        9.0070    -2.1420     0.0070 H     1 <1>   0.1000 
 25 H        7.5540    -2.9070     0.7210 H     1 <1>   0.1000 
 26 H        7.0420    -0.7310     1.9490 H     1 <1>   0.1000 
 27 H        8.5010     0.0050     1.2190 H     1 <1>   0.1000 
@<TRIPOS>BOND
  1   1   2  1   
  2   2   3  ar  
  3   2   4  ar  
  4   3   5  1   
  5   3   6  ar  
  6   4   7  ar  
  7   4  16  1   
  8   5   8  1   
  9   6   9  ar  
 10   6  17  1   
 11   7   9  ar  
 12   7  18  1   
 13   8  10  1   
 14   8  19  1   
 15   8  20  1   
 16   9  21  1   
 17  10  11  2   
 18  10  12  am  
 19  12  13  1   
 20  12  22  1   
 21  13  14  1   
 22  13  15  1   
 23  13  23  1   
 24  14  15  1   
 25  14  24  1   
 26  14  25  1   
 27  15  26  1   
 28  15  27  1   
@<TRIPOS>SUBSTRUCTURE
  1 ****   5 GROUP 4 **** **** 0

# MOE 2024.06 (io_trps.svl 2023.06)
