@<TRIPOS>MOLECULE
NONAME
45 47 1 0 0 
SMALL
USER_CHARGES


@<TRIPOS>ATOM
  1 S       -0.5240     0.4330     0.4220 S.3   1 <1>  -0.2860 
  2 C        1.2590     0.6410     0.4550 C.2   1 <1>   0.2420 
  3 C       -1.1290     2.0140     1.1990 C.3   1 <1>   0.1310 
  4 N        1.8420     1.6950     0.9020 N.2   1 <1>  -0.3380 
  5 N        2.1030    -0.2900     0.0110 N.pl3 1 <1>   0.0480 
  6 C       -2.6480     2.0820     1.2330 C.2   1 <1>   0.5690 
  7 N        3.1510     1.4730     0.7520 N.2   1 <1>  -0.3380 
  8 C        3.2920     0.2990     0.2220 C.2   1 <1>   0.0060 
  9 C        1.7770    -1.6110    -0.5630 C.3   1 <1>   0.0160 
 10 O       -3.1720     2.8460     2.0070 O.2   1 <1>  -0.5700 
 11 N       -3.3770     1.3000     0.3950 N.am  1 <1>  -0.7300 
 12 C        4.6300    -0.3520    -0.1270 C.3   1 <1>   0.1000 
 13 C       -4.8450     1.2500     0.3180 C.3   1 <1>   0.2200 
 14 C        5.8630     0.4080     0.3620 C.3   1 <1>  -0.1600 
 15 C        4.8680    -0.4580    -1.6340 C.3   1 <1>  -0.1600 
 16 C       -5.3010    -0.1730     0.6130 C.3   1 <1>  -0.1600 
 17 C       -5.2670     1.4610    -1.1300 C.3   1 <1>  -0.1600 
 18 C        7.0150    -0.1350    -0.4840 C.3   1 <1>  -0.1600 
 19 C        6.3860    -0.5910    -1.8060 C.3   1 <1>  -0.1600 
 20 C       -5.1200    -0.9490    -0.6970 C.3   1 <1>  -0.1600 
 21 C       -5.1000     0.1000    -1.8170 C.3   1 <1>  -0.1600 
 22 H       -0.7320     2.8270     0.6210 H     1 <1>   0.0800 
 23 H       -0.7300     2.0490     2.1960 H     1 <1>   0.0800 
 24 H        0.9070    -2.0110    -0.0760 H     1 <1>   0.0800 
 25 H        2.6000    -2.2870    -0.4180 H     1 <1>   0.0800 
 26 H        1.5810    -1.5010    -1.6140 H     1 <1>   0.0800 
 27 H       -2.8950     0.6370    -0.2130 H     1 <1>   0.3700 
 28 H        4.6640    -1.3380     0.3020 H     1 <1>   0.0800 
 29 H       -5.2880     1.9710     0.9860 H     1 <1>   0.0800 
 30 H        6.0280     0.2720     1.4170 H     1 <1>   0.0800 
 31 H        5.7470     1.4600     0.1590 H     1 <1>   0.0800 
 32 H        4.5400     0.4540    -2.1040 H     1 <1>   0.0800 
 33 H        4.3440    -1.2870    -2.0710 H     1 <1>   0.0800 
 34 H       -6.3480    -0.1490     0.8620 H     1 <1>   0.0800 
 35 H       -4.7630    -0.6100     1.4360 H     1 <1>   0.0800 
 36 H       -4.7020     2.2420    -1.6080 H     1 <1>   0.0800 
 37 H       -6.3080     1.7330    -1.1430 H     1 <1>   0.0800 
 38 H        7.4600    -0.9800     0.0130 H     1 <1>   0.0800 
 39 H        7.7710     0.6160    -0.6390 H     1 <1>   0.0800 
 40 H        6.7250     0.0210    -2.6240 H     1 <1>   0.0800 
 41 H        6.6540    -1.6140    -2.0040 H     1 <1>   0.0800 
 42 H       -5.9170    -1.6590    -0.8360 H     1 <1>   0.0800 
 43 H       -4.1830    -1.4800    -0.6810 H     1 <1>   0.0800 
 44 H       -4.1550     0.0630    -2.3320 H     1 <1>   0.0800 
 45 H       -5.8900    -0.0690    -2.5290 H     1 <1>   0.0800 
@<TRIPOS>BOND
  1   1   2  1   
  2   1   3  1   
  3   2   4  2   
  4   2   5  1   
  5   3   6  1   
  6   3  22  1   
  7   3  23  1   
  8   4   7  1   
  9   5   8  1   
 10   5   9  1   
 11   6  10  2   
 12   6  11  am  
 13   7   8  2   
 14   8  12  1   
 15   9  24  1   
 16   9  25  1   
 17   9  26  1   
 18  11  13  1   
 19  11  27  1   
 20  12  14  1   
 21  12  15  1   
 22  12  28  1   
 23  13  16  1   
 24  13  17  1   
 25  13  29  1   
 26  14  18  1   
 27  14  30  1   
 28  14  31  1   
 29  15  19  1   
 30  15  32  1   
 31  15  33  1   
 32  16  20  1   
 33  16  34  1   
 34  16  35  1   
 35  17  21  1   
 36  17  36  1   
 37  17  37  1   
 38  18  19  1   
 39  18  38  1   
 40  18  39  1   
 41  19  40  1   
 42  19  41  1   
 43  20  21  1   
 44  20  42  1   
 45  20  43  1   
 46  21  44  1   
 47  21  45  1   
@<TRIPOS>SUBSTRUCTURE
  1 ****   1 GROUP 4 **** **** 0

# MOE 2024.06 (io_trps.svl 2023.06)
