@<TRIPOS>MOLECULE
NONAME
35 35 1 0 0 
SMALL
USER_CHARGES


@<TRIPOS>ATOM
  1 S        0.8720     1.4510    -0.0980 S.3   1 <1>  -0.3320 
  2 C       -0.8910     1.6460     0.2330 C.ar  1 <1>   0.1020 
  3 C        1.1220    -0.2010    -0.9250 C.3   1 <1>   0.2110 
  4 C       -1.8210     0.6480    -0.0190 C.ar  1 <1>  -0.1500 
  5 C       -1.2860     2.8620     0.7630 C.ar  1 <1>  -0.1500 
  6 C        2.5790    -0.6550    -0.7830 C.2   1 <1>   0.5690 
  7 C        0.6960    -0.0440    -2.3910 C.3   1 <1>  -0.2400 
  8 C       -3.1570     0.8790     0.2640 C.ar  1 <1>  -0.1500 
  9 C       -2.6230     3.0870     1.0440 C.ar  1 <1>  -0.1500 
 10 O        2.8230    -1.8370    -0.8560 O.2   1 <1>  -0.5700 
 11 N        3.5590     0.2690    -0.5930 N.am  1 <1>  -0.7300 
 12 C       -3.5570     2.0950     0.7930 C.ar  1 <1>  -0.1500 
 13 C        4.9910    -0.0100    -0.4410 C.3   1 <1>   0.2200 
 14 C        5.3940     0.3400     0.9980 C.3   1 <1>  -0.1600 
 15 C        5.7330     0.8180    -1.4890 C.3   1 <1>  -0.2400 
 16 C        6.8510    -0.0200     1.3260 C.3   1 <1>  -0.2400 
 17 H        0.5030    -0.9110    -0.4110 H     1 <1>   0.0800 
 18 H       -1.5360    -0.3000    -0.4250 H     1 <1>   0.1500 
 19 H       -0.5530     3.6240     0.9540 H     1 <1>   0.1500 
 20 H        1.3270     0.6740    -2.8830 H     1 <1>   0.0800 
 21 H       -0.3250     0.2830    -2.4610 H     1 <1>   0.0800 
 22 H        0.7920    -0.9880    -2.8980 H     1 <1>   0.0800 
 23 H       -3.8880     0.1120     0.0730 H     1 <1>   0.1500 
 24 H       -2.9350     4.0310     1.4560 H     1 <1>   0.1500 
 25 H        3.2820     1.2460    -0.4730 H     1 <1>   0.3700 
 26 H       -4.5960     2.2710     1.0110 H     1 <1>   0.1500 
 27 H        5.1720    -1.0580    -0.6190 H     1 <1>   0.0800 
 28 H        4.7550    -0.2090     1.6690 H     1 <1>   0.0800 
 29 H        5.2410     1.3900     1.1740 H     1 <1>   0.0800 
 30 H        5.6100     1.8690    -1.3010 H     1 <1>   0.0800 
 31 H        5.3590     0.5840    -2.4690 H     1 <1>   0.0800 
 32 H        6.7810     0.5860    -1.4720 H     1 <1>   0.0800 
 33 H        7.0340    -1.0610     1.1250 H     1 <1>   0.0800 
 34 H        7.0450     0.1640     2.3680 H     1 <1>   0.0800 
 35 H        7.5350     0.5740     0.7480 H     1 <1>   0.0800 
@<TRIPOS>BOND
  1   1   2  1   
  2   1   3  1   
  3   2   4  ar  
  4   2   5  ar  
  5   3   6  1   
  6   3   7  1   
  7   3  17  1   
  8   4   8  ar  
  9   4  18  1   
 10   5   9  ar  
 11   5  19  1   
 12   6  10  2   
 13   6  11  am  
 14   7  20  1   
 15   7  21  1   
 16   7  22  1   
 17   8  12  ar  
 18   8  23  1   
 19   9  12  ar  
 20   9  24  1   
 21  11  13  1   
 22  11  25  1   
 23  12  26  1   
 24  13  14  1   
 25  13  15  1   
 26  13  27  1   
 27  14  16  1   
 28  14  28  1   
 29  14  29  1   
 30  15  30  1   
 31  15  31  1   
 32  15  32  1   
 33  16  33  1   
 34  16  34  1   
 35  16  35  1   
@<TRIPOS>SUBSTRUCTURE
  1 ****   1 GROUP 4 **** **** 0

# MOE 2024.06 (io_trps.svl 2023.06)
