@<TRIPOS>MOLECULE
NONAME
44 45 1 0 0 
SMALL
USER_CHARGES


@<TRIPOS>ATOM
  1 S        0.0320    -0.4690     1.4440 S.o2  1 <1>   1.4470 
  2 O       -0.5320     0.8630     1.4660 O.2   1 <1>  -0.6500 
  3 O       -0.2090    -1.3560     2.5640 O.2   1 <1>  -0.6500 
  4 N       -0.5690    -1.2620     0.0670 N.am  1 <1>  -0.8490 
  5 C        1.8080    -0.3510     1.1020 C.ar  1 <1>  -0.0090 
  6 C       -2.0160    -1.0850    -0.0810 C.3   1 <1>   0.1960 
  7 C       -0.1750    -2.6700     0.0290 C.3   1 <1>   0.1960 
  8 C        2.2690     0.2070    -0.0830 C.ar  1 <1>  -0.1500 
  9 C        2.7570    -0.8080     2.0070 C.ar  1 <1>  -0.1500 
 10 C       -2.2680    -0.0300    -1.1530 C.3   1 <1>  -0.2400 
 11 C       -0.1970    -3.1760    -1.4120 C.3   1 <1>  -0.2400 
 12 C        3.6220     0.2940    -0.3670 C.ar  1 <1>  -0.1430 
 13 C        4.1090    -0.7280     1.7290 C.ar  1 <1>  -0.1500 
 14 C        4.5730    -0.1950     0.5290 C.ar  1 <1>   0.1170 
 15 C        4.0830     0.9540    -1.6510 C.3   1 <1>  -0.0170 
 16 N        5.9570    -0.1290     0.2180 N.am  1 <1>  -0.4770 
 17 C        5.3200     1.7880    -1.3240 C.3   1 <1>  -0.1600 
 18 C        6.8930    -1.0640     0.6280 C.2   1 <1>   0.7800 
 19 C        6.4360     0.9050    -0.7540 C.3   1 <1>   0.1400 
 20 O        6.6150    -2.1120     1.1790 O.2   1 <1>  -0.5700 
 21 O        8.1820    -0.7920     0.3820 O.3   1 <1>  -0.4300 
 22 C        9.2090    -1.6890     0.7570 C.3   1 <1>   0.0400 
 23 H       -2.4640    -0.7820     0.8520 H     1 <1>   0.0800 
 24 H       -2.4890    -2.0030    -0.3840 H     1 <1>   0.0800 
 25 H       -0.8230    -3.2600     0.6580 H     1 <1>   0.0800 
 26 H        0.8310    -2.7790     0.4010 H     1 <1>   0.0800 
 27 H        1.5450     0.5790    -0.7880 H     1 <1>   0.1500 
 28 H        2.4340    -1.2340     2.9420 H     1 <1>   0.1500 
 29 H       -1.8480     0.9140    -0.8560 H     1 <1>   0.0800 
 30 H       -3.3250     0.0990    -1.2930 H     1 <1>   0.0800 
 31 H       -1.8310    -0.3370    -2.0860 H     1 <1>   0.0800 
 32 H       -1.1920    -3.1610    -1.8180 H     1 <1>   0.0800 
 33 H        0.1640    -4.1880    -1.4420 H     1 <1>   0.0800 
 34 H        0.4460    -2.5670    -2.0230 H     1 <1>   0.0800 
 35 H        4.8080    -1.0870     2.4620 H     1 <1>   0.1500 
 36 H        3.3120     1.5900    -2.0510 H     1 <1>   0.0800 
 37 H        4.3200     0.1990    -2.3810 H     1 <1>   0.0800 
 38 H        5.0620     2.5390    -0.5980 H     1 <1>   0.0800 
 39 H        5.6740     2.2910    -2.2060 H     1 <1>   0.0800 
 40 H        6.9180     0.3950    -1.5710 H     1 <1>   0.0800 
 41 H        7.1720     1.5270    -0.2730 H     1 <1>   0.0800 
 42 H       10.1540    -1.2680     0.4630 H     1 <1>   0.0800 
 43 H        9.0500    -2.6290     0.2570 H     1 <1>   0.0800 
 44 H        9.1790    -1.8260     1.8240 H     1 <1>   0.0800 
@<TRIPOS>BOND
  1   1   2  2   
  2   1   3  2   
  3   1   4  am  
  4   1   5  1   
  5   4   6  1   
  6   4   7  1   
  7   5   8  ar  
  8   5   9  ar  
  9   6  10  1   
 10   6  23  1   
 11   6  24  1   
 12   7  11  1   
 13   7  25  1   
 14   7  26  1   
 15   8  12  ar  
 16   8  27  1   
 17   9  13  ar  
 18   9  28  1   
 19  10  29  1   
 20  10  30  1   
 21  10  31  1   
 22  11  32  1   
 23  11  33  1   
 24  11  34  1   
 25  12  14  ar  
 26  12  15  1   
 27  13  14  ar  
 28  13  35  1   
 29  14  16  1   
 30  15  17  1   
 31  15  36  1   
 32  15  37  1   
 33  16  18  am  
 34  16  19  1   
 35  17  19  1   
 36  17  38  1   
 37  17  39  1   
 38  18  20  2   
 39  18  21  1   
 40  19  40  1   
 41  19  41  1   
 42  21  22  1   
 43  22  42  1   
 44  22  43  1   
 45  22  44  1   
@<TRIPOS>SUBSTRUCTURE
  1 ****   8 GROUP 4 **** **** 0

# MOE 2024.06 (io_trps.svl 2023.06)
