@<TRIPOS>MOLECULE
NONAME
41 41 1 0 0 
SMALL
USER_CHARGES


@<TRIPOS>ATOM
  1 CL      -0.4510    -0.4100    -2.3790 Cl    1 <1>  -0.1770 
  2 C       -0.9440     1.1350    -1.7370 C.ar  1 <1>   0.1770 
  3 C       -0.1410     2.2390    -1.9500 C.ar  1 <1>  -0.1500 
  4 C       -2.1250     1.2300    -1.0260 C.ar  1 <1>  -0.1500 
  5 C       -0.5250     3.4710    -1.4400 C.ar  1 <1>  -0.1440 
  6 C       -2.5110     2.4570    -0.5150 C.ar  1 <1>  -0.1500 
  7 C       -1.7120     3.5810    -0.7170 C.ar  1 <1>   0.0830 
  8 C        0.3380     4.6930    -1.6770 C.3   1 <1>   0.4870 
  9 O       -2.0300     4.8100    -0.2280 O.3   1 <1>  -0.3630 
 10 N        0.7440     5.2000    -0.3480 N.4   1 <1>  -0.9060 
 11 C       -3.3160     5.0830     0.2910 C.3   1 <1>   0.1200 
 12 C        1.4450     6.4970    -0.2840 C.3   1 <1>   0.5030 
 13 C       -3.3890     6.5740     0.6200 C.3   1 <1>  -0.1600 
 14 C        1.7460     6.8150     1.2110 C.3   1 <1>   0.1200 
 15 C        0.5350     7.5730    -0.8870 C.3   1 <1>  -0.2400 
 16 C        2.7470     6.3830    -1.0860 C.3   1 <1>  -0.2400 
 17 C       -4.7620     6.9470     1.1880 C.3   1 <1>  -0.2400 
 18 O        2.4220     8.0240     1.3520 O.3   1 <1>  -0.6800 
 19 H        0.7660     2.1120    -2.5160 H     1 <1>   0.1500 
 20 H       -2.7300     0.3520    -0.8790 H     1 <1>   0.1500 
 21 H       -3.4320     2.5090     0.0380 H     1 <1>   0.1500 
 22 H       -0.2410     5.4340    -2.2030 H     1 <1>   0.0800 
 23 H        1.2020     4.4370    -2.2670 H     1 <1>   0.0800 
 24 H        1.2910     4.4740     0.1190 H     1 <1>   0.4500 
 25 H       -0.1470     5.2770     0.1660 H     1 <1>   0.4500 
 26 H       -3.4640     4.4910     1.1780 H     1 <1>   0.0800 
 27 H       -4.0490     4.8230    -0.4550 H     1 <1>   0.0800 
 28 H       -3.2160     7.1470    -0.2750 H     1 <1>   0.0800 
 29 H       -2.6340     6.8210     1.3450 H     1 <1>   0.0800 
 30 H        2.3670     6.0490     1.6410 H     1 <1>   0.0800 
 31 H        0.8290     6.8930     1.7690 H     1 <1>   0.0800 
 32 H       -0.4090     7.6130    -0.3720 H     1 <1>   0.0800 
 33 H        0.3650     7.4200    -1.9370 H     1 <1>   0.0800 
 34 H        1.0000     8.5390    -0.7850 H     1 <1>   0.0800 
 35 H        2.5640     6.2070    -2.1300 H     1 <1>   0.0800 
 36 H        3.2950     7.3070    -1.0160 H     1 <1>   0.0800 
 37 H        3.3760     5.6050    -0.6930 H     1 <1>   0.0800 
 38 H       -5.5400     6.7280     0.4770 H     1 <1>   0.0800 
 39 H       -4.7960     8.0000     1.4110 H     1 <1>   0.0800 
 40 H       -4.9600     6.4030     2.0950 H     1 <1>   0.0800 
 41 H        2.6110     8.2310     2.2920 H     1 <1>   0.4000 
@<TRIPOS>BOND
  1   1   2  1   
  2   2   3  ar  
  3   2   4  ar  
  4   3   5  ar  
  5   3  19  1   
  6   4   6  ar  
  7   4  20  1   
  8   5   7  ar  
  9   5   8  1   
 10   6   7  ar  
 11   6  21  1   
 12   7   9  1   
 13   8  10  1   
 14   8  22  1   
 15   8  23  1   
 16   9  11  1   
 17  10  12  1   
 18  10  24  1   
 19  10  25  1   
 20  11  13  1   
 21  11  26  1   
 22  11  27  1   
 23  12  14  1   
 24  12  15  1   
 25  12  16  1   
 26  13  17  1   
 27  13  28  1   
 28  13  29  1   
 29  14  18  1   
 30  14  30  1   
 31  14  31  1   
 32  15  32  1   
 33  15  33  1   
 34  15  34  1   
 35  16  35  1   
 36  16  36  1   
 37  16  37  1   
 38  17  38  1   
 39  17  39  1   
 40  17  40  1   
 41  18  41  1   
@<TRIPOS>SUBSTRUCTURE
  1 ****   9 GROUP 4 **** **** 0

# MOE 2024.06 (io_trps.svl 2023.06)
