@<TRIPOS>MOLECULE
NONAME
36 37 1 0 0 
SMALL
USER_CHARGES


@<TRIPOS>ATOM
  1 CL       0.2780     1.4240    -1.1350 Cl    1 <1>  -0.1770 
  2 C       -1.4320     1.5510    -0.7750 C.ar  1 <1>   0.1770 
  3 C       -2.0660     0.5770    -0.0140 C.ar  1 <1>   0.0820 
  4 C       -2.1180     2.6430    -1.2700 C.ar  1 <1>  -0.1500 
  5 O       -1.3220    -0.4720     0.4390 O.3   1 <1>  -0.3630 
  6 C       -3.4260     0.7170     0.2480 C.ar  1 <1>  -0.1500 
  7 C       -3.4760     2.7740    -1.0030 C.ar  1 <1>   0.0820 
  8 C       -1.9040    -1.5080     1.2010 C.3   1 <1>   0.0400 
  9 C       -4.1420     1.8060    -0.2390 C.ar  1 <1>   0.1170 
 10 O       -4.2200     3.8290    -1.4590 O.3   1 <1>  -0.3630 
 11 N       -5.5180     1.9920    -0.0020 N.am  1 <1>  -0.5470 
 12 C       -3.6410     4.8420    -2.2530 C.3   1 <1>   0.0400 
 13 C       -6.4800     1.2620     0.6420 C.2   1 <1>   0.5690 
 14 O       -6.2630     0.2000     1.1750 O.2   1 <1>  -0.5700 
 15 C       -7.9020     1.7990     0.7070 C.3   1 <1>   0.1310 
 16 S       -8.1380     3.3030    -0.3640 S.3   1 <1>  -0.2860 
 17 C       -9.8510     3.7120    -0.0890 C.2   1 <1>   0.4340 
 18 S      -10.4800     5.0790    -0.9290 S.3   1 <1>  -0.0800 
 19 N      -10.6860     3.1150     0.6620 N.2   1 <1>  -0.3380 
 20 C      -11.9800     4.7250    -0.1360 C.2   1 <1>   0.1980 
 21 N      -11.9210     3.7090     0.6300 N.2   1 <1>  -0.3380 
 22 C      -13.1620     5.6250    -0.4240 C.3   1 <1>  -0.0600 
 23 H       -1.5730     3.3610    -1.8500 H     1 <1>   0.1500 
 24 H       -3.9370    -0.0180     0.8340 H     1 <1>   0.1500 
 25 H       -1.1350    -2.2220     1.4350 H     1 <1>   0.0800 
 26 H       -2.6750    -1.9810     0.6190 H     1 <1>   0.0800 
 27 H       -2.3060    -1.0930     2.1080 H     1 <1>   0.0800 
 28 H       -5.8580     2.8590    -0.4320 H     1 <1>   0.3700 
 29 H       -4.4080     5.5540    -2.4990 H     1 <1>   0.0800 
 30 H       -3.2510     4.4020    -3.1540 H     1 <1>   0.0800 
 31 H       -2.8620     5.3260    -1.6910 H     1 <1>   0.0800 
 32 H       -8.1450     2.0830     1.7140 H     1 <1>   0.0800 
 33 H       -8.5960     1.0540     0.3650 H     1 <1>   0.0800 
 34 H      -13.3950     5.5990    -1.4720 H     1 <1>   0.0800 
 35 H      -12.9320     6.6340    -0.1350 H     1 <1>   0.0800 
 36 H      -14.0190     5.2890     0.1320 H     1 <1>   0.0800 
@<TRIPOS>BOND
  1   1   2  1   
  2   2   3  ar  
  3   2   4  ar  
  4   3   5  1   
  5   3   6  ar  
  6   4   7  ar  
  7   4  23  1   
  8   5   8  1   
  9   6   9  ar  
 10   6  24  1   
 11   7   9  ar  
 12   7  10  1   
 13   8  25  1   
 14   8  26  1   
 15   8  27  1   
 16   9  11  1   
 17  10  12  1   
 18  11  13  am  
 19  11  28  1   
 20  12  29  1   
 21  12  30  1   
 22  12  31  1   
 23  13  14  2   
 24  13  15  1   
 25  15  16  1   
 26  15  32  1   
 27  15  33  1   
 28  16  17  1   
 29  17  18  1   
 30  17  19  2   
 31  18  20  1   
 32  19  21  1   
 33  20  21  2   
 34  20  22  1   
 35  22  34  1   
 36  22  35  1   
 37  22  36  1   
@<TRIPOS>SUBSTRUCTURE
  1 ****  11 GROUP 4 **** **** 0

# MOE 2024.06 (io_trps.svl 2023.06)
