@<TRIPOS>MOLECULE
ka-07797
44 45 1 0 0 
SMALL
USER_CHARGES


@<TRIPOS>ATOM
  1 O       -0.1660    -0.3010    -0.1300 O.3   1 <1>  -0.5600 
  2 C       -0.0740    -1.5260     0.5550 C.3   1 <1>   0.4870 
  3 C       -1.0810     0.6110     0.3860 C.3   1 <1>   0.1200 
  4 C        1.2050    -2.2420     0.0950 C.ar  1 <1>  -0.1440 
  5 C       -1.3790    -2.3100     0.3520 C.ar  1 <1>  -0.1440 
  6 C       -1.2060     1.7480    -0.6350 C.3   1 <1>   0.3430 
  7 C        2.4600    -1.7970     0.5180 C.ar  1 <1>  -0.1440 
  8 C        1.1430    -3.3520    -0.7440 C.ar  1 <1>  -0.1500 
  9 C       -2.0200    -2.3360    -0.8810 C.ar  1 <1>  -0.1500 
 10 C       -1.9450    -2.9950     1.4180 C.ar  1 <1>  -0.1500 
 11 N       -2.3080     2.7150    -0.3030 N.4   1 <1>  -0.9590 
 12 C        3.6060    -2.4570     0.0980 C.ar  1 <1>  -0.1500 
 13 C        2.6290    -0.5940     1.4390 C.3   1 <1>  -0.0970 
 14 C        2.2900    -4.0020    -1.1580 C.ar  1 <1>  -0.1500 
 15 C       -3.2090    -3.0260    -1.0430 C.ar  1 <1>  -0.1500 
 16 C       -3.1340    -3.6850     1.2570 C.ar  1 <1>  -0.1500 
 17 C       -3.6610     2.0870    -0.4450 C.3   1 <1>   0.2630 
 18 C       -2.2070     3.9220    -1.1810 C.3   1 <1>   0.2630 
 19 C        3.5250    -3.5550    -0.7360 C.ar  1 <1>  -0.1500 
 20 C       -3.7680    -3.6990     0.0280 C.ar  1 <1>  -0.1500 
 21 H        0.0280    -1.3060     1.6020 H     1 <1>   0.0800 
 22 H       -0.7060     0.9730     1.3270 H     1 <1>   0.0800 
 23 H       -2.0270     0.1190     0.5210 H     1 <1>   0.0800 
 24 H       -1.3890     1.3170    -1.6060 H     1 <1>   0.0800 
 25 H       -0.2640     2.2700    -0.6720 H     1 <1>   0.0800 
 26 H        0.2010    -3.7350    -1.0920 H     1 <1>   0.1500 
 27 H       -1.5850    -1.8240    -1.7230 H     1 <1>   0.1500 
 28 H       -1.4620    -3.0030     2.3800 H     1 <1>   0.1500 
 29 H       -2.1850     3.0220     0.6750 H     1 <1>   0.4500 
 30 H        4.5760    -2.1200     0.4180 H     1 <1>   0.1500 
 31 H        2.1650    -0.7850     2.3890 H     1 <1>   0.0800 
 32 H        2.1880     0.2780     0.9930 H     1 <1>   0.0800 
 33 H        3.6690    -0.3860     1.6130 H     1 <1>   0.0800 
 34 H        2.2190    -4.8570    -1.8070 H     1 <1>   0.1500 
 35 H       -3.6960    -3.0470    -2.0030 H     1 <1>   0.1500 
 36 H       -3.5660    -4.2160     2.0890 H     1 <1>   0.1500 
 37 H       -3.8070     1.7340    -1.4530 H     1 <1>   0.0800 
 38 H       -4.4330     2.8040    -0.2160 H     1 <1>   0.0800 
 39 H       -3.7650     1.2510     0.2280 H     1 <1>   0.0800 
 40 H       -2.3240     3.6440    -2.2160 H     1 <1>   0.0800 
 41 H       -1.2460     4.3960    -1.0580 H     1 <1>   0.0800 
 42 H       -2.9750     4.6350    -0.9270 H     1 <1>   0.0800 
 43 H        4.4210    -4.0580    -1.0560 H     1 <1>   0.1500 
 44 H       -4.6910    -4.2390    -0.0960 H     1 <1>   0.1500 
@<TRIPOS>BOND
  1   1   2  1   
  2   1   3  1   
  3   2   4  1   
  4   2   5  1   
  5   2  21  1   
  6   3   6  1   
  7   3  22  1   
  8   3  23  1   
  9   4   7  ar  
 10   4   8  ar  
 11   5   9  ar  
 12   5  10  ar  
 13   6  11  1   
 14   6  24  1   
 15   6  25  1   
 16   7  12  ar  
 17   7  13  1   
 18   8  14  ar  
 19   8  26  1   
 20   9  15  ar  
 21   9  27  1   
 22  10  16  ar  
 23  10  28  1   
 24  11  17  1   
 25  11  18  1   
 26  11  29  1   
 27  12  19  ar  
 28  12  30  1   
 29  13  31  1   
 30  13  32  1   
 31  13  33  1   
 32  14  19  ar  
 33  14  34  1   
 34  15  20  ar  
 35  15  35  1   
 36  16  20  ar  
 37  16  36  1   
 38  17  37  1   
 39  17  38  1   
 40  17  39  1   
 41  18  40  1   
 42  18  41  1   
 43  18  42  1   
 44  19  43  1   
 45  20  44  1   
@<TRIPOS>SUBSTRUCTURE
  1 ****   2 GROUP 4 **** **** 0

# MOE 2024.06 (io_trps.svl 2023.06)
