@<TRIPOS>MOLECULE
NONAME
34 34 1 0 0 
SMALL
USER_CHARGES


@<TRIPOS>ATOM
  1 CL      -2.2760     1.3740     2.2140 Cl    1 <1>  -0.1770 
  2 C       -1.2080     2.2890     1.1680 C.ar  1 <1>   0.1770 
  3 C       -0.0340     2.8250     1.6730 C.ar  1 <1>   0.1770 
  4 C       -1.5590     2.4750    -0.1620 C.ar  1 <1>  -0.1440 
  5 CL       0.3990     2.5970     3.3490 Cl    1 <1>  -0.1770 
  6 C        0.8090     3.5540     0.8550 C.ar  1 <1>  -0.1500 
  7 C       -0.7070     3.2060    -0.9810 C.ar  1 <1>  -0.1500 
  8 C       -2.8460     1.8840    -0.7060 C.3   1 <1>   0.4870 
  9 C        0.4680     3.7420    -0.4750 C.ar  1 <1>  -0.1500 
 10 N       -4.0120     2.5860    -0.0930 N.4   1 <1>  -0.9590 
 11 C       -5.2950     1.8500    -0.3460 C.3   1 <1>   0.3430 
 12 C       -4.0870     4.0050    -0.5440 C.3   1 <1>   0.3430 
 13 C       -5.4050     0.5540     0.4720 C.3   1 <1>   0.1200 
 14 C       -4.9230     4.8270     0.4390 C.3   1 <1>  -0.1600 
 15 O       -6.5800    -0.0730     0.1030 O.3   1 <1>  -0.6800 
 16 C       -4.9200     6.3090     0.0490 C.3   1 <1>  -0.2400 
 17 H        1.7200     3.9670     1.2560 H     1 <1>   0.1500 
 18 H       -0.9390     3.3650    -2.0220 H     1 <1>   0.1500 
 19 H       -2.8730     0.8340    -0.4620 H     1 <1>   0.0800 
 20 H       -2.8750     1.9810    -1.7790 H     1 <1>   0.0800 
 21 H        1.1250     4.3070    -1.1170 H     1 <1>   0.1500 
 22 H       -3.8430     2.5990     0.9240 H     1 <1>   0.4500 
 23 H       -5.3780     1.6110    -1.3940 H     1 <1>   0.0800 
 24 H       -6.1310     2.4740    -0.0800 H     1 <1>   0.0800 
 25 H       -4.5130     4.0630    -1.5330 H     1 <1>   0.0800 
 26 H       -3.0960     4.4300    -0.5800 H     1 <1>   0.0800 
 27 H       -5.4560     0.7660     1.5260 H     1 <1>   0.0800 
 28 H       -4.5950    -0.1230     0.2640 H     1 <1>   0.0800 
 29 H       -4.5150     4.7350     1.4310 H     1 <1>   0.0800 
 30 H       -5.9420     4.4830     0.4500 H     1 <1>   0.0800 
 31 H       -6.7350    -0.8920     0.6210 H     1 <1>   0.4000 
 32 H       -3.9190     6.7060     0.0560 H     1 <1>   0.0800 
 33 H       -5.5090     6.8750     0.7520 H     1 <1>   0.0800 
 34 H       -5.3430     6.4500    -0.9310 H     1 <1>   0.0800 
@<TRIPOS>BOND
  1   1   2  1   
  2   2   3  ar  
  3   2   4  ar  
  4   3   5  1   
  5   3   6  ar  
  6   4   7  ar  
  7   4   8  1   
  8   6   9  ar  
  9   6  17  1   
 10   7   9  ar  
 11   7  18  1   
 12   8  10  1   
 13   8  19  1   
 14   8  20  1   
 15   9  21  1   
 16  10  11  1   
 17  10  12  1   
 18  10  22  1   
 19  11  13  1   
 20  11  23  1   
 21  11  24  1   
 22  12  14  1   
 23  12  25  1   
 24  12  26  1   
 25  13  15  1   
 26  13  27  1   
 27  13  28  1   
 28  14  16  1   
 29  14  29  1   
 30  14  30  1   
 31  15  31  1   
 32  16  32  1   
 33  16  33  1   
 34  16  34  1   
@<TRIPOS>SUBSTRUCTURE
  1 ****   4 GROUP 4 **** **** 0

# MOE 2024.06 (io_trps.svl 2023.06)
