@<TRIPOS>MOLECULE
NONAME
40 41 1 0 0 
SMALL
USER_CHARGES


@<TRIPOS>ATOM
  1 S       -1.7550    -1.0830     2.0040 S.o2  1 <1>   1.3330 
  2 O       -1.3950     0.2120     2.5240 O.2   1 <1>  -0.6500 
  3 O       -3.0020    -1.6980     2.3850 O.2   1 <1>  -0.6500 
  4 N       -1.7900    -0.9260     0.2810 N.am  1 <1>  -0.6930 
  5 C       -0.3970    -2.2020     2.2730 C.3   1 <1>  -0.1350 
  6 C       -1.8190    -2.0220    -0.5750 C.ar  1 <1>   0.1990 
  7 C       -2.3910     0.3490    -0.2330 C.3   1 <1>   0.2570 
  8 C       -2.7740    -3.0290    -0.4490 C.ar  1 <1>  -0.1500 
  9 C       -0.8690    -2.1100    -1.5950 C.ar  1 <1>  -0.1500 
 10 C       -3.9140     0.3190    -0.4090 C.2   1 <1>   0.5690 
 11 C       -2.7560    -4.0920    -1.3300 C.ar  1 <1>   0.1900 
 12 C       -0.8530    -3.1780    -2.4790 C.ar  1 <1>  -0.1500 
 13 O       -4.3850     0.8900    -1.3650 O.2   1 <1>  -0.5700 
 14 N       -4.7010    -0.3320     0.4890 N.am  1 <1>  -0.7300 
 15 F       -3.6570    -5.0330    -1.1990 F     1 <1>  -0.1900 
 16 C       -1.8060    -4.1690    -2.3350 C.ar  1 <1>   0.1900 
 17 C       -6.1660    -0.4380     0.4340 C.3   1 <1>   0.2200 
 18 F       -1.7950    -5.1840    -3.1640 F     1 <1>  -0.1900 
 19 C       -6.7310    -0.0570     1.7960 C.3   1 <1>  -0.1600 
 20 C       -6.5470    -1.9070     0.2950 C.3   1 <1>  -0.1600 
 21 C       -6.5770    -1.3050     2.6730 C.3   1 <1>  -0.1600 
 22 C       -6.4700    -2.4940     1.7090 C.3   1 <1>  -0.1600 
 23 H        0.5060    -1.7930     1.8620 H     1 <1>   0.0800 
 24 H       -0.5940    -3.1480     1.8090 H     1 <1>   0.0800 
 25 H       -0.2550    -2.3590     3.3240 H     1 <1>   0.0800 
 26 H       -1.9570     0.5710    -1.1920 H     1 <1>   0.0800 
 27 H       -2.1450     1.1670     0.4190 H     1 <1>   0.0800 
 28 H       -3.5290    -2.9890     0.3120 H     1 <1>   0.1500 
 29 H       -0.1360    -1.3290    -1.6920 H     1 <1>   0.1500 
 30 H       -0.1210    -3.2450    -3.2650 H     1 <1>   0.1500 
 31 H       -4.2800    -0.8380     1.2810 H     1 <1>   0.3700 
 32 H       -6.5660     0.1680    -0.3630 H     1 <1>   0.0800 
 33 H       -7.7780     0.1620     1.6810 H     1 <1>   0.0800 
 34 H       -6.2430     0.8060     2.2130 H     1 <1>   0.0800 
 35 H       -5.9210    -2.4260    -0.4090 H     1 <1>   0.0800 
 36 H       -7.5650    -1.9610    -0.0490 H     1 <1>   0.0800 
 37 H       -7.4120    -1.4120     3.3440 H     1 <1>   0.0800 
 38 H       -5.6720    -1.2320     3.2540 H     1 <1>   0.0800 
 39 H       -5.5240    -2.9880     1.8530 H     1 <1>   0.0800 
 40 H       -7.2610    -3.2060     1.8730 H     1 <1>   0.0800 
@<TRIPOS>BOND
  1   1   2  2   
  2   1   3  2   
  3   1   4  am  
  4   1   5  1   
  5   4   6  1   
  6   4   7  1   
  7   5  23  1   
  8   5  24  1   
  9   5  25  1   
 10   6   8  ar  
 11   6   9  ar  
 12   7  10  1   
 13   7  26  1   
 14   7  27  1   
 15   8  11  ar  
 16   8  28  1   
 17   9  12  ar  
 18   9  29  1   
 19  10  13  2   
 20  10  14  am  
 21  11  15  1   
 22  11  16  ar  
 23  12  16  ar  
 24  12  30  1   
 25  14  17  1   
 26  14  31  1   
 27  16  18  1   
 28  17  19  1   
 29  17  20  1   
 30  17  32  1   
 31  19  21  1   
 32  19  33  1   
 33  19  34  1   
 34  20  22  1   
 35  20  35  1   
 36  20  36  1   
 37  21  22  1   
 38  21  37  1   
 39  21  38  1   
 40  22  39  1   
 41  22  40  1   
@<TRIPOS>SUBSTRUCTURE
  1 ****   8 GROUP 4 **** **** 0

# MOE 2024.06 (io_trps.svl 2023.06)
