@<TRIPOS>MOLECULE
NONAME
51 52 1 0 0 
SMALL
USER_CHARGES


@<TRIPOS>ATOM
  1 O       -9.4600     4.2560     2.1240 O.3   1 <1>  -0.3630 
  2 C       -8.4880     3.6290     1.4150 C.ar  1 <1>   0.0830 
  3 C      -10.2560     5.2650     1.5440 C.3   1 <1>   0.0400 
  4 C       -7.7480     2.6690     2.0840 C.ar  1 <1>  -0.1500 
  5 C       -8.2030     3.8990     0.0810 C.ar  1 <1>  -0.1500 
  6 C       -6.7360     1.9820     1.4360 C.ar  1 <1>  -0.1500 
  7 C       -7.1920     3.2100    -0.5660 C.ar  1 <1>  -0.1500 
  8 C       -6.4510     2.2440     0.1010 C.ar  1 <1>  -0.1430 
  9 C       -5.3390     1.5060    -0.6370 C.3   1 <1>   0.3430 
 10 O       -5.4420     0.1620    -0.3060 O.3   1 <1>  -0.6800 
 11 C       -3.9430     2.0550    -0.2720 C.3   1 <1>   0.0630 
 12 C       -3.8190     3.5020    -0.7420 C.ar  1 <1>  -0.1430 
 13 C       -2.7510     1.2660    -0.8550 C.3   1 <1>   0.3430 
 14 C       -3.7730     3.8190    -2.0950 C.ar  1 <1>  -0.1500 
 15 C       -3.7580     4.5270     0.1910 C.ar  1 <1>  -0.1500 
 16 N       -2.6980    -0.1710    -0.4270 N.4   1 <1>  -0.9590 
 17 C       -3.6570     5.1360    -2.5030 C.ar  1 <1>  -0.1500 
 18 C       -3.6420     5.8440    -0.2180 C.ar  1 <1>  -0.1500 
 19 C       -1.7330    -0.4470     0.6770 C.3   1 <1>   0.3430 
 20 C       -2.4490    -1.0480    -1.5990 C.3   1 <1>   0.3430 
 21 C       -3.5900     6.1490    -1.5650 C.ar  1 <1>  -0.1500 
 22 C       -2.1650     0.2310     1.9710 C.3   1 <1>  -0.2400 
 23 C       -2.9410    -2.4590    -1.2970 C.3   1 <1>  -0.2400 
 24 H      -10.9440     5.6170     2.2900 H     1 <1>   0.0800 
 25 H      -10.7980     4.8480     0.7140 H     1 <1>   0.0800 
 26 H       -9.6190     6.0710     1.2240 H     1 <1>   0.0800 
 27 H       -7.9720     2.4670     3.1160 H     1 <1>   0.1500 
 28 H       -8.7540     4.6400    -0.4660 H     1 <1>   0.1500 
 29 H       -6.1770     1.2460     1.9860 H     1 <1>   0.1500 
 30 H       -6.9840     3.4420    -1.5970 H     1 <1>   0.1500 
 31 H       -5.5000     1.5830    -1.6990 H     1 <1>   0.0800 
 32 H       -6.4010    -0.0440    -0.2270 H     1 <1>   0.4000 
 33 H       -3.8670     2.0540     0.7970 H     1 <1>   0.0800 
 34 H       -1.8360     1.7610    -0.5740 H     1 <1>   0.0800 
 35 H       -2.8220     1.3130    -1.9290 H     1 <1>   0.0800 
 36 H       -3.8320     3.0570    -2.8520 H     1 <1>   0.1500 
 37 H       -3.8080     4.3190     1.2460 H     1 <1>   0.1500 
 38 H       -3.6620    -0.3950    -0.1020 H     1 <1>   0.4500 
 39 H       -3.6210     5.3780    -3.5520 H     1 <1>   0.1500 
 40 H       -3.5970     6.6330     0.5130 H     1 <1>   0.1500 
 41 H       -0.7460    -0.1120     0.4000 H     1 <1>   0.0800 
 42 H       -1.6850    -1.5090     0.8540 H     1 <1>   0.0800 
 43 H       -1.3990    -1.0600    -1.8440 H     1 <1>   0.0800 
 44 H       -2.9920    -0.6740    -2.4520 H     1 <1>   0.0800 
 45 H       -3.5000     7.1740    -1.8820 H     1 <1>   0.1500 
 46 H       -2.0280     1.2950     1.9170 H     1 <1>   0.0800 
 47 H       -1.5500    -0.1300     2.7760 H     1 <1>   0.0800 
 48 H       -3.1890    -0.0030     2.2050 H     1 <1>   0.0800 
 49 H       -2.3710    -2.9200    -0.5120 H     1 <1>   0.0800 
 50 H       -2.8310    -3.0660    -2.1790 H     1 <1>   0.0800 
 51 H       -3.9830    -2.4480    -1.0310 H     1 <1>   0.0800 
@<TRIPOS>BOND
  1   1   2  1   
  2   1   3  1   
  3   2   4  ar  
  4   2   5  ar  
  5   3  24  1   
  6   3  25  1   
  7   3  26  1   
  8   4   6  ar  
  9   4  27  1   
 10   5   7  ar  
 11   5  28  1   
 12   6   8  ar  
 13   6  29  1   
 14   7   8  ar  
 15   7  30  1   
 16   8   9  1   
 17   9  10  1   
 18   9  11  1   
 19   9  31  1   
 20  10  32  1   
 21  11  12  1   
 22  11  13  1   
 23  11  33  1   
 24  12  14  ar  
 25  12  15  ar  
 26  13  16  1   
 27  13  34  1   
 28  13  35  1   
 29  14  17  ar  
 30  14  36  1   
 31  15  18  ar  
 32  15  37  1   
 33  16  19  1   
 34  16  20  1   
 35  16  38  1   
 36  17  21  ar  
 37  17  39  1   
 38  18  21  ar  
 39  18  40  1   
 40  19  22  1   
 41  19  41  1   
 42  19  42  1   
 43  20  23  1   
 44  20  43  1   
 45  20  44  1   
 46  21  45  1   
 47  22  46  1   
 48  22  47  1   
 49  22  48  1   
 50  23  49  1   
 51  23  50  1   
 52  23  51  1   
@<TRIPOS>SUBSTRUCTURE
  1 ****   9 GROUP 4 **** **** 0

# MOE 2024.06 (io_trps.svl 2023.06)
