@<TRIPOS>MOLECULE
NONAME
32 35 1 0 0 
SMALL
USER_CHARGES


@<TRIPOS>ATOM
  1 O        0.1710     1.0550     1.4800 O.2   1 <1>  -0.5700 
  2 C        0.1570     1.9180     0.6410 C.2   1 <1>   0.5690 
  3 N        1.0400     2.0900    -0.3960 N.am  1 <1>  -0.4200 
  4 C       -0.7960     3.0780     0.5790 C.3   1 <1>  -0.0190 
  5 C        0.5720     3.0320    -1.2800 C.2   1 <1>   0.5690 
  6 C        2.3470     1.4280    -0.4960 C.3   1 <1>   0.2780 
  7 C       -2.1760     3.5570     1.0630 C.3   1 <1>   0.1530 
  8 C       -0.8780     3.2520    -0.9460 C.3   1 <1>  -0.0190 
  9 O        1.1670     3.5420    -2.1940 O.2   1 <1>  -0.5700 
 10 C        3.2940     2.0460     0.5160 C.2   1 <1>  -0.2880 
 11 C       -3.3240     2.9790     0.2450 C.2   1 <1>  -0.2880 
 12 C       -2.1070     4.8940     0.3090 C.3   1 <1>  -0.1900 
 13 C       -1.9900     4.3190    -1.1030 C.3   1 <1>   0.1530 
 14 C        4.3680     2.7840     0.2170 C.2   1 <1>  -0.3000 
 15 C       -3.2500     3.4660    -0.9980 C.2   1 <1>  -0.2880 
 16 C       -1.4370     6.1440     0.7800 C.3   1 <1>  -0.2000 
 17 C       -2.9420     6.0850     0.6430 C.3   1 <1>  -0.2000 
 18 H       -0.1410     3.8370     0.9820 H     1 <1>   0.0800 
 19 H        2.7350     1.5530    -1.4930 H     1 <1>   0.0800 
 20 H        2.2330     0.3750    -0.3010 H     1 <1>   0.0800 
 21 H       -2.3260     3.6560     2.1250 H     1 <1>   0.0800 
 22 H       -1.2970     2.3570    -1.3790 H     1 <1>   0.0800 
 23 H        3.0050     1.8260     1.5310 H     1 <1>   0.1500 
 24 H       -4.0320     2.3070     0.7010 H     1 <1>   0.1500 
 25 H       -1.9380     5.0100    -1.9260 H     1 <1>   0.0800 
 26 H        5.0250     3.2120     0.9540 H     1 <1>   0.1500 
 27 H        4.6790     3.0250    -0.7860 H     1 <1>   0.1500 
 28 H       -3.8810     3.3150    -1.8570 H     1 <1>   0.1500 
 29 H       -0.8830     6.7410     0.0760 H     1 <1>   0.1000 
 30 H       -1.0220     6.1860     1.7730 H     1 <1>   0.1000 
 31 H       -3.5450     6.0600     1.5340 H     1 <1>   0.1000 
 32 H       -3.4140     6.6270    -0.1580 H     1 <1>   0.1000 
@<TRIPOS>BOND
  1   1   2  2   
  2   2   3  am  
  3   2   4  1   
  4   3   5  am  
  5   3   6  1   
  6   4   7  1   
  7   4   8  1   
  8   4  18  1   
  9   5   8  1   
 10   5   9  2   
 11   6  10  1   
 12   6  19  1   
 13   6  20  1   
 14   7  11  1   
 15   7  12  1   
 16   7  21  1   
 17   8  13  1   
 18   8  22  1   
 19  10  14  2   
 20  10  23  1   
 21  11  15  2   
 22  11  24  1   
 23  12  13  1   
 24  12  16  1   
 25  12  17  1   
 26  13  15  1   
 27  13  25  1   
 28  14  26  1   
 29  14  27  1   
 30  15  28  1   
 31  16  17  1   
 32  16  29  1   
 33  16  30  1   
 34  17  31  1   
 35  17  32  1   
@<TRIPOS>SUBSTRUCTURE
  1 ****   4 GROUP 4 **** **** 0

# MOE 2024.06 (io_trps.svl 2023.06)
