@<TRIPOS>MOLECULE
NONAME
37 38 1 0 0 
SMALL
USER_CHARGES


@<TRIPOS>ATOM
  1 S        0.1230     0.1680     2.0450 S.o2  1 <1>   1.2950 
  2 O        0.1860     1.5100     2.6040 O.2   1 <1>  -0.6500 
  3 O        0.0580    -0.9350     2.9870 O.2   1 <1>  -0.6500 
  4 N        1.4620    -0.0360     0.8630 N.pl3 1 <1>   0.5840 
  5 C       -1.3320     0.0860     0.9520 C.ar  1 <1>  -0.0090 
  6 N        2.2850    -1.1360     0.7770 N.2   1 <1>  -0.7070 
  7 C        1.8050     0.8360    -0.1380 C.2   1 <1>  -0.3320 
  8 C       -1.6290    -1.0100     0.1370 C.ar  1 <1>  -0.1430 
  9 C       -2.1970     1.1750     0.9060 C.ar  1 <1>  -0.1500 
 10 C        3.0790    -0.9190    -0.2170 C.2   1 <1>   0.1080 
 11 C        2.8290     0.2970    -0.8320 C.2   1 <1>  -0.1500 
 12 C        1.1350     2.1780    -0.4020 C.3   1 <1>  -0.0600 
 13 C       -2.7370    -0.9740    -0.6950 C.ar  1 <1>  -0.1500 
 14 C       -0.7830    -2.2800     0.1080 C.3   1 <1>  -0.0970 
 15 C       -3.3060     1.2120     0.0790 C.ar  1 <1>  -0.1430 
 16 C        4.1460    -1.9060    -0.6320 C.3   1 <1>  -0.0590 
 17 C       -3.5770     0.1240    -0.7370 C.ar  1 <1>  -0.1430 
 18 C       -4.2000     2.4440     0.0870 C.3   1 <1>  -0.0970 
 19 C       -4.7800     0.1070    -1.6700 C.3   1 <1>  -0.0970 
 20 H       -1.9980     2.0230     1.5390 H     1 <1>   0.1500 
 21 H        3.3570     0.6960    -1.6800 H     1 <1>   0.1500 
 22 H        0.1030     2.0420    -0.6730 H     1 <1>   0.0800 
 23 H        1.6290     2.6850    -1.2130 H     1 <1>   0.0800 
 24 H        1.1910     2.8080     0.4690 H     1 <1>   0.0800 
 25 H       -2.9520    -1.8200    -1.3250 H     1 <1>   0.1500 
 26 H        0.0620    -2.1500    -0.5440 H     1 <1>   0.0800 
 27 H       -1.3600    -3.1100    -0.2590 H     1 <1>   0.0800 
 28 H       -0.4340    -2.5490     1.0880 H     1 <1>   0.0800 
 29 H        3.6890    -2.8430    -0.8900 H     1 <1>   0.0800 
 30 H        4.8250    -2.0640     0.1860 H     1 <1>   0.0800 
 31 H        4.6940    -1.5360    -1.4780 H     1 <1>   0.0800 
 32 H       -3.8390     3.1810     0.7820 H     1 <1>   0.0800 
 33 H       -5.1990     2.1720     0.3760 H     1 <1>   0.0800 
 34 H       -4.2260     2.8880    -0.8910 H     1 <1>   0.0800 
 35 H       -4.8240    -0.8110    -2.2280 H     1 <1>   0.0800 
 36 H       -4.7170     0.9220    -2.3690 H     1 <1>   0.0800 
 37 H       -5.6880     0.2000    -1.1030 H     1 <1>   0.0800 
@<TRIPOS>BOND
  1   1   2  2   
  2   1   3  2   
  3   1   4  1   
  4   1   5  1   
  5   4   6  1   
  6   4   7  1   
  7   5   8  ar  
  8   5   9  ar  
  9   6  10  2   
 10   7  11  2   
 11   7  12  1   
 12   8  13  ar  
 13   8  14  1   
 14   9  15  ar  
 15   9  20  1   
 16  10  11  1   
 17  10  16  1   
 18  11  21  1   
 19  12  22  1   
 20  12  23  1   
 21  12  24  1   
 22  13  17  ar  
 23  13  25  1   
 24  14  26  1   
 25  14  27  1   
 26  14  28  1   
 27  15  17  ar  
 28  15  18  1   
 29  16  29  1   
 30  16  30  1   
 31  16  31  1   
 32  17  19  1   
 33  18  32  1   
 34  18  33  1   
 35  18  34  1   
 36  19  35  1   
 37  19  36  1   
 38  19  37  1   
@<TRIPOS>SUBSTRUCTURE
  1 ****   5 GROUP 4 **** **** 0

# MOE 2024.06 (io_trps.svl 2023.06)
