@<TRIPOS>MOLECULE
NONAME
40 40 1 0 0 
SMALL
USER_CHARGES


@<TRIPOS>ATOM
  1 O      -10.6630     0.2910    -1.0140 O.2   1 <1>  -0.5700 
  2 C      -10.7280     1.3130    -0.3990 C.2   1 <1>   0.4480 
  3 C      -12.0700     1.9790    -0.1430 C.3   1 <1>   0.2340 
  4 C       -9.4840     2.0190     0.1380 C.3   1 <1>  -0.0990 
  5 N      -12.2650     2.2600     1.2730 N.2   1 <1>  -0.1710 
  6 C       -8.1670     1.4540    -0.4240 C.3   1 <1>  -0.1600 
  7 O      -12.3660     3.3830     1.5820 O.2   1 <1>  -0.1620 
  8 C       -6.9480     2.2030     0.1320 C.3   1 <1>  -0.1600 
  9 C       -5.6460     1.6210    -0.4320 C.3   1 <1>  -0.1600 
 10 C       -4.4210     2.3610     0.1220 C.3   1 <1>  -0.1600 
 11 C       -3.1310     1.7650    -0.4450 C.3   1 <1>   0.3430 
 12 N       -1.9400     2.4100     0.1750 N.4   1 <1>  -0.9590 
 13 C       -1.7580     3.8380    -0.2730 C.3   1 <1>   0.3430 
 14 C       -0.6940     1.6170    -0.1160 C.3   1 <1>   0.3430 
 15 C       -0.4500     4.4420     0.2720 C.3   1 <1>   0.1200 
 16 C        0.5660     2.3200     0.4250 C.3   1 <1>   0.1200 
 17 O        0.6370     3.6280    -0.0630 O.3   1 <1>  -0.5600 
 18 H      -12.8560     1.3260    -0.4740 H     1 <1>   0.0800 
 19 H      -12.1240     2.8920    -0.7060 H     1 <1>   0.0800 
 20 H       -9.4790     1.9270     1.2090 H     1 <1>   0.0800 
 21 H       -9.5520     3.0640    -0.1050 H     1 <1>   0.0800 
 22 H       -8.1810     1.5290    -1.4980 H     1 <1>   0.0800 
 23 H       -8.0970     0.4100    -0.1680 H     1 <1>   0.0800 
 24 H       -6.9440     2.1240     1.2070 H     1 <1>   0.0800 
 25 H       -7.0220     3.2460    -0.1280 H     1 <1>   0.0800 
 26 H       -5.6630     1.6980    -1.5070 H     1 <1>   0.0800 
 27 H       -5.5890     0.5760    -0.1750 H     1 <1>   0.0800 
 28 H       -4.4200     2.2720     1.1950 H     1 <1>   0.0800 
 29 H       -4.5000     3.4000    -0.1440 H     1 <1>   0.0800 
 30 H       -3.1070     1.8910    -1.5160 H     1 <1>   0.0800 
 31 H       -3.1180     0.7070    -0.2330 H     1 <1>   0.0800 
 32 H       -2.0720     2.4160     1.1950 H     1 <1>   0.4500 
 33 H       -2.5880     4.4400     0.0580 H     1 <1>   0.0800 
 34 H       -1.7270     3.8810    -1.3500 H     1 <1>   0.0800 
 35 H       -0.5800     1.4950    -1.1810 H     1 <1>   0.0800 
 36 H       -0.7690     0.6360     0.3240 H     1 <1>   0.0800 
 37 H       -0.4860     4.5520     1.3420 H     1 <1>   0.0800 
 38 H       -0.2780     5.4110    -0.1650 H     1 <1>   0.0800 
 39 H        1.4500     1.8020     0.0970 H     1 <1>   0.0800 
 40 H        0.5670     2.3500     1.5010 H     1 <1>   0.0800 
@<TRIPOS>BOND
  1   1   2  2   
  2   2   3  1   
  3   2   4  1   
  4   3   5  1   
  5   3  18  1   
  6   3  19  1   
  7   4   6  1   
  8   4  20  1   
  9   4  21  1   
 10   5   7  2   
 11   6   8  1   
 12   6  22  1   
 13   6  23  1   
 14   8   9  1   
 15   8  24  1   
 16   8  25  1   
 17   9  10  1   
 18   9  26  1   
 19   9  27  1   
 20  10  11  1   
 21  10  28  1   
 22  10  29  1   
 23  11  12  1   
 24  11  30  1   
 25  11  31  1   
 26  12  13  1   
 27  12  14  1   
 28  12  32  1   
 29  13  15  1   
 30  13  33  1   
 31  13  34  1   
 32  14  16  1   
 33  14  35  1   
 34  14  36  1   
 35  15  17  1   
 36  15  37  1   
 37  15  38  1   
 38  16  17  1   
 39  16  39  1   
 40  16  40  1   
@<TRIPOS>SUBSTRUCTURE
  1 ****   9 GROUP 4 **** **** 0

# MOE 2024.06 (io_trps.svl 2023.06)
