@<TRIPOS>MOLECULE
NONAME
45 48 1 0 0 
SMALL
USER_CHARGES


@<TRIPOS>ATOM
  1 CL      -1.6520     0.0390    -1.9240 Cl    1 <1>  -0.1770 
  2 C       -2.5660     0.8070    -0.6500 C.ar  1 <1>   0.1770 
  3 C       -3.7320     0.2170    -0.2080 C.ar  1 <1>  -0.1500 
  4 C       -2.1030     1.9930    -0.1110 C.ar  1 <1>  -0.1500 
  5 C       -4.4680     0.8180     0.8070 C.ar  1 <1>   0.1000 
  6 C       -2.8320     2.5990     0.8990 C.ar  1 <1>  -0.1500 
  7 N       -5.6540     0.2690     1.2870 N.pl3 1 <1>  -0.8380 
  8 C       -4.0020     2.0120     1.3490 C.ar  1 <1>  -0.1500 
  9 C       -5.7600    -1.1970     1.5710 C.3   1 <1>   0.2090 
 10 C       -6.9400     0.8940     0.8540 C.3   1 <1>   0.2090 
 11 C       -6.5430    -1.9590     0.4810 C.3   1 <1>   0.1960 
 12 C       -7.6330     0.0630    -0.2420 C.3   1 <1>   0.1960 
 13 N       -7.8440    -1.3390     0.1710 N.am  1 <1>  -0.8490 
 14 S       -8.6840    -2.2350    -0.9960 S.o2  1 <1>   1.4470 
 15 O       -8.0760    -1.9190    -2.2710 O.2   1 <1>  -0.6500 
 16 O       -8.6980    -3.6080    -0.5410 O.2   1 <1>  -0.6500 
 17 C      -10.3620    -1.5520    -0.9160 C.ar  1 <1>  -0.0090 
 18 C      -10.9990    -1.3760     0.3070 C.ar  1 <1>  -0.1500 
 19 C      -11.0510    -1.1940    -2.0720 C.ar  1 <1>  -0.1500 
 20 C      -12.2760    -0.8500     0.3780 C.ar  1 <1>   0.0830 
 21 C      -12.3300    -0.6630    -2.0150 C.ar  1 <1>  -0.1500 
 22 O      -12.8590    -0.7060     1.5940 O.3   1 <1>  -0.3630 
 23 C      -12.9440    -0.4820    -0.7900 C.ar  1 <1>   0.0830 
 24 C      -14.2580    -0.4930     1.6110 C.3   1 <1>   0.1200 
 25 O      -14.1880     0.0560    -0.7490 O.3   1 <1>  -0.3630 
 26 C      -14.6580     0.5000     0.5100 C.3   1 <1>   0.1200 
 27 H       -4.0630    -0.6970    -0.6560 H     1 <1>   0.1500 
 28 H       -1.1910     2.4300    -0.4750 H     1 <1>   0.1500 
 29 H       -2.4890     3.5220     1.3340 H     1 <1>   0.1500 
 30 H       -4.5700     2.4730     2.1370 H     1 <1>   0.1500 
 31 H       -6.2620    -1.3280     2.5130 H     1 <1>   0.0800 
 32 H       -4.7740    -1.6190     1.6670 H     1 <1>   0.0800 
 33 H       -6.7530     1.8860     0.4830 H     1 <1>   0.0800 
 34 H       -7.5940     0.9750     1.7040 H     1 <1>   0.0800 
 35 H       -6.6990    -2.9680     0.8250 H     1 <1>   0.0800 
 36 H       -5.9450    -2.0110    -0.4130 H     1 <1>   0.0800 
 37 H       -7.0270     0.0990    -1.1330 H     1 <1>   0.0800 
 38 H       -8.5800     0.5210    -0.4680 H     1 <1>   0.0800 
 39 H      -10.4970    -1.6530     1.2180 H     1 <1>   0.1500 
 40 H      -10.5800    -1.3310    -3.0320 H     1 <1>   0.1500 
 41 H      -12.8530    -0.3870    -2.9130 H     1 <1>   0.1500 
 42 H      -14.5250    -0.1160     2.5820 H     1 <1>   0.0800 
 43 H      -14.7430    -1.4400     1.4540 H     1 <1>   0.0800 
 44 H      -14.2290     1.4670     0.7050 H     1 <1>   0.0800 
 45 H      -15.7270     0.5940     0.4510 H     1 <1>   0.0800 
@<TRIPOS>BOND
  1   1   2  1   
  2   2   3  ar  
  3   2   4  ar  
  4   3   5  ar  
  5   3  27  1   
  6   4   6  ar  
  7   4  28  1   
  8   5   7  1   
  9   5   8  ar  
 10   6   8  ar  
 11   6  29  1   
 12   7   9  1   
 13   7  10  1   
 14   8  30  1   
 15   9  11  1   
 16   9  31  1   
 17   9  32  1   
 18  10  12  1   
 19  10  33  1   
 20  10  34  1   
 21  11  13  1   
 22  11  35  1   
 23  11  36  1   
 24  12  13  1   
 25  12  37  1   
 26  12  38  1   
 27  13  14  am  
 28  14  15  2   
 29  14  16  2   
 30  14  17  1   
 31  17  18  ar  
 32  17  19  ar  
 33  18  20  ar  
 34  18  39  1   
 35  19  21  ar  
 36  19  40  1   
 37  20  22  1   
 38  20  23  ar  
 39  21  23  ar  
 40  21  41  1   
 41  22  24  1   
 42  23  25  1   
 43  24  26  1   
 44  24  42  1   
 45  24  43  1   
 46  25  26  1   
 47  26  44  1   
 48  26  45  1   
@<TRIPOS>SUBSTRUCTURE
  1 ****  12 GROUP 4 **** **** 0

# MOE 2024.06 (io_trps.svl 2023.06)
