@<TRIPOS>MOLECULE
NONAME
41 41 1 0 0 
SMALL
USER_CHARGES


@<TRIPOS>ATOM
  1 O       -0.3980     1.3870    -0.1790 O.2   1 <1>  -0.5700 
  2 C        0.4210     2.2410     0.1010 C.2   1 <1>   0.5440 
  3 N       -0.0520     3.4020     0.6510 N.am  1 <1>  -0.7300 
  4 C        1.8360     2.0550    -0.1750 C.ar  1 <1>   0.0860 
  5 C       -1.3790     3.5920     1.3140 C.3   1 <1>   0.1400 
  6 C        2.2610     1.1830    -1.1790 C.ar  1 <1>  -0.1500 
  7 C        2.8280     2.7290     0.5430 C.ar  1 <1>  -0.1500 
  8 C       -2.5100     3.8950     0.3080 C.3   1 <1>   0.3430 
  9 C        3.6010     1.0060    -1.4640 C.ar  1 <1>  -0.1500 
 10 C        4.1720     2.5580     0.2630 C.ar  1 <1>  -0.1500 
 11 N       -2.7510     2.7430    -0.6120 N.4   1 <1>  -0.9590 
 12 C        4.5690     1.6910    -0.7500 C.ar  1 <1>   0.0830 
 13 C       -3.2190     3.1730    -1.9610 C.3   1 <1>   0.2630 
 14 C       -3.6430     1.7050    -0.0170 C.3   1 <1>   0.2630 
 15 O        5.8580     1.4650    -1.0910 O.3   1 <1>  -0.3630 
 16 C        6.9280     2.0910    -0.4200 C.3   1 <1>   0.1200 
 17 C        8.2340     1.6070    -1.0490 C.3   1 <1>  -0.1600 
 18 C        9.4520     2.2450    -0.3710 C.3   1 <1>  -0.2400 
 19 H        0.6280     4.1520     0.8120 H     1 <1>   0.3700 
 20 H       -1.3010     4.4120     2.0080 H     1 <1>   0.0800 
 21 H       -1.6240     2.7100     1.8810 H     1 <1>   0.0800 
 22 H        1.5280     0.6340    -1.7450 H     1 <1>   0.1500 
 23 H        2.5530     3.3940     1.3410 H     1 <1>   0.1500 
 24 H       -2.2260     4.7640    -0.2620 H     1 <1>   0.0800 
 25 H       -3.4170     4.1300     0.8410 H     1 <1>   0.0800 
 26 H        3.9110     0.3310    -2.2430 H     1 <1>   0.1500 
 27 H        4.8970     3.0990     0.8420 H     1 <1>   0.1500 
 28 H       -1.8160     2.2820    -0.7160 H     1 <1>   0.4500 
 29 H       -4.1790     3.6570    -1.8900 H     1 <1>   0.0800 
 30 H       -3.3080     2.3180    -2.6120 H     1 <1>   0.0800 
 31 H       -2.5130     3.8610    -2.3970 H     1 <1>   0.0800 
 32 H       -4.6250     2.1090     0.1660 H     1 <1>   0.0800 
 33 H       -3.2290     1.3490     0.9120 H     1 <1>   0.0800 
 34 H       -3.7320     0.8650    -0.6880 H     1 <1>   0.0800 
 35 H        6.8830     1.8180     0.6200 H     1 <1>   0.0800 
 36 H        6.8240     3.1560    -0.5330 H     1 <1>   0.0800 
 37 H        8.2380     1.8600    -2.0950 H     1 <1>   0.0800 
 38 H        8.2960     0.5360    -0.9540 H     1 <1>   0.0800 
 39 H        9.4200     3.3160    -0.4690 H     1 <1>   0.0800 
 40 H       10.3560     1.8880    -0.8310 H     1 <1>   0.0800 
 41 H        9.4780     1.9910     0.6740 H     1 <1>   0.0800 
@<TRIPOS>BOND
  1   1   2  2   
  2   2   3  am  
  3   2   4  1   
  4   3   5  1   
  5   3  19  1   
  6   4   6  ar  
  7   4   7  ar  
  8   5   8  1   
  9   5  20  1   
 10   5  21  1   
 11   6   9  ar  
 12   6  22  1   
 13   7  10  ar  
 14   7  23  1   
 15   8  11  1   
 16   8  24  1   
 17   8  25  1   
 18   9  12  ar  
 19   9  26  1   
 20  10  12  ar  
 21  10  27  1   
 22  11  13  1   
 23  11  14  1   
 24  11  28  1   
 25  12  15  1   
 26  13  29  1   
 27  13  30  1   
 28  13  31  1   
 29  14  32  1   
 30  14  33  1   
 31  14  34  1   
 32  15  16  1   
 33  16  17  1   
 34  16  35  1   
 35  16  36  1   
 36  17  18  1   
 37  17  37  1   
 38  17  38  1   
 39  18  39  1   
 40  18  40  1   
 41  18  41  1   
@<TRIPOS>SUBSTRUCTURE
  1 ****   4 GROUP 4 **** **** 0

# MOE 2024.06 (io_trps.svl 2023.06)
