@<TRIPOS>MOLECULE
NONAME
39 40 1 0 0 
SMALL
USER_CHARGES


@<TRIPOS>ATOM
  1 O        3.5420    -1.6060    -0.7260 O.2   1 <1>  -0.5700 
  2 C        2.6150    -2.0750    -0.1450 C.2   1 <1>   0.4480 
  3 C        2.0870    -1.5400     1.1720 C.3   1 <1>  -0.0190 
  4 C        1.8230    -3.2140    -0.7230 C.3   1 <1>  -0.0990 
  5 C        0.6490    -1.0950     0.9170 C.3   1 <1>   0.3430 
  6 C        2.9210    -0.3750     1.7390 C.3   1 <1>  -0.2400 
  7 C        0.3860    -2.7450    -0.9480 C.3   1 <1>   0.4230 
  8 N       -0.1960    -2.1990     0.3270 N.4   1 <1>  -0.9590 
  9 C       -0.4500    -3.9170    -1.4660 C.3   1 <1>  -0.2400 
 10 C       -1.6320    -1.7820     0.1820 C.3   1 <1>   0.4230 
 11 C       -1.8100    -0.5470    -0.7180 C.3   1 <1>  -0.1600 
 12 C       -2.2740    -1.5580     1.5580 C.3   1 <1>  -0.1600 
 13 C       -3.3000    -0.2070    -0.8730 C.3   1 <1>  -0.1600 
 14 C       -3.7650    -1.2260     1.4070 C.3   1 <1>  -0.1600 
 15 C       -3.9720    -0.0110     0.4930 C.3   1 <1>  -0.1600 
 16 H        2.0920    -2.3340     1.8970 H     1 <1>   0.0800 
 17 H        1.8580    -4.0600    -0.0620 H     1 <1>   0.0800 
 18 H        2.2620    -3.5040    -1.6610 H     1 <1>   0.0800 
 19 H        0.6680    -0.2560     0.2400 H     1 <1>   0.0800 
 20 H        0.2230    -0.7590     1.8480 H     1 <1>   0.0800 
 21 H        2.9490     0.4490     1.0460 H     1 <1>   0.0800 
 22 H        3.9350    -0.6980     1.9090 H     1 <1>   0.0800 
 23 H        2.5170    -0.0300     2.6740 H     1 <1>   0.0800 
 24 H        0.4010    -1.9670    -1.6950 H     1 <1>   0.0800 
 25 H       -0.2080    -2.9750     0.9990 H     1 <1>   0.4500 
 26 H       -0.5910    -4.6650    -0.7060 H     1 <1>   0.0800 
 27 H        0.0540    -4.3810    -2.2970 H     1 <1>   0.0800 
 28 H       -1.4040    -3.5880    -1.8350 H     1 <1>   0.0800 
 29 H       -2.1800    -2.5900    -0.2740 H     1 <1>   0.0800 
 30 H       -1.4030    -0.7290    -1.6960 H     1 <1>   0.0800 
 31 H       -1.3190     0.3100    -0.2930 H     1 <1>   0.0800 
 32 H       -2.1790    -2.4460     2.1590 H     1 <1>   0.0800 
 33 H       -1.8050    -0.7390     2.0730 H     1 <1>   0.0800 
 34 H       -3.4080     0.6930    -1.4560 H     1 <1>   0.0800 
 35 H       -3.8010    -0.9990    -1.4040 H     1 <1>   0.0800 
 36 H       -4.1920    -1.0200     2.3750 H     1 <1>   0.0800 
 37 H       -4.2890    -2.0730     0.9960 H     1 <1>   0.0800 
 38 H       -5.0270     0.1570     0.3520 H     1 <1>   0.0800 
 39 H       -3.5680     0.8680     0.9680 H     1 <1>   0.0800 
@<TRIPOS>BOND
  1   1   2  2   
  2   2   3  1   
  3   2   4  1   
  4   3   5  1   
  5   3   6  1   
  6   3  16  1   
  7   4   7  1   
  8   4  17  1   
  9   4  18  1   
 10   5   8  1   
 11   5  19  1   
 12   5  20  1   
 13   6  21  1   
 14   6  22  1   
 15   6  23  1   
 16   7   8  1   
 17   7   9  1   
 18   7  24  1   
 19   8  10  1   
 20   8  25  1   
 21   9  26  1   
 22   9  27  1   
 23   9  28  1   
 24  10  11  1   
 25  10  12  1   
 26  10  29  1   
 27  11  13  1   
 28  11  30  1   
 29  11  31  1   
 30  12  14  1   
 31  12  32  1   
 32  12  33  1   
 33  13  15  1   
 34  13  34  1   
 35  13  35  1   
 36  14  15  1   
 37  14  36  1   
 38  14  37  1   
 39  15  38  1   
 40  15  39  1   
@<TRIPOS>SUBSTRUCTURE
  1 ****   8 GROUP 4 **** **** 0

# MOE 2024.06 (io_trps.svl 2023.06)
