@<TRIPOS>MOLECULE
NONAME
49 50 1 0 0 
SMALL
USER_CHARGES


@<TRIPOS>ATOM
  1 S        0.6980     0.4620     1.5430 S.o2  1 <1>   1.3330 
  2 O        0.4980    -0.4140     0.4180 O.2   1 <1>  -0.6500 
  3 O        1.9580     0.4520     2.2490 O.2   1 <1>  -0.6500 
  4 N        0.4580     2.0900     1.0150 N.am  1 <1>  -0.6930 
  5 C       -0.6220     0.2520     2.7180 C.3   1 <1>  -0.1350 
  6 C       -0.5680     2.4150     0.1390 C.ar  1 <1>   0.1990 
  7 C        1.6230     3.0260     1.0920 C.3   1 <1>   0.2570 
  8 C       -1.6880     3.0950     0.5990 C.ar  1 <1>  -0.1500 
  9 C       -0.4950     2.0810    -1.2070 C.ar  1 <1>  -0.1500 
 10 C        2.7440     2.7490     0.0850 C.2   1 <1>   0.5690 
 11 C       -2.7170     3.4250    -0.2640 C.ar  1 <1>  -0.1500 
 12 C       -1.5230     2.4100    -2.0710 C.ar  1 <1>  -0.1500 
 13 O        2.8460     3.4800    -0.8710 O.2   1 <1>  -0.5700 
 14 N        3.6020     1.7100     0.3200 N.am  1 <1>  -0.5470 
 15 C       -2.6410     3.0820    -1.6040 C.ar  1 <1>  -0.1430 
 16 C        4.6970     1.2840    -0.4480 C.ar  1 <1>   0.1170 
 17 C       -3.7670     3.4440    -2.5560 C.3   1 <1>  -0.0970 
 18 C        5.8380     2.0780    -0.5990 C.ar  1 <1>  -0.1430 
 19 C        4.6590     0.0250    -1.0510 C.ar  1 <1>  -0.1430 
 20 C        6.9060     1.6130    -1.3490 C.ar  1 <1>  -0.1500 
 21 C        5.9510     3.4540     0.0440 C.3   1 <1>  -0.0970 
 22 C        5.7410    -0.4220    -1.7910 C.ar  1 <1>  -0.1500 
 23 C        3.4360    -0.8740    -0.9210 C.3   1 <1>  -0.0970 
 24 C        6.8670     0.3660    -1.9450 C.ar  1 <1>  -0.1430 
 25 C        8.0440    -0.1310    -2.7640 C.3   1 <1>  -0.0970 
 26 H       -0.5760    -0.7280     3.1510 H     1 <1>   0.0800 
 27 H       -1.5700     0.3680     2.2300 H     1 <1>   0.0800 
 28 H       -0.5420     0.9800     3.5000 H     1 <1>   0.0800 
 29 H        2.0360     2.9990     2.0840 H     1 <1>   0.0800 
 30 H        1.2700     4.0270     0.9190 H     1 <1>   0.0800 
 31 H       -1.7490     3.3670     1.6360 H     1 <1>   0.1500 
 32 H        0.3710     1.5600    -1.5750 H     1 <1>   0.1500 
 33 H       -3.5780     3.9520     0.1100 H     1 <1>   0.1500 
 34 H       -1.4450     2.1420    -3.1110 H     1 <1>   0.1500 
 35 H        3.3240     1.0630     1.0690 H     1 <1>   0.3700 
 36 H       -3.5600     4.3920    -3.0190 H     1 <1>   0.0800 
 37 H       -4.7010     3.5100    -2.0290 H     1 <1>   0.0800 
 38 H       -3.8630     2.6960    -3.3230 H     1 <1>   0.0800 
 39 H        7.7790     2.2280    -1.4720 H     1 <1>   0.1500 
 40 H        5.3790     4.1660    -0.5230 H     1 <1>   0.0800 
 41 H        6.9740     3.7830     0.0710 H     1 <1>   0.0800 
 42 H        5.5810     3.4290     1.0520 H     1 <1>   0.0800 
 43 H        5.7070    -1.3900    -2.2580 H     1 <1>   0.1500 
 44 H        3.5630    -1.7880    -1.4710 H     1 <1>   0.0800 
 45 H        3.2650    -1.1220     0.1110 H     1 <1>   0.0800 
 46 H        2.5700    -0.3670    -1.3070 H     1 <1>   0.0800 
 47 H        7.9120     0.1490    -3.7940 H     1 <1>   0.0800 
 48 H        8.1200    -1.2020    -2.7010 H     1 <1>   0.0800 
 49 H        8.9620     0.2960    -2.4020 H     1 <1>   0.0800 
@<TRIPOS>BOND
  1   1   2  2   
  2   1   3  2   
  3   1   4  am  
  4   1   5  1   
  5   4   6  1   
  6   4   7  1   
  7   5  26  1   
  8   5  27  1   
  9   5  28  1   
 10   6   8  ar  
 11   6   9  ar  
 12   7  10  1   
 13   7  29  1   
 14   7  30  1   
 15   8  11  ar  
 16   8  31  1   
 17   9  12  ar  
 18   9  32  1   
 19  10  13  2   
 20  10  14  am  
 21  11  15  ar  
 22  11  33  1   
 23  12  15  ar  
 24  12  34  1   
 25  14  16  1   
 26  14  35  1   
 27  15  17  1   
 28  16  18  ar  
 29  16  19  ar  
 30  17  36  1   
 31  17  37  1   
 32  17  38  1   
 33  18  20  ar  
 34  18  21  1   
 35  19  22  ar  
 36  19  23  1   
 37  20  24  ar  
 38  20  39  1   
 39  21  40  1   
 40  21  41  1   
 41  21  42  1   
 42  22  24  ar  
 43  22  43  1   
 44  23  44  1   
 45  23  45  1   
 46  23  46  1   
 47  24  25  1   
 48  25  47  1   
 49  25  48  1   
 50  25  49  1   
@<TRIPOS>SUBSTRUCTURE
  1 ****  10 GROUP 4 **** **** 0

# MOE 2024.06 (io_trps.svl 2023.06)
