@<TRIPOS>MOLECULE
NONAME
53 56 1 0 0 
SMALL
USER_CHARGES


@<TRIPOS>ATOM
  1 O        0.2910     0.6790     0.3750 O.3   1 <1>  -0.3630 
  2 C       -0.6560     1.4860     0.9100 C.ar  1 <1>   0.0830 
  3 C        1.0690     1.0640    -0.7380 C.3   1 <1>   0.2640 
  4 C       -0.9110     2.7850     0.4790 C.ar  1 <1>  -0.1500 
  5 C       -1.4010     0.9550     1.9480 C.ar  1 <1>  -0.1500 
  6 C        1.9710    -0.0930    -1.1380 C.ar  1 <1>  -0.1440 
  7 C       -1.9060     3.5470     1.0800 C.ar  1 <1>  -0.1440 
  8 C       -2.3940     1.7010     2.5500 C.ar  1 <1>  -0.1500 
  9 C        3.3520     0.0370    -1.0900 C.ar  1 <1>  -0.1500 
 10 C        1.4180    -1.2910    -1.5630 C.ar  1 <1>  -0.1500 
 11 C       -2.6480     2.9910     2.1190 C.ar  1 <1>  -0.1500 
 12 C       -2.1420     4.9690     0.5830 C.3   1 <1>   0.5660 
 13 C        4.1670    -1.0160    -1.4680 C.ar  1 <1>  -0.1500 
 14 C        2.2320    -2.3440    -1.9420 C.ar  1 <1>  -0.1500 
 15 N       -2.3530     5.8490     1.7430 N.4   1 <1>  -0.9060 
 16 C       -3.2890     5.1320    -0.4500 C.3   1 <1>  -0.0800 
 17 C        3.6080    -2.2070    -1.8950 C.ar  1 <1>  -0.1500 
 18 C       -2.2950     7.2970     1.4070 C.3   1 <1>   0.3430 
 19 C       -4.0490     6.4640    -0.2650 C.3   1 <1>   0.2800 
 20 C       -4.2760     3.9420    -0.6070 C.3   1 <1>  -0.1600 
 21 C       -3.0820     7.5930     0.1200 C.3   1 <1>  -0.1600 
 22 O       -4.9210     6.3150     0.8000 O.3   1 <1>  -0.6800 
 23 C       -4.8970     6.7920    -1.5090 C.3   1 <1>  -0.1600 
 24 C       -5.5470     4.3010    -1.4090 C.3   1 <1>  -0.1600 
 25 C       -5.3730     5.5470    -2.2920 C.3   1 <1>  -0.1600 
 26 H        1.6520     1.9240    -0.4600 H     1 <1>   0.0800 
 27 H        0.4070     1.3080    -1.5490 H     1 <1>   0.0800 
 28 H       -0.3350     3.2040    -0.3250 H     1 <1>   0.1500 
 29 H       -1.1970    -0.0500     2.2770 H     1 <1>   0.1500 
 30 H       -2.9690     1.2720     3.3540 H     1 <1>   0.1500 
 31 H        3.8020     0.9560    -0.7560 H     1 <1>   0.1500 
 32 H        0.3480    -1.4070    -1.5960 H     1 <1>   0.1500 
 33 H       -3.4380     3.5370     2.6050 H     1 <1>   0.1500 
 34 H       -1.2330     5.2870     0.1000 H     1 <1>   0.0800 
 35 H        5.2370    -0.9090    -1.4280 H     1 <1>   0.1500 
 36 H        1.7940    -3.2700    -2.2700 H     1 <1>   0.1500 
 37 H       -1.7380     5.5760     2.5160 H     1 <1>   0.4500 
 38 H       -3.3320     5.6760     2.0210 H     1 <1>   0.4500 
 39 H       -2.7800     5.2020    -1.3950 H     1 <1>   0.0800 
 40 H        4.2410    -3.0250    -2.1890 H     1 <1>   0.1500 
 41 H       -1.2710     7.6140     1.2860 H     1 <1>   0.0800 
 42 H       -2.7270     7.8620     2.2180 H     1 <1>   0.0800 
 43 H       -4.5940     3.5790     0.3540 H     1 <1>   0.0800 
 44 H       -3.7680     3.1310    -1.1010 H     1 <1>   0.0800 
 45 H       -2.3830     7.7480    -0.6820 H     1 <1>   0.0800 
 46 H       -3.6240     8.5150     0.2380 H     1 <1>   0.0800 
 47 H       -5.7460     5.9020     0.4660 H     1 <1>   0.4000 
 48 H       -4.3160     7.3900    -2.1900 H     1 <1>   0.0800 
 49 H       -5.7440     7.3930    -1.2230 H     1 <1>   0.0800 
 50 H       -6.3630     4.4730    -0.7290 H     1 <1>   0.0800 
 51 H       -5.8290     3.4630    -2.0240 H     1 <1>   0.0800 
 52 H       -4.6500     5.3170    -3.0580 H     1 <1>   0.0800 
 53 H       -6.2990     5.7700    -2.7940 H     1 <1>   0.0800 
@<TRIPOS>BOND
  1   1   2  1   
  2   1   3  1   
  3   2   4  ar  
  4   2   5  ar  
  5   3   6  1   
  6   3  26  1   
  7   3  27  1   
  8   4   7  ar  
  9   4  28  1   
 10   5   8  ar  
 11   5  29  1   
 12   6   9  ar  
 13   6  10  ar  
 14   7  11  ar  
 15   7  12  1   
 16   8  11  ar  
 17   8  30  1   
 18   9  13  ar  
 19   9  31  1   
 20  10  14  ar  
 21  10  32  1   
 22  11  33  1   
 23  12  15  1   
 24  12  16  1   
 25  12  34  1   
 26  13  17  ar  
 27  13  35  1   
 28  14  17  ar  
 29  14  36  1   
 30  15  18  1   
 31  15  37  1   
 32  15  38  1   
 33  16  19  1   
 34  16  20  1   
 35  16  39  1   
 36  17  40  1   
 37  18  21  1   
 38  18  41  1   
 39  18  42  1   
 40  19  21  1   
 41  19  22  1   
 42  19  23  1   
 43  20  24  1   
 44  20  43  1   
 45  20  44  1   
 46  21  45  1   
 47  21  46  1   
 48  22  47  1   
 49  23  25  1   
 50  23  48  1   
 51  23  49  1   
 52  24  25  1   
 53  24  50  1   
 54  24  51  1   
 55  25  52  1   
 56  25  53  1   
@<TRIPOS>SUBSTRUCTURE
  1 ****   4 GROUP 4 **** **** 0

# MOE 2024.06 (io_trps.svl 2023.06)
