@<TRIPOS>MOLECULE
NONAME
23 23 1 0 0 
SMALL
USER_CHARGES


@<TRIPOS>ATOM
  1 O       -0.5370    -0.0730    -1.1310 O.2   1 <1>  -0.5700 
  2 C       -1.3580     0.7660    -0.7910 C.2   1 <1>   0.6160 
  3 N       -2.5320     0.3060    -0.2630 N.am  1 <1>  -0.5390 
  4 C       -1.1730     2.1770    -0.9190 C.2   1 <1>   0.0790 
  5 C       -3.5290     1.1460     0.1570 C.2   1 <1>  -0.0290 
  6 C        0.0660     2.6160    -1.4780 C.1   1 <1>   0.4920 
  7 C       -2.1700     3.0290    -0.5140 C.2   1 <1>  -0.1380 
  8 C       -3.3600     2.4900     0.0390 C.2   1 <1>  -0.1500 
  9 C       -4.7710     0.5050     0.7400 C.3   1 <1>  -0.1020 
 10 N        1.0180     3.0500    -1.9330 N.1   1 <1>  -0.5570 
 11 C       -2.0710     4.5480    -0.6150 C.3   1 <1>   0.2580 
 12 O       -2.0390     5.0590     0.6770 O.3   1 <1>  -0.5600 
 13 C       -1.8830     6.4400     0.7410 C.3   1 <1>   0.0400 
 14 H       -2.6030    -0.7100    -0.1920 H     1 <1>   0.3700 
 15 H       -4.1210     3.1770     0.3700 H     1 <1>   0.1500 
 16 H       -4.5120    -0.0800     1.6040 H     1 <1>   0.0800 
 17 H       -5.2350    -0.1340     0.0100 H     1 <1>   0.0800 
 18 H       -5.4810     1.2570     1.0380 H     1 <1>   0.0800 
 19 H       -2.9360     4.9450    -1.1190 H     1 <1>   0.0800 
 20 H       -1.1820     4.8660    -1.1310 H     1 <1>   0.0800 
 21 H       -1.8810     6.7280     1.7780 H     1 <1>   0.0800 
 22 H       -2.7050     6.9170     0.2350 H     1 <1>   0.0800 
 23 H       -0.9460     6.7150     0.2890 H     1 <1>   0.0800 
@<TRIPOS>BOND
  1   1   2  2   
  2   2   3  am  
  3   2   4  1   
  4   3   5  1   
  5   3  14  1   
  6   4   6  1   
  7   4   7  2   
  8   5   8  2   
  9   5   9  1   
 10   6  10  3   
 11   7   8  1   
 12   7  11  1   
 13   8  15  1   
 14   9  16  1   
 15   9  17  1   
 16   9  18  1   
 17  11  12  1   
 18  11  19  1   
 19  11  20  1   
 20  12  13  1   
 21  13  21  1   
 22  13  22  1   
 23  13  23  1   
@<TRIPOS>SUBSTRUCTURE
  1 ****   7 GROUP 4 **** **** 0

# MOE 2024.06 (io_trps.svl 2023.06)
