@<TRIPOS>MOLECULE
NONAME
44 45 1 0 0 
SMALL
USER_CHARGES


@<TRIPOS>ATOM
  1 O        0.9880    -3.1210     2.4960 O.2   1 <1>  -0.5700 
  2 C        1.4990    -2.7480     1.4750 C.2   1 <1>   0.6590 
  3 O        2.0790    -1.5530     1.4160 O.3   1 <1>  -0.4300 
  4 C        1.4750    -3.6480     0.2670 C.3   1 <1>  -0.0380 
  5 C        2.4790    -0.8870     0.2380 C.3   1 <1>   0.1200 
  6 C        0.3380    -3.2040    -0.6020 C.2   1 <1>   0.5690 
  7 C        3.0330     0.4750     0.6390 C.3   1 <1>  -0.2400 
  8 O        0.5870    -2.7840    -1.7050 O.2   1 <1>  -0.5700 
  9 N       -0.9190    -3.2630    -0.1050 N.am  1 <1>  -0.7300 
 10 C       -2.1180    -2.6960    -0.7570 C.3   1 <1>   0.2200 
 11 C       -2.6250    -1.3840    -0.0920 C.3   1 <1>   0.0000 
 12 C       -3.3250    -3.6410    -0.6180 C.3   1 <1>  -0.1600 
 13 C       -4.1030    -1.3520    -0.5490 C.3   1 <1>   0.0000 
 14 C       -2.7620    -1.6300     1.4330 C.3   1 <1>  -0.1600 
 15 C       -1.7700    -0.1530    -0.4250 C.3   1 <1>  -0.2400 
 16 C       -4.3920    -2.7420     0.0450 C.3   1 <1>  -0.0800 
 17 C       -4.3290    -1.2560    -2.0820 C.3   1 <1>  -0.2400 
 18 C       -4.9740    -0.2160     0.0520 C.3   1 <1>  -0.2400 
 19 C       -3.9620    -2.5940     1.5200 C.3   1 <1>  -0.1600 
 20 H        1.3050    -4.6600     0.5770 H     1 <1>   0.0800 
 21 H        2.4050    -3.6060    -0.2650 H     1 <1>   0.0800 
 22 H        1.6230    -0.7680    -0.4040 H     1 <1>   0.0800 
 23 H        3.2350    -1.4720    -0.2570 H     1 <1>   0.0800 
 24 H        2.2750     1.0490     1.1430 H     1 <1>   0.0800 
 25 H        3.3440     1.0130    -0.2370 H     1 <1>   0.0800 
 26 H        3.8820     0.3540     1.2890 H     1 <1>   0.0800 
 27 H       -1.0680    -3.5350     0.8700 H     1 <1>   0.3700 
 28 H       -1.9030    -2.5240    -1.7980 H     1 <1>   0.0800 
 29 H       -3.1040    -4.5120    -0.0270 H     1 <1>   0.0800 
 30 H       -3.6550    -3.9650    -1.5890 H     1 <1>   0.0800 
 31 H       -2.9780    -0.7130     1.9510 H     1 <1>   0.0800 
 32 H       -1.8780    -2.0430     1.8840 H     1 <1>   0.0800 
 33 H       -2.1980     0.7330     0.0090 H     1 <1>   0.0800 
 34 H       -0.7780    -0.2800    -0.0330 H     1 <1>   0.0800 
 35 H       -1.7020    -0.0200    -1.4900 H     1 <1>   0.0800 
 36 H       -5.4010    -3.0970    -0.0810 H     1 <1>   0.0800 
 37 H       -3.7970    -1.9850    -2.6600 H     1 <1>   0.0800 
 38 H       -4.0290    -0.2870    -2.4370 H     1 <1>   0.0800 
 39 H       -5.3750    -1.3800    -2.3020 H     1 <1>   0.0800 
 40 H       -6.0040    -0.3670    -0.2180 H     1 <1>   0.0800 
 41 H       -4.6620     0.7340    -0.3430 H     1 <1>   0.0800 
 42 H       -4.9360    -0.1460     1.1210 H     1 <1>   0.0800 
 43 H       -4.7530    -2.1670     2.1120 H     1 <1>   0.0800 
 44 H       -3.6860    -3.5370     1.9590 H     1 <1>   0.0800 
@<TRIPOS>BOND
  1   1   2  2   
  2   2   3  1   
  3   2   4  1   
  4   3   5  1   
  5   4   6  1   
  6   4  20  1   
  7   4  21  1   
  8   5   7  1   
  9   5  22  1   
 10   5  23  1   
 11   6   8  2   
 12   6   9  am  
 13   7  24  1   
 14   7  25  1   
 15   7  26  1   
 16   9  10  1   
 17   9  27  1   
 18  10  11  1   
 19  10  12  1   
 20  10  28  1   
 21  11  13  1   
 22  11  14  1   
 23  11  15  1   
 24  12  16  1   
 25  12  29  1   
 26  12  30  1   
 27  13  16  1   
 28  13  17  1   
 29  13  18  1   
 30  14  19  1   
 31  14  31  1   
 32  14  32  1   
 33  15  33  1   
 34  15  34  1   
 35  15  35  1   
 36  16  19  1   
 37  16  36  1   
 38  17  37  1   
 39  17  38  1   
 40  17  39  1   
 41  18  40  1   
 42  18  41  1   
 43  18  42  1   
 44  19  43  1   
 45  19  44  1   
@<TRIPOS>SUBSTRUCTURE
  1 ****   9 GROUP 4 **** **** 0

# MOE 2024.06 (io_trps.svl 2023.06)
