@<TRIPOS>MOLECULE
NONAME
47 50 1 0 0 
SMALL
USER_CHARGES


@<TRIPOS>ATOM
  1 F       -0.9020     2.7550     0.7190 F     1 <1>  -0.1900 
  2 C       -1.8890     2.2150     0.0570 C.ar  1 <1>   0.1900 
  3 C       -2.7980     1.4320     0.7430 C.ar  1 <1>  -0.1500 
  4 C       -1.9870     2.4470    -1.3010 C.ar  1 <1>  -0.1500 
  5 C       -3.8510     0.8530     0.0480 C.ar  1 <1>  -0.1440 
  6 C       -3.0380     1.8700    -1.9930 C.ar  1 <1>  -0.1500 
  7 C       -3.9600     1.0810    -1.3220 C.ar  1 <1>  -0.1500 
  8 C       -4.8630    -0.0180     0.8000 C.3   1 <1>   0.3640 
  9 N       -5.3230    -1.1670    -0.0210 N.am  1 <1>  -0.2980 
 10 C       -6.1760     0.7010     1.1400 C.3   1 <1>  -0.0190 
 11 N       -6.6560    -1.0270    -0.3390 N.2   1 <1>  -0.5120 
 12 C       -4.5010    -2.2110    -0.4340 C.2   1 <1>   0.5690 
 13 C       -7.1510    -0.0050     0.2340 C.2   1 <1>   0.3030 
 14 C       -6.2780     2.2230     0.9340 C.3   1 <1>  -0.1600 
 15 O       -4.9030    -3.1100    -1.1360 O.2   1 <1>  -0.5700 
 16 C       -3.0310    -2.2450    -0.0030 C.3   1 <1>  -0.0990 
 17 C       -8.4780     0.5410     0.1030 C.ar  1 <1>   0.0860 
 18 C       -7.7060     2.6880     1.2560 C.3   1 <1>  -0.0170 
 19 C       -2.3290    -3.6000    -0.2070 C.3   1 <1>  -0.2400 
 20 C       -8.7740     1.8280     0.5780 C.ar  1 <1>  -0.1430 
 21 C       -9.4940    -0.1880    -0.5130 C.ar  1 <1>  -0.1500 
 22 C      -10.0520     2.3430     0.4420 C.ar  1 <1>  -0.1500 
 23 C      -10.7740     0.3320    -0.6500 C.ar  1 <1>   0.0830 
 24 C      -11.0460     1.6000    -0.1680 C.ar  1 <1>  -0.1500 
 25 O      -11.8000    -0.3320    -1.2390 O.3   1 <1>  -0.3630 
 26 C      -11.6140    -1.6150    -1.7960 C.3   1 <1>   0.0400 
 27 H       -2.6690     1.2870     1.8010 H     1 <1>   0.1500 
 28 H       -1.2600     3.0620    -1.7990 H     1 <1>   0.1500 
 29 H       -3.1400     2.0320    -3.0530 H     1 <1>   0.1500 
 30 H       -4.7720     0.6410    -1.8800 H     1 <1>   0.1500 
 31 H       -4.4240    -0.3920     1.7070 H     1 <1>   0.0800 
 32 H       -6.4340     0.4660     2.1570 H     1 <1>   0.0800 
 33 H       -6.0610     2.4690    -0.0920 H     1 <1>   0.0800 
 34 H       -5.5720     2.7380     1.5610 H     1 <1>   0.0800 
 35 H       -2.9620    -1.9950     1.0380 H     1 <1>   0.0800 
 36 H       -2.5000    -1.4990    -0.5660 H     1 <1>   0.0800 
 37 H       -7.8180     3.7140     0.9500 H     1 <1>   0.0800 
 38 H       -7.8620     2.6460     2.3210 H     1 <1>   0.0800 
 39 H       -2.8420    -4.3710     0.3410 H     1 <1>   0.0800 
 40 H       -1.3100    -3.5500     0.1330 H     1 <1>   0.0800 
 41 H       -2.3320    -3.8650    -1.2500 H     1 <1>   0.0800 
 42 H       -9.2520    -1.1680    -0.8800 H     1 <1>   0.1500 
 43 H      -10.2850     3.3280     0.8080 H     1 <1>   0.1500 
 44 H      -12.0390     1.9980    -0.2750 H     1 <1>   0.1500 
 45 H      -12.5490    -1.9360    -2.2170 H     1 <1>   0.0800 
 46 H      -11.3110    -2.2930    -1.0180 H     1 <1>   0.0800 
 47 H      -10.8660    -1.5560    -2.5670 H     1 <1>   0.0800 
@<TRIPOS>BOND
  1   1   2  1   
  2   2   3  ar  
  3   2   4  ar  
  4   3   5  ar  
  5   3  27  1   
  6   4   6  ar  
  7   4  28  1   
  8   5   7  ar  
  9   5   8  1   
 10   6   7  ar  
 11   6  29  1   
 12   7  30  1   
 13   8   9  1   
 14   8  10  1   
 15   8  31  1   
 16   9  11  1   
 17   9  12  am  
 18  10  13  1   
 19  10  14  1   
 20  10  32  1   
 21  11  13  2   
 22  12  15  2   
 23  12  16  1   
 24  13  17  1   
 25  14  18  1   
 26  14  33  1   
 27  14  34  1   
 28  16  19  1   
 29  16  35  1   
 30  16  36  1   
 31  17  20  ar  
 32  17  21  ar  
 33  18  20  1   
 34  18  37  1   
 35  18  38  1   
 36  19  39  1   
 37  19  40  1   
 38  19  41  1   
 39  20  22  ar  
 40  21  23  ar  
 41  21  42  1   
 42  22  24  ar  
 43  22  43  1   
 44  23  24  ar  
 45  23  25  1   
 46  24  44  1   
 47  25  26  1   
 48  26  45  1   
 49  26  46  1   
 50  26  47  1   
@<TRIPOS>SUBSTRUCTURE
  1 ****  13 GROUP 4 **** **** 0

# MOE 2024.06 (io_trps.svl 2023.06)
