@<TRIPOS>MOLECULE
NONAME
52 53 1 0 0 
SMALL
USER_CHARGES


@<TRIPOS>ATOM
  1 S       -0.2070     0.3750    -0.5700 S.3   1 <1>  -0.0800 
  2 C        0.3810    -1.2650    -0.3430 C.2   1 <1>   0.1040 
  3 C        1.4060     1.0500    -0.4090 C.2   1 <1>  -0.1400 
  4 N       -0.4860    -2.3480    -0.3620 N.am  1 <1>  -0.4940 
  5 C        1.7350    -1.2640    -0.1530 C.2   1 <1>  -0.0860 
  6 C        2.2950     0.0630    -0.1960 C.2   1 <1>  -0.1500 
  7 C        1.5150     2.5590    -0.5310 C.3   1 <1>   0.0200 
  8 C       -1.8370    -2.4590    -0.5860 C.2   1 <1>   0.5690 
  9 C        2.5240    -2.4430     0.0680 C.2   1 <1>   0.8060 
 10 C        2.9580     3.0490    -0.3780 C.3   1 <1>  -0.2400 
 11 O       -2.5440    -1.5230    -0.8750 O.2   1 <1>  -0.5700 
 12 C       -2.4500    -3.8670    -0.4510 C.3   1 <1>   0.1710 
 13 O        2.0370    -3.5610     0.1270 O.2   1 <1>  -0.5700 
 14 O        3.8450    -2.3050     0.2170 O.3   1 <1>  -0.4300 
 15 N       -3.9210    -3.9230    -0.1940 N.3   1 <1>  -0.8100 
 16 C        4.6840    -3.4160     0.4380 C.3   1 <1>   0.1200 
 17 C       -4.4790    -5.2910    -0.2510 C.3   1 <1>   0.1100 
 18 C       -4.3270    -3.2360     1.0590 C.3   1 <1>   0.1100 
 19 C        6.1170    -2.9090     0.5610 C.3   1 <1>  -0.2400 
 20 C       -6.0170    -5.2950    -0.0460 C.3   1 <1>   0.3430 
 21 C       -5.8670    -3.1740     1.2070 C.3   1 <1>   0.3430 
 22 N       -6.5510    -3.8980     0.0800 N.4   1 <1>  -0.9590 
 23 C       -8.0320    -3.8310     0.1000 C.3   1 <1>   0.3430 
 24 C       -8.4860    -2.4020    -0.1680 C.3   1 <1>  -0.2400 
 25 H       -0.0010    -3.2340    -0.1890 H     1 <1>   0.3700 
 26 H        3.3530     0.2120    -0.0640 H     1 <1>   0.1500 
 27 H        0.9000     3.0150     0.2250 H     1 <1>   0.0800 
 28 H        1.1360     2.8580    -1.4930 H     1 <1>   0.0800 
 29 H        3.3440     2.7740     0.5870 H     1 <1>   0.0800 
 30 H        2.9940     4.1190    -0.4720 H     1 <1>   0.0800 
 31 H        3.5800     2.6160    -1.1410 H     1 <1>   0.0800 
 32 H       -1.9380    -4.3870     0.3390 H     1 <1>   0.0800 
 33 H       -2.2460    -4.3840    -1.3710 H     1 <1>   0.0800 
 34 H        4.5840    -4.0920    -0.3950 H     1 <1>   0.0800 
 35 H        4.3710    -3.9080     1.3440 H     1 <1>   0.0800 
 36 H       -4.0180    -5.9110     0.5000 H     1 <1>   0.0800 
 37 H       -4.2580    -5.7250    -1.2120 H     1 <1>   0.0800 
 38 H       -3.9520    -2.2270     1.0660 H     1 <1>   0.0800 
 39 H       -3.9050    -3.7430     1.9100 H     1 <1>   0.0800 
 40 H        6.4150    -2.4120    -0.3460 H     1 <1>   0.0800 
 41 H        6.7820    -3.7370     0.7300 H     1 <1>   0.0800 
 42 H        6.2010    -2.2290     1.3890 H     1 <1>   0.0800 
 43 H       -6.2540    -5.8600     0.8400 H     1 <1>   0.0800 
 44 H       -6.4780    -5.7900    -0.8840 H     1 <1>   0.0800 
 45 H       -6.1650    -2.1390     1.2120 H     1 <1>   0.0800 
 46 H       -6.1510    -3.6030     2.1530 H     1 <1>   0.0800 
 47 H       -6.1860    -3.4190    -0.7600 H     1 <1>   0.4500 
 48 H       -8.4080    -4.1690     1.0520 H     1 <1>   0.0800 
 49 H       -8.4310    -4.4730    -0.6700 H     1 <1>   0.0800 
 50 H       -8.2000    -1.7410     0.6300 H     1 <1>   0.0800 
 51 H       -9.5590    -2.3810    -0.2400 H     1 <1>   0.0800 
 52 H       -8.0850    -2.0420    -1.0990 H     1 <1>   0.0800 
@<TRIPOS>BOND
  1   1   2  1   
  2   1   3  1   
  3   2   4  1   
  4   2   5  2   
  5   3   6  2   
  6   3   7  1   
  7   4   8  am  
  8   4  25  1   
  9   5   6  1   
 10   5   9  1   
 11   6  26  1   
 12   7  10  1   
 13   7  27  1   
 14   7  28  1   
 15   8  11  2   
 16   8  12  1   
 17   9  13  2   
 18   9  14  1   
 19  10  29  1   
 20  10  30  1   
 21  10  31  1   
 22  12  15  1   
 23  12  32  1   
 24  12  33  1   
 25  14  16  1   
 26  15  17  1   
 27  15  18  1   
 28  16  19  1   
 29  16  34  1   
 30  16  35  1   
 31  17  20  1   
 32  17  36  1   
 33  17  37  1   
 34  18  21  1   
 35  18  38  1   
 36  18  39  1   
 37  19  40  1   
 38  19  41  1   
 39  19  42  1   
 40  20  22  1   
 41  20  43  1   
 42  20  44  1   
 43  21  22  1   
 44  21  45  1   
 45  21  46  1   
 46  22  23  1   
 47  22  47  1   
 48  23  24  1   
 49  23  48  1   
 50  23  49  1   
 51  24  50  1   
 52  24  51  1   
 53  24  52  1   
@<TRIPOS>SUBSTRUCTURE
  1 ****   4 GROUP 4 **** **** 0

# MOE 2024.06 (io_trps.svl 2023.06)
