@<TRIPOS>MOLECULE
NONAME
39 41 1 0 0 
SMALL
USER_CHARGES


@<TRIPOS>ATOM
  1 N        0.0730     0.2890     0.2380 N.3   1 <1>  -0.8100 
  2 C       -0.1690     1.7480     0.1730 C.3   1 <1>   0.1100 
  3 C       -1.1130    -0.4400     0.7220 C.3   1 <1>   0.1100 
  4 C        1.2760    -0.0460     1.0290 C.3   1 <1>   0.2540 
  5 C       -1.3950     2.0740    -0.7000 C.3   1 <1>   0.3430 
  6 C       -2.3510    -0.1350    -0.1480 C.3   1 <1>   0.3430 
  7 C        2.5150     0.6130     0.4390 C.ar  1 <1>  -0.1440 
  8 N       -2.6260     1.3420    -0.2330 N.4   1 <1>  -0.9590 
  9 C        3.2530     1.5170     1.1560 C.ar  1 <1>  -0.1500 
 10 C        2.9080     0.2910    -0.8680 C.ar  1 <1>  -0.1500 
 11 C       -3.7910     1.6260    -1.1210 C.3   1 <1>   0.2630 
 12 C        4.3950     2.1390     0.6110 C.ar  1 <1>   0.0000 
 13 C        4.0110     0.8760    -1.4230 C.ar  1 <1>  -0.1500 
 14 C        4.7810     1.8130    -0.7060 C.ar  1 <1>   0.0000 
 15 C        5.1660     3.0750     1.3300 C.ar  1 <1>  -0.1500 
 16 C        5.9210     2.4360    -1.2530 C.ar  1 <1>  -0.1500 
 17 C        6.2670     3.6650     0.7750 C.ar  1 <1>  -0.1500 
 18 C        6.6490     3.3420    -0.5320 C.ar  1 <1>  -0.1500 
 19 H        0.6870     2.2380    -0.2610 H     1 <1>   0.0800 
 20 H       -0.3070     2.1450     1.1640 H     1 <1>   0.0800 
 21 H       -1.3160    -0.1780     1.7470 H     1 <1>   0.0800 
 22 H       -0.9170    -1.4990     0.6830 H     1 <1>   0.0800 
 23 H        1.4240    -1.1130     1.0230 H     1 <1>   0.0800 
 24 H        1.1430     0.2680     2.0500 H     1 <1>   0.0800 
 25 H       -1.1680     1.7920    -1.7150 H     1 <1>   0.0800 
 26 H       -1.5690     3.1370    -0.6820 H     1 <1>   0.0800 
 27 H       -3.2060    -0.6460     0.2620 H     1 <1>   0.0800 
 28 H       -2.1710    -0.5270    -1.1360 H     1 <1>   0.0800 
 29 H       -2.8340     1.6720     0.7190 H     1 <1>   0.4500 
 30 H        2.9770     1.7780     2.1620 H     1 <1>   0.1500 
 31 H        2.3250    -0.4210    -1.4260 H     1 <1>   0.1500 
 32 H       -3.5880     1.2880    -2.1250 H     1 <1>   0.0800 
 33 H       -3.9930     2.6850    -1.1480 H     1 <1>   0.0800 
 34 H       -4.6710     1.1200    -0.7590 H     1 <1>   0.0800 
 35 H        4.3120     0.6270    -2.4250 H     1 <1>   0.1500 
 36 H        4.8700     3.3190     2.3340 H     1 <1>   0.1500 
 37 H        6.2100     2.1830    -2.2570 H     1 <1>   0.1500 
 38 H        6.8520     4.3790     1.3290 H     1 <1>   0.1500 
 39 H        7.5190     3.8150    -0.9550 H     1 <1>   0.1500 
@<TRIPOS>BOND
  1   1   2  1   
  2   1   3  1   
  3   1   4  1   
  4   2   5  1   
  5   2  19  1   
  6   2  20  1   
  7   3   6  1   
  8   3  21  1   
  9   3  22  1   
 10   4   7  1   
 11   4  23  1   
 12   4  24  1   
 13   5   8  1   
 14   5  25  1   
 15   5  26  1   
 16   6   8  1   
 17   6  27  1   
 18   6  28  1   
 19   7   9  ar  
 20   7  10  ar  
 21   8  11  1   
 22   8  29  1   
 23   9  12  ar  
 24   9  30  1   
 25  10  13  ar  
 26  10  31  1   
 27  11  32  1   
 28  11  33  1   
 29  11  34  1   
 30  12  14  ar  
 31  12  15  ar  
 32  13  14  ar  
 33  13  35  1   
 34  14  16  ar  
 35  15  17  ar  
 36  15  36  1   
 37  16  18  ar  
 38  16  37  1   
 39  17  18  ar  
 40  17  38  1   
 41  18  39  1   
@<TRIPOS>SUBSTRUCTURE
  1 ****   7 GROUP 4 **** **** 0

# MOE 2024.06 (io_trps.svl 2023.06)
