@<TRIPOS>MOLECULE
NONAME
32 33 1 0 0 
SMALL
USER_CHARGES


@<TRIPOS>ATOM
  1 O        0.0360    -0.5290     0.6440 O.3   1 <1>  -0.4300 
  2 C       -0.1080    -1.4690    -0.2950 C.2   1 <1>   0.5860 
  3 C        1.3650    -0.0740     0.6400 C.3   1 <1>   0.1200 
  4 N        0.9500    -1.7710    -0.9250 N.2   1 <1>  -0.6960 
  5 C       -1.4110    -2.0320    -0.4990 C.2   1 <1>  -0.1360 
  6 C        2.0550    -0.9760    -0.3910 C.3   1 <1>   0.2460 
  7 C       -2.5560    -1.7220     0.1520 C.2   1 <1>  -0.1780 
  8 C        3.0630    -1.9270     0.2850 C.3   1 <1>   0.1200 
  9 C        2.7200    -0.1640    -1.5240 C.3   1 <1>   0.1200 
 10 C       -3.8780    -2.2700    -0.0300 C.ar  1 <1>   0.0280 
 11 O        4.1260    -1.2230     0.8500 O.3   1 <1>  -0.6800 
 12 O        1.7690     0.5280    -2.2640 O.3   1 <1>  -0.6800 
 13 C       -4.9360    -1.7930     0.7430 C.ar  1 <1>  -0.1500 
 14 C       -4.1620    -3.2750    -0.9550 C.ar  1 <1>  -0.1500 
 15 C       -6.2180    -2.2920     0.6000 C.ar  1 <1>  -0.1500 
 16 C       -5.4420    -3.7780    -1.1030 C.ar  1 <1>  -0.1500 
 17 C       -6.4740    -3.2870    -0.3250 C.ar  1 <1>  -0.1500 
 18 H        1.3710     0.9600     0.3430 H     1 <1>   0.0800 
 19 H        1.7780    -0.1770     1.6270 H     1 <1>   0.0800 
 20 H       -1.4070    -2.7790    -1.2680 H     1 <1>   0.1500 
 21 H       -2.5080    -0.9640     0.9160 H     1 <1>   0.1500 
 22 H        3.4620    -2.6290    -0.4270 H     1 <1>   0.0800 
 23 H        2.5760    -2.4690     1.0770 H     1 <1>   0.0800 
 24 H        3.2400    -0.8260    -2.1950 H     1 <1>   0.0800 
 25 H        3.4190     0.5510    -1.1270 H     1 <1>   0.0800 
 26 H        4.8240    -1.0450     0.1900 H     1 <1>   0.4000 
 27 H        1.0320    -0.0900    -2.4580 H     1 <1>   0.4000 
 28 H       -4.7550    -1.0190     1.4670 H     1 <1>   0.1500 
 29 H       -3.3810    -3.6750    -1.5730 H     1 <1>   0.1500 
 30 H       -7.0180    -1.9060     1.2090 H     1 <1>   0.1500 
 31 H       -5.6370    -4.5530    -1.8240 H     1 <1>   0.1500 
 32 H       -7.4710    -3.6780    -0.4380 H     1 <1>   0.1500 
@<TRIPOS>BOND
  1   1   2  1   
  2   1   3  1   
  3   2   4  2   
  4   2   5  1   
  5   3   6  1   
  6   3  18  1   
  7   3  19  1   
  8   4   6  1   
  9   5   7  2   
 10   5  20  1   
 11   6   8  1   
 12   6   9  1   
 13   7  10  1   
 14   7  21  1   
 15   8  11  1   
 16   8  22  1   
 17   8  23  1   
 18   9  12  1   
 19   9  24  1   
 20   9  25  1   
 21  10  13  ar  
 22  10  14  ar  
 23  11  26  1   
 24  12  27  1   
 25  13  15  ar  
 26  13  28  1   
 27  14  16  ar  
 28  14  29  1   
 29  15  17  ar  
 30  15  30  1   
 31  16  17  ar  
 32  16  31  1   
 33  17  32  1   
@<TRIPOS>SUBSTRUCTURE
  1 ****   5 GROUP 4 **** **** 0

# MOE 2024.06 (io_trps.svl 2023.06)
