@<TRIPOS>MOLECULE
NONAME
42 45 1 0 0 
SMALL
USER_CHARGES


@<TRIPOS>ATOM
  1 O        0.3860     0.4220    -1.8150 O.2   1 <1>  -0.5700 
  2 C        0.8250     1.4240    -1.2600 C.2   1 <1>   0.7160 
  3 N        2.1500     1.4880    -0.8420 N.am  1 <1>  -0.2290 
  4 C        0.0090     2.5510    -1.0110 C.2   1 <1>  -0.0860 
  5 C        2.6040     2.6480    -0.1870 C.2   1 <1>   0.4960 
  6 C        3.0300     0.4270    -1.0570 C.2   1 <1>  -0.0410 
  7 C        0.5500     3.6320    -0.3670 C.2   1 <1>  -0.0260 
  8 C       -1.3250     2.8750    -1.2770 C.2   1 <1>  -0.1500 
  9 N        1.8360     3.6880     0.0510 N.2   1 <1>  -0.5760 
 10 C        3.9780     2.6720     0.2330 C.2   1 <1>  -0.1240 
 11 C        4.3210     0.4710    -0.6530 C.2   1 <1>  -0.1500 
 12 N       -0.4000     4.5970    -0.2310 N.pl3 1 <1>   0.0480 
 13 C       -1.5780     4.1310    -0.7880 C.2   1 <1>  -0.2370 
 14 C        4.8090     1.6190     0.0080 C.2   1 <1>  -0.1500 
 15 C        4.5130     3.9100     0.9480 C.3   1 <1>  -0.1020 
 16 C       -0.1820     5.9160     0.3990 C.3   1 <1>   0.0160 
 17 C       -2.8060     4.8840    -0.8290 C.2   1 <1>   0.7150 
 18 O       -2.7770     6.0940    -0.9670 O.2   1 <1>  -0.5700 
 19 N       -4.0300     4.2640    -0.7100 N.am  1 <1>  -0.6600 
 20 C       -4.2380     2.9740     0.0120 C.3   1 <1>   0.1400 
 21 C       -5.3070     4.9470    -1.0800 C.3   1 <1>   0.1400 
 22 C       -5.2680     3.1420     1.1440 C.3   1 <1>   0.1200 
 23 C       -6.2580     5.0080     0.1250 C.3   1 <1>   0.1200 
 24 O       -6.4450     3.7310     0.6680 O.3   1 <1>  -0.5600 
 25 H        2.6360    -0.4400    -1.5650 H     1 <1>   0.1500 
 26 H       -2.0110     2.2240    -1.7930 H     1 <1>   0.1500 
 27 H        4.9950    -0.3510    -0.8210 H     1 <1>   0.1500 
 28 H        5.8400     1.6230     0.3180 H     1 <1>   0.1500 
 29 H        3.9540     4.0810     1.8520 H     1 <1>   0.0800 
 30 H        4.4090     4.7720     0.3130 H     1 <1>   0.0800 
 31 H        5.5510     3.7970     1.2040 H     1 <1>   0.0800 
 32 H        0.7760     5.9360     0.8850 H     1 <1>   0.0800 
 33 H       -0.9540     6.0990     1.1230 H     1 <1>   0.0800 
 34 H       -0.2140     6.6770    -0.3590 H     1 <1>   0.0800 
 35 H       -3.3160     2.6230     0.4390 H     1 <1>   0.0800 
 36 H       -4.5910     2.2320    -0.6820 H     1 <1>   0.0800 
 37 H       -5.7800     4.4000    -1.8750 H     1 <1>   0.0800 
 38 H       -5.1190     5.9450    -1.4360 H     1 <1>   0.0800 
 39 H       -4.8670     3.7600     1.9290 H     1 <1>   0.0800 
 40 H       -5.5240     2.1830     1.5570 H     1 <1>   0.0800 
 41 H       -7.2200     5.3790    -0.1800 H     1 <1>   0.0800 
 42 H       -5.8610     5.6560     0.8870 H     1 <1>   0.0800 
@<TRIPOS>BOND
  1   1   2  2   
  2   2   3  am  
  3   2   4  1   
  4   3   5  1   
  5   3   6  1   
  6   4   7  2   
  7   4   8  1   
  8   5   9  2   
  9   5  10  1   
 10   6  11  2   
 11   6  25  1   
 12   7   9  1   
 13   7  12  1   
 14   8  13  2   
 15   8  26  1   
 16  10  14  2   
 17  10  15  1   
 18  11  14  1   
 19  11  27  1   
 20  12  13  1   
 21  12  16  1   
 22  13  17  1   
 23  14  28  1   
 24  15  29  1   
 25  15  30  1   
 26  15  31  1   
 27  16  32  1   
 28  16  33  1   
 29  16  34  1   
 30  17  18  2   
 31  17  19  am  
 32  19  20  1   
 33  19  21  1   
 34  20  22  1   
 35  20  35  1   
 36  20  36  1   
 37  21  23  1   
 38  21  37  1   
 39  21  38  1   
 40  22  24  1   
 41  22  39  1   
 42  22  40  1   
 43  23  24  1   
 44  23  41  1   
 45  23  42  1   
@<TRIPOS>SUBSTRUCTURE
  1 ****   4 GROUP 4 **** **** 0

# MOE 2024.06 (io_trps.svl 2023.06)
