@<TRIPOS>MOLECULE
NONAME
40 42 1 0 0 
SMALL
USER_CHARGES


@<TRIPOS>ATOM
  1 S        0.3360    -1.4510    -1.1940 S.3   1 <1>  -0.0800 
  2 C       -1.2950    -2.0460    -1.4390 C.2   1 <1>  -0.1100 
  3 C        0.1470    -1.5240     0.5470 C.2   1 <1>  -0.1100 
  4 C       -1.9100    -2.2600    -0.2590 C.2   1 <1>  -0.1810 
  5 C       -1.0800    -1.9680     0.8760 C.2   1 <1>  -0.1500 
  6 C       -3.3320    -2.7540    -0.0950 C.3   1 <1>   0.5240 
  7 N       -4.1450    -1.6460     0.4670 N.4   1 <1>  -0.9590 
  8 C       -5.5330    -2.0950     0.8470 C.3   1 <1>   0.3430 
  9 C       -4.1970    -0.4610    -0.4710 C.3   1 <1>   0.3430 
 10 C       -6.3800    -0.9580     1.4550 C.3   1 <1>   0.2090 
 11 C       -5.0180     0.7140     0.0980 C.3   1 <1>   0.2090 
 12 N       -6.3480     0.2670     0.6050 N.pl3 1 <1>  -0.8380 
 13 C       -7.4720     0.5440    -0.1710 C.ar  1 <1>   0.1000 
 14 C       -8.3980     1.5080     0.2300 C.ar  1 <1>  -0.1430 
 15 C       -7.6890    -0.1440    -1.3610 C.ar  1 <1>  -0.1500 
 16 C       -9.5100     1.7640    -0.5550 C.ar  1 <1>  -0.1500 
 17 C       -8.2000     2.2870     1.5230 C.3   1 <1>  -0.0970 
 18 C       -8.8000     0.1160    -2.1400 C.ar  1 <1>  -0.1500 
 19 C       -9.7140     1.0720    -1.7360 C.ar  1 <1>  -0.1500 
 20 H       -1.6100    -2.1660    -2.4620 H     1 <1>   0.1500 
 21 H        0.9920    -1.2270     1.1460 H     1 <1>   0.1500 
 22 H       -1.4190    -2.1070     1.8890 H     1 <1>   0.1500 
 23 H       -3.3410    -3.6040     0.5680 H     1 <1>   0.0800 
 24 H       -3.7280    -3.0580    -1.0510 H     1 <1>   0.0800 
 25 H       -3.6660    -1.3230     1.3160 H     1 <1>   0.4500 
 26 H       -5.4790    -2.9050     1.5560 H     1 <1>   0.0800 
 27 H       -6.0470    -2.4570    -0.0290 H     1 <1>   0.0800 
 28 H       -4.6450    -0.7590    -1.4040 H     1 <1>   0.0800 
 29 H       -3.1990    -0.1140    -0.6830 H     1 <1>   0.0800 
 30 H       -6.0140    -0.7120     2.4360 H     1 <1>   0.0800 
 31 H       -7.4000    -1.2900     1.5630 H     1 <1>   0.0800 
 32 H       -5.1600     1.4560    -0.6710 H     1 <1>   0.0800 
 33 H       -4.4760     1.1830     0.9010 H     1 <1>   0.0800 
 34 H       -6.9880    -0.8870    -1.6840 H     1 <1>   0.1500 
 35 H      -10.2290     2.5050    -0.2530 H     1 <1>   0.1500 
 36 H       -8.1930     1.6110     2.3580 H     1 <1>   0.0800 
 37 H       -8.9860     3.0050     1.6690 H     1 <1>   0.0800 
 38 H       -7.2610     2.8100     1.4920 H     1 <1>   0.0800 
 39 H       -8.9610    -0.4200    -3.0590 H     1 <1>   0.1500 
 40 H      -10.5820     1.2790    -2.3380 H     1 <1>   0.1500 
@<TRIPOS>BOND
  1   1   2  1   
  2   1   3  1   
  3   2   4  2   
  4   2  20  1   
  5   3   5  2   
  6   3  21  1   
  7   4   5  1   
  8   4   6  1   
  9   5  22  1   
 10   6   7  1   
 11   6  23  1   
 12   6  24  1   
 13   7   8  1   
 14   7   9  1   
 15   7  25  1   
 16   8  10  1   
 17   8  26  1   
 18   8  27  1   
 19   9  11  1   
 20   9  28  1   
 21   9  29  1   
 22  10  12  1   
 23  10  30  1   
 24  10  31  1   
 25  11  12  1   
 26  11  32  1   
 27  11  33  1   
 28  12  13  1   
 29  13  14  ar  
 30  13  15  ar  
 31  14  16  ar  
 32  14  17  1   
 33  15  18  ar  
 34  15  34  1   
 35  16  19  ar  
 36  16  35  1   
 37  17  36  1   
 38  17  37  1   
 39  17  38  1   
 40  18  19  ar  
 41  18  39  1   
 42  19  40  1   
@<TRIPOS>SUBSTRUCTURE
  1 ****   9 GROUP 4 **** **** 0

# MOE 2024.06 (io_trps.svl 2023.06)
