@<TRIPOS>MOLECULE
NONAME
33 33 1 0 0 
SMALL
USER_CHARGES


@<TRIPOS>ATOM
  1 O        0.0460     0.6060     1.0040 O.2   1 <1>  -0.5700 
  2 C       -0.1460    -0.4830     0.5010 C.2   1 <1>   0.6900 
  3 N       -1.3580    -1.0650     0.5410 N.am  1 <1>  -0.7300 
  4 N        0.8520    -1.1450    -0.1130 N.am  1 <1>  -0.7300 
  5 C       -2.5650    -0.4020     1.0500 C.3   1 <1>   0.2840 
  6 C        2.2760    -0.6920    -0.0990 C.3   1 <1>   0.2010 
  7 C       -3.7660    -1.0370     0.3730 C.ar  1 <1>  -0.1430 
  8 C        3.2780    -1.8350    -0.2590 C.2   1 <1>   0.6590 
  9 C       -4.1870    -0.5830    -0.8680 C.ar  1 <1>  -0.1500 
 10 C       -4.4470    -2.0800     0.9830 C.ar  1 <1>  -0.1500 
 11 O        2.9280    -2.9730    -0.4590 O.2   1 <1>  -0.5700 
 12 O        4.5590    -1.4990    -0.1700 O.3   1 <1>  -0.4300 
 13 C       -5.2790    -1.1620    -1.4910 C.ar  1 <1>  -0.1500 
 14 C       -5.5390    -2.6600     0.3610 C.ar  1 <1>  -0.1500 
 15 C        5.5830    -2.4580    -0.2990 C.3   1 <1>   0.1200 
 16 C       -5.9560    -2.2000    -0.8770 C.ar  1 <1>  -0.1500 
 17 C        6.9220    -1.7430    -0.1470 C.3   1 <1>  -0.2400 
 18 H       -1.5420    -1.8740    -0.0480 H     1 <1>   0.3700 
 19 H        0.7320    -2.1370    -0.3270 H     1 <1>   0.3700 
 20 H       -2.5260     0.6530     0.8320 H     1 <1>   0.0800 
 21 H       -2.6200    -0.5280     2.1170 H     1 <1>   0.0800 
 22 H        2.4810    -0.1870     0.8280 H     1 <1>   0.0800 
 23 H        2.4250     0.0090    -0.9000 H     1 <1>   0.0800 
 24 H       -3.6630     0.2230    -1.3530 H     1 <1>   0.1500 
 25 H       -4.1290    -2.4450     1.9440 H     1 <1>   0.1500 
 26 H       -5.6010    -0.8040    -2.4530 H     1 <1>   0.1500 
 27 H       -6.0640    -3.4680     0.8390 H     1 <1>   0.1500 
 28 H        5.4980    -2.9200    -1.2680 H     1 <1>   0.0800 
 29 H        5.4520    -3.2020     0.4690 H     1 <1>   0.0800 
 30 H       -6.8050    -2.6510    -1.3600 H     1 <1>   0.1500 
 31 H        7.0340    -0.9970    -0.9130 H     1 <1>   0.0800 
 32 H        7.7240    -2.4530    -0.2410 H     1 <1>   0.0800 
 33 H        6.9870    -1.2800     0.8210 H     1 <1>   0.0800 
@<TRIPOS>BOND
  1   1   2  2   
  2   2   3  am  
  3   2   4  am  
  4   3   5  1   
  5   3  18  1   
  6   4   6  1   
  7   4  19  1   
  8   5   7  1   
  9   5  20  1   
 10   5  21  1   
 11   6   8  1   
 12   6  22  1   
 13   6  23  1   
 14   7   9  ar  
 15   7  10  ar  
 16   8  11  2   
 17   8  12  1   
 18   9  13  ar  
 19   9  24  1   
 20  10  14  ar  
 21  10  25  1   
 22  12  15  1   
 23  13  16  ar  
 24  13  26  1   
 25  14  16  ar  
 26  14  27  1   
 27  15  17  1   
 28  15  28  1   
 29  15  29  1   
 30  16  30  1   
 31  17  31  1   
 32  17  32  1   
 33  17  33  1   
@<TRIPOS>SUBSTRUCTURE
  1 ****   2 GROUP 4 **** **** 0

# MOE 2024.06 (io_trps.svl 2023.06)
