@<TRIPOS>MOLECULE
NONAME
48 49 1 0 0 
SMALL
USER_CHARGES


@<TRIPOS>ATOM
  1 O       -1.4840    -2.4570     1.1490 O.3   1 <1>  -0.5600 
  2 C       -1.8500    -1.1370     1.4610 C.3   1 <1>   0.1200 
  3 C       -0.9300    -2.6140    -0.1280 C.3   1 <1>   0.1200 
  4 C       -2.7840    -0.5350     0.3860 C.3   1 <1>   0.3430 
  5 C       -1.9470    -2.2210    -1.2250 C.3   1 <1>   0.3430 
  6 N       -3.1630    -1.5660    -0.6400 N.4   1 <1>  -0.9590 
  7 C       -4.1310    -1.0730    -1.6550 C.3   1 <1>   0.4860 
  8 C       -5.3480    -0.5300    -0.9340 C.ar  1 <1>  -0.1430 
  9 C       -6.2000    -1.3920    -0.2640 C.ar  1 <1>  -0.1500 
 10 C       -5.6030     0.8320    -0.9230 C.ar  1 <1>  -0.1500 
 11 C       -7.2950    -0.9110     0.4360 C.ar  1 <1>  -0.1430 
 12 C       -6.6910     1.3520    -0.2370 C.ar  1 <1>  -0.1430 
 13 C       -7.5270     0.4650     0.4440 C.ar  1 <1>   0.0830 
 14 C       -8.2110    -1.9000     1.1710 C.3   1 <1>   0.0630 
 15 C       -6.8980     2.8750    -0.2800 C.3   1 <1>   0.0630 
 16 O       -8.5790     0.9480     1.1210 O.3   1 <1>  -0.5330 
 17 C       -7.4430    -2.6540     2.2630 C.3   1 <1>  -0.2400 
 18 C       -8.8610    -2.8820     0.1900 C.3   1 <1>  -0.2400 
 19 C       -6.7690     3.5220     1.1040 C.3   1 <1>  -0.2400 
 20 C       -8.2130     3.2670    -0.9680 C.3   1 <1>  -0.2400 
 21 H       -0.9570    -0.5460     1.5650 H     1 <1>   0.0800 
 22 H       -2.3510    -1.1560     2.4140 H     1 <1>   0.0800 
 23 H       -0.6420    -3.6460    -0.2390 H     1 <1>   0.0800 
 24 H       -0.0420    -2.0090    -0.1940 H     1 <1>   0.0800 
 25 H       -2.2850     0.2930    -0.0900 H     1 <1>   0.0800 
 26 H       -3.6660    -0.1460     0.8700 H     1 <1>   0.0800 
 27 H       -2.2350    -3.1080    -1.7660 H     1 <1>   0.0800 
 28 H       -1.4640    -1.5580    -1.9230 H     1 <1>   0.0800 
 29 H       -3.6370    -2.2940    -0.0880 H     1 <1>   0.4500 
 30 H       -4.4310    -1.8770    -2.3070 H     1 <1>   0.0800 
 31 H       -3.6830    -0.2950    -2.2520 H     1 <1>   0.0800 
 32 H       -6.0190    -2.4520    -0.2810 H     1 <1>   0.1500 
 33 H       -4.9480     1.4990    -1.4550 H     1 <1>   0.1500 
 34 H       -9.0110    -1.3710     1.6600 H     1 <1>   0.0800 
 35 H       -6.1130     3.3000    -0.8820 H     1 <1>   0.0800 
 36 H       -8.6480     1.9140     1.0290 H     1 <1>   0.4500 
 37 H       -6.6740    -3.2750     1.8420 H     1 <1>   0.0800 
 38 H       -8.1170    -3.2780     2.8230 H     1 <1>   0.0800 
 39 H       -6.9920    -1.9500     2.9400 H     1 <1>   0.0800 
 40 H       -8.1270    -3.5080    -0.2820 H     1 <1>   0.0800 
 41 H       -9.3900    -2.3350    -0.5710 H     1 <1>   0.0800 
 42 H       -9.5650    -3.5090     0.7070 H     1 <1>   0.0800 
 43 H       -7.5670     3.2380     1.7630 H     1 <1>   0.0800 
 44 H       -6.7780     4.5940     1.0110 H     1 <1>   0.0800 
 45 H       -5.8370     3.2320     1.5570 H     1 <1>   0.0800 
 46 H       -9.0750     2.9800    -0.3950 H     1 <1>   0.0800 
 47 H       -8.2750     2.7920    -1.9310 H     1 <1>   0.0800 
 48 H       -8.2480     4.3320    -1.1150 H     1 <1>   0.0800 
@<TRIPOS>BOND
  1   1   2  1   
  2   1   3  1   
  3   2   4  1   
  4   2  21  1   
  5   2  22  1   
  6   3   5  1   
  7   3  23  1   
  8   3  24  1   
  9   4   6  1   
 10   4  25  1   
 11   4  26  1   
 12   5   6  1   
 13   5  27  1   
 14   5  28  1   
 15   6   7  1   
 16   6  29  1   
 17   7   8  1   
 18   7  30  1   
 19   7  31  1   
 20   8   9  ar  
 21   8  10  ar  
 22   9  11  ar  
 23   9  32  1   
 24  10  12  ar  
 25  10  33  1   
 26  11  13  ar  
 27  11  14  1   
 28  12  13  ar  
 29  12  15  1   
 30  13  16  1   
 31  14  17  1   
 32  14  18  1   
 33  14  34  1   
 34  15  19  1   
 35  15  20  1   
 36  15  35  1   
 37  16  36  1   
 38  17  37  1   
 39  17  38  1   
 40  17  39  1   
 41  18  40  1   
 42  18  41  1   
 43  18  42  1   
 44  19  43  1   
 45  19  44  1   
 46  19  45  1   
 47  20  46  1   
 48  20  47  1   
 49  20  48  1   
@<TRIPOS>SUBSTRUCTURE
  1 ****   8 GROUP 4 **** **** 0

# MOE 2024.06 (io_trps.svl 2023.06)
