@<TRIPOS>MOLECULE
NONAME
37 38 1 0 0 
SMALL
USER_CHARGES


@<TRIPOS>ATOM
  1 S       -0.0060     0.2350    -1.7090 S.o2  1 <1>   1.3330 
  2 O        0.5060    -0.2560    -2.9630 O.2   1 <1>  -0.6500 
  3 O        0.1110     1.6250    -1.3430 O.2   1 <1>  -0.6500 
  4 N       -1.6750    -0.1570    -1.7710 N.am  1 <1>  -0.7570 
  5 C        0.5850    -0.8170    -0.3800 C.3   1 <1>  -0.0550 
  6 C       -2.7130     0.1700    -0.9080 C.ar  1 <1>   0.1990 
  7 C        2.0960    -0.6940    -0.1220 C.3   1 <1>  -0.1600 
  8 C       -3.9760    -0.3360    -1.1630 C.ar  1 <1>  -0.1500 
  9 C       -2.5430     0.9820     0.2140 C.ar  1 <1>  -0.1500 
 10 C        2.5410    -1.6110     1.0240 C.3   1 <1>  -0.1600 
 11 C       -5.0620    -0.0640    -0.3300 C.ar  1 <1>   0.0860 
 12 C       -3.6050     1.2610     1.0480 C.ar  1 <1>  -0.1500 
 13 C        4.0450    -1.4800     1.2760 C.3   1 <1>  -0.2400 
 14 C       -6.3860    -0.5730    -0.5570 C.2   1 <1>   0.5440 
 15 C       -4.8700     0.7460     0.7940 C.ar  1 <1>   0.1790 
 16 O       -6.6470    -1.2900    -1.5090 O.2   1 <1>  -0.5700 
 17 N       -7.3740    -0.2330     0.3380 N.am  1 <1>  -0.4200 
 18 N       -5.9060     1.0450     1.6560 N.2   1 <1>  -0.6290 
 19 C       -7.0680     0.5710     1.4130 C.2   1 <1>   0.4500 
 20 C       -8.7590    -0.7350     0.1450 C.3   1 <1>   0.0600 
 21 H       -1.8910    -0.6010    -2.6590 H     1 <1>   0.4200 
 22 H        0.3570    -1.8380    -0.6190 H     1 <1>   0.0800 
 23 H        0.0600    -0.5680     0.5210 H     1 <1>   0.0800 
 24 H        2.3300     0.3290     0.1210 H     1 <1>   0.0800 
 25 H        2.6310    -0.9520    -1.0210 H     1 <1>   0.0800 
 26 H       -4.1340    -0.9600    -2.0240 H     1 <1>   0.1500 
 27 H       -1.5830     1.4090     0.4380 H     1 <1>   0.1500 
 28 H        2.3120    -2.6350     0.7820 H     1 <1>   0.0800 
 29 H        2.0100    -1.3530     1.9250 H     1 <1>   0.0800 
 30 H       -3.4710     1.8890     1.9120 H     1 <1>   0.1500 
 31 H        4.6000    -1.7540     0.3950 H     1 <1>   0.0800 
 32 H        4.3410    -2.1280     2.0810 H     1 <1>   0.0800 
 33 H        4.2960    -0.4680     1.5420 H     1 <1>   0.0800 
 34 H       -7.8790     0.8020     2.0810 H     1 <1>   0.0600 
 35 H       -8.7560    -1.8110     0.1570 H     1 <1>   0.0800 
 36 H       -9.1320    -0.4010    -0.8080 H     1 <1>   0.0800 
 37 H       -9.4080    -0.3750     0.9240 H     1 <1>   0.0800 
@<TRIPOS>BOND
  1   1   2  2   
  2   1   3  2   
  3   1   4  am  
  4   1   5  1   
  5   4   6  1   
  6   4  21  1   
  7   5   7  1   
  8   5  22  1   
  9   5  23  1   
 10   6   8  ar  
 11   6   9  ar  
 12   7  10  1   
 13   7  24  1   
 14   7  25  1   
 15   8  11  ar  
 16   8  26  1   
 17   9  12  ar  
 18   9  27  1   
 19  10  13  1   
 20  10  28  1   
 21  10  29  1   
 22  11  14  1   
 23  11  15  ar  
 24  12  15  ar  
 25  12  30  1   
 26  13  31  1   
 27  13  32  1   
 28  13  33  1   
 29  14  16  2   
 30  14  17  am  
 31  15  18  1   
 32  17  19  1   
 33  17  20  1   
 34  18  19  2   
 35  19  34  1   
 36  20  35  1   
 37  20  36  1   
 38  20  37  1   
@<TRIPOS>SUBSTRUCTURE
  1 ****   6 GROUP 4 **** **** 0

# MOE 2024.06 (io_trps.svl 2023.06)
