@<TRIPOS>MOLECULE
NONAME
40 41 1 0 0 
SMALL
USER_CHARGES


@<TRIPOS>ATOM
  1 CL       0.2310     0.3770    -0.9140 Cl    1 <1>  -0.1770 
  2 C       -1.3610     1.0660    -0.6710 C.ar  1 <1>   0.1770 
  3 C       -1.5270     2.3330    -0.1200 C.ar  1 <1>  -0.1440 
  4 C       -2.4390     0.2960    -1.0590 C.ar  1 <1>  -0.1500 
  5 C       -2.8210     2.8380     0.0180 C.ar  1 <1>  -0.1440 
  6 C       -0.3040     3.1430     0.3160 C.3   1 <1>  -0.0960 
  7 C       -3.7190     0.7880    -0.9020 C.ar  1 <1>  -0.1500 
  8 C       -3.9170     2.0560    -0.3610 C.ar  1 <1>   0.0830 
  9 C       -3.0480     4.2430     0.5830 C.3   1 <1>  -0.0960 
 10 O       -5.1640     2.5700    -0.1800 O.3   1 <1>  -0.3630 
 11 C       -6.3310     1.8190    -0.4270 C.3   1 <1>   0.1200 
 12 C       -7.5360     2.6960    -0.0810 C.3   1 <1>   0.1100 
 13 N       -8.8170     1.9810    -0.2880 N.3   1 <1>  -0.8100 
 14 C       -9.9250     2.9420    -0.4650 C.3   1 <1>   0.1100 
 15 C       -9.1010     1.0200     0.8000 C.3   1 <1>   0.1100 
 16 C      -11.2590     2.2170    -0.7330 C.3   1 <1>   0.3430 
 17 C      -10.4250     0.2680     0.5540 C.3   1 <1>   0.3430 
 18 N      -11.5680     1.2180     0.3420 N.4   1 <1>  -0.9060 
 19 H       -2.2700    -0.6780    -1.4810 H     1 <1>   0.1500 
 20 H        0.5330     2.5110     0.5430 H     1 <1>   0.0800 
 21 H       -0.5140     3.7070     1.2060 H     1 <1>   0.0800 
 22 H       -0.0190     3.8200    -0.4690 H     1 <1>   0.0800 
 23 H       -4.5400     0.1690    -1.2100 H     1 <1>   0.1500 
 24 H       -2.3170     4.9300     0.2000 H     1 <1>   0.0800 
 25 H       -2.9790     4.2180     1.6560 H     1 <1>   0.0800 
 26 H       -4.0120     4.6340     0.3140 H     1 <1>   0.0800 
 27 H       -6.2960     0.9410     0.1920 H     1 <1>   0.0800 
 28 H       -6.3500     1.5550    -1.4700 H     1 <1>   0.0800 
 29 H       -7.4980     3.5570    -0.7280 H     1 <1>   0.0800 
 30 H       -7.4590     3.0340     0.9390 H     1 <1>   0.0800 
 31 H       -9.7090     3.5800    -1.3050 H     1 <1>   0.0800 
 32 H      -10.0170     3.5660     0.4080 H     1 <1>   0.0800 
 33 H       -9.1450     1.5340     1.7460 H     1 <1>   0.0800 
 34 H       -8.3070     0.2960     0.8580 H     1 <1>   0.0800 
 35 H      -11.1830     1.7140    -1.6840 H     1 <1>   0.0800 
 36 H      -12.0530     2.9430    -0.8040 H     1 <1>   0.0800 
 37 H      -10.6310    -0.3780     1.3920 H     1 <1>   0.0800 
 38 H      -10.3030    -0.3510    -0.3200 H     1 <1>   0.0800 
 39 H      -12.4200     0.6950     0.1020 H     1 <1>   0.4500 
 40 H      -11.7490     1.7200     1.2190 H     1 <1>   0.4500 
@<TRIPOS>BOND
  1   1   2  1   
  2   2   3  ar  
  3   2   4  ar  
  4   3   5  ar  
  5   3   6  1   
  6   4   7  ar  
  7   4  19  1   
  8   5   8  ar  
  9   5   9  1   
 10   6  20  1   
 11   6  21  1   
 12   6  22  1   
 13   7   8  ar  
 14   7  23  1   
 15   8  10  1   
 16   9  24  1   
 17   9  25  1   
 18   9  26  1   
 19  10  11  1   
 20  11  12  1   
 21  11  27  1   
 22  11  28  1   
 23  12  13  1   
 24  12  29  1   
 25  12  30  1   
 26  13  14  1   
 27  13  15  1   
 28  14  16  1   
 29  14  31  1   
 30  14  32  1   
 31  15  17  1   
 32  15  33  1   
 33  15  34  1   
 34  16  18  1   
 35  16  35  1   
 36  16  36  1   
 37  17  18  1   
 38  17  37  1   
 39  17  38  1   
 40  18  39  1   
 41  18  40  1   
@<TRIPOS>SUBSTRUCTURE
  1 ****  10 GROUP 4 **** **** 0

# MOE 2024.06 (io_trps.svl 2023.06)
