@<TRIPOS>MOLECULE
NONAME
42 43 1 0 0 
SMALL
USER_CHARGES


@<TRIPOS>ATOM
  1 O        0.9430    -2.0450    -2.5070 O.2   1 <1>  -0.5700 
  2 C        0.6900    -1.7360    -1.3730 C.2   1 <1>   0.5690 
  3 N       -0.3950    -0.9910    -1.1000 N.am  1 <1>  -0.8000 
  4 C        1.6150    -2.2000    -0.2500 C.3   1 <1>  -0.0190 
  5 C        3.0240    -1.6020    -0.4280 C.3   1 <1>  -0.1600 
  6 C        1.6890    -3.7390    -0.2100 C.3   1 <1>  -0.1600 
  7 C        4.0240    -2.1550     0.5850 C.3   1 <1>   0.3430 
  8 C        2.7160    -4.2460     0.8000 C.3   1 <1>   0.3430 
  9 N        4.0420    -3.6440     0.5010 N.4   1 <1>  -0.9590 
 10 C        5.1170    -4.2340     1.3460 C.3   1 <1>   0.4860 
 11 C        6.4580    -3.7370     0.8440 C.ar  1 <1>  -0.1430 
 12 C        6.9570    -4.1800    -0.3730 C.ar  1 <1>  -0.1500 
 13 C        7.1920    -2.8300     1.5920 C.ar  1 <1>  -0.1500 
 14 C        8.1690    -3.7130    -0.8520 C.ar  1 <1>  -0.1430 
 15 C        8.4060    -2.3610     1.1240 C.ar  1 <1>  -0.1500 
 16 C        8.9010    -2.7960    -0.1030 C.ar  1 <1>   0.0830 
 17 C        8.7000    -4.2080    -2.1910 C.3   1 <1>  -0.0970 
 18 O       10.0830    -2.3650    -0.6150 O.3   1 <1>  -0.3630 
 19 C       10.9350    -1.4960     0.0990 C.3   1 <1>   0.0400 
 20 H       -0.9940    -0.6970    -1.8750 H     1 <1>   0.3700 
 21 H       -0.6860    -0.6810    -0.1740 H     1 <1>   0.3700 
 22 H        1.2130    -1.8520     0.6850 H     1 <1>   0.0800 
 23 H        2.9740    -0.5320    -0.3250 H     1 <1>   0.0800 
 24 H        3.3870    -1.8060    -1.4220 H     1 <1>   0.0800 
 25 H        1.9410    -4.1190    -1.1850 H     1 <1>   0.0800 
 26 H        0.7200    -4.1350     0.0420 H     1 <1>   0.0800 
 27 H        3.7450    -1.8450     1.5800 H     1 <1>   0.0800 
 28 H        5.0040    -1.7570     0.3680 H     1 <1>   0.0800 
 29 H        2.7730    -5.3210     0.7400 H     1 <1>   0.0800 
 30 H        2.4070    -3.9760     1.7970 H     1 <1>   0.0800 
 31 H        4.2860    -3.8690    -0.4730 H     1 <1>   0.4500 
 32 H        5.0930    -5.3100     1.2800 H     1 <1>   0.0800 
 33 H        4.9810    -3.9510     2.3760 H     1 <1>   0.0800 
 34 H        6.4090    -4.8960    -0.9600 H     1 <1>   0.1500 
 35 H        6.8350    -2.4790     2.5460 H     1 <1>   0.1500 
 36 H        8.9540    -1.6590     1.7240 H     1 <1>   0.1500 
 37 H        8.0230    -4.9030    -2.6530 H     1 <1>   0.0800 
 38 H        9.6470    -4.6970    -2.0470 H     1 <1>   0.0800 
 39 H        8.8440    -3.3750    -2.8560 H     1 <1>   0.0800 
 40 H       11.8140    -1.3280    -0.4980 H     1 <1>   0.0800 
 41 H       11.2100    -1.9620     1.0290 H     1 <1>   0.0800 
 42 H       10.4250    -0.5650     0.2660 H     1 <1>   0.0800 
@<TRIPOS>BOND
  1   1   2  2   
  2   2   3  am  
  3   2   4  1   
  4   3  20  1   
  5   3  21  1   
  6   4   5  1   
  7   4   6  1   
  8   4  22  1   
  9   5   7  1   
 10   5  23  1   
 11   5  24  1   
 12   6   8  1   
 13   6  25  1   
 14   6  26  1   
 15   7   9  1   
 16   7  27  1   
 17   7  28  1   
 18   8   9  1   
 19   8  29  1   
 20   8  30  1   
 21   9  10  1   
 22   9  31  1   
 23  10  11  1   
 24  10  32  1   
 25  10  33  1   
 26  11  12  ar  
 27  11  13  ar  
 28  12  14  ar  
 29  12  34  1   
 30  13  15  ar  
 31  13  35  1   
 32  14  16  ar  
 33  14  17  1   
 34  15  16  ar  
 35  15  36  1   
 36  16  18  1   
 37  17  37  1   
 38  17  38  1   
 39  17  39  1   
 40  18  19  1   
 41  19  40  1   
 42  19  41  1   
 43  19  42  1   
@<TRIPOS>SUBSTRUCTURE
  1 ****   9 GROUP 4 **** **** 0

# MOE 2024.06 (io_trps.svl 2023.06)
