@<TRIPOS>MOLECULE
NONAME
33 36 1 0 0 
SMALL
USER_CHARGES


@<TRIPOS>ATOM
  1 S        0.0240     0.1520     0.1310 S.3   1 <1>  -0.0800 
  2 C        1.5570    -0.6770     0.2250 C.2   1 <1>   0.1660 
  3 C       -0.8040    -1.3380    -0.3000 C.2   1 <1>  -0.1400 
  4 N        2.6960    -0.0290     0.5450 N.2   1 <1>  -0.5760 
  5 C        1.4190    -2.0100    -0.0590 C.2   1 <1>  -0.0370 
  6 C        0.0520    -2.3740    -0.3670 C.2   1 <1>  -0.1810 
  7 C       -2.3020    -1.2500    -0.5190 C.3   1 <1>   0.0200 
  8 C        3.7610    -0.7540     0.5880 C.2   1 <1>   0.8090 
  9 C        2.6260    -2.7330     0.0150 C.cat 1 <1>   0.8370 
 10 C       -0.4110    -3.7760    -0.7420 C.3   1 <1>   0.0210 
 11 C       -3.0580    -2.2410     0.3750 C.3   1 <1>  -0.1600 
 12 N        3.7660    -2.1090     0.3300 N.pl3 1 <1>  -0.3620 
 13 N        2.9430    -4.0130    -0.1650 N.pl3 1 <1>  -0.7000 
 14 C       -1.4880    -4.3020     0.2170 C.3   1 <1>  -0.1600 
 15 C       -2.8900    -3.7160    -0.0280 C.3   1 <1>  -0.1600 
 16 N        4.8090    -2.9940     0.3470 N.2   1 <1>  -0.2600 
 17 C        4.2760    -4.1210     0.0460 C.2   1 <1>   0.4850 
 18 C        5.0090    -5.4400    -0.0700 C.3   1 <1>  -0.0720 
 19 H       -2.5290    -1.4330    -1.5550 H     1 <1>   0.0800 
 20 H       -2.6340    -0.2540    -0.2850 H     1 <1>   0.0800 
 21 H        4.7080    -0.3060     0.8370 H     1 <1>   0.0600 
 22 H        0.4100    -4.4620    -0.7300 H     1 <1>   0.0800 
 23 H       -0.7990    -3.7650    -1.7460 H     1 <1>   0.0800 
 24 H       -4.1050    -2.0000     0.3220 H     1 <1>   0.0800 
 25 H       -2.7520    -2.1050     1.3980 H     1 <1>   0.0800 
 26 H        2.3020    -4.7650    -0.4100 H     1 <1>   0.4500 
 27 H       -1.1920    -4.1250     1.2370 H     1 <1>   0.0800 
 28 H       -1.5580    -5.3680     0.0860 H     1 <1>   0.0800 
 29 H       -3.1650    -3.8430    -1.0610 H     1 <1>   0.0800 
 30 H       -3.5900    -4.2910     0.5540 H     1 <1>   0.0800 
 31 H        4.9060    -5.8340    -1.0640 H     1 <1>   0.0800 
 32 H        4.6110    -6.1470     0.6350 H     1 <1>   0.0800 
 33 H        6.0550    -5.2990     0.1380 H     1 <1>   0.0800 
@<TRIPOS>BOND
  1   1   2  1   
  2   1   3  1   
  3   2   4  1   
  4   2   5  2   
  5   3   6  2   
  6   3   7  1   
  7   4   8  2   
  8   5   6  1   
  9   5   9  1   
 10   6  10  1   
 11   7  11  1   
 12   7  19  1   
 13   7  20  1   
 14   8  12  1   
 15   8  21  1   
 16   9  12  ar  
 17   9  13  ar  
 18  10  14  1   
 19  10  22  1   
 20  10  23  1   
 21  11  15  1   
 22  11  24  1   
 23  11  25  1   
 24  12  16  1   
 25  13  17  1   
 26  13  26  1   
 27  14  15  1   
 28  14  27  1   
 29  14  28  1   
 30  15  29  1   
 31  15  30  1   
 32  16  17  2   
 33  17  18  1   
 34  18  31  1   
 35  18  32  1   
 36  18  33  1   
@<TRIPOS>SUBSTRUCTURE
  1 ****   5 GROUP 4 **** **** 0

# MOE 2024.06 (io_trps.svl 2023.06)
