@<TRIPOS>MOLECULE
NONAME
43 45 1 0 0 
SMALL
USER_CHARGES


@<TRIPOS>ATOM
  1 S       -1.9770     1.5280    -1.1260 S.3   1 <1>  -0.0800 
  2 C       -2.3100     0.9420     0.4710 C.2   1 <1>   0.4420 
  3 C       -0.3210     1.6810    -0.6480 C.2   1 <1>   0.1980 
  4 N       -1.2560     0.9010     1.2020 N.2   1 <1>  -0.3380 
  5 N       -3.6160     0.6080     0.7470 N.am  1 <1>  -0.4940 
  6 N       -0.1260     1.3240     0.5570 N.2   1 <1>  -0.3380 
  7 C        0.6590     2.2030    -1.6870 C.3   1 <1>   0.0200 
  8 C       -4.1990     0.1530     1.8910 C.2   1 <1>   0.5690 
  9 C        2.0950     2.3140    -1.1540 C.3   1 <1>  -0.2400 
 10 O       -3.6160    -0.0420     2.9270 O.2   1 <1>  -0.5700 
 11 C       -5.7020    -0.1130     1.8140 C.3   1 <1>   0.1710 
 12 N       -6.3830     0.6580     0.7290 N.3   1 <1>  -0.8100 
 13 C       -7.7020     0.0640     0.4200 C.3   1 <1>   0.1100 
 14 C       -6.5600     2.0760     1.1270 C.3   1 <1>   0.1100 
 15 C       -8.4080     0.8220    -0.7160 C.3   1 <1>   0.1400 
 16 C       -7.2490     2.9070     0.0300 C.3   1 <1>   0.1400 
 17 N       -8.5350     2.2740    -0.3900 N.am  1 <1>  -0.6600 
 18 C       -9.7650     2.9030    -0.3220 C.2   1 <1>   0.7150 
 19 O      -10.7540     2.2020    -0.1880 O.2   1 <1>  -0.5700 
 20 C       -9.9340     4.3420    -0.3900 C.2   1 <1>   0.0550 
 21 O       -9.0020     5.1550    -0.8860 O.3   1 <1>  -0.2800 
 22 C      -11.0030     5.1020    -0.0190 C.2   1 <1>  -0.1500 
 23 C       -9.4420     6.3920    -0.8360 C.2   1 <1>  -0.0100 
 24 C      -10.6810     6.4290    -0.3040 C.2   1 <1>  -0.1500 
 25 H       -4.3000     0.7530     0.0020 H     1 <1>   0.3700 
 26 H        0.3290     3.1720    -2.0150 H     1 <1>   0.0800 
 27 H        0.6470     1.5410    -2.5340 H     1 <1>   0.0800 
 28 H        2.1270     2.9840    -0.3130 H     1 <1>   0.0800 
 29 H        2.7500     2.6870    -1.9210 H     1 <1>   0.0800 
 30 H        2.4470     1.3480    -0.8360 H     1 <1>   0.0800 
 31 H       -6.1490     0.1100     2.7670 H     1 <1>   0.0800 
 32 H       -5.8230    -1.1670     1.6340 H     1 <1>   0.0800 
 33 H       -8.3320     0.0810     1.2940 H     1 <1>   0.0800 
 34 H       -7.5740    -0.9610     0.1200 H     1 <1>   0.0800 
 35 H       -5.6020     2.5190     1.3410 H     1 <1>   0.0800 
 36 H       -7.1540     2.1320     2.0240 H     1 <1>   0.0800 
 37 H       -9.3750     0.3830    -0.8890 H     1 <1>   0.0800 
 38 H       -7.8350     0.7140    -1.6200 H     1 <1>   0.0800 
 39 H       -6.6000     2.9880    -0.8240 H     1 <1>   0.0800 
 40 H       -7.4190     3.8940     0.4170 H     1 <1>   0.0800 
 41 H      -11.9270     4.7550     0.4090 H     1 <1>   0.1500 
 42 H       -8.8140     7.1880    -1.1980 H     1 <1>   0.1500 
 43 H      -11.3130     7.2820    -0.1290 H     1 <1>   0.1500 
@<TRIPOS>BOND
  1   1   2  1   
  2   1   3  1   
  3   2   4  2   
  4   2   5  1   
  5   3   6  2   
  6   3   7  1   
  7   4   6  1   
  8   5   8  am  
  9   5  25  1   
 10   7   9  1   
 11   7  26  1   
 12   7  27  1   
 13   8  10  2   
 14   8  11  1   
 15   9  28  1   
 16   9  29  1   
 17   9  30  1   
 18  11  12  1   
 19  11  31  1   
 20  11  32  1   
 21  12  13  1   
 22  12  14  1   
 23  13  15  1   
 24  13  33  1   
 25  13  34  1   
 26  14  16  1   
 27  14  35  1   
 28  14  36  1   
 29  15  17  1   
 30  15  37  1   
 31  15  38  1   
 32  16  17  1   
 33  16  39  1   
 34  16  40  1   
 35  17  18  am  
 36  18  19  2   
 37  18  20  1   
 38  20  21  1   
 39  20  22  2   
 40  21  23  1   
 41  22  24  1   
 42  22  41  1   
 43  23  24  2   
 44  23  42  1   
 45  24  43  1   
@<TRIPOS>SUBSTRUCTURE
  1 ****  14 GROUP 4 **** **** 0

# MOE 2024.06 (io_trps.svl 2023.06)
