@<TRIPOS>MOLECULE
NONAME
31 32 1 0 0 
SMALL
USER_CHARGES


@<TRIPOS>ATOM
  1 S        0.9560     0.1520     0.5590 S.3   1 <1>  -0.3320 
  2 C        1.2880    -1.3810    -0.3390 C.ar  1 <1>   0.1020 
  3 C       -0.7180    -0.0020     1.3260 C.3   1 <1>  -0.0100 
  4 C        2.4090    -1.4460    -1.1730 C.ar  1 <1>   0.0860 
  5 C        0.4350    -2.4650    -0.1920 C.ar  1 <1>  -0.1500 
  6 C        3.3390    -0.3500    -1.3490 C.2   1 <1>   0.5440 
  7 C        2.6230    -2.6370    -1.8670 C.ar  1 <1>  -0.1500 
  8 C        0.6800    -3.6360    -0.8860 C.ar  1 <1>  -0.1500 
  9 O        3.3940     0.2060    -2.4300 O.2   1 <1>  -0.5700 
 10 N        4.2100     0.0410    -0.3530 N.am  1 <1>  -0.6600 
 11 C        1.7750    -3.7200    -1.7270 C.ar  1 <1>  -0.1500 
 12 C        5.1040     1.2280    -0.4930 C.3   1 <1>   0.1400 
 13 C        4.3330    -0.6310     0.9730 C.3   1 <1>   0.1400 
 14 C        6.5380     0.8790    -0.0610 C.3   1 <1>   0.1200 
 15 C        5.8110    -0.8730     1.3220 C.3   1 <1>   0.1200 
 16 O        6.5490     0.3130     1.2210 O.3   1 <1>  -0.5600 
 17 H       -0.9550     0.9450     1.7760 H     1 <1>   0.0800 
 18 H       -0.6760    -0.7760     2.0700 H     1 <1>   0.0800 
 19 H       -1.4200    -0.2390     0.5470 H     1 <1>   0.0800 
 20 H       -0.4200    -2.4190     0.4530 H     1 <1>   0.1500 
 21 H        3.4710    -2.7020    -2.5280 H     1 <1>   0.1500 
 22 H        0.0200    -4.4790    -0.7760 H     1 <1>   0.1500 
 23 H        1.9650    -4.6280    -2.2740 H     1 <1>   0.1500 
 24 H        4.7300     2.0250     0.1250 H     1 <1>   0.0800 
 25 H        5.1170     1.5780    -1.5110 H     1 <1>   0.0800 
 26 H        3.8140    -1.5730     0.9740 H     1 <1>   0.0800 
 27 H        3.8880    -0.0050     1.7270 H     1 <1>   0.0800 
 28 H        7.1420     1.7680    -0.0330 H     1 <1>   0.0800 
 29 H        6.9780     0.1810    -0.7520 H     1 <1>   0.0800 
 30 H        6.2410    -1.6030     0.6590 H     1 <1>   0.0800 
 31 H        5.9000    -1.2280     2.3330 H     1 <1>   0.0800 
@<TRIPOS>BOND
  1   1   2  1   
  2   1   3  1   
  3   2   4  ar  
  4   2   5  ar  
  5   3  17  1   
  6   3  18  1   
  7   3  19  1   
  8   4   6  1   
  9   4   7  ar  
 10   5   8  ar  
 11   5  20  1   
 12   6   9  2   
 13   6  10  am  
 14   7  11  ar  
 15   7  21  1   
 16   8  11  ar  
 17   8  22  1   
 18  10  12  1   
 19  10  13  1   
 20  11  23  1   
 21  12  14  1   
 22  12  24  1   
 23  12  25  1   
 24  13  15  1   
 25  13  26  1   
 26  13  27  1   
 27  14  16  1   
 28  14  28  1   
 29  14  29  1   
 30  15  16  1   
 31  15  30  1   
 32  15  31  1   
@<TRIPOS>SUBSTRUCTURE
  1 ****   6 GROUP 4 **** **** 0

# MOE 2024.06 (io_trps.svl 2023.06)
