@<TRIPOS>MOLECULE
NONAME
47 49 1 0 0 
SMALL
USER_CHARGES


@<TRIPOS>ATOM
  1 CL       2.8700    -0.5160     0.4260 Cl    1 <1>  -0.1770 
  2 C        2.0610     0.7230    -0.5050 C.ar  1 <1>   0.1770 
  3 C        1.9600     2.0230    -0.0260 C.ar  1 <1>  -0.1440 
  4 C        1.5260     0.3600    -1.7280 C.ar  1 <1>  -0.1500 
  5 C        1.2970     2.9620    -0.8050 C.ar  1 <1>  -0.1500 
  6 C        2.5520     2.4260     1.3190 C.3   1 <1>   0.3390 
  7 C        0.8710     1.3070    -2.4950 C.ar  1 <1>  -0.1500 
  8 C        0.7580     2.6070    -2.0310 C.ar  1 <1>  -0.1500 
  9 N        3.8870     3.0410     1.1420 N.am  1 <1>  -0.6930 
 10 S        3.9130     4.7240     0.7410 S.o2  1 <1>   1.3330 
 11 C        4.9480     2.2050     0.8410 C.ar  1 <1>   0.1990 
 12 O        4.2460     4.8560    -0.6560 O.2   1 <1>  -0.6500 
 13 O        2.7030     5.3080     1.2690 O.2   1 <1>  -0.6500 
 14 C        5.2720     5.3080     1.7290 C.3   1 <1>  -0.1350 
 15 C        5.3480     1.9710    -0.4700 C.ar  1 <1>  -0.1500 
 16 C        5.6400     1.5640     1.8610 C.ar  1 <1>  -0.1500 
 17 C        6.4150     1.1390    -0.7480 C.ar  1 <1>  -0.1500 
 18 C        6.7090     0.7350     1.5800 C.ar  1 <1>  -0.1500 
 19 C        7.1360     0.5100     0.2700 C.ar  1 <1>   0.0860 
 20 C        8.2710    -0.3490    -0.0010 C.2   1 <1>   0.5440 
 21 O        8.3760    -1.4100     0.5880 O.2   1 <1>  -0.5700 
 22 N        9.2590     0.0030    -0.8950 N.am  1 <1>  -0.6600 
 23 C        9.5280     1.3790    -1.3690 C.3   1 <1>   0.1400 
 24 C       10.4100    -0.8840    -1.1770 C.3   1 <1>   0.1400 
 25 C       11.0200     1.3960    -1.6800 C.3   1 <1>  -0.1600 
 26 C       11.3520    -0.0490    -2.0390 C.3   1 <1>  -0.1600 
 27 H        1.6230    -0.6540    -2.0720 H     1 <1>   0.1500 
 28 H        1.1980     3.9800    -0.4660 H     1 <1>   0.1500 
 29 H        2.6440     1.5680     1.9600 H     1 <1>   0.0800 
 30 H        1.8880     3.1120     1.8150 H     1 <1>   0.0800 
 31 H        0.4510     1.0370    -3.4490 H     1 <1>   0.1500 
 32 H        0.2510     3.3480    -2.6250 H     1 <1>   0.1500 
 33 H        5.0880     5.1100     2.7660 H     1 <1>   0.0800 
 34 H        5.3940     6.3650     1.5950 H     1 <1>   0.0800 
 35 H        6.1800     4.8170     1.4370 H     1 <1>   0.0800 
 36 H        4.8080     2.4400    -1.2740 H     1 <1>   0.1500 
 37 H        5.3320     1.7180     2.8790 H     1 <1>   0.1500 
 38 H        6.6950     0.9620    -1.7710 H     1 <1>   0.1500 
 39 H        7.2320     0.2410     2.3810 H     1 <1>   0.1500 
 40 H        9.2730     2.1100    -0.6200 H     1 <1>   0.0800 
 41 H        8.9620     1.5600    -2.2670 H     1 <1>   0.0800 
 42 H       10.0860    -1.7760    -1.6850 H     1 <1>   0.0800 
 43 H       10.8840    -1.1520    -0.2480 H     1 <1>   0.0800 
 44 H       11.5590     1.6850    -0.7940 H     1 <1>   0.0800 
 45 H       11.2570     2.0820    -2.4740 H     1 <1>   0.0800 
 46 H       11.1280    -0.2300    -3.0750 H     1 <1>   0.0800 
 47 H       12.3830    -0.2940    -1.8540 H     1 <1>   0.0800 
@<TRIPOS>BOND
  1   1   2  1   
  2   2   3  ar  
  3   2   4  ar  
  4   3   5  ar  
  5   3   6  1   
  6   4   7  ar  
  7   4  27  1   
  8   5   8  ar  
  9   5  28  1   
 10   6   9  1   
 11   6  29  1   
 12   6  30  1   
 13   7   8  ar  
 14   7  31  1   
 15   8  32  1   
 16   9  10  am  
 17   9  11  1   
 18  10  12  2   
 19  10  13  2   
 20  10  14  1   
 21  11  15  ar  
 22  11  16  ar  
 23  14  33  1   
 24  14  34  1   
 25  14  35  1   
 26  15  17  ar  
 27  15  36  1   
 28  16  18  ar  
 29  16  37  1   
 30  17  19  ar  
 31  17  38  1   
 32  18  19  ar  
 33  18  39  1   
 34  19  20  1   
 35  20  21  2   
 36  20  22  am  
 37  22  23  1   
 38  22  24  1   
 39  23  25  1   
 40  23  40  1   
 41  23  41  1   
 42  24  26  1   
 43  24  42  1   
 44  24  43  1   
 45  25  26  1   
 46  25  44  1   
 47  25  45  1   
 48  26  46  1   
 49  26  47  1   
@<TRIPOS>SUBSTRUCTURE
  1 ****  15 GROUP 4 **** **** 0

# MOE 2024.06 (io_trps.svl 2023.06)
