@<TRIPOS>MOLECULE
NONAME
26 26 1 0 0 
SMALL
USER_CHARGES


@<TRIPOS>ATOM
  1 S        0.1320     0.4170    -1.0470 S.3   1 <1>  -0.3710 
  2 C       -0.5210    -0.9910    -0.2110 C.2   1 <1>   0.6510 
  3 C        1.8630    -0.0750    -0.7690 C.3   1 <1>   0.0700 
  4 N        0.3470    -1.7790     0.2490 N.2   1 <1>  -0.6960 
  5 N       -1.8700    -1.1920    -0.0820 N.am  1 <1>  -0.4900 
  6 C        1.7530    -1.3960     0.0140 C.3   1 <1>   0.0860 
  7 C       -2.9720    -0.5000    -0.5060 C.2   1 <1>   0.5690 
  8 O       -2.8750     0.5130    -1.1420 O.2   1 <1>  -0.5700 
  9 C       -4.3580    -1.0210    -0.1660 C.3   1 <1>   0.0610 
 10 C       -5.0470     0.0370     0.6910 C.3   1 <1>   1.0200 
 11 C       -5.1420    -1.1600    -1.4710 C.3   1 <1>   1.0200 
 12 C       -4.2940    -2.4020     0.5920 C.3   1 <1>  -0.2400 
 13 F       -6.2430    -0.3560     1.1100 F     1 <1>  -0.3400 
 14 F       -5.2340     1.2280     0.1460 F     1 <1>  -0.3400 
 15 F       -4.3540     0.2580     1.8020 F     1 <1>  -0.3400 
 16 F       -4.5140    -1.9770    -2.3090 F     1 <1>  -0.3400 
 17 F       -5.3780    -0.0540    -2.1580 F     1 <1>  -0.3400 
 18 F       -6.3310    -1.7180    -1.2820 F     1 <1>  -0.3400 
 19 H        2.3450     0.7000    -0.2010 H     1 <1>   0.0800 
 20 H        2.3330    -0.2030    -1.7270 H     1 <1>   0.0800 
 21 H       -2.0260    -2.0480     0.4410 H     1 <1>   0.3700 
 22 H        2.2510    -1.2940     0.9630 H     1 <1>   0.0800 
 23 H        2.2410    -2.1810    -0.5370 H     1 <1>   0.0800 
 24 H       -3.7660    -2.3130     1.5270 H     1 <1>   0.0800 
 25 H       -3.8120    -3.1550    -0.0090 H     1 <1>   0.0800 
 26 H       -5.2840    -2.7620     0.8210 H     1 <1>   0.0800 
@<TRIPOS>BOND
  1   1   2  1   
  2   1   3  1   
  3   2   4  2   
  4   2   5  1   
  5   3   6  1   
  6   3  19  1   
  7   3  20  1   
  8   4   6  1   
  9   5   7  am  
 10   5  21  1   
 11   6  22  1   
 12   6  23  1   
 13   7   8  2   
 14   7   9  1   
 15   9  10  1   
 16   9  11  1   
 17   9  12  1   
 18  10  13  1   
 19  10  14  1   
 20  10  15  1   
 21  11  16  1   
 22  11  17  1   
 23  11  18  1   
 24  12  24  1   
 25  12  25  1   
 26  12  26  1   
@<TRIPOS>SUBSTRUCTURE
  1 ****   7 GROUP 4 **** **** 0

# MOE 2024.06 (io_trps.svl 2023.06)
