@<TRIPOS>MOLECULE
NONAME
40 42 1 0 0 
SMALL
USER_CHARGES


@<TRIPOS>ATOM
  1 CL      -0.4610    -1.7150     2.5460 Cl    1 <1>  -0.1770 
  2 C       -1.5020    -1.7730     1.1340 C.ar  1 <1>   0.1770 
  3 C       -1.1070    -2.4680    -0.0170 C.ar  1 <1>   0.1000 
  4 C       -2.7130    -1.1110     1.2040 C.ar  1 <1>  -0.1500 
  5 N        0.1050    -3.1580    -0.1510 N.pl3 1 <1>  -0.8380 
  6 C       -1.9820    -2.4700    -1.0960 C.ar  1 <1>  -0.1500 
  7 C       -3.5660    -1.1300     0.1140 C.ar  1 <1>  -0.1500 
  8 C        0.2470    -4.4000     0.6670 C.3   1 <1>   0.2090 
  9 C        1.3360    -2.3130    -0.2240 C.3   1 <1>   0.2090 
 10 C       -3.1980    -1.8100    -1.0340 C.ar  1 <1>  -0.1500 
 11 C        1.4820    -5.2140     0.2280 C.3   1 <1>   0.3430 
 12 C        2.5570    -3.1520    -0.6510 C.3   1 <1>   0.3430 
 13 N        2.7430    -4.3840     0.2060 N.4   1 <1>  -0.9590 
 14 C        3.9210    -5.1860    -0.2190 C.3   1 <1>   0.4860 
 15 C        5.1780    -4.3510    -0.0370 C.ar  1 <1>  -0.1430 
 16 C        5.6780    -4.1110     1.2390 C.ar  1 <1>  -0.1500 
 17 C        5.8360    -3.8250    -1.1480 C.ar  1 <1>  -0.1500 
 18 C        6.8180    -3.3400     1.3810 C.ar  1 <1>   0.1900 
 19 C        6.9800    -3.0530    -0.9990 C.ar  1 <1>  -0.1500 
 20 F        7.2730    -3.1140     2.5860 F     1 <1>  -0.1900 
 21 C        7.4620    -2.8150     0.2740 C.ar  1 <1>   0.1900 
 22 F        8.5370    -2.0840     0.4160 F     1 <1>  -0.1900 
 23 H       -2.9860    -0.5870     2.1030 H     1 <1>   0.1500 
 24 H       -1.7040    -2.9950    -1.9910 H     1 <1>   0.1500 
 25 H       -4.5130    -0.6170     0.1590 H     1 <1>   0.1500 
 26 H       -0.6380    -5.0020     0.5470 H     1 <1>   0.0800 
 27 H        0.3330    -4.1480     1.7090 H     1 <1>   0.0800 
 28 H        1.5280    -1.8580     0.7320 H     1 <1>   0.0800 
 29 H        1.1780    -1.5220    -0.9380 H     1 <1>   0.0800 
 30 H       -3.8610    -1.8250    -1.8830 H     1 <1>   0.1500 
 31 H        1.2890    -5.6020    -0.7590 H     1 <1>   0.0800 
 32 H        1.6020    -6.0510     0.8960 H     1 <1>   0.0800 
 33 H        3.4380    -2.5310    -0.6010 H     1 <1>   0.0800 
 34 H        2.4170    -3.4440    -1.6790 H     1 <1>   0.0800 
 35 H        2.9210    -4.0520     1.1620 H     1 <1>   0.4500 
 36 H        3.8190    -5.4790    -1.2520 H     1 <1>   0.0800 
 37 H        3.9980    -6.0780     0.3810 H     1 <1>   0.0800 
 38 H        5.2130    -4.5090     2.1240 H     1 <1>   0.1500 
 39 H        5.4700    -4.0110    -2.1460 H     1 <1>   0.1500 
 40 H        7.4960    -2.6430    -1.8500 H     1 <1>   0.1500 
@<TRIPOS>BOND
  1   1   2  1   
  2   2   3  ar  
  3   2   4  ar  
  4   3   5  1   
  5   3   6  ar  
  6   4   7  ar  
  7   4  23  1   
  8   5   8  1   
  9   5   9  1   
 10   6  10  ar  
 11   6  24  1   
 12   7  10  ar  
 13   7  25  1   
 14   8  11  1   
 15   8  26  1   
 16   8  27  1   
 17   9  12  1   
 18   9  28  1   
 19   9  29  1   
 20  10  30  1   
 21  11  13  1   
 22  11  31  1   
 23  11  32  1   
 24  12  13  1   
 25  12  33  1   
 26  12  34  1   
 27  13  14  1   
 28  13  35  1   
 29  14  15  1   
 30  14  36  1   
 31  14  37  1   
 32  15  16  ar  
 33  15  17  ar  
 34  16  18  ar  
 35  16  38  1   
 36  17  19  ar  
 37  17  39  1   
 38  18  20  1   
 39  18  21  ar  
 40  19  21  ar  
 41  19  40  1   
 42  21  22  1   
@<TRIPOS>SUBSTRUCTURE
  1 ****  12 GROUP 4 **** **** 0

# MOE 2024.06 (io_trps.svl 2023.06)
