@<TRIPOS>MOLECULE
NONAME
42 42 1 0 0 
SMALL
USER_CHARGES


@<TRIPOS>ATOM
  1 S       -0.1050    -0.0890    -1.1870 S.3   1 <1>  -0.3710 
  2 C       -1.5440     0.9160    -0.8870 C.2   1 <1>   0.6510 
  3 C        1.2380     0.8840    -0.3730 C.3   1 <1>   0.0700 
  4 N       -1.4280     2.0080    -0.2410 N.2   1 <1>  -0.6210 
  5 N       -2.6900     0.4120    -1.3930 N.am  1 <1>  -0.4900 
  6 C        2.5550     0.1280    -0.5550 C.3   1 <1>  -0.1600 
  7 C       -2.5720     2.7390    -0.0410 C.2   1 <1>   0.0210 
  8 C       -3.8540     1.0950    -1.2240 C.2   1 <1>   0.6160 
  9 C        3.7170     0.8860     0.1010 C.3   1 <1>  -0.1600 
 10 O       -2.4200     3.7900     0.5900 O.3   1 <1>  -0.8500 
 11 C       -3.8100     2.3040    -0.5270 C.2   1 <1>  -0.1240 
 12 O       -4.8540     0.5510    -1.7210 O.2   1 <1>  -0.5700 
 13 C        5.0400     0.1330    -0.0780 C.3   1 <1>  -0.1600 
 14 C       -5.0680     3.1470    -0.2840 C.3   1 <1>   0.0580 
 15 C        6.2000     0.8910     0.5780 C.3   1 <1>  -0.1600 
 16 C       -6.0740     2.3880     0.6040 C.3   1 <1>  -0.1600 
 17 C       -5.6790     3.6160    -1.6130 C.3   1 <1>  -0.2400 
 18 C        7.5220     0.1400     0.3990 C.3   1 <1>  -0.2400 
 19 C       -7.2580     3.2490     1.0670 C.3   1 <1>  -0.2400 
 20 H        0.9690     0.9910     0.6640 H     1 <1>   0.0800 
 21 H        1.2570     1.8530    -0.8430 H     1 <1>   0.0800 
 22 H       -2.7110    -0.4620    -1.8960 H     1 <1>   0.3700 
 23 H        2.7480     0.0080    -1.6060 H     1 <1>   0.0800 
 24 H        2.4620    -0.8470    -0.1110 H     1 <1>   0.0800 
 25 H        3.5130     1.0100     1.1510 H     1 <1>   0.0800 
 26 H        3.7970     1.8650    -0.3410 H     1 <1>   0.0800 
 27 H        5.2420     0.0090    -1.1280 H     1 <1>   0.0800 
 28 H        4.9580    -0.8460     0.3640 H     1 <1>   0.0800 
 29 H       -4.7750     4.0330     0.2540 H     1 <1>   0.0800 
 30 H        6.0020     1.0160     1.6290 H     1 <1>   0.0800 
 31 H        6.2860     1.8700     0.1360 H     1 <1>   0.0800 
 32 H       -5.5430     2.0400     1.4740 H     1 <1>   0.0800 
 33 H       -6.4450     1.5250     0.0810 H     1 <1>   0.0800 
 34 H       -6.1060     2.7900    -2.1510 H     1 <1>   0.0800 
 35 H       -4.9090     4.0640    -2.2170 H     1 <1>   0.0800 
 36 H       -6.4400     4.3530    -1.4390 H     1 <1>   0.0800 
 37 H        7.4640    -0.8340     0.8530 H     1 <1>   0.0800 
 38 H        8.3220     0.6870     0.8650 H     1 <1>   0.0800 
 39 H        7.7500     0.0230    -0.6460 H     1 <1>   0.0800 
 40 H       -6.8990     4.1330     1.5650 H     1 <1>   0.0800 
 41 H       -7.8660     2.6900     1.7550 H     1 <1>   0.0800 
 42 H       -7.8680     3.5400     0.2320 H     1 <1>   0.0800 
@<TRIPOS>BOND
  1   1   2  1   
  2   1   3  1   
  3   2   4  2   
  4   2   5  1   
  5   3   6  1   
  6   3  20  1   
  7   3  21  1   
  8   4   7  1   
  9   5   8  am  
 10   5  22  1   
 11   6   9  1   
 12   6  23  1   
 13   6  24  1   
 14   7  10  1   
 15   7  11  2   
 16   8  11  1   
 17   8  12  2   
 18   9  13  1   
 19   9  25  1   
 20   9  26  1   
 21  11  14  1   
 22  13  15  1   
 23  13  27  1   
 24  13  28  1   
 25  14  16  1   
 26  14  17  1   
 27  14  29  1   
 28  15  18  1   
 29  15  30  1   
 30  15  31  1   
 31  16  19  1   
 32  16  32  1   
 33  16  33  1   
 34  17  34  1   
 35  17  35  1   
 36  17  36  1   
 37  18  37  1   
 38  18  38  1   
 39  18  39  1   
 40  19  40  1   
 41  19  41  1   
 42  19  42  1   
@<TRIPOS>SUBSTRUCTURE
  1 ****   4 GROUP 4 **** **** 0

# MOE 2024.06 (io_trps.svl 2023.06)
