@<TRIPOS>MOLECULE
22533
23 23 1 0 0 
SMALL
USER_CHARGES


@<TRIPOS>ATOM
  1 BR      -0.1960    -1.0020     0.7060 Br    1 <1>  -0.1110 
  2 C        1.6540    -0.6290     0.3550 C.ar  1 <1>   0.1110 
  3 C        2.4050    -1.5560    -0.3400 C.ar  1 <1>  -0.1500 
  4 C        2.1970     0.5580     0.8040 C.ar  1 <1>  -0.1500 
  5 C        3.7370    -1.2760    -0.5850 C.ar  1 <1>  -0.1500 
  6 C        3.5310     0.8200     0.5480 C.ar  1 <1>  -0.1500 
  7 C        4.3410    -0.0880    -0.1510 C.ar  1 <1>   0.0860 
  8 C        5.7450     0.1480    -0.4380 C.2   1 <1>   0.4230 
  9 O        6.4000    -0.5890    -1.1300 O.2   1 <1>  -0.5700 
 10 C        6.4760     1.3560     0.1380 C.3   1 <1>  -0.0990 
 11 C        6.2880     2.6110    -0.7290 C.3   1 <1>  -0.1600 
 12 C        7.0140     3.8180    -0.1260 C.3   1 <1>  -0.2400 
 13 H        1.9560    -2.4720    -0.6790 H     1 <1>   0.1500 
 14 H        1.5830     1.2590     1.3410 H     1 <1>   0.1500 
 15 H        4.3300    -1.9940    -1.1280 H     1 <1>   0.1500 
 16 H        3.9350     1.7510     0.9000 H     1 <1>   0.1500 
 17 H        7.5250     1.1210     0.1840 H     1 <1>   0.0800 
 18 H        6.1520     1.5360     1.1450 H     1 <1>   0.0800 
 19 H        5.2410     2.8410    -0.8290 H     1 <1>   0.0800 
 20 H        6.6770     2.4190    -1.7150 H     1 <1>   0.0800 
 21 H        6.6280     4.0430     0.8520 H     1 <1>   0.0800 
 22 H        6.8760     4.6810    -0.7550 H     1 <1>   0.0800 
 23 H        8.0690     3.6210    -0.0470 H     1 <1>   0.0800 
@<TRIPOS>BOND
  1   1   2  1   
  2   2   3  ar  
  3   2   4  ar  
  4   3   5  ar  
  5   3  13  1   
  6   4   6  ar  
  7   4  14  1   
  8   5   7  ar  
  9   5  15  1   
 10   6   7  ar  
 11   6  16  1   
 12   7   8  1   
 13   8   9  2   
 14   8  10  1   
 15  10  11  1   
 16  10  17  1   
 17  10  18  1   
 18  11  12  1   
 19  11  19  1   
 20  11  20  1   
 21  12  21  1   
 22  12  22  1   
 23  12  23  1   
@<TRIPOS>SUBSTRUCTURE
  1 ****   7 GROUP 4 **** **** 0

# MOE 2024.06 (io_trps.svl 2023.06)
