@<TRIPOS>MOLECULE
NONAME
49 51 1 0 0 
SMALL
USER_CHARGES


@<TRIPOS>ATOM
  1 F        1.8930    -1.2800     2.5210 F     1 <1>  -0.1900 
  2 C        2.9160    -1.5660     1.7660 C.ar  1 <1>   0.1900 
  3 C        2.8500    -1.2850     0.4150 C.ar  1 <1>  -0.1500 
  4 C        4.0320    -2.1420     2.3410 C.ar  1 <1>  -0.1500 
  5 C        3.9430    -1.5880    -0.3780 C.ar  1 <1>  -0.1500 
  6 C        5.1150    -2.4390     1.5320 C.ar  1 <1>  -0.1500 
  7 C        5.0990    -2.1620     0.1620 C.ar  1 <1>   0.0860 
  8 C        6.2470    -2.4760    -0.6680 C.2   1 <1>   0.5440 
  9 O        6.7440    -3.5850    -0.5930 O.2   1 <1>  -0.5700 
 10 N        6.8040    -1.5530    -1.5310 N.am  1 <1>  -0.6600 
 11 C        6.6800    -0.0810    -1.3520 C.3   1 <1>   0.1400 
 12 C        7.7860    -1.9600    -2.5740 C.3   1 <1>   0.1400 
 13 C        8.0470     0.4950    -0.9730 C.3   1 <1>  -0.1600 
 14 C        9.1680    -1.4170    -2.2060 C.3   1 <1>  -0.1600 
 15 C        9.1350     0.1110    -1.9950 C.3   1 <1>  -0.0190 
 16 C       10.4990     0.6600    -1.5910 C.2   1 <1>   0.5690 
 17 O       11.0080     1.5210    -2.2660 O.2   1 <1>  -0.5700 
 18 N       11.1030     0.1690    -0.4820 N.am  1 <1>  -0.7300 
 19 C       12.4570     0.5100    -0.0450 C.3   1 <1>   0.3640 
 20 C       13.0720    -0.7340     0.5850 C.ar  1 <1>  -0.1430 
 21 C       12.3830     1.6800     0.9320 C.3   1 <1>  -0.2400 
 22 C       12.5440    -1.2980     1.7410 C.ar  1 <1>  -0.1500 
 23 C       14.1750    -1.3300    -0.0090 C.ar  1 <1>  -0.1500 
 24 C       13.1110    -2.4340     2.2910 C.ar  1 <1>  -0.1500 
 25 C       14.7430    -2.4660     0.5400 C.ar  1 <1>  -0.1500 
 26 C       14.2120    -3.0190     1.6910 C.ar  1 <1>  -0.1500 
 27 H        1.9610    -0.8430     0.0010 H     1 <1>   0.1500 
 28 H        4.0460    -2.3540     3.3960 H     1 <1>   0.1500 
 29 H        3.9080    -1.3860    -1.4350 H     1 <1>   0.1500 
 30 H        5.9930    -2.8970     1.9560 H     1 <1>   0.1500 
 31 H        5.9710     0.1570    -0.5790 H     1 <1>   0.0800 
 32 H        6.3360     0.3580    -2.2730 H     1 <1>   0.0800 
 33 H        7.4740    -1.5620    -3.5250 H     1 <1>   0.0800 
 34 H        7.8270    -3.0330    -2.6620 H     1 <1>   0.0800 
 35 H        8.3140     0.1320     0.0040 H     1 <1>   0.0800 
 36 H        7.9760     1.5670    -0.9140 H     1 <1>   0.0800 
 37 H        9.8640    -1.6580    -2.9900 H     1 <1>   0.0800 
 38 H        9.4970    -1.9160    -1.3110 H     1 <1>   0.0800 
 39 H        8.8780     0.5660    -2.9360 H     1 <1>   0.0800 
 40 H       10.6980    -0.6240     0.0120 H     1 <1>   0.3700 
 41 H       13.0400     0.8100    -0.9020 H     1 <1>   0.0800 
 42 H       11.7470     1.4500     1.7660 H     1 <1>   0.0800 
 43 H       12.0040     2.5490     0.4260 H     1 <1>   0.0800 
 44 H       13.3680     1.9030     1.3000 H     1 <1>   0.0800 
 45 H       11.6890    -0.8570     2.2210 H     1 <1>   0.1500 
 46 H       14.5970    -0.9130    -0.9070 H     1 <1>   0.1500 
 47 H       12.6970    -2.8640     3.1860 H     1 <1>   0.1500 
 48 H       15.5980    -2.9200     0.0710 H     1 <1>   0.1500 
 49 H       14.6530    -3.9030     2.1180 H     1 <1>   0.1500 
@<TRIPOS>BOND
  1   1   2  1   
  2   2   3  ar  
  3   2   4  ar  
  4   3   5  ar  
  5   3  27  1   
  6   4   6  ar  
  7   4  28  1   
  8   5   7  ar  
  9   5  29  1   
 10   6   7  ar  
 11   6  30  1   
 12   7   8  1   
 13   8   9  2   
 14   8  10  am  
 15  10  11  1   
 16  10  12  1   
 17  11  13  1   
 18  11  31  1   
 19  11  32  1   
 20  12  14  1   
 21  12  33  1   
 22  12  34  1   
 23  13  15  1   
 24  13  35  1   
 25  13  36  1   
 26  14  15  1   
 27  14  37  1   
 28  14  38  1   
 29  15  16  1   
 30  15  39  1   
 31  16  17  2   
 32  16  18  am  
 33  18  19  1   
 34  18  40  1   
 35  19  20  1   
 36  19  21  1   
 37  19  41  1   
 38  20  22  ar  
 39  20  23  ar  
 40  21  42  1   
 41  21  43  1   
 42  21  44  1   
 43  22  24  ar  
 44  22  45  1   
 45  23  25  ar  
 46  23  46  1   
 47  24  26  ar  
 48  24  47  1   
 49  25  26  ar  
 50  25  48  1   
 51  26  49  1   
@<TRIPOS>SUBSTRUCTURE
  1 ****  13 GROUP 4 **** **** 0

# MOE 2024.06 (io_trps.svl 2023.06)
