@<TRIPOS>MOLECULE
NONAME
39 40 1 0 0 
SMALL
USER_CHARGES


@<TRIPOS>ATOM
  1 O        0.2210    -0.2500    -0.2880 O.2   1 <1>  -0.5700 
  2 C        0.1500    -1.4190    -0.5840 C.2   1 <1>   0.5690 
  3 N        1.0670    -1.9970    -1.3980 N.am  1 <1>  -0.7300 
  4 C       -0.9800    -2.2820    -0.0240 C.3   1 <1>  -0.0190 
  5 C        2.2590    -1.3100    -1.9820 C.3   1 <1>   0.2010 
  6 C       -2.3650    -1.6930    -0.3600 C.3   1 <1>  -0.1600 
  7 C       -0.8290    -2.4750     1.4970 C.3   1 <1>  -0.1600 
  8 C        3.5650    -2.0390    -1.6480 C.2   1 <1>   0.5690 
  9 C       -3.4980    -2.5540     0.2150 C.3   1 <1>  -0.1600 
 10 C       -1.9630    -3.3340     2.0730 C.3   1 <1>  -0.1600 
 11 O        3.7500    -3.1310    -2.1260 O.2   1 <1>  -0.5700 
 12 N        4.5250    -1.4940    -0.8500 N.am  1 <1>  -0.5470 
 13 C       -3.3360    -2.7420     1.7290 C.3   1 <1>  -0.1600 
 14 C        4.5580    -0.2890    -0.1400 C.ar  1 <1>   0.1170 
 15 C        3.4990     0.1180     0.6630 C.ar  1 <1>  -0.1500 
 16 C        5.6840     0.5200    -0.2210 C.ar  1 <1>  -0.1500 
 17 C        3.5550     1.3160     1.3520 C.ar  1 <1>  -0.1500 
 18 C        5.7460     1.7170     0.4710 C.ar  1 <1>  -0.1500 
 19 C        4.6800     2.1170     1.2570 C.ar  1 <1>  -0.1500 
 20 H        1.0260    -3.0020    -1.5900 H     1 <1>   0.3700 
 21 H       -0.9170    -3.2510    -0.4870 H     1 <1>   0.0800 
 22 H        2.3030    -0.2900    -1.6480 H     1 <1>   0.0800 
 23 H        2.1530    -1.2940    -3.0510 H     1 <1>   0.0800 
 24 H       -2.4750    -1.6180    -1.4280 H     1 <1>   0.0800 
 25 H       -2.4350    -0.6980     0.0460 H     1 <1>   0.0800 
 26 H       -0.8350    -1.5100     1.9770 H     1 <1>   0.0800 
 27 H        0.1180    -2.9400     1.7090 H     1 <1>   0.0800 
 28 H       -3.4980    -3.5170    -0.2670 H     1 <1>   0.0800 
 29 H       -4.4450    -2.0840     0.0110 H     1 <1>   0.0800 
 30 H       -1.8580    -3.3980     3.1430 H     1 <1>   0.0800 
 31 H       -1.8950    -4.3320     1.6750 H     1 <1>   0.0800 
 32 H        5.3640    -2.0710    -0.7960 H     1 <1>   0.3700 
 33 H       -4.1120    -3.3910     2.0970 H     1 <1>   0.0800 
 34 H       -3.4440    -1.7890     2.2180 H     1 <1>   0.0800 
 35 H        2.6240    -0.5000     0.7560 H     1 <1>   0.1500 
 36 H        6.5140     0.2160    -0.8330 H     1 <1>   0.1500 
 37 H        2.7220     1.6220     1.9620 H     1 <1>   0.1500 
 38 H        6.6220     2.3380     0.3980 H     1 <1>   0.1500 
 39 H        4.7230     3.0490     1.7940 H     1 <1>   0.1500 
@<TRIPOS>BOND
  1   1   2  2   
  2   2   3  am  
  3   2   4  1   
  4   3   5  1   
  5   3  20  1   
  6   4   6  1   
  7   4   7  1   
  8   4  21  1   
  9   5   8  1   
 10   5  22  1   
 11   5  23  1   
 12   6   9  1   
 13   6  24  1   
 14   6  25  1   
 15   7  10  1   
 16   7  26  1   
 17   7  27  1   
 18   8  11  2   
 19   8  12  am  
 20   9  13  1   
 21   9  28  1   
 22   9  29  1   
 23  10  13  1   
 24  10  30  1   
 25  10  31  1   
 26  12  14  1   
 27  12  32  1   
 28  13  33  1   
 29  13  34  1   
 30  14  15  ar  
 31  14  16  ar  
 32  15  17  ar  
 33  15  35  1   
 34  16  18  ar  
 35  16  36  1   
 36  17  19  ar  
 37  17  37  1   
 38  18  19  ar  
 39  18  38  1   
 40  19  39  1   
@<TRIPOS>SUBSTRUCTURE
  1 ****   2 GROUP 4 **** **** 0

# MOE 2024.06 (io_trps.svl 2023.06)
