@<TRIPOS>MOLECULE
NONAME
39 40 1 0 0 
SMALL
USER_CHARGES


@<TRIPOS>ATOM
  1 S       -0.1840     0.0760     1.0430 S.o2  1 <1>   1.0900 
  2 O       -0.7270     1.4110     1.1320 O.2   1 <1>  -0.6500 
  3 O       -0.7180    -1.0070     1.8350 O.2   1 <1>  -0.6500 
  4 C        1.5760     0.1610     1.2770 C.3   1 <1>  -0.0550 
  5 C       -0.1180    -0.3970    -0.6760 C.3   1 <1>  -0.0550 
  6 C        2.2120     0.2930    -0.1140 C.3   1 <1>   0.3560 
  7 C        1.3570    -0.6260    -1.0240 C.3   1 <1>  -0.1600 
  8 N        3.6730     0.0070    -0.1100 N.am  1 <1>  -0.8490 
  9 C        2.0750     1.7350    -0.6460 C.3   1 <1>  -0.2400 
 10 S        4.1720    -1.6100    -0.3200 S.o2  1 <1>   1.4470 
 11 C        4.3970     0.6590     1.0060 C.3   1 <1>   0.1160 
 12 O        3.8210    -2.0130    -1.6640 O.2   1 <1>  -0.6500 
 13 O        3.6350    -2.3310     0.8130 O.2   1 <1>  -0.6500 
 14 C        5.9840    -1.5550    -0.2140 C.ar  1 <1>  -0.0090 
 15 C        6.6640    -2.0980     0.8700 C.ar  1 <1>  -0.1500 
 16 C        6.7360    -0.9420    -1.2090 C.ar  1 <1>  -0.1500 
 17 C        8.0440    -2.0250     0.9610 C.ar  1 <1>  -0.1500 
 18 C        8.1150    -0.8660    -1.1240 C.ar  1 <1>  -0.1500 
 19 C        8.7760    -1.4050    -0.0350 C.ar  1 <1>  -0.1430 
 20 C       10.2900    -1.3260     0.0590 C.3   1 <1>  -0.0970 
 21 H        1.9050    -0.7540     1.7300 H     1 <1>   0.0800 
 22 H        1.8310     0.9840     1.9140 H     1 <1>   0.0800 
 23 H       -0.5170     0.3950    -1.2820 H     1 <1>   0.0800 
 24 H       -0.6940    -1.2850    -0.8560 H     1 <1>   0.0800 
 25 H        1.5480    -0.4550    -2.0690 H     1 <1>   0.0800 
 26 H        1.5350    -1.6620    -0.8000 H     1 <1>   0.0800 
 27 H        1.0510     2.0170    -0.8070 H     1 <1>   0.0800 
 28 H        2.5860     1.8240    -1.5890 H     1 <1>   0.0800 
 29 H        2.4850     2.4560     0.0340 H     1 <1>   0.0800 
 30 H        4.0590     1.6650     1.1710 H     1 <1>   0.0800 
 31 H        5.4490     0.7180     0.7860 H     1 <1>   0.0800 
 32 H        4.2690     0.0980     1.9180 H     1 <1>   0.0800 
 33 H        6.1100    -2.5860     1.6540 H     1 <1>   0.1500 
 34 H        6.2320    -0.5190    -2.0630 H     1 <1>   0.1500 
 35 H        8.5440    -2.4570     1.8110 H     1 <1>   0.1500 
 36 H        8.6700    -0.3860    -1.9120 H     1 <1>   0.1500 
 37 H       10.7290    -2.1830    -0.4190 H     1 <1>   0.0800 
 38 H       10.6030    -1.3040     1.0870 H     1 <1>   0.0800 
 39 H       10.6510    -0.4360    -0.4240 H     1 <1>   0.0800 
@<TRIPOS>BOND
  1   1   2  2   
  2   1   3  2   
  3   1   4  1   
  4   1   5  1   
  5   4   6  1   
  6   4  21  1   
  7   4  22  1   
  8   5   7  1   
  9   5  23  1   
 10   5  24  1   
 11   6   7  1   
 12   6   8  1   
 13   6   9  1   
 14   7  25  1   
 15   7  26  1   
 16   8  10  am  
 17   8  11  1   
 18   9  27  1   
 19   9  28  1   
 20   9  29  1   
 21  10  12  2   
 22  10  13  2   
 23  10  14  1   
 24  11  30  1   
 25  11  31  1   
 26  11  32  1   
 27  14  15  ar  
 28  14  16  ar  
 29  15  17  ar  
 30  15  33  1   
 31  16  18  ar  
 32  16  34  1   
 33  17  19  ar  
 34  17  35  1   
 35  18  19  ar  
 36  18  36  1   
 37  19  20  1   
 38  20  37  1   
 39  20  38  1   
 40  20  39  1   
@<TRIPOS>SUBSTRUCTURE
  1 ****   8 GROUP 4 **** **** 0

# MOE 2024.06 (io_trps.svl 2023.06)
