@<TRIPOS>MOLECULE
NONAME
44 45 1 0 0 
SMALL
USER_CHARGES


@<TRIPOS>ATOM
  1 O       -0.8870     0.6890    -1.0290 O.3   1 <1>  -0.3630 
  2 C       -0.6920     1.9820    -0.6630 C.ar  1 <1>   0.0830 
  3 C        0.0290     0.0090    -1.8640 C.3   1 <1>   0.0400 
  4 C       -1.4820     2.4970     0.3360 C.ar  1 <1>  -0.1440 
  5 C        0.2690     2.7980    -1.2860 C.ar  1 <1>  -0.1500 
  6 C       -1.3310     3.8340     0.7800 C.ar  1 <1>   0.0000 
  7 C       -2.5450     1.6130     0.9520 C.3   1 <1>   0.4870 
  8 C        0.4100     4.0990    -0.8990 C.ar  1 <1>  -0.1500 
  9 C       -0.3820     4.6520     0.1250 C.ar  1 <1>   0.0000 
 10 C       -2.0750     4.4110     1.8390 C.ar  1 <1>  -0.1500 
 11 N       -3.8750     2.0570     0.4440 N.4   1 <1>  -0.9590 
 12 C       -0.2480     6.0000     0.5110 C.ar  1 <1>  -0.1500 
 13 C       -1.9210     5.7220     2.1950 C.ar  1 <1>  -0.1500 
 14 C       -4.9610     1.5490     1.3430 C.3   1 <1>   0.3430 
 15 C       -4.0380     1.6700    -0.9880 C.3   1 <1>   0.3430 
 16 C       -1.0020     6.5290     1.5200 C.ar  1 <1>  -0.1500 
 17 C       -6.3310     2.1870     1.0790 C.3   1 <1>   0.1200 
 18 C       -4.6390     2.8270    -1.7960 C.3   1 <1>  -0.1600 
 19 O       -7.1760     1.8030     2.1030 O.3   1 <1>  -0.6800 
 20 C       -3.8170     4.1240    -1.7310 C.3   1 <1>  -0.2400 
 21 H       -0.2710    -1.0220    -1.9250 H     1 <1>   0.0800 
 22 H        1.0130     0.0760    -1.4350 H     1 <1>   0.0800 
 23 H        0.0070     0.4500    -2.8450 H     1 <1>   0.0800 
 24 H        0.8940     2.4150    -2.0700 H     1 <1>   0.1500 
 25 H       -2.5000     1.7060     2.0240 H     1 <1>   0.0800 
 26 H       -2.3740     0.5800     0.6970 H     1 <1>   0.0800 
 27 H        1.1400     4.7300    -1.3770 H     1 <1>   0.1500 
 28 H       -2.7760     3.8190     2.3950 H     1 <1>   0.1500 
 29 H       -3.8400     3.0860     0.4660 H     1 <1>   0.4500 
 30 H        0.4680     6.6150    -0.0050 H     1 <1>   0.1500 
 31 H       -2.4920     6.1540     3.0000 H     1 <1>   0.1500 
 32 H       -4.6980     1.7620     2.3660 H     1 <1>   0.0800 
 33 H       -5.0500     0.4800     1.2370 H     1 <1>   0.0800 
 34 H       -4.6600     0.7930    -1.0710 H     1 <1>   0.0800 
 35 H       -3.0770     1.4320    -1.4150 H     1 <1>   0.0800 
 36 H       -0.8940     7.5600     1.8110 H     1 <1>   0.1500 
 37 H       -6.7530     1.8380     0.1530 H     1 <1>   0.0800 
 38 H       -6.2670     3.2620     1.0870 H     1 <1>   0.0800 
 39 H       -5.6500     3.0210    -1.4900 H     1 <1>   0.0800 
 40 H       -4.6840     2.5120    -2.8240 H     1 <1>   0.0800 
 41 H       -8.0760     2.1780     1.9930 H     1 <1>   0.4000 
 42 H       -3.8330     4.5640    -0.7510 H     1 <1>   0.0800 
 43 H       -4.2240     4.8460    -2.4190 H     1 <1>   0.0800 
 44 H       -2.7930     3.9410    -2.0130 H     1 <1>   0.0800 
@<TRIPOS>BOND
  1   1   2  1   
  2   1   3  1   
  3   2   4  ar  
  4   2   5  ar  
  5   3  21  1   
  6   3  22  1   
  7   3  23  1   
  8   4   6  ar  
  9   4   7  1   
 10   5   8  ar  
 11   5  24  1   
 12   6   9  ar  
 13   6  10  ar  
 14   7  11  1   
 15   7  25  1   
 16   7  26  1   
 17   8   9  ar  
 18   8  27  1   
 19   9  12  ar  
 20  10  13  ar  
 21  10  28  1   
 22  11  14  1   
 23  11  15  1   
 24  11  29  1   
 25  12  16  ar  
 26  12  30  1   
 27  13  16  ar  
 28  13  31  1   
 29  14  17  1   
 30  14  32  1   
 31  14  33  1   
 32  15  18  1   
 33  15  34  1   
 34  15  35  1   
 35  16  36  1   
 36  17  19  1   
 37  17  37  1   
 38  17  38  1   
 39  18  20  1   
 40  18  39  1   
 41  18  40  1   
 42  19  41  1   
 43  20  42  1   
 44  20  43  1   
 45  20  44  1   
@<TRIPOS>SUBSTRUCTURE
  1 ****   4 GROUP 4 **** **** 0

# MOE 2024.06 (io_trps.svl 2023.06)
