@<TRIPOS>MOLECULE
NONAME
37 37 1 0 0 
SMALL
USER_CHARGES


@<TRIPOS>ATOM
  1 S       -0.1970    -0.4230    -0.6510 S.3   1 <1>  -0.3710 
  2 C       -1.6240     0.6590    -0.5440 C.2   1 <1>   0.6510 
  3 C        1.2120     0.7020    -0.2460 C.3   1 <1>   0.0700 
  4 N       -1.3870     1.8850    -0.2640 N.2   1 <1>  -0.6210 
  5 N       -2.8620     0.0980    -0.7770 N.am  1 <1>  -0.4200 
  6 C        2.5040    -0.1170    -0.2890 C.3   1 <1>  -0.1600 
  7 C       -2.4530     2.7340    -0.1760 C.2   1 <1>   0.0210 
  8 C       -3.9580     0.9400    -0.6780 C.2   1 <1>   0.6160 
  9 C       -3.0590    -1.3280    -1.1200 C.3   1 <1>   0.2780 
 10 C        3.7190     0.7590     0.0400 C.3   1 <1>  -0.1600 
 11 O       -2.2180     3.9150     0.0870 O.3   1 <1>  -0.8500 
 12 C       -3.7380     2.2710    -0.3760 C.2   1 <1>  -0.1360 
 13 O       -5.0970     0.4740    -0.8690 O.2   1 <1>  -0.5700 
 14 C       -3.2340    -2.1410     0.1510 C.2   1 <1>  -0.2880 
 15 C        5.0170    -0.0570     0.0000 C.3   1 <1>  -0.1600 
 16 C       -2.4260    -3.1240     0.5620 C.2   1 <1>  -0.3000 
 17 C        6.2310     0.8200     0.3280 C.3   1 <1>  -0.1600 
 18 C        7.5260     0.0050     0.2880 C.3   1 <1>  -0.2400 
 19 H        1.0220     1.1090     0.7320 H     1 <1>   0.0800 
 20 H        1.2080     1.4940    -0.9750 H     1 <1>   0.0800 
 21 H        2.6170    -0.5400    -1.2710 H     1 <1>   0.0800 
 22 H        2.4320    -0.9200     0.4240 H     1 <1>   0.0800 
 23 H       -2.2260    -1.6950    -1.6910 H     1 <1>   0.0800 
 24 H       -3.9330    -1.4380    -1.7380 H     1 <1>   0.0800 
 25 H        3.5940     1.1870     1.0210 H     1 <1>   0.0800 
 26 H        3.7790     1.5660    -0.6700 H     1 <1>   0.0800 
 27 H       -4.5570     2.9530    -0.2950 H     1 <1>   0.1500 
 28 H       -4.1030    -1.8290     0.7070 H     1 <1>   0.1500 
 29 H        5.1390    -0.4850    -0.9800 H     1 <1>   0.0800 
 30 H        4.9540    -0.8630     0.7120 H     1 <1>   0.0800 
 31 H       -2.5740    -3.6810     1.4710 H     1 <1>   0.1500 
 32 H       -1.5470    -3.4470     0.0310 H     1 <1>   0.1500 
 33 H        6.1120     1.2490     1.3090 H     1 <1>   0.0800 
 34 H        6.2960     1.6260    -0.3820 H     1 <1>   0.0800 
 35 H        7.4910    -0.7940     1.0080 H     1 <1>   0.0800 
 36 H        8.3650     0.6370     0.5210 H     1 <1>   0.0800 
 37 H        7.6760    -0.4150    -0.6910 H     1 <1>   0.0800 
@<TRIPOS>BOND
  1   1   2  1   
  2   1   3  1   
  3   2   4  2   
  4   2   5  1   
  5   3   6  1   
  6   3  19  1   
  7   3  20  1   
  8   4   7  1   
  9   5   8  am  
 10   5   9  1   
 11   6  10  1   
 12   6  21  1   
 13   6  22  1   
 14   7  11  1   
 15   7  12  2   
 16   8  12  1   
 17   8  13  2   
 18   9  14  1   
 19   9  23  1   
 20   9  24  1   
 21  10  15  1   
 22  10  25  1   
 23  10  26  1   
 24  12  27  1   
 25  14  16  2   
 26  14  28  1   
 27  15  17  1   
 28  15  29  1   
 29  15  30  1   
 30  16  31  1   
 31  16  32  1   
 32  17  18  1   
 33  17  33  1   
 34  17  34  1   
 35  18  35  1   
 36  18  36  1   
 37  18  37  1   
@<TRIPOS>SUBSTRUCTURE
  1 ****   1 GROUP 4 **** **** 0

# MOE 2024.06 (io_trps.svl 2023.06)
