@<TRIPOS>MOLECULE
NONAME
42 43 1 0 0 
SMALL
USER_CHARGES


@<TRIPOS>ATOM
  1 BR       2.2970     2.3490    -2.3150 Br    1 <1>  -0.1110 
  2 C        1.1770     3.1240    -0.9450 C.ar  1 <1>   0.1110 
  3 C        1.7260     3.4150     0.2940 C.ar  1 <1>   0.0820 
  4 C       -0.1470     3.3670    -1.2510 C.ar  1 <1>  -0.1500 
  5 O        3.0390     3.1390     0.4990 O.3   1 <1>  -0.3630 
  6 C        0.8920     3.9740     1.2550 C.ar  1 <1>  -0.1500 
  7 C       -0.9870     3.9280    -0.2920 C.ar  1 <1>  -0.1440 
  8 C        3.6980     3.5010     1.7060 C.3   1 <1>   0.1810 
  9 C       -0.4400     4.2220     0.9570 C.ar  1 <1>  -0.1500 
 10 C       -2.4780     4.2300    -0.5580 C.3   1 <1>   0.1440 
 11 C        5.1780     3.1450     1.6370 C.2   1 <1>   0.5690 
 12 C       -2.7380     5.7320    -0.3780 C.3   1 <1>  -0.2400 
 13 C       -3.3470     3.4380     0.4300 C.3   1 <1>  -0.2400 
 14 C       -2.9260     3.8490    -1.9800 C.3   1 <1>  -0.2400 
 15 O        5.9150     3.5390     2.5080 O.2   1 <1>  -0.5700 
 16 N        5.6310     2.3960     0.6010 N.am  1 <1>  -0.7300 
 17 C        7.0440     2.0760     0.3200 C.3   1 <1>   0.3200 
 18 C        7.3300     2.2360    -1.1640 C.2   1 <1>  -0.0400 
 19 O        8.5080     1.8480    -1.6170 O.3   1 <1>  -0.2800 
 20 C        6.5770     2.7240    -2.1760 C.2   1 <1>  -0.1500 
 21 C        8.5330     2.0760    -2.9150 C.2   1 <1>  -0.0100 
 22 C        7.3680     2.6180    -3.3270 C.2   1 <1>  -0.1500 
 23 H       -0.4870     3.1110    -2.2360 H     1 <1>   0.1500 
 24 H        1.2510     4.2220     2.2350 H     1 <1>   0.1500 
 25 H        3.2400     2.9700     2.5190 H     1 <1>   0.0800 
 26 H        3.5950     4.5610     1.8470 H     1 <1>   0.0800 
 27 H       -1.0570     4.6550     1.7230 H     1 <1>   0.1500 
 28 H       -2.1080     6.2970    -1.0420 H     1 <1>   0.0800 
 29 H       -3.7640     5.9690    -0.5950 H     1 <1>   0.0800 
 30 H       -2.5310     6.0450     0.6290 H     1 <1>   0.0800 
 31 H       -3.1470     2.3850     0.3340 H     1 <1>   0.0800 
 32 H       -4.3910     3.6060     0.2360 H     1 <1>   0.0800 
 33 H       -3.1470     3.7280     1.4440 H     1 <1>   0.0800 
 34 H       -2.7900     2.7950    -2.1500 H     1 <1>   0.0800 
 35 H       -2.3640     4.3980    -2.7140 H     1 <1>   0.0800 
 36 H       -3.9680     4.0750    -2.1210 H     1 <1>   0.0800 
 37 H        4.9610     2.1050    -0.1160 H     1 <1>   0.3700 
 38 H        7.2390     1.0590     0.6120 H     1 <1>   0.0800 
 39 H        7.6920     2.7240     0.8850 H     1 <1>   0.0800 
 40 H        5.5780     3.1230    -2.1460 H     1 <1>   0.1500 
 41 H        9.4200     1.8230    -3.4690 H     1 <1>   0.1500 
 42 H        7.0740     2.9170    -4.3170 H     1 <1>   0.1500 
@<TRIPOS>BOND
  1   1   2  1   
  2   2   3  ar  
  3   2   4  ar  
  4   3   5  1   
  5   3   6  ar  
  6   4   7  ar  
  7   4  23  1   
  8   5   8  1   
  9   6   9  ar  
 10   6  24  1   
 11   7   9  ar  
 12   7  10  1   
 13   8  11  1   
 14   8  25  1   
 15   8  26  1   
 16   9  27  1   
 17  10  12  1   
 18  10  13  1   
 19  10  14  1   
 20  11  15  2   
 21  11  16  am  
 22  12  28  1   
 23  12  29  1   
 24  12  30  1   
 25  13  31  1   
 26  13  32  1   
 27  13  33  1   
 28  14  34  1   
 29  14  35  1   
 30  14  36  1   
 31  16  17  1   
 32  16  37  1   
 33  17  18  1   
 34  17  38  1   
 35  17  39  1   
 36  18  19  1   
 37  18  20  2   
 38  19  21  1   
 39  20  22  1   
 40  20  40  1   
 41  21  22  2   
 42  21  41  1   
 43  22  42  1   
@<TRIPOS>SUBSTRUCTURE
  1 ****   5 GROUP 4 **** **** 0

# MOE 2024.06 (io_trps.svl 2023.06)
