@<TRIPOS>MOLECULE
NONAME
40 40 1 0 0 
SMALL
USER_CHARGES


@<TRIPOS>ATOM
  1 CL      -0.0490    -0.0530     0.1920 Cl    1 <1>  -0.1770 
  2 C        1.5470    -0.7800     0.2070 C.ar  1 <1>   0.1770 
  3 C        1.6620    -2.1570     0.3490 C.ar  1 <1>  -0.1440 
  4 C        2.6650     0.0350     0.0760 C.ar  1 <1>  -0.1440 
  5 C        2.9280    -2.7190     0.3590 C.ar  1 <1>  -0.1500 
  6 C        0.4310    -3.0400     0.4910 C.3   1 <1>  -0.0960 
  7 C        3.9230    -0.5470     0.0890 C.ar  1 <1>  -0.1500 
  8 C        2.5190     1.5430    -0.0780 C.3   1 <1>  -0.0960 
  9 C        4.0580    -1.9270     0.2300 C.ar  1 <1>   0.0830 
 10 O        5.2520    -2.5710     0.2510 O.3   1 <1>  -0.3630 
 11 C        6.4660    -1.8750     0.1310 C.3   1 <1>   0.1200 
 12 C        7.5870    -2.9130     0.1970 C.3   1 <1>   0.3430 
 13 N        8.9410    -2.2810     0.0780 N.4   1 <1>  -0.9060 
 14 C       10.0880    -3.1920     0.1290 C.3   1 <1>   0.5030 
 15 C       11.3310    -2.3200    -0.0100 C.3   1 <1>  -0.2400 
 16 C       10.0160    -4.1830    -1.0320 C.3   1 <1>  -0.2400 
 17 C       10.1130    -3.9200     1.4730 C.3   1 <1>  -0.2400 
 18 H        3.0480    -3.7820     0.4670 H     1 <1>   0.1500 
 19 H       -0.1290    -2.7520     1.3630 H     1 <1>   0.0800 
 20 H        0.7060    -4.0750     0.5900 H     1 <1>   0.0800 
 21 H       -0.1980    -2.9370    -0.3750 H     1 <1>   0.0800 
 22 H        4.7810     0.0880    -0.0130 H     1 <1>   0.1500 
 23 H        1.9430     1.7660    -0.9590 H     1 <1>   0.0800 
 24 H        3.4760     2.0230    -0.1670 H     1 <1>   0.0800 
 25 H        2.0110     1.9510     0.7780 H     1 <1>   0.0800 
 26 H        6.5330    -1.1780     0.9480 H     1 <1>   0.0800 
 27 H        6.4640    -1.3650    -0.8170 H     1 <1>   0.0800 
 28 H        7.4440    -3.6210    -0.6030 H     1 <1>   0.0800 
 29 H        7.5110    -3.4380     1.1350 H     1 <1>   0.0800 
 30 H        9.0710    -1.5980     0.8310 H     1 <1>   0.4500 
 31 H        9.0070    -1.7710    -0.8080 H     1 <1>   0.4500 
 32 H       11.3360    -1.7940    -0.9490 H     1 <1>   0.0800 
 33 H       12.2150    -2.9360     0.0200 H     1 <1>   0.0800 
 34 H       11.4040    -1.6110     0.7950 H     1 <1>   0.0800 
 35 H        9.9470    -3.6730    -1.9760 H     1 <1>   0.0800 
 36 H        9.1860    -4.8580    -0.9290 H     1 <1>   0.0800 
 37 H       10.9100    -4.7840    -1.0500 H     1 <1>   0.0800 
 38 H       10.1120    -3.2240     2.2930 H     1 <1>   0.0800 
 39 H       11.0100    -4.5100     1.5480 H     1 <1>   0.0800 
 40 H        9.2820    -4.5940     1.5770 H     1 <1>   0.0800 
@<TRIPOS>BOND
  1   1   2  1   
  2   2   3  ar  
  3   2   4  ar  
  4   3   5  ar  
  5   3   6  1   
  6   4   7  ar  
  7   4   8  1   
  8   5   9  ar  
  9   5  18  1   
 10   6  19  1   
 11   6  20  1   
 12   6  21  1   
 13   7   9  ar  
 14   7  22  1   
 15   8  23  1   
 16   8  24  1   
 17   8  25  1   
 18   9  10  1   
 19  10  11  1   
 20  11  12  1   
 21  11  26  1   
 22  11  27  1   
 23  12  13  1   
 24  12  28  1   
 25  12  29  1   
 26  13  14  1   
 27  13  30  1   
 28  13  31  1   
 29  14  15  1   
 30  14  16  1   
 31  14  17  1   
 32  15  32  1   
 33  15  33  1   
 34  15  34  1   
 35  16  35  1   
 36  16  36  1   
 37  16  37  1   
 38  17  38  1   
 39  17  39  1   
 40  17  40  1   
@<TRIPOS>SUBSTRUCTURE
  1 ****  10 GROUP 4 **** **** 0

# MOE 2024.06 (io_trps.svl 2023.06)
