@<TRIPOS>MOLECULE
NONAME
38 38 1 0 0 
SMALL
USER_CHARGES


@<TRIPOS>ATOM
  1 O       -0.0960     0.1410     0.5260 O.3   1 <1>  -0.3630 
  2 C       -1.3320    -0.3440     0.8040 C.ar  1 <1>   0.0830 
  3 C        0.2280     1.4890     0.7520 C.3   1 <1>   0.1200 
  4 C       -1.5660    -1.6710     0.4810 C.ar  1 <1>  -0.1500 
  5 C       -2.3500     0.4110     1.3820 C.ar  1 <1>  -0.1500 
  6 C        1.6770     1.6850     0.3000 C.3   1 <1>   0.3430 
  7 C       -2.7980    -2.2550     0.7250 C.ar  1 <1>  -0.1440 
  8 C       -3.5830    -0.1690     1.6250 C.ar  1 <1>  -0.1500 
  9 N        2.1290     3.1030     0.4260 N.4   1 <1>  -0.9060 
 10 C       -3.8060    -1.4950     1.2970 C.ar  1 <1>  -0.1500 
 11 C       -3.0440    -3.7120     0.3670 C.3   1 <1>  -0.0170 
 12 C        1.5090     4.0570    -0.5370 C.3   1 <1>   0.3430 
 13 C       -3.6010    -3.8310    -1.0520 C.3   1 <1>  -0.2400 
 14 C        2.4580     5.2480    -0.7330 C.3   1 <1>   0.1200 
 15 O        3.7740     4.7750    -0.6640 O.3   1 <1>  -0.5600 
 16 C        4.7410     5.7500    -0.9170 C.3   1 <1>   0.0400 
 17 H        0.1220     1.6860     1.8050 H     1 <1>   0.0800 
 18 H       -0.4490     2.0910     0.1730 H     1 <1>   0.0800 
 19 H       -0.7750    -2.2470     0.0360 H     1 <1>   0.1500 
 20 H       -2.2130     1.4390     1.6510 H     1 <1>   0.1500 
 21 H        1.7670     1.3690    -0.7270 H     1 <1>   0.0800 
 22 H        2.3100     1.0540     0.9030 H     1 <1>   0.0800 
 23 H       -4.3740     0.4080     2.0700 H     1 <1>   0.1500 
 24 H        3.1410     3.1740     0.1960 H     1 <1>   0.4500 
 25 H        2.0570     3.4490     1.3890 H     1 <1>   0.4500 
 26 H       -4.7690    -1.9350     1.4890 H     1 <1>   0.1500 
 27 H       -3.7390    -4.1440     1.0660 H     1 <1>   0.0800 
 28 H       -2.1230    -4.2640     0.4410 H     1 <1>   0.0800 
 29 H        0.5440     4.3920    -0.1930 H     1 <1>   0.0800 
 30 H        1.3780     3.5720    -1.4910 H     1 <1>   0.0800 
 31 H       -4.5310    -3.2960    -1.1320 H     1 <1>   0.0800 
 32 H       -3.7720    -4.8630    -1.2990 H     1 <1>   0.0800 
 33 H       -2.9050    -3.4160    -1.7600 H     1 <1>   0.0800 
 34 H        2.3140     5.9800     0.0440 H     1 <1>   0.0800 
 35 H        2.2920     5.7090    -1.6930 H     1 <1>   0.0800 
 36 H        5.7120     5.2940    -0.8340 H     1 <1>   0.0800 
 37 H        4.6520     6.5430    -0.1940 H     1 <1>   0.0800 
 38 H        4.6110     6.1340    -1.9150 H     1 <1>   0.0800 
@<TRIPOS>BOND
  1   1   2  1   
  2   1   3  1   
  3   2   4  ar  
  4   2   5  ar  
  5   3   6  1   
  6   3  17  1   
  7   3  18  1   
  8   4   7  ar  
  9   4  19  1   
 10   5   8  ar  
 11   5  20  1   
 12   6   9  1   
 13   6  21  1   
 14   6  22  1   
 15   7  10  ar  
 16   7  11  1   
 17   8  10  ar  
 18   8  23  1   
 19   9  12  1   
 20   9  24  1   
 21   9  25  1   
 22  10  26  1   
 23  11  13  1   
 24  11  27  1   
 25  11  28  1   
 26  12  14  1   
 27  12  29  1   
 28  12  30  1   
 29  13  31  1   
 30  13  32  1   
 31  13  33  1   
 32  14  15  1   
 33  14  34  1   
 34  14  35  1   
 35  15  16  1   
 36  16  36  1   
 37  16  37  1   
 38  16  38  1   
@<TRIPOS>SUBSTRUCTURE
  1 ****   1 GROUP 4 **** **** 0

# MOE 2024.06 (io_trps.svl 2023.06)
