@<TRIPOS>MOLECULE
NONAME
52 55 1 0 0 
SMALL
USER_CHARGES


@<TRIPOS>ATOM
  1 O       -0.5470    -0.3100     0.4270 O.3   1 <1>  -0.3630 
  2 C       -1.6730    -1.0220     0.1020 C.ar  1 <1>   0.0830 
  3 C       -0.6170     1.0580     0.7570 C.3   1 <1>   0.1200 
  4 C       -1.5300    -2.3850    -0.2170 C.ar  1 <1>   0.1000 
  5 C       -2.9380    -0.4400     0.0790 C.ar  1 <1>  -0.1500 
  6 C        0.7970     1.5420     1.0620 C.3   1 <1>  -0.2400 
  7 N       -0.3020    -3.0630    -0.2230 N.pl3 1 <1>  -0.8380 
  8 C       -2.6620    -3.1160    -0.5480 C.ar  1 <1>  -0.1500 
  9 C       -4.0520    -1.1910    -0.2550 C.ar  1 <1>  -0.1500 
 10 C        0.3190    -3.2080     1.1280 C.3   1 <1>   0.2090 
 11 C        0.6410    -2.6070    -1.2880 C.3   1 <1>   0.2090 
 12 C       -3.9140    -2.5300    -0.5680 C.ar  1 <1>  -0.1500 
 13 C        1.6060    -4.0550     1.0670 C.3   1 <1>   0.3430 
 14 C        1.9230    -3.4620    -1.3100 C.3   1 <1>   0.3430 
 15 N        2.5870    -3.5370     0.0450 N.4   1 <1>  -0.9590 
 16 C        3.8330    -4.3550     0.0360 C.3   1 <1>   0.3430 
 17 C        4.9680    -3.6370    -0.7150 C.3   1 <1>  -0.0800 
 18 C        6.3630    -4.5100    -0.6050 C.3   1 <1>   0.0580 
 19 C        5.3120    -2.0880    -0.1190 C.3   1 <1>  -0.1600 
 20 C        7.8690    -4.3760    -0.0200 C.2   1 <1>  -0.2880 
 21 C        6.6030    -3.2730    -0.1800 C.3   1 <1>  -0.1600 
 22 C        6.9050    -2.0700     0.2980 C.3   1 <1>   0.0580 
 23 C        8.1540    -3.0930     0.4550 C.2   1 <1>  -0.2880 
 24 H       -1.2520     1.1710     1.6190 H     1 <1>   0.0800 
 25 H       -1.0290     1.5930    -0.0830 H     1 <1>   0.0800 
 26 H       -3.0880     0.5960     0.3160 H     1 <1>   0.1500 
 27 H        1.2040     0.9980     1.8940 H     1 <1>   0.0800 
 28 H        0.7730     2.5870     1.3170 H     1 <1>   0.0800 
 29 H        1.4270     1.4180     0.2000 H     1 <1>   0.0800 
 30 H       -2.5550    -4.1570    -0.7920 H     1 <1>   0.1500 
 31 H       -5.0260    -0.7340    -0.2700 H     1 <1>   0.1500 
 32 H       -0.3880    -3.6820     1.7870 H     1 <1>   0.0800 
 33 H        0.5460    -2.2390     1.5360 H     1 <1>   0.0800 
 34 H        0.9010    -1.5750    -1.1330 H     1 <1>   0.0800 
 35 H        0.1480    -2.6780    -2.2430 H     1 <1>   0.0800 
 36 H       -4.7790    -3.1150    -0.8280 H     1 <1>   0.1500 
 37 H        1.3280    -5.0670     0.8200 H     1 <1>   0.0800 
 38 H        2.0620    -4.0650     2.0430 H     1 <1>   0.0800 
 39 H        2.6030    -3.0440    -2.0320 H     1 <1>   0.0800 
 40 H        1.6580    -4.4530    -1.6380 H     1 <1>   0.0800 
 41 H        2.8280    -2.5760     0.3190 H     1 <1>   0.4500 
 42 H        3.6440    -5.3140    -0.4190 H     1 <1>   0.0800 
 43 H        4.1550    -4.5270     1.0510 H     1 <1>   0.0800 
 44 H        4.6950    -3.5690    -1.7570 H     1 <1>   0.0800 
 45 H        6.5530    -4.7910    -1.6330 H     1 <1>   0.0800 
 46 H        4.7180    -1.8500     0.7490 H     1 <1>   0.0800 
 47 H        5.1120    -1.3380    -0.8700 H     1 <1>   0.0800 
 48 H        8.5140    -5.2400    -0.0410 H     1 <1>   0.1500 
 49 H        6.9080    -2.9360    -1.2610 H     1 <1>   0.0800 
 50 H        6.2300    -3.6010     0.9300 H     1 <1>   0.0800 
 51 H        7.3200    -1.3030    -0.3430 H     1 <1>   0.0800 
 52 H        9.0700    -2.7260     0.8910 H     1 <1>   0.1500 
@<TRIPOS>BOND
  1   1   2  1   
  2   1   3  1   
  3   2   4  ar  
  4   2   5  ar  
  5   3   6  1   
  6   3  24  1   
  7   3  25  1   
  8   4   7  1   
  9   4   8  ar  
 10   5   9  ar  
 11   5  26  1   
 12   6  27  1   
 13   6  28  1   
 14   6  29  1   
 15   7  10  1   
 16   7  11  1   
 17   8  12  ar  
 18   8  30  1   
 19   9  12  ar  
 20   9  31  1   
 21  10  13  1   
 22  10  32  1   
 23  10  33  1   
 24  11  14  1   
 25  11  34  1   
 26  11  35  1   
 27  12  36  1   
 28  13  15  1   
 29  13  37  1   
 30  13  38  1   
 31  14  15  1   
 32  14  39  1   
 33  14  40  1   
 34  15  16  1   
 35  15  41  1   
 36  16  17  1   
 37  16  42  1   
 38  16  43  1   
 39  17  18  1   
 40  17  19  1   
 41  17  44  1   
 42  18  20  1   
 43  18  21  1   
 44  18  45  1   
 45  19  22  1   
 46  19  46  1   
 47  19  47  1   
 48  20  23  2   
 49  20  48  1   
 50  21  22  1   
 51  21  49  1   
 52  21  50  1   
 53  22  23  1   
 54  22  51  1   
 55  23  52  1   
@<TRIPOS>SUBSTRUCTURE
  1 ****  15 GROUP 4 **** **** 0

# MOE 2024.06 (io_trps.svl 2023.06)
