@<TRIPOS>MOLECULE
NONAME
53 55 1 0 0 
SMALL
USER_CHARGES


@<TRIPOS>ATOM
  1 O       -8.6760    -0.6640     0.8610 O.2   1 <1>  -0.5700 
  2 C       -8.8620    -0.3880    -0.3100 C.2   1 <1>   0.5690 
  3 N       -9.7650     0.5370    -0.7320 N.am  1 <1>  -0.4100 
  4 C       -7.9650    -1.0980    -1.3280 C.3   1 <1>   0.4040 
  5 N      -10.5680     1.3860     0.1450 N.pl3 1 <1>  -0.4890 
  6 N       -6.5140    -1.0760    -0.9100 N.4   1 <1>  -0.9590 
  7 C      -10.0280     2.5730     0.6110 C.ar  1 <1>   0.1000 
  8 C      -11.7210     0.7530     0.8470 C.3   1 <1>   0.3530 
  9 C       -5.9720     0.3070    -0.8460 C.3   1 <1>   0.3430 
 10 C       -5.6500    -1.9650    -1.7260 C.3   1 <1>   0.3430 
 11 C      -10.2330     3.7630    -0.0790 C.ar  1 <1>  -0.1500 
 12 C       -9.2580     2.5950     1.7700 C.ar  1 <1>  -0.1500 
 13 C      -12.4030    -0.2700    -0.0560 C.ar  1 <1>  -0.1440 
 14 C       -5.2160     0.5080     0.4660 C.3   1 <1>  -0.1600 
 15 C       -4.4460    -2.4520    -0.9140 C.3   1 <1>  -0.1600 
 16 C       -9.6820     4.9470     0.3760 C.ar  1 <1>  -0.1500 
 17 C       -8.7070     3.7770     2.2280 C.ar  1 <1>  -0.1500 
 18 C      -13.1860     0.1480    -1.1220 C.ar  1 <1>  -0.1500 
 19 C      -12.2370    -1.6280     0.1740 C.ar  1 <1>  -0.1500 
 20 C       -4.2910    -0.6430     0.9030 C.3   1 <1>  -0.1600 
 21 C       -3.5790    -1.3620    -0.2550 C.3   1 <1>  -0.1600 
 22 C       -8.9180     4.9550     1.5310 C.ar  1 <1>  -0.1500 
 23 C      -13.7950    -0.7800    -1.9480 C.ar  1 <1>  -0.1500 
 24 C      -12.8470    -2.5570    -0.6520 C.ar  1 <1>  -0.1500 
 25 C      -13.6260    -2.1330    -1.7140 C.ar  1 <1>  -0.1500 
 26 H       -9.9600     0.6860    -1.7270 H     1 <1>   0.3700 
 27 H       -8.0790    -0.6300    -2.2900 H     1 <1>   0.0800 
 28 H       -8.3020    -2.1180    -1.4040 H     1 <1>   0.0800 
 29 H       -6.5040    -1.4160     0.0670 H     1 <1>   0.4500 
 30 H      -12.4240     1.5160     1.1310 H     1 <1>   0.0800 
 31 H      -11.3620     0.2760     1.7420 H     1 <1>   0.0800 
 32 H       -6.7670     1.0340    -0.9000 H     1 <1>   0.0800 
 33 H       -5.3050     0.4770    -1.6760 H     1 <1>   0.0800 
 34 H       -5.3090    -1.4400    -2.6040 H     1 <1>   0.0800 
 35 H       -6.2120    -2.8270    -2.0490 H     1 <1>   0.0800 
 36 H      -10.8290     3.7530    -0.9730 H     1 <1>   0.1500 
 37 H       -9.0940     1.6770     2.3050 H     1 <1>   0.1500 
 38 H       -5.9260     0.7050     1.2520 H     1 <1>   0.0800 
 39 H       -4.6250     1.4020     0.3600 H     1 <1>   0.0800 
 40 H       -3.8180    -3.0170    -1.5800 H     1 <1>   0.0800 
 41 H       -4.7870    -3.1430    -0.1610 H     1 <1>   0.0800 
 42 H       -9.8480     5.8630    -0.1640 H     1 <1>   0.1500 
 43 H       -8.1150     3.7840     3.1280 H     1 <1>   0.1500 
 44 H      -13.3230     1.2000    -1.3100 H     1 <1>   0.1500 
 45 H      -11.6330    -1.9680     0.9980 H     1 <1>   0.1500 
 46 H       -4.8460    -1.3590     1.4850 H     1 <1>   0.0800 
 47 H       -3.5440    -0.2320     1.5630 H     1 <1>   0.0800 
 48 H       -3.2270    -0.6530    -0.9860 H     1 <1>   0.0800 
 49 H       -2.7060    -1.8470     0.1520 H     1 <1>   0.0800 
 50 H       -8.4900     5.8770     1.8880 H     1 <1>   0.1500 
 51 H      -14.4050    -0.4490    -2.7720 H     1 <1>   0.1500 
 52 H      -12.7200    -3.6100    -0.4660 H     1 <1>   0.1500 
 53 H      -14.1040    -2.8540    -2.3540 H     1 <1>   0.1500 
@<TRIPOS>BOND
  1   1   2  2   
  2   2   3  am  
  3   2   4  1   
  4   3   5  1   
  5   3  26  1   
  6   4   6  1   
  7   4  27  1   
  8   4  28  1   
  9   5   7  1   
 10   5   8  1   
 11   6   9  1   
 12   6  10  1   
 13   6  29  1   
 14   7  11  ar  
 15   7  12  ar  
 16   8  13  1   
 17   8  30  1   
 18   8  31  1   
 19   9  14  1   
 20   9  32  1   
 21   9  33  1   
 22  10  15  1   
 23  10  34  1   
 24  10  35  1   
 25  11  16  ar  
 26  11  36  1   
 27  12  17  ar  
 28  12  37  1   
 29  13  18  ar  
 30  13  19  ar  
 31  14  20  1   
 32  14  38  1   
 33  14  39  1   
 34  15  21  1   
 35  15  40  1   
 36  15  41  1   
 37  16  22  ar  
 38  16  42  1   
 39  17  22  ar  
 40  17  43  1   
 41  18  23  ar  
 42  18  44  1   
 43  19  24  ar  
 44  19  45  1   
 45  20  21  1   
 46  20  46  1   
 47  20  47  1   
 48  21  48  1   
 49  21  49  1   
 50  22  50  1   
 51  23  25  ar  
 52  23  51  1   
 53  24  25  ar  
 54  24  52  1   
 55  25  53  1   
@<TRIPOS>SUBSTRUCTURE
  1 ****   2 GROUP 4 **** **** 0

# MOE 2024.06 (io_trps.svl 2023.06)
