@<TRIPOS>MOLECULE
NONAME
49 51 1 0 0 
SMALL
USER_CHARGES


@<TRIPOS>ATOM
  1 F       -1.9470     0.7180     0.6050 F     1 <1>  -0.1900 
  2 C       -2.8470    -0.2040     0.3730 C.ar  1 <1>   0.1900 
  3 C       -2.5650    -1.1950    -0.5480 C.ar  1 <1>  -0.1500 
  4 C       -4.0460    -0.1520     1.0580 C.ar  1 <1>  -0.1500 
  5 C       -3.5220    -2.1650    -0.7870 C.ar  1 <1>  -0.1500 
  6 C       -4.9930    -1.1300     0.8080 C.ar  1 <1>  -0.1500 
  7 C       -4.7400    -2.1430    -0.1150 C.ar  1 <1>   0.1000 
  8 N       -5.6780    -3.1330    -0.3800 N.pl3 1 <1>  -0.8380 
  9 C       -5.9770    -4.0750     0.7390 C.3   1 <1>   0.2090 
 10 C       -6.9150    -2.6900    -1.0870 C.3   1 <1>   0.2090 
 11 C       -6.8510    -5.2500     0.2580 C.3   1 <1>   0.1100 
 12 C       -7.7700    -3.8970    -1.5200 C.3   1 <1>   0.1100 
 13 N       -8.1050    -4.7850    -0.3770 N.3   1 <1>  -0.8100 
 14 C       -8.9360    -5.9440    -0.8290 C.3   1 <1>   0.1710 
 15 C      -10.3970    -5.5790    -1.1000 C.2   1 <1>   0.5690 
 16 O      -11.0580    -6.2770    -1.8300 O.2   1 <1>  -0.5700 
 17 N      -10.8490    -4.4510    -0.4810 N.am  1 <1>  -0.5470 
 18 C      -12.0790    -3.7790    -0.4460 C.ar  1 <1>   0.1170 
 19 C      -12.1270    -2.4530    -0.0050 C.ar  1 <1>  -0.1430 
 20 C      -13.2640    -4.4070    -0.8200 C.ar  1 <1>  -0.1500 
 21 C      -13.3460    -1.7950     0.0590 C.ar  1 <1>  -0.1500 
 22 C      -10.8670    -1.6920     0.4020 C.3   1 <1>  -0.0170 
 23 C      -14.4730    -3.7410    -0.7570 C.ar  1 <1>  -0.1500 
 24 C      -14.5160    -2.4320    -0.3150 C.ar  1 <1>  -0.1500 
 25 C      -10.4360    -2.0490     1.8280 C.3   1 <1>  -0.2400 
 26 H       -1.6210    -1.2030    -1.0620 H     1 <1>   0.1500 
 27 H       -4.2280     0.6350     1.7670 H     1 <1>   0.1500 
 28 H       -3.3400    -2.9520    -1.4950 H     1 <1>   0.1500 
 29 H       -5.9340    -1.1140     1.3270 H     1 <1>   0.1500 
 30 H       -6.4900    -3.5510     1.5260 H     1 <1>   0.0800 
 31 H       -5.0520    -4.4550     1.1360 H     1 <1>   0.0800 
 32 H       -6.6390    -2.1180    -1.9550 H     1 <1>   0.0800 
 33 H       -7.4950    -2.0590    -0.4380 H     1 <1>   0.0800 
 34 H       -7.0870    -5.8700     1.1050 H     1 <1>   0.0800 
 35 H       -6.2810    -5.8390    -0.4410 H     1 <1>   0.0800 
 36 H       -7.2230    -4.4510    -2.2640 H     1 <1>   0.0800 
 37 H       -8.6730    -3.5330    -1.9780 H     1 <1>   0.0800 
 38 H       -8.9420    -6.6980    -0.0630 H     1 <1>   0.0800 
 39 H       -8.5130    -6.3800    -1.7170 H     1 <1>   0.0800 
 40 H      -10.0890    -3.9880     0.0240 H     1 <1>   0.3700 
 41 H      -13.2460    -5.4250    -1.1600 H     1 <1>   0.1500 
 42 H      -13.3950    -0.7760     0.4010 H     1 <1>   0.1500 
 43 H      -11.0510    -0.6340     0.3480 H     1 <1>   0.0800 
 44 H      -10.0700    -1.9050    -0.2880 H     1 <1>   0.0800 
 45 H      -15.3780    -4.2430    -1.0510 H     1 <1>   0.1500 
 46 H      -15.4560    -1.9120    -0.2620 H     1 <1>   0.1500 
 47 H      -11.2260    -1.8130     2.5190 H     1 <1>   0.0800 
 48 H       -9.5590    -1.4890     2.1000 H     1 <1>   0.0800 
 49 H      -10.2140    -3.0980     1.9100 H     1 <1>   0.0800 
@<TRIPOS>BOND
  1   1   2  1   
  2   2   3  ar  
  3   2   4  ar  
  4   3   5  ar  
  5   3  26  1   
  6   4   6  ar  
  7   4  27  1   
  8   5   7  ar  
  9   5  28  1   
 10   6   7  ar  
 11   6  29  1   
 12   7   8  1   
 13   8   9  1   
 14   8  10  1   
 15   9  11  1   
 16   9  30  1   
 17   9  31  1   
 18  10  12  1   
 19  10  32  1   
 20  10  33  1   
 21  11  13  1   
 22  11  34  1   
 23  11  35  1   
 24  12  13  1   
 25  12  36  1   
 26  12  37  1   
 27  13  14  1   
 28  14  15  1   
 29  14  38  1   
 30  14  39  1   
 31  15  16  2   
 32  15  17  am  
 33  17  18  1   
 34  17  40  1   
 35  18  19  ar  
 36  18  20  ar  
 37  19  21  ar  
 38  19  22  1   
 39  20  23  ar  
 40  20  41  1   
 41  21  24  ar  
 42  21  42  1   
 43  22  25  1   
 44  22  43  1   
 45  22  44  1   
 46  23  24  ar  
 47  23  45  1   
 48  24  46  1   
 49  25  47  1   
 50  25  48  1   
 51  25  49  1   
@<TRIPOS>SUBSTRUCTURE
  1 ****  12 GROUP 4 **** **** 0

# MOE 2024.06 (io_trps.svl 2023.06)
