@<TRIPOS>MOLECULE
NONAME
50 51 1 0 0 
SMALL
USER_CHARGES


@<TRIPOS>ATOM
  1 O       -6.3710    -2.3880     0.0920 O.3   1 <1>  -0.3630 
  2 C       -7.7160    -2.2980    -0.0660 C.ar  1 <1>   0.0830 
  3 C       -5.7220    -3.6430     0.1550 C.3   1 <1>   0.1200 
  4 C       -8.2630    -1.0250    -0.0330 C.ar  1 <1>  -0.1500 
  5 C       -8.5500    -3.3970    -0.2530 C.ar  1 <1>  -0.1500 
  6 C       -4.2200    -3.4190     0.3710 C.3   1 <1>   0.2000 
  7 C       -9.6260    -0.8380    -0.1820 C.ar  1 <1>  -0.1440 
  8 C       -9.9160    -3.2180    -0.4030 C.ar  1 <1>  -0.1440 
  9 O       -3.7600    -2.5490    -0.6120 O.3   1 <1>  -0.6800 
 10 C       -3.4270    -4.7490     0.3490 C.3   1 <1>   0.1100 
 11 C      -10.4470    -1.9390    -0.3650 C.ar  1 <1>  -0.1500 
 12 C      -10.2260     0.5560    -0.1430 C.3   1 <1>  -0.0970 
 13 C      -10.8340    -4.4100    -0.6060 C.3   1 <1>  -0.0970 
 14 N       -1.9580    -4.5900     0.2420 N.3   1 <1>  -0.8100 
 15 C       -1.3430    -3.8110     1.3440 C.3   1 <1>   0.1100 
 16 C       -1.2450    -5.8660     0.0210 C.3   1 <1>   0.1100 
 17 C        0.1790    -3.6110     1.1310 C.3   1 <1>   0.3430 
 18 C        0.2610    -5.6350    -0.2650 C.3   1 <1>   0.3430 
 19 N        0.6070    -4.1770    -0.1920 N.4   1 <1>  -0.9590 
 20 C        2.0030    -3.8810    -0.5890 C.3   1 <1>   0.3430 
 21 C        2.1520    -2.3910    -0.8750 C.3   1 <1>  -0.2400 
 22 H       -5.8930    -4.1630    -0.7710 H     1 <1>   0.0800 
 23 H       -6.1400    -4.2010     0.9740 H     1 <1>   0.0800 
 24 H       -7.6100    -0.1850     0.1130 H     1 <1>   0.1500 
 25 H       -8.1550    -4.3930    -0.2850 H     1 <1>   0.1500 
 26 H       -4.0830    -2.9370     1.3230 H     1 <1>   0.0800 
 27 H       -4.4450    -1.8600    -0.7510 H     1 <1>   0.4000 
 28 H       -3.7690    -5.3180    -0.4990 H     1 <1>   0.0800 
 29 H       -3.6660    -5.3140     1.2340 H     1 <1>   0.0800 
 30 H      -11.5070    -1.7980    -0.4780 H     1 <1>   0.1500 
 31 H       -9.4620     1.3040    -0.2550 H     1 <1>   0.0800 
 32 H      -10.7250     0.7100     0.7970 H     1 <1>   0.0800 
 33 H      -10.9380     0.6740    -0.9400 H     1 <1>   0.0800 
 34 H      -10.2830    -5.2610    -0.9640 H     1 <1>   0.0800 
 35 H      -11.5960    -4.1730    -1.3270 H     1 <1>   0.0800 
 36 H      -11.3060    -4.6680     0.3250 H     1 <1>   0.0800 
 37 H       -1.5140    -4.3020     2.2870 H     1 <1>   0.0800 
 38 H       -1.8010    -2.8380     1.3930 H     1 <1>   0.0800 
 39 H       -1.6810    -6.3790    -0.8190 H     1 <1>   0.0800 
 40 H       -1.3540    -6.5020     0.8840 H     1 <1>   0.0800 
 41 H        0.7180    -4.0920     1.9300 H     1 <1>   0.0800 
 42 H        0.3950    -2.5570     1.1730 H     1 <1>   0.0800 
 43 H        0.4870    -6.0140    -1.2480 H     1 <1>   0.0800 
 44 H        0.8480    -6.1920     0.4450 H     1 <1>   0.0800 
 45 H       -0.0560    -3.7410    -0.8570 H     1 <1>   0.4500 
 46 H        2.2470    -4.4320    -1.4840 H     1 <1>   0.0800 
 47 H        2.6850    -4.1810     0.1900 H     1 <1>   0.0800 
 48 H        1.4500    -2.0750    -1.6260 H     1 <1>   0.0800 
 49 H        3.1440    -2.2020    -1.2460 H     1 <1>   0.0800 
 50 H        2.0200    -1.8050     0.0160 H     1 <1>   0.0800 
@<TRIPOS>BOND
  1   1   2  1   
  2   1   3  1   
  3   2   4  ar  
  4   2   5  ar  
  5   3   6  1   
  6   3  22  1   
  7   3  23  1   
  8   4   7  ar  
  9   4  24  1   
 10   5   8  ar  
 11   5  25  1   
 12   6   9  1   
 13   6  10  1   
 14   6  26  1   
 15   7  11  ar  
 16   7  12  1   
 17   8  11  ar  
 18   8  13  1   
 19   9  27  1   
 20  10  14  1   
 21  10  28  1   
 22  10  29  1   
 23  11  30  1   
 24  12  31  1   
 25  12  32  1   
 26  12  33  1   
 27  13  34  1   
 28  13  35  1   
 29  13  36  1   
 30  14  15  1   
 31  14  16  1   
 32  15  17  1   
 33  15  37  1   
 34  15  38  1   
 35  16  18  1   
 36  16  39  1   
 37  16  40  1   
 38  17  19  1   
 39  17  41  1   
 40  17  42  1   
 41  18  19  1   
 42  18  43  1   
 43  18  44  1   
 44  19  20  1   
 45  19  45  1   
 46  20  21  1   
 47  20  46  1   
 48  20  47  1   
 49  21  48  1   
 50  21  49  1   
 51  21  50  1   
@<TRIPOS>SUBSTRUCTURE
  1 ****   6 GROUP 4 **** **** 0

# MOE 2024.06 (io_trps.svl 2023.06)
