@<TRIPOS>MOLECULE
NONAME
44 46 1 0 0 
SMALL
USER_CHARGES


@<TRIPOS>ATOM
  1 O        0.0730    -2.1080    -1.9240 O.2   1 <1>  -0.5700 
  2 C        0.3590    -2.4740    -0.8120 C.2   1 <1>   0.5690 
  3 N       -0.4970    -2.6460     0.2350 N.am  1 <1>  -0.4200 
  4 C        1.7800    -2.8190    -0.4100 C.3   1 <1>  -0.0190 
  5 C        0.1680    -3.0610     1.3460 C.2   1 <1>   0.5690 
  6 C       -1.9660    -2.4270     0.2180 C.3   1 <1>   0.2200 
  7 C        1.6500    -3.1740     1.0850 C.3   1 <1>  -0.0990 
  8 C        2.7550    -1.6620    -0.6890 C.3   1 <1>  -0.0170 
  9 O       -0.3230    -3.3090     2.4170 O.2   1 <1>  -0.5700 
 10 C       -2.6550    -3.3750    -0.7760 C.3   1 <1>  -0.1600 
 11 C       -2.3010    -0.9570    -0.0790 C.3   1 <1>  -0.1600 
 12 C        4.1670    -2.0120    -0.2470 C.ar  1 <1>  -0.1440 
 13 C       -4.1740    -3.1480    -0.7870 C.3   1 <1>  -0.1600 
 14 C       -3.8200    -0.7330    -0.0910 C.3   1 <1>  -0.1600 
 15 C        4.9200    -2.9140    -0.9830 C.ar  1 <1>  -0.1500 
 16 C        4.7150    -1.4400     0.8910 C.ar  1 <1>  -0.1500 
 17 C       -4.5120    -1.6800    -1.0810 C.3   1 <1>  -0.1600 
 18 C        6.2040    -3.2540    -0.5880 C.ar  1 <1>  -0.1440 
 19 C        5.9970    -1.7730     1.2900 C.ar  1 <1>  -0.1500 
 20 C        6.7390    -2.6790     0.5520 C.ar  1 <1>  -0.1500 
 21 C        7.0210    -4.2420    -1.4000 C.3   1 <1>  -0.0970 
 22 H        2.0810    -3.6890    -0.9660 H     1 <1>   0.0800 
 23 H       -2.3520    -2.6530     1.1980 H     1 <1>   0.0800 
 24 H        2.1720    -2.4840     1.7220 H     1 <1>   0.0800 
 25 H        1.9870    -4.1750     1.2830 H     1 <1>   0.0800 
 26 H        2.4190    -0.7720    -0.1850 H     1 <1>   0.0800 
 27 H        2.7620    -1.4480    -1.7440 H     1 <1>   0.0800 
 28 H       -2.4500    -4.3940    -0.5020 H     1 <1>   0.0800 
 29 H       -2.2760    -3.2040    -1.7680 H     1 <1>   0.0800 
 30 H       -1.9060    -0.6780    -1.0400 H     1 <1>   0.0800 
 31 H       -1.8550    -0.3280     0.6710 H     1 <1>   0.0800 
 32 H       -4.5840    -3.4230     0.1700 H     1 <1>   0.0800 
 33 H       -4.6270    -3.7780    -1.5330 H     1 <1>   0.0800 
 34 H       -4.0320     0.2880    -0.3610 H     1 <1>   0.0800 
 35 H       -4.2150    -0.9000     0.8970 H     1 <1>   0.0800 
 36 H        4.5050    -3.3540    -1.8730 H     1 <1>   0.1500 
 37 H        4.1510    -0.7330     1.4730 H     1 <1>   0.1500 
 38 H       -5.5780    -1.5380    -1.0300 H     1 <1>   0.0800 
 39 H       -4.1970    -1.4370    -2.0830 H     1 <1>   0.0800 
 40 H        6.4190    -1.3280     2.1730 H     1 <1>   0.1500 
 41 H        7.7350    -2.9310     0.8690 H     1 <1>   0.1500 
 42 H        6.3780    -4.9130    -1.9400 H     1 <1>   0.0800 
 43 H        7.6530    -4.8250    -0.7530 H     1 <1>   0.0800 
 44 H        7.6380    -3.7110    -2.1030 H     1 <1>   0.0800 
@<TRIPOS>BOND
  1   1   2  2   
  2   2   3  am  
  3   2   4  1   
  4   3   5  am  
  5   3   6  1   
  6   4   7  1   
  7   4   8  1   
  8   4  22  1   
  9   5   7  1   
 10   5   9  2   
 11   6  10  1   
 12   6  11  1   
 13   6  23  1   
 14   7  24  1   
 15   7  25  1   
 16   8  12  1   
 17   8  26  1   
 18   8  27  1   
 19  10  13  1   
 20  10  28  1   
 21  10  29  1   
 22  11  14  1   
 23  11  30  1   
 24  11  31  1   
 25  12  15  ar  
 26  12  16  ar  
 27  13  17  1   
 28  13  32  1   
 29  13  33  1   
 30  14  17  1   
 31  14  34  1   
 32  14  35  1   
 33  15  18  ar  
 34  15  36  1   
 35  16  19  ar  
 36  16  37  1   
 37  17  38  1   
 38  17  39  1   
 39  18  20  ar  
 40  18  21  1   
 41  19  20  ar  
 42  19  40  1   
 43  20  41  1   
 44  21  42  1   
 45  21  43  1   
 46  21  44  1   
@<TRIPOS>SUBSTRUCTURE
  1 ****   4 GROUP 4 **** **** 0

# MOE 2024.06 (io_trps.svl 2023.06)
