@<TRIPOS>MOLECULE
NONAME
38 39 1 0 0 
SMALL
USER_CHARGES


@<TRIPOS>ATOM
  1 CL       2.6590     1.0310     1.4360 Cl    1 <1>  -0.1770 
  2 C        2.3190    -0.4590     0.5740 C.ar  1 <1>   0.1770 
  3 C        3.2780    -1.1930    -0.1460 C.ar  1 <1>   0.0830 
  4 C        1.0060    -0.8880     0.6440 C.ar  1 <1>  -0.1500 
  5 O        4.6010    -0.9040    -0.3080 O.3   1 <1>  -0.3630 
  6 C        2.8730    -2.3580    -0.7850 C.ar  1 <1>  -0.1500 
  7 C        0.6390    -2.0510    -0.0030 C.ar  1 <1>   0.1770 
  8 C        5.2420     0.2130     0.2490 C.3   1 <1>   0.1200 
  9 C        1.5590    -2.7920    -0.7180 C.ar  1 <1>  -0.1500 
 10 CL      -1.0170    -2.5940     0.0840 Cl    1 <1>  -0.1770 
 11 C        6.7110     0.1530    -0.1650 C.3   1 <1>  -0.1600 
 12 C        7.4750     1.3400     0.4170 C.3   1 <1>   0.3430 
 13 N        8.8820     1.3480    -0.0730 N.4   1 <1>  -0.9590 
 14 C        9.6990     0.2430     0.5170 C.3   1 <1>   0.3430 
 15 C        9.5120     2.6790     0.1720 C.3   1 <1>   0.3430 
 16 C       11.0910     0.2340    -0.1190 C.3   1 <1>  -0.1600 
 17 C       10.8990     2.7220    -0.4730 C.3   1 <1>  -0.1600 
 18 C       11.7970     1.5870     0.0360 C.3   1 <1>  -0.1600 
 19 H        0.2760    -0.3240     1.1950 H     1 <1>   0.1500 
 20 H        3.5960    -2.9300    -1.3410 H     1 <1>   0.1500 
 21 H        5.1430     0.1590     1.3200 H     1 <1>   0.0800 
 22 H        4.7700     1.1000    -0.1380 H     1 <1>   0.0800 
 23 H        1.2490    -3.6950    -1.2140 H     1 <1>   0.1500 
 24 H        6.7630     0.1780    -1.2400 H     1 <1>   0.0800 
 25 H        7.1230    -0.7720     0.1960 H     1 <1>   0.0800 
 26 H        7.4590     1.2980     1.4950 H     1 <1>   0.0800 
 27 H        6.9840     2.2500     0.1100 H     1 <1>   0.0800 
 28 H        8.8690     1.2060    -1.0920 H     1 <1>   0.4500 
 29 H        9.2250    -0.7090     0.3410 H     1 <1>   0.0800 
 30 H        9.7910     0.3850     1.5810 H     1 <1>   0.0800 
 31 H        9.6050     2.8490     1.2330 H     1 <1>   0.0800 
 32 H        8.9000     3.4630    -0.2460 H     1 <1>   0.0800 
 33 H       11.0060    -0.0200    -1.1610 H     1 <1>   0.0800 
 34 H       11.6850    -0.5320     0.3490 H     1 <1>   0.0800 
 35 H       11.3620     3.6670    -0.2500 H     1 <1>   0.0800 
 36 H       10.7980     2.6590    -1.5430 H     1 <1>   0.0800 
 37 H       12.7250     1.5800    -0.5110 H     1 <1>   0.0800 
 38 H       12.0320     1.7530     1.0740 H     1 <1>   0.0800 
@<TRIPOS>BOND
  1   1   2  1   
  2   2   3  ar  
  3   2   4  ar  
  4   3   5  1   
  5   3   6  ar  
  6   4   7  ar  
  7   4  19  1   
  8   5   8  1   
  9   6   9  ar  
 10   6  20  1   
 11   7   9  ar  
 12   7  10  1   
 13   8  11  1   
 14   8  21  1   
 15   8  22  1   
 16   9  23  1   
 17  11  12  1   
 18  11  24  1   
 19  11  25  1   
 20  12  13  1   
 21  12  26  1   
 22  12  27  1   
 23  13  14  1   
 24  13  15  1   
 25  13  28  1   
 26  14  16  1   
 27  14  29  1   
 28  14  30  1   
 29  15  17  1   
 30  15  31  1   
 31  15  32  1   
 32  16  18  1   
 33  16  33  1   
 34  16  34  1   
 35  17  18  1   
 36  17  35  1   
 37  17  36  1   
 38  18  37  1   
 39  18  38  1   
@<TRIPOS>SUBSTRUCTURE
  1 ****   8 GROUP 4 **** **** 0

# MOE 2024.06 (io_trps.svl 2023.06)
