@<TRIPOS>MOLECULE
NONAME
43 45 1 0 0 
SMALL
USER_CHARGES


@<TRIPOS>ATOM
  1 CL       3.8050    -2.9810     2.0730 Cl    1 <1>  -0.1770 
  2 C        4.3150    -1.6010     1.1390 C.ar  1 <1>   0.1770 
  3 C        5.6010    -1.1200     1.2840 C.ar  1 <1>  -0.1500 
  4 C        3.4270    -1.0040     0.2650 C.ar  1 <1>  -0.1500 
  5 C        6.0000    -0.0220     0.5400 C.ar  1 <1>  -0.1500 
  6 C        3.8380     0.0930    -0.4740 C.ar  1 <1>  -0.1500 
  7 C        5.1280     0.6030    -0.3490 C.ar  1 <1>  -0.0090 
  8 S        5.6700     2.0450    -1.3080 S.o2  1 <1>   1.4470 
  9 O        4.5640     2.6390    -2.0250 O.2   1 <1>  -0.6500 
 10 O        6.8780     1.7110    -2.0320 O.2   1 <1>  -0.6500 
 11 N        6.1340     3.1380    -0.1030 N.am  1 <1>  -0.8490 
 12 C        7.1900     4.0960    -0.5060 C.3   1 <1>   0.3370 
 13 C        5.0470     3.8550     0.5540 C.3   1 <1>   0.1960 
 14 C        8.5930     3.6410    -0.0190 C.2   1 <1>   0.5690 
 15 C        6.7270     5.4520     0.0550 C.3   1 <1>  -0.1600 
 16 C        5.7020     5.0990     1.1210 C.3   1 <1>  -0.1600 
 17 O        9.1840     4.2770     0.8240 O.2   1 <1>  -0.5700 
 18 N        9.1170     2.5010    -0.5600 N.am  1 <1>  -0.5470 
 19 C       10.1320     1.7050    -0.0790 C.ar  1 <1>   0.4270 
 20 N        9.7280     0.4670     0.1760 N.ar  1 <1>  -0.6200 
 21 C       11.4540     2.1430     0.0880 C.ar  1 <1>  -0.1430 
 22 C       10.6470    -0.3580     0.6440 C.ar  1 <1>   0.1600 
 23 C       12.3900     1.2600     0.5820 C.ar  1 <1>  -0.1500 
 24 C       11.9150     3.5520    -0.2670 C.3   1 <1>  -0.0970 
 25 C       11.9680    -0.0200     0.8680 C.ar  1 <1>  -0.1500 
 26 H        6.2800    -1.5970     1.9680 H     1 <1>   0.1500 
 27 H        2.4300    -1.3970     0.1670 H     1 <1>   0.1500 
 28 H        7.0050     0.3560     0.6510 H     1 <1>   0.1500 
 29 H        3.1470     0.5600    -1.1570 H     1 <1>   0.1500 
 30 H        7.2280     4.1800    -1.5790 H     1 <1>   0.0800 
 31 H        4.5940     3.2510     1.3230 H     1 <1>   0.0800 
 32 H        4.2960     4.1510    -0.1610 H     1 <1>   0.0800 
 33 H        6.2500     6.0040    -0.7360 H     1 <1>   0.0800 
 34 H        7.5290     6.0540     0.4440 H     1 <1>   0.0800 
 35 H        6.1960     4.8540     2.0460 H     1 <1>   0.0800 
 36 H        4.9920     5.8900     1.2920 H     1 <1>   0.0800 
 37 H        8.4750     1.9740    -1.1610 H     1 <1>   0.3700 
 38 H       10.3300    -1.3630     0.8630 H     1 <1>   0.1500 
 39 H       13.4140     1.5500     0.7400 H     1 <1>   0.1500 
 40 H       11.7810     4.2030     0.5780 H     1 <1>   0.0800 
 41 H       11.3530     3.9410    -1.0970 H     1 <1>   0.0800 
 42 H       12.9550     3.5540    -0.5400 H     1 <1>   0.0800 
 43 H       12.6570    -0.7490     1.2560 H     1 <1>   0.1500 
@<TRIPOS>BOND
  1   1   2  1   
  2   2   3  ar  
  3   2   4  ar  
  4   3   5  ar  
  5   3  26  1   
  6   4   6  ar  
  7   4  27  1   
  8   5   7  ar  
  9   5  28  1   
 10   6   7  ar  
 11   6  29  1   
 12   7   8  1   
 13   8   9  2   
 14   8  10  2   
 15   8  11  am  
 16  11  12  1   
 17  11  13  1   
 18  12  14  1   
 19  12  15  1   
 20  12  30  1   
 21  13  16  1   
 22  13  31  1   
 23  13  32  1   
 24  14  17  2   
 25  14  18  am  
 26  15  16  1   
 27  15  33  1   
 28  15  34  1   
 29  16  35  1   
 30  16  36  1   
 31  18  19  1   
 32  18  37  1   
 33  19  20  ar  
 34  19  21  ar  
 35  20  22  ar  
 36  21  23  ar  
 37  21  24  1   
 38  22  25  ar  
 39  22  38  1   
 40  23  25  ar  
 41  23  39  1   
 42  24  40  1   
 43  24  41  1   
 44  24  42  1   
 45  25  43  1   
@<TRIPOS>SUBSTRUCTURE
  1 ****  11 GROUP 4 **** **** 0

# MOE 2024.06 (io_trps.svl 2023.06)
