@<TRIPOS>MOLECULE
NONAME
44 46 1 0 0 
SMALL
USER_CHARGES


@<TRIPOS>ATOM
  1 O        0.3220    -2.9210     1.7170 O.2   1 <1>  -0.5700 
  2 C       -0.0110    -2.3730     0.6820 C.2   1 <1>   0.5440 
  3 N        0.8940    -1.5990    -0.0020 N.am  1 <1>  -0.5470 
  4 C       -1.3510    -2.5470     0.1650 C.ar  1 <1>   0.0860 
  5 C        2.2440    -1.2820     0.2080 C.ar  1 <1>   0.1170 
  6 C       -1.9980    -1.5870    -0.6490 C.ar  1 <1>   0.4100 
  7 C       -2.0450    -3.7170     0.4500 C.ar  1 <1>  -0.1500 
  8 C        3.0980    -2.0580     0.9850 C.ar  1 <1>  -0.1500 
  9 C        2.7570    -0.1440    -0.4030 C.ar  1 <1>  -0.1500 
 10 N       -3.1980    -1.7820    -1.1960 N.ar  1 <1>  -0.6200 
 11 N       -1.4380    -0.3450    -0.9250 N.pl3 1 <1>  -0.8380 
 12 C       -3.2940    -3.8960    -0.0960 C.ar  1 <1>  -0.1500 
 13 C        4.4240    -1.7000     1.1510 C.ar  1 <1>  -0.1500 
 14 C        4.0830     0.2190    -0.2420 C.ar  1 <1>  -0.1500 
 15 C       -3.8140    -2.9100    -0.9110 C.ar  1 <1>   0.1600 
 16 C       -1.5590     0.2510    -2.2900 C.3   1 <1>   0.2090 
 17 C       -1.3280     0.6430     0.1900 C.3   1 <1>   0.2090 
 18 C        4.9270    -0.5620     0.5420 C.ar  1 <1>   0.0830 
 19 C       -2.6900     1.2860    -2.3420 C.3   1 <1>  -0.1600 
 20 C       -2.4810     1.6470     0.1320 C.3   1 <1>  -0.1600 
 21 O        6.2390    -0.2820     0.7560 O.3   1 <1>  -0.3620 
 22 C       -2.5620     2.3390    -1.2350 C.3   1 <1>  -0.1600 
 23 C        6.8430     0.8560     0.1820 C.3   1 <1>   0.0400 
 24 H        0.4180    -1.0390    -0.7200 H     1 <1>   0.3700 
 25 H       -1.6060    -4.4690     1.0840 H     1 <1>   0.1500 
 26 H        2.7320    -2.9480     1.4620 H     1 <1>   0.1500 
 27 H        2.1130     0.4640    -1.0100 H     1 <1>   0.1500 
 28 H       -3.8580    -4.7900     0.1010 H     1 <1>   0.1500 
 29 H        5.0760    -2.3040     1.7550 H     1 <1>   0.1500 
 30 H        4.4390     1.1060    -0.7290 H     1 <1>   0.1500 
 31 H       -4.7880    -3.0580    -1.3460 H     1 <1>   0.1500 
 32 H       -1.7480    -0.5250    -3.0120 H     1 <1>   0.0800 
 33 H       -0.6280     0.7240    -2.5470 H     1 <1>   0.0800 
 34 H       -0.3880     1.1630     0.1100 H     1 <1>   0.0800 
 35 H       -1.3480     0.1340     1.1390 H     1 <1>   0.0800 
 36 H       -3.6290     0.7700    -2.2410 H     1 <1>   0.0800 
 37 H       -2.6860     1.7670    -3.3040 H     1 <1>   0.0800 
 38 H       -2.3510     2.3830     0.9040 H     1 <1>   0.0800 
 39 H       -3.4020     1.1240     0.3270 H     1 <1>   0.0800 
 40 H       -3.4130     2.9970    -1.2600 H     1 <1>   0.0800 
 41 H       -1.6750     2.9280    -1.3950 H     1 <1>   0.0800 
 42 H        7.8740     0.8750     0.4870 H     1 <1>   0.0800 
 43 H        6.3400     1.7360     0.5410 H     1 <1>   0.0800 
 44 H        6.7800     0.7820    -0.8890 H     1 <1>   0.0800 
@<TRIPOS>BOND
  1   1   2  2   
  2   2   3  am  
  3   2   4  1   
  4   3   5  1   
  5   3  24  1   
  6   4   6  ar  
  7   4   7  ar  
  8   5   8  ar  
  9   5   9  ar  
 10   6  10  ar  
 11   6  11  1   
 12   7  12  ar  
 13   7  25  1   
 14   8  13  ar  
 15   8  26  1   
 16   9  14  ar  
 17   9  27  1   
 18  10  15  ar  
 19  11  16  1   
 20  11  17  1   
 21  12  15  ar  
 22  12  28  1   
 23  13  18  ar  
 24  13  29  1   
 25  14  18  ar  
 26  14  30  1   
 27  15  31  1   
 28  16  19  1   
 29  16  32  1   
 30  16  33  1   
 31  17  20  1   
 32  17  34  1   
 33  17  35  1   
 34  18  21  1   
 35  19  22  1   
 36  19  36  1   
 37  19  37  1   
 38  20  22  1   
 39  20  38  1   
 40  20  39  1   
 41  21  23  1   
 42  22  40  1   
 43  22  41  1   
 44  23  42  1   
 45  23  43  1   
 46  23  44  1   
@<TRIPOS>SUBSTRUCTURE
  1 ****   3 GROUP 4 **** **** 0

# MOE 2024.06 (io_trps.svl 2023.06)
