@<TRIPOS>MOLECULE
NONAME
50 52 1 0 0 
SMALL
USER_CHARGES


@<TRIPOS>ATOM
  1 O       -3.4830    -2.1590     0.3760 O.2   1 <1>  -0.5700 
  2 C       -2.9550    -1.6840    -0.6040 C.2   1 <1>   0.5690 
  3 N       -3.4580    -0.6160    -1.3030 N.am  1 <1>  -0.5470 
  4 C       -1.6320    -2.3360    -1.0430 C.3   1 <1>   0.4040 
  5 C       -4.6240     0.1380    -1.0810 C.ar  1 <1>   0.1170 
  6 N       -1.0800    -3.2560     0.0250 N.4   1 <1>  -0.9590 
  7 C       -5.7350    -0.3490    -0.4060 C.ar  1 <1>  -0.1500 
  8 C       -4.6760     1.4330    -1.5780 C.ar  1 <1>  -0.1500 
  9 C        0.0870    -2.6880     0.7560 C.3   1 <1>   0.3430 
 10 C       -0.8370    -4.6240    -0.5000 C.3   1 <1>   0.3430 
 11 C       -6.8770     0.4170    -0.2080 C.ar  1 <1>   0.1000 
 12 C       -5.8030     2.2110    -1.3960 C.ar  1 <1>  -0.1500 
 13 C       -0.3400    -1.4600     1.5520 C.3   1 <1>  -0.2400 
 14 C       -0.8180    -5.6190     0.6540 C.3   1 <1>  -0.2400 
 15 N       -7.9180    -0.1830     0.5150 N.pl3 1 <1>  -0.6000 
 16 C       -6.9050     1.7170    -0.7160 C.ar  1 <1>  -0.1440 
 17 C       -9.2740     0.1090     0.7170 C.ar  1 <1>   0.1000 
 18 C       -8.1190     2.6160    -0.5510 C.3   1 <1>  -0.0170 
 19 C      -10.0080     1.0630     0.0070 C.ar  1 <1>  -0.1440 
 20 C       -9.9280    -0.6310     1.6970 C.ar  1 <1>  -0.1500 
 21 C       -9.3760     1.9240    -1.0750 C.3   1 <1>  -0.0170 
 22 C      -11.3550     1.2470     0.2860 C.ar  1 <1>  -0.1500 
 23 C      -11.2690    -0.4430     1.9720 C.ar  1 <1>  -0.1500 
 24 C      -11.9870     0.5000     1.2630 C.ar  1 <1>  -0.1500 
 25 H       -2.9080    -0.2610    -2.0850 H     1 <1>   0.3700 
 26 H       -0.9170    -1.5650    -1.2690 H     1 <1>   0.0800 
 27 H       -1.8230    -2.8950    -1.9430 H     1 <1>   0.0800 
 28 H       -1.8640    -3.3220     0.7060 H     1 <1>   0.4500 
 29 H       -5.7280    -1.3510    -0.0260 H     1 <1>   0.1500 
 30 H       -3.8380     1.8470    -2.1070 H     1 <1>   0.1500 
 31 H        0.8730    -2.4290     0.0650 H     1 <1>   0.0800 
 32 H        0.4760    -3.4210     1.4440 H     1 <1>   0.0800 
 33 H        0.0960    -4.6600    -1.0390 H     1 <1>   0.0800 
 34 H       -1.6310    -4.9000    -1.1760 H     1 <1>   0.0800 
 35 H       -5.8150     3.2120    -1.7910 H     1 <1>   0.1500 
 36 H       -0.6190    -0.6440     0.9110 H     1 <1>   0.0800 
 37 H        0.4860    -1.1280     2.1570 H     1 <1>   0.0800 
 38 H       -1.1560    -1.6970     2.2120 H     1 <1>   0.0800 
 39 H        0.0160    -5.4520     1.3100 H     1 <1>   0.0800 
 40 H       -0.7240    -6.6150     0.2580 H     1 <1>   0.0800 
 41 H       -1.7360    -5.5730     1.2140 H     1 <1>   0.0800 
 42 H       -7.6210    -1.0240     1.0100 H     1 <1>   0.4000 
 43 H       -7.9750     3.5270    -1.1020 H     1 <1>   0.0800 
 44 H       -8.2420     2.8770     0.4860 H     1 <1>   0.0800 
 45 H       -9.3810    -1.3670     2.2560 H     1 <1>   0.1500 
 46 H       -9.1390     1.3170    -1.9310 H     1 <1>   0.0800 
 47 H      -10.0730     2.6780    -1.3910 H     1 <1>   0.0800 
 48 H      -11.9280     1.9780    -0.2580 H     1 <1>   0.1500 
 49 H      -11.7520    -1.0270     2.7350 H     1 <1>   0.1500 
 50 H      -13.0320     0.6530     1.4700 H     1 <1>   0.1500 
@<TRIPOS>BOND
  1   1   2  2   
  2   2   3  am  
  3   2   4  1   
  4   3   5  1   
  5   3  25  1   
  6   4   6  1   
  7   4  26  1   
  8   4  27  1   
  9   5   7  ar  
 10   5   8  ar  
 11   6   9  1   
 12   6  10  1   
 13   6  28  1   
 14   7  11  ar  
 15   7  29  1   
 16   8  12  ar  
 17   8  30  1   
 18   9  13  1   
 19   9  31  1   
 20   9  32  1   
 21  10  14  1   
 22  10  33  1   
 23  10  34  1   
 24  11  15  1   
 25  11  16  ar  
 26  12  16  ar  
 27  12  35  1   
 28  13  36  1   
 29  13  37  1   
 30  13  38  1   
 31  14  39  1   
 32  14  40  1   
 33  14  41  1   
 34  15  17  1   
 35  15  42  1   
 36  16  18  1   
 37  17  19  ar  
 38  17  20  ar  
 39  18  21  1   
 40  18  43  1   
 41  18  44  1   
 42  19  21  1   
 43  19  22  ar  
 44  20  23  ar  
 45  20  45  1   
 46  21  46  1   
 47  21  47  1   
 48  22  24  ar  
 49  22  48  1   
 50  23  24  ar  
 51  23  49  1   
 52  24  50  1   
@<TRIPOS>SUBSTRUCTURE
  1 ****   7 GROUP 4 **** **** 0

# MOE 2024.06 (io_trps.svl 2023.06)
