@<TRIPOS>MOLECULE
NONAME
35 35 1 0 0 
SMALL
USER_CHARGES


@<TRIPOS>ATOM
  1 O        1.9970    -4.5140    -0.0010 O.3   1 <1>  -0.3630 
  2 C        1.2530    -5.6560    -0.0040 C.ar  1 <1>   0.0830 
  3 C        3.3980    -4.5290    -0.0030 C.3   1 <1>   0.1200 
  4 C       -0.1370    -5.5190    -0.0060 C.ar  1 <1>   0.0830 
  5 C        1.8230    -6.9260    -0.0050 C.ar  1 <1>  -0.1500 
  6 C        3.8390    -3.0650    -0.0020 C.3   1 <1>   0.3430 
  7 O       -0.6500    -4.2540    -0.0050 O.3   1 <1>  -0.3630 
  8 C       -0.9380    -6.6570    -0.0090 C.ar  1 <1>  -0.1500 
  9 C        1.0150    -8.0500    -0.0080 C.ar  1 <1>  -0.1500 
 10 N        5.3270    -2.9270    -0.0040 N.4   1 <1>  -0.9060 
 11 C       -2.0400    -4.0220    -0.0050 C.3   1 <1>   0.1200 
 12 C       -0.3610    -7.9160    -0.0100 C.ar  1 <1>  -0.1500 
 13 C        5.7460    -1.5090    -0.0030 C.3   1 <1>   0.3430 
 14 C       -2.2640    -2.5130    -0.0030 C.3   1 <1>  -0.2400 
 15 C        7.2670    -1.4650    -0.0050 C.3   1 <1>  -0.2400 
 16 H        3.7250    -5.0370    -0.8940 H     1 <1>   0.0800 
 17 H        3.7270    -5.0400     0.8850 H     1 <1>   0.0800 
 18 H        2.8850    -7.0710    -0.0030 H     1 <1>   0.1500 
 19 H        3.4310    -2.5860     0.8740 H     1 <1>   0.0800 
 20 H        3.4290    -2.5840    -0.8750 H     1 <1>   0.0800 
 21 H       -2.0090    -6.5900    -0.0110 H     1 <1>   0.1500 
 22 H        1.4550    -9.0330    -0.0090 H     1 <1>   0.1500 
 23 H        5.7230    -3.3890    -0.8330 H     1 <1>   0.4500 
 24 H        5.7260    -3.3910     0.8220 H     1 <1>   0.4500 
 25 H       -2.4610    -4.4700     0.8780 H     1 <1>   0.0800 
 26 H       -2.4600    -4.4670    -0.8900 H     1 <1>   0.0800 
 27 H       -0.9860    -8.7930    -0.0120 H     1 <1>   0.1500 
 28 H        5.3670    -1.0080     0.8750 H     1 <1>   0.0800 
 29 H        5.3650    -1.0060    -0.8780 H     1 <1>   0.0800 
 30 H       -1.8260    -2.0760     0.8770 H     1 <1>   0.0800 
 31 H       -3.3180    -2.3020    -0.0030 H     1 <1>   0.0800 
 32 H       -1.8250    -2.0730    -0.8810 H     1 <1>   0.0800 
 33 H        7.6690    -1.9370     0.8740 H     1 <1>   0.0800 
 34 H        7.5900    -0.4380    -0.0040 H     1 <1>   0.0800 
 35 H        7.6660    -1.9350    -0.8860 H     1 <1>   0.0800 
@<TRIPOS>BOND
  1   1   2  1   
  2   1   3  1   
  3   2   4  ar  
  4   2   5  ar  
  5   3   6  1   
  6   3  16  1   
  7   3  17  1   
  8   4   7  1   
  9   4   8  ar  
 10   5   9  ar  
 11   5  18  1   
 12   6  10  1   
 13   6  19  1   
 14   6  20  1   
 15   7  11  1   
 16   8  12  ar  
 17   8  21  1   
 18   9  12  ar  
 19   9  22  1   
 20  10  13  1   
 21  10  23  1   
 22  10  24  1   
 23  11  14  1   
 24  11  25  1   
 25  11  26  1   
 26  12  27  1   
 27  13  15  1   
 28  13  28  1   
 29  13  29  1   
 30  14  30  1   
 31  14  31  1   
 32  14  32  1   
 33  15  33  1   
 34  15  34  1   
 35  15  35  1   
@<TRIPOS>SUBSTRUCTURE
  1 ****   1 GROUP 4 **** **** 0

# MOE 2024.06 (io_trps.svl 2023.06)
