@<TRIPOS>MOLECULE
NONAME
49 51 1 0 0 
SMALL
USER_CHARGES


@<TRIPOS>ATOM
  1 S       -0.2340     0.7000     0.6210 S.o2  1 <1>   1.4470 
  2 O       -0.6820     1.0480     1.9530 O.2   1 <1>  -0.6500 
  3 O       -0.6760    -0.5420     0.0250 O.2   1 <1>  -0.6500 
  4 N       -0.7500     1.9440    -0.4070 N.am  1 <1>  -0.8490 
  5 C        1.5740     0.8080     0.5170 C.ar  1 <1>  -0.0090 
  6 C       -2.1940     1.8290    -0.6980 C.3   1 <1>   0.1960 
  7 C       -0.4600     3.2850     0.1430 C.3   1 <1>   0.1960 
  8 C        2.2280     0.6490    -0.6990 C.ar  1 <1>  -0.1500 
  9 C        2.3510     1.0630     1.6410 C.ar  1 <1>  -0.1500 
 10 C       -2.6770     2.9170    -1.6760 C.3   1 <1>   0.2090 
 11 C       -0.8950     4.4170    -0.8080 C.3   1 <1>   0.2090 
 12 C        3.6050     0.7450    -0.7930 C.ar  1 <1>  -0.1500 
 13 C        3.7290     1.1610     1.5550 C.ar  1 <1>  -0.1500 
 14 N       -2.3430     4.2810    -1.1580 N.pl3 1 <1>  -0.8380 
 15 C        4.3650     1.0030     0.3350 C.ar  1 <1>  -0.1440 
 16 C       -3.2960     5.1620    -0.6940 C.ar  1 <1>   0.7200 
 17 C        5.8780     1.1120     0.2360 C.3   1 <1>  -0.0160 
 18 N       -4.5420     4.7050    -0.5730 N.ar  1 <1>  -0.6200 
 19 N       -2.8870     6.3960    -0.4010 N.ar  1 <1>  -0.6200 
 20 C        6.2950     2.5590    -0.0500 C.3   1 <1>  -0.1600 
 21 C       -5.4360     5.5570    -0.1330 C.ar  1 <1>   0.1600 
 22 C       -3.8020     7.2270     0.0340 C.ar  1 <1>   0.1600 
 23 C        7.8190     2.6970    -0.1550 C.3   1 <1>  -0.1600 
 24 C       -5.1140     6.8520     0.1890 C.ar  1 <1>  -0.1500 
 25 C        8.2210     4.1470    -0.4410 C.3   1 <1>  -0.2400 
 26 H       -2.7610     1.9050     0.2150 H     1 <1>   0.0800 
 27 H       -2.3980     0.8670    -1.1350 H     1 <1>   0.0800 
 28 H        0.5960     3.3810     0.3250 H     1 <1>   0.0800 
 29 H       -0.9720     3.4180     1.0830 H     1 <1>   0.0800 
 30 H        1.6460     0.4480    -1.5830 H     1 <1>   0.1500 
 31 H        1.8720     1.1880     2.5980 H     1 <1>   0.1500 
 32 H       -3.7330     2.8060    -1.8410 H     1 <1>   0.0800 
 33 H       -2.1890     2.7750    -2.6240 H     1 <1>   0.0800 
 34 H       -0.3100     4.3680    -1.7100 H     1 <1>   0.0800 
 35 H       -0.6910     5.3630    -0.3390 H     1 <1>   0.0800 
 36 H        4.0840     0.6180    -1.7490 H     1 <1>   0.1500 
 37 H        4.3050     1.3620     2.4420 H     1 <1>   0.1500 
 38 H        6.2350     0.4680    -0.5490 H     1 <1>   0.0800 
 39 H        6.3250     0.7800     1.1570 H     1 <1>   0.0800 
 40 H        5.9290     3.1930     0.7400 H     1 <1>   0.0800 
 41 H        5.8400     2.8810    -0.9710 H     1 <1>   0.0800 
 42 H       -6.4510     5.2130    -0.0280 H     1 <1>   0.1500 
 43 H       -3.4990     8.2320     0.2730 H     1 <1>   0.1500 
 44 H        8.1870     2.0670    -0.9460 H     1 <1>   0.0800 
 45 H        8.2770     2.3790     0.7660 H     1 <1>   0.0800 
 46 H       -5.8550     7.5410     0.5460 H     1 <1>   0.1500 
 47 H        7.7920     4.4810    -1.3690 H     1 <1>   0.0800 
 48 H        9.2910     4.2240    -0.5120 H     1 <1>   0.0800 
 49 H        7.8840     4.7940     0.3500 H     1 <1>   0.0800 
@<TRIPOS>BOND
  1   1   2  2   
  2   1   3  2   
  3   1   4  am  
  4   1   5  1   
  5   4   6  1   
  6   4   7  1   
  7   5   8  ar  
  8   5   9  ar  
  9   6  10  1   
 10   6  26  1   
 11   6  27  1   
 12   7  11  1   
 13   7  28  1   
 14   7  29  1   
 15   8  12  ar  
 16   8  30  1   
 17   9  13  ar  
 18   9  31  1   
 19  10  14  1   
 20  10  32  1   
 21  10  33  1   
 22  11  14  1   
 23  11  34  1   
 24  11  35  1   
 25  12  15  ar  
 26  12  36  1   
 27  13  15  ar  
 28  13  37  1   
 29  14  16  1   
 30  15  17  1   
 31  16  18  ar  
 32  16  19  ar  
 33  17  20  1   
 34  17  38  1   
 35  17  39  1   
 36  18  21  ar  
 37  19  22  ar  
 38  20  23  1   
 39  20  40  1   
 40  20  41  1   
 41  21  24  ar  
 42  21  42  1   
 43  22  24  ar  
 44  22  43  1   
 45  23  25  1   
 46  23  44  1   
 47  23  45  1   
 48  24  46  1   
 49  25  47  1   
 50  25  48  1   
 51  25  49  1   
@<TRIPOS>SUBSTRUCTURE
  1 ****   7 GROUP 4 **** **** 0

# MOE 2024.06 (io_trps.svl 2023.06)
