@<TRIPOS>MOLECULE
NONAME
49 52 1 0 0 
SMALL
USER_CHARGES


@<TRIPOS>ATOM
  1 F        0.6140    -1.2630    -1.7140 F     1 <1>  -0.1900 
  2 C       -0.1030    -1.7110    -0.7090 C.ar  1 <1>   0.1900 
  3 C        0.5180    -2.4080     0.3350 C.ar  1 <1>   0.1000 
  4 C       -1.4620    -1.4630    -0.7410 C.ar  1 <1>  -0.1500 
  5 N        1.8880    -2.6870     0.4160 N.pl3 1 <1>  -0.8380 
  6 C       -0.3020    -2.8520     1.3650 C.ar  1 <1>  -0.1500 
  7 C       -2.2510    -1.9200     0.3020 C.ar  1 <1>  -0.1500 
  8 C        2.4330    -3.6030    -0.6250 C.3   1 <1>   0.2090 
  9 C        2.7840    -1.5090     0.6010 C.3   1 <1>   0.2090 
 10 C       -1.6680    -2.6130     1.3520 C.ar  1 <1>  -0.1500 
 11 C        3.8680    -4.0320    -0.2690 C.3   1 <1>   0.1100 
 12 C        4.2260    -1.9520     0.9170 C.3   1 <1>   0.1100 
 13 N        4.7880    -2.8730    -0.1100 N.3   1 <1>  -0.8100 
 14 C        6.1720    -3.3240     0.2260 C.3   1 <1>   0.2510 
 15 C        7.1530    -2.2270     0.6710 C.2   1 <1>   0.5690 
 16 C        6.8420    -3.8680    -1.0440 C.3   1 <1>  -0.0990 
 17 O        7.1260    -1.7180     1.7670 O.2   1 <1>  -0.5700 
 18 N        8.0800    -1.9760    -0.2990 N.am  1 <1>  -0.2370 
 19 C        7.9460    -2.8790    -1.3140 C.2   1 <1>   0.5690 
 20 C        9.0170    -0.9240    -0.2770 C.ar  1 <1>   0.1170 
 21 O        8.6150    -2.9360    -2.3120 O.2   1 <1>  -0.5700 
 22 C       10.1750    -0.9820     0.5020 C.ar  1 <1>  -0.1430 
 23 C        8.7800     0.2030    -1.0550 C.ar  1 <1>  -0.1500 
 24 C       11.0580     0.0860     0.4950 C.ar  1 <1>  -0.1500 
 25 C       10.4920    -2.1970     1.3650 C.3   1 <1>  -0.0970 
 26 C        9.6670     1.2630    -1.0580 C.ar  1 <1>  -0.1500 
 27 C       10.8080     1.2050    -0.2800 C.ar  1 <1>  -0.1500 
 28 H       -1.8910    -0.9240    -1.5650 H     1 <1>   0.1500 
 29 H        0.1460    -3.3880     2.1800 H     1 <1>   0.1500 
 30 H       -3.3120    -1.7380     0.2980 H     1 <1>   0.1500 
 31 H        2.4370    -3.1090    -1.5820 H     1 <1>   0.0800 
 32 H        1.8030    -4.4720    -0.6960 H     1 <1>   0.0800 
 33 H        2.4110    -0.9040     1.4090 H     1 <1>   0.0800 
 34 H        2.7880    -0.9110    -0.2930 H     1 <1>   0.0800 
 35 H       -2.2780    -2.9690     2.1640 H     1 <1>   0.1500 
 36 H        4.2250    -4.6820    -1.0480 H     1 <1>   0.0800 
 37 H        3.8320    -4.5980     0.6470 H     1 <1>   0.0800 
 38 H        4.2370    -2.4270     1.8830 H     1 <1>   0.0800 
 39 H        4.8270    -1.0620     0.9780 H     1 <1>   0.0800 
 40 H        6.1340    -4.0770     0.9940 H     1 <1>   0.0800 
 41 H        6.1810    -3.9050    -1.8900 H     1 <1>   0.0800 
 42 H        7.2750    -4.8350    -0.8670 H     1 <1>   0.0800 
 43 H        7.8940     0.2500    -1.6630 H     1 <1>   0.1500 
 44 H       11.9520     0.0560     1.0940 H     1 <1>   0.1500 
 45 H        9.7940    -2.2590     2.1800 H     1 <1>   0.0800 
 46 H       11.4840    -2.1310     1.7730 H     1 <1>   0.0800 
 47 H       10.4310    -3.0950     0.7780 H     1 <1>   0.0800 
 48 H        9.4720     2.1300    -1.6650 H     1 <1>   0.1500 
 49 H       11.5010     2.0270    -0.2780 H     1 <1>   0.1500 
@<TRIPOS>BOND
  1   1   2  1   
  2   2   3  ar  
  3   2   4  ar  
  4   3   5  1   
  5   3   6  ar  
  6   4   7  ar  
  7   4  28  1   
  8   5   8  1   
  9   5   9  1   
 10   6  10  ar  
 11   6  29  1   
 12   7  10  ar  
 13   7  30  1   
 14   8  11  1   
 15   8  31  1   
 16   8  32  1   
 17   9  12  1   
 18   9  33  1   
 19   9  34  1   
 20  10  35  1   
 21  11  13  1   
 22  11  36  1   
 23  11  37  1   
 24  12  13  1   
 25  12  38  1   
 26  12  39  1   
 27  13  14  1   
 28  14  15  1   
 29  14  16  1   
 30  14  40  1   
 31  15  17  2   
 32  15  18  am  
 33  16  19  1   
 34  16  41  1   
 35  16  42  1   
 36  18  19  am  
 37  18  20  1   
 38  19  21  2   
 39  20  22  ar  
 40  20  23  ar  
 41  22  24  ar  
 42  22  25  1   
 43  23  26  ar  
 44  23  43  1   
 45  24  27  ar  
 46  24  44  1   
 47  25  45  1   
 48  25  46  1   
 49  25  47  1   
 50  26  27  ar  
 51  26  48  1   
 52  27  49  1   
@<TRIPOS>SUBSTRUCTURE
  1 ****  13 GROUP 4 **** **** 0

# MOE 2024.06 (io_trps.svl 2023.06)
