@<TRIPOS>MOLECULE
NONAME
50 52 1 0 0 
SMALL
USER_CHARGES


@<TRIPOS>ATOM
  1 O        1.6260    -2.6520     1.9750 O.2   1 <1>  -0.5700 
  2 C        1.2090    -2.5260     0.8520 C.2   1 <1>   0.5690 
  3 N        1.8170    -1.7810    -0.1170 N.am  1 <1>  -0.5470 
  4 C       -0.0610    -3.2470     0.4730 C.3   1 <1>  -0.1790 
  5 C        2.9740    -0.9910    -0.0700 C.ar  1 <1>   0.1170 
  6 C        3.6630    -0.7400    -1.2500 C.ar  1 <1>  -0.1500 
  7 C        3.4600    -0.4320     1.1070 C.ar  1 <1>  -0.1500 
  8 C        4.8100     0.0330    -1.2540 C.ar  1 <1>  -0.1500 
  9 C        4.6060     0.3420     1.1070 C.ar  1 <1>  -0.1500 
 10 C        5.2940     0.5750    -0.0740 C.ar  1 <1>  -0.1430 
 11 C        6.5710     1.4010    -0.0760 C.3   1 <1>   0.2530 
 12 N        7.7300     0.5540    -0.4270 N.3   1 <1>  -0.8100 
 13 C        8.9810     1.3490    -0.5200 C.3   1 <1>   0.1100 
 14 C        7.9000    -0.5820     0.5190 C.3   1 <1>   0.1100 
 15 C       10.2140     0.4880    -0.9230 C.3   1 <1>   0.5660 
 16 C        9.1410    -1.4500     0.2000 C.3   1 <1>   0.3430 
 17 N        9.8490    -0.9680    -1.0290 N.4   1 <1>  -0.9590 
 18 C       11.4170     0.6790     0.0030 C.ar  1 <1>  -0.1430 
 19 C       10.9920    -1.8470    -1.4130 C.3   1 <1>   0.2630 
 20 C       11.3150     0.6530     1.3900 C.ar  1 <1>  -0.1500 
 21 C       12.6660     0.8840    -0.5710 C.ar  1 <1>  -0.1500 
 22 C       12.4380     0.8160     2.1820 C.ar  1 <1>  -0.1500 
 23 C       13.7880     1.0470     0.2220 C.ar  1 <1>  -0.1500 
 24 C       13.6750     1.0120     1.5990 C.ar  1 <1>  -0.1500 
 25 H        1.3830    -1.8370    -1.0350 H     1 <1>   0.3700 
 26 H        0.1460    -3.9690    -0.2940 H     1 <1>   0.0800 
 27 H       -0.7900    -2.5420     0.1210 H     1 <1>   0.0800 
 28 H       -0.4580    -3.7560     1.3320 H     1 <1>   0.0800 
 29 H        3.3050    -1.1540    -2.1740 H     1 <1>   0.1500 
 30 H        2.9390    -0.5980     2.0330 H     1 <1>   0.1500 
 31 H        5.3340     0.2090    -2.1770 H     1 <1>   0.1500 
 32 H        4.9550     0.7580     2.0360 H     1 <1>   0.1500 
 33 H        6.7210     1.8520     0.8910 H     1 <1>   0.0800 
 34 H        6.4690     2.1910    -0.8010 H     1 <1>   0.0800 
 35 H        9.1670     1.8460     0.4170 H     1 <1>   0.0800 
 36 H        8.8570     2.1210    -1.2600 H     1 <1>   0.0800 
 37 H        7.0310    -1.2180     0.4790 H     1 <1>   0.0800 
 38 H        7.9760    -0.2130     1.5280 H     1 <1>   0.0800 
 39 H       10.5170     0.8250    -1.9000 H     1 <1>   0.0800 
 40 H        8.8200    -2.4700     0.0610 H     1 <1>   0.0800 
 41 H        9.8130    -1.4360     1.0420 H     1 <1>   0.0800 
 42 H        9.1130    -0.9750    -1.7510 H     1 <1>   0.4500 
 43 H       11.7500    -1.8300    -0.6450 H     1 <1>   0.0800 
 44 H       11.4330    -1.5070    -2.3370 H     1 <1>   0.0800 
 45 H       10.6560    -2.8620    -1.5450 H     1 <1>   0.0800 
 46 H       10.3690     0.5130     1.8810 H     1 <1>   0.1500 
 47 H       12.7860     0.9220    -1.6400 H     1 <1>   0.1500 
 48 H       12.3530     0.7960     3.2560 H     1 <1>   0.1500 
 49 H       14.7540     1.2060    -0.2300 H     1 <1>   0.1500 
 50 H       14.5490     1.1400     2.2160 H     1 <1>   0.1500 
@<TRIPOS>BOND
  1   1   2  2   
  2   2   3  am  
  3   2   4  1   
  4   3   5  1   
  5   3  25  1   
  6   4  26  1   
  7   4  27  1   
  8   4  28  1   
  9   5   6  ar  
 10   5   7  ar  
 11   6   8  ar  
 12   6  29  1   
 13   7   9  ar  
 14   7  30  1   
 15   8  10  ar  
 16   8  31  1   
 17   9  10  ar  
 18   9  32  1   
 19  10  11  1   
 20  11  12  1   
 21  11  33  1   
 22  11  34  1   
 23  12  13  1   
 24  12  14  1   
 25  13  15  1   
 26  13  35  1   
 27  13  36  1   
 28  14  16  1   
 29  14  37  1   
 30  14  38  1   
 31  15  17  1   
 32  15  18  1   
 33  15  39  1   
 34  16  17  1   
 35  16  40  1   
 36  16  41  1   
 37  17  19  1   
 38  17  42  1   
 39  18  20  ar  
 40  18  21  ar  
 41  19  43  1   
 42  19  44  1   
 43  19  45  1   
 44  20  22  ar  
 45  20  46  1   
 46  21  23  ar  
 47  21  47  1   
 48  22  24  ar  
 49  22  48  1   
 50  23  24  ar  
 51  23  49  1   
 52  24  50  1   
@<TRIPOS>SUBSTRUCTURE
  1 ****  14 GROUP 4 **** **** 0

# MOE 2024.06 (io_trps.svl 2023.06)
