@<TRIPOS>MOLECULE
NONAME
45 46 1 0 0 
SMALL
USER_CHARGES


@<TRIPOS>ATOM
  1 S       -0.0010     0.0740     0.8410 S.o2  1 <1>   1.4470 
  2 O       -0.4380     0.0980     2.2190 O.2   1 <1>  -0.6500 
  3 O       -0.0780    -1.1460     0.0720 O.2   1 <1>  -0.6500 
  4 N       -0.9920     1.1290    -0.0050 N.am  1 <1>  -0.9140 
  5 C        1.6350     0.8360     0.6870 C.ar  1 <1>  -0.0090 
  6 C       -2.3920     0.9870     0.3460 C.3   1 <1>   0.1960 
  7 C        1.8850     2.1010     1.2060 C.ar  1 <1>  -0.1500 
  8 C        2.6830     0.1860     0.0450 C.ar  1 <1>  -0.1500 
  9 C       -3.2200     1.8800    -0.5770 C.3   1 <1>  -0.1600 
 10 C        3.1290     2.6940     1.0900 C.ar  1 <1>  -0.1500 
 11 C        3.9290     0.7760    -0.0750 C.ar  1 <1>  -0.1500 
 12 C       -4.7150     1.7860    -0.2510 C.3   1 <1>  -0.2400 
 13 C        4.1740     2.0400     0.4490 C.ar  1 <1>   0.1170 
 14 N        5.4130     2.6820     0.3420 N.am  1 <1>  -0.5470 
 15 C        6.6760     2.1890     0.1730 C.2   1 <1>   0.6900 
 16 O        6.8960     0.9940     0.2330 O.2   1 <1>  -0.5700 
 17 N        7.7020     3.0750    -0.0350 N.am  1 <1>  -0.6600 
 18 C        7.5400     4.4280    -0.6360 C.3   1 <1>   0.1400 
 19 C        9.1200     2.6620     0.1550 C.3   1 <1>   0.1400 
 20 C        8.2280     5.4690     0.2530 C.3   1 <1>  -0.1600 
 21 C        9.8390     3.6890     1.0390 C.3   1 <1>  -0.1600 
 22 C        9.7050     5.1150     0.4850 C.3   1 <1>  -0.1600 
 23 H       -0.8990     0.8150    -0.9690 H     1 <1>   0.4200 
 24 H       -2.5410     1.2860     1.3720 H     1 <1>   0.0800 
 25 H       -2.6980    -0.0420     0.2390 H     1 <1>   0.0800 
 26 H        1.0890     2.6250     1.7090 H     1 <1>   0.1500 
 27 H        2.5260    -0.7970    -0.3680 H     1 <1>   0.1500 
 28 H       -3.0660     1.5850    -1.6000 H     1 <1>   0.0800 
 29 H       -2.8990     2.9010    -0.4610 H     1 <1>   0.0800 
 30 H        3.2890     3.6720     1.5060 H     1 <1>   0.1500 
 31 H        4.7160     0.2460    -0.5810 H     1 <1>   0.1500 
 32 H       -5.0660     0.7760    -0.3740 H     1 <1>   0.0800 
 33 H       -5.2760     2.4250    -0.9100 H     1 <1>   0.0800 
 34 H       -4.9000     2.0960     0.7630 H     1 <1>   0.0800 
 35 H        5.4210     3.6720     0.5550 H     1 <1>   0.3700 
 36 H        6.5020     4.6780    -0.7620 H     1 <1>   0.0800 
 37 H        7.9980     4.4280    -1.6110 H     1 <1>   0.0800 
 38 H        9.5990     2.6000    -0.8060 H     1 <1>   0.0800 
 39 H        9.1730     1.6920     0.6200 H     1 <1>   0.0800 
 40 H        7.7150     5.5190     1.1980 H     1 <1>   0.0800 
 41 H        8.1590     6.4360    -0.2110 H     1 <1>   0.0800 
 42 H       10.8790     3.4250     1.1120 H     1 <1>   0.0800 
 43 H        9.4200     3.6420     2.0290 H     1 <1>   0.0800 
 44 H       10.1440     5.8160     1.1750 H     1 <1>   0.0800 
 45 H       10.2400     5.1860    -0.4470 H     1 <1>   0.0800 
@<TRIPOS>BOND
  1   1   2  2   
  2   1   3  2   
  3   1   4  am  
  4   1   5  1   
  5   4   6  1   
  6   4  23  1   
  7   5   7  ar  
  8   5   8  ar  
  9   6   9  1   
 10   6  24  1   
 11   6  25  1   
 12   7  10  ar  
 13   7  26  1   
 14   8  11  ar  
 15   8  27  1   
 16   9  12  1   
 17   9  28  1   
 18   9  29  1   
 19  10  13  ar  
 20  10  30  1   
 21  11  13  ar  
 22  11  31  1   
 23  12  32  1   
 24  12  33  1   
 25  12  34  1   
 26  13  14  1   
 27  14  15  am  
 28  14  35  1   
 29  15  16  2   
 30  15  17  am  
 31  17  18  1   
 32  17  19  1   
 33  18  20  1   
 34  18  36  1   
 35  18  37  1   
 36  19  21  1   
 37  19  38  1   
 38  19  39  1   
 39  20  22  1   
 40  20  40  1   
 41  20  41  1   
 42  21  22  1   
 43  21  42  1   
 44  21  43  1   
 45  22  44  1   
 46  22  45  1   
@<TRIPOS>SUBSTRUCTURE
  1 ****  13 GROUP 4 **** **** 0

# MOE 2024.06 (io_trps.svl 2023.06)
