@<TRIPOS>MOLECULE
NONAME
55 58 1 0 0 
SMALL
USER_CHARGES


@<TRIPOS>ATOM
  1 S        0.2540     2.5630    -1.9060 S.3   1 <1>  -0.3610 
  2 C        1.4150     2.1210    -0.6640 C.cat 1 <1>   0.8400 
  3 C       -1.1040     3.5950    -1.1520 C.3   1 <1>   0.2110 
  4 N        2.5620     1.7100    -1.1650 N.pl3 1 <1>  -0.6530 
  5 N        1.0690     2.2200     0.6000 N.pl3 1 <1>  -0.7940 
  6 C       -2.0380     2.7510    -0.3050 C.2   1 <1>   0.5690 
  7 C       -2.0030     4.1130    -2.2780 C.3   1 <1>  -0.0990 
  8 C        3.6900     1.1740    -0.5350 C.ar  1 <1>   0.3490 
  9 C        1.8560     2.0400     1.8360 C.3   1 <1>   0.3290 
 10 O       -1.6720     2.2730     0.7420 O.2   1 <1>  -0.5700 
 11 N       -3.2760     2.6530    -0.8750 N.am  1 <1>  -0.2370 
 12 C       -3.3130     3.4080    -2.0200 C.2   1 <1>   0.5690 
 13 C        3.6140    -0.0680     0.0870 C.ar  1 <1>  -0.1500 
 14 C        4.8890     1.8890    -0.5260 C.ar  1 <1>  -0.1500 
 15 C        1.2470     2.9270     2.9120 C.3   1 <1>  -0.2400 
 16 C       -4.3610     1.9150    -0.3450 C.ar  1 <1>   0.1170 
 17 O       -4.2500     3.5410    -2.7610 O.2   1 <1>  -0.5700 
 18 C        4.7410    -0.5450     0.7200 C.ar  1 <1>   0.0820 
 19 C        6.0160     1.3870     0.1130 C.ar  1 <1>  -0.1500 
 20 C       -4.1870     0.6050     0.0900 C.ar  1 <1>  -0.1500 
 21 C       -5.6270     2.4830    -0.2430 C.ar  1 <1>  -0.1500 
 22 O        4.8860    -1.6930     1.3870 O.3   1 <1>  -0.3620 
 23 C        5.9090     0.1590     0.7340 C.ar  1 <1>   0.0820 
 24 C       -5.2470    -0.1130     0.6130 C.ar  1 <1>  -0.1500 
 25 C       -6.6910     1.7680     0.2790 C.ar  1 <1>  -0.1500 
 26 C        6.2410    -1.7370     1.8380 C.3   1 <1>   0.4000 
 27 O        6.8440    -0.5160     1.4090 O.3   1 <1>  -0.3620 
 28 C       -6.5040     0.4590     0.7120 C.ar  1 <1>   0.0820 
 29 O       -7.4890    -0.3160     1.2360 O.3   1 <1>  -0.3620 
 30 C       -8.8090     0.1620     1.3470 C.3   1 <1>   0.1200 
 31 C       -9.6630    -0.9490     1.9500 C.3   1 <1>  -0.2400 
 32 H       -0.6530     4.3910    -0.5860 H     1 <1>   0.0800 
 33 H        2.6270     1.7410    -2.1840 H     1 <1>   0.4500 
 34 H        0.0750     2.3690     0.8300 H     1 <1>   0.4500 
 35 H       -1.6350     3.8670    -3.2580 H     1 <1>   0.0800 
 36 H       -2.1520     5.1750    -2.2000 H     1 <1>   0.0800 
 37 H        2.8840     2.3200     1.6800 H     1 <1>   0.0800 
 38 H        1.8140     1.0080     2.1480 H     1 <1>   0.0800 
 39 H        2.7110    -0.6510     0.0820 H     1 <1>   0.1500 
 40 H        4.9460     2.8450    -1.0160 H     1 <1>   0.1500 
 41 H        1.2890     3.9620     2.6210 H     1 <1>   0.0800 
 42 H        1.8030     2.8140     3.8260 H     1 <1>   0.0800 
 43 H        0.2260     2.6460     3.1060 H     1 <1>   0.0800 
 44 H        6.9500     1.9230     0.1320 H     1 <1>   0.1500 
 45 H       -3.2210     0.1370     0.0250 H     1 <1>   0.1500 
 46 H       -5.7900     3.4910    -0.5800 H     1 <1>   0.1500 
 47 H       -5.1090    -1.1250     0.9500 H     1 <1>   0.1500 
 48 H       -7.6510     2.2440     0.3370 H     1 <1>   0.1500 
 49 H        6.7480    -2.5700     1.3820 H     1 <1>   0.0800 
 50 H        6.2650    -1.7960     2.9120 H     1 <1>   0.0800 
 51 H       -9.1620     0.4210     0.3630 H     1 <1>   0.0800 
 52 H       -8.8060     1.0280     1.9860 H     1 <1>   0.0800 
 53 H       -9.6450    -1.8150     1.3120 H     1 <1>   0.0800 
 54 H      -10.6790    -0.6150     2.0480 H     1 <1>   0.0800 
 55 H       -9.2910    -1.2130     2.9240 H     1 <1>   0.0800 
@<TRIPOS>BOND
  1   1   2  1   
  2   1   3  1   
  3   2   4  ar  
  4   2   5  ar  
  5   3   6  1   
  6   3   7  1   
  7   3  32  1   
  8   4   8  1   
  9   4  33  1   
 10   5   9  1   
 11   5  34  1   
 12   6  10  2   
 13   6  11  am  
 14   7  12  1   
 15   7  35  1   
 16   7  36  1   
 17   8  13  ar  
 18   8  14  ar  
 19   9  15  1   
 20   9  37  1   
 21   9  38  1   
 22  11  12  am  
 23  11  16  1   
 24  12  17  2   
 25  13  18  ar  
 26  13  39  1   
 27  14  19  ar  
 28  14  40  1   
 29  15  41  1   
 30  15  42  1   
 31  15  43  1   
 32  16  20  ar  
 33  16  21  ar  
 34  18  22  1   
 35  18  23  ar  
 36  19  23  ar  
 37  19  44  1   
 38  20  24  ar  
 39  20  45  1   
 40  21  25  ar  
 41  21  46  1   
 42  22  26  1   
 43  23  27  1   
 44  24  28  ar  
 45  24  47  1   
 46  25  28  ar  
 47  25  48  1   
 48  26  27  1   
 49  26  49  1   
 50  26  50  1   
 51  28  29  1   
 52  29  30  1   
 53  30  31  1   
 54  30  51  1   
 55  30  52  1   
 56  31  53  1   
 57  31  54  1   
 58  31  55  1   
@<TRIPOS>SUBSTRUCTURE
  1 ****  10 GROUP 4 **** **** 0

# MOE 2024.06 (io_trps.svl 2023.06)
