@<TRIPOS>MOLECULE
NONAME
45 47 1 0 0 
SMALL
USER_CHARGES


@<TRIPOS>ATOM
  1 F       -2.1890     1.0030    -1.1760 F     1 <1>  -0.3400 
  2 C       -3.2100     0.8640    -0.3400 C.3   1 <1>   1.2000 
  3 F       -4.1530     1.7030    -0.7600 F     1 <1>  -0.3400 
  4 F       -2.8040     1.3350     0.8330 F     1 <1>  -0.3400 
  5 C       -3.7570    -0.5770    -0.2250 C.2   1 <1>   0.0060 
  6 N       -3.3520    -1.6010    -0.9130 N.2   1 <1>  -0.5650 
  7 N       -4.7710    -0.8860     0.6430 N.pl3 1 <1>   0.0480 
  8 C       -4.1160    -2.6390    -0.4900 C.ar  1 <1>   0.2270 
  9 C       -5.0080    -2.2160     0.4750 C.ar  1 <1>  -0.1520 
 10 C       -5.6800     0.0200     1.3890 C.3   1 <1>   0.1570 
 11 C       -4.1090    -3.9680    -0.9070 C.ar  1 <1>  -0.1500 
 12 C       -5.9180    -3.1090     1.0510 C.ar  1 <1>  -0.1500 
 13 C       -6.8160     0.5070     0.4980 C.2   1 <1>   0.5690 
 14 C       -5.0040    -4.8530    -0.3460 C.ar  1 <1>  -0.1500 
 15 C       -5.9070    -4.4210     0.6330 C.ar  1 <1>  -0.1500 
 16 O       -7.3970     1.5120     0.8230 O.2   1 <1>  -0.5700 
 17 N       -7.1660    -0.1840    -0.6290 N.am  1 <1>  -0.7300 
 18 C       -7.9830     0.2520    -1.8140 C.3   1 <1>   0.1400 
 19 C       -9.0250     1.3690    -1.5670 C.3   1 <1>   0.3430 
 20 N       -9.8540     1.1260    -0.3500 N.4   1 <1>  -0.9590 
 21 C      -10.6490    -0.1480    -0.3350 C.3   1 <1>   0.3430 
 22 C      -10.6700     2.3040     0.0740 C.3   1 <1>   0.3430 
 23 C      -11.6010    -0.2190     0.8800 C.3   1 <1>   0.1200 
 24 C      -11.3330     2.0530     1.4510 C.3   1 <1>   0.1200 
 25 O      -11.2280     0.7120     1.8570 O.3   1 <1>  -0.5600 
 26 H       -5.1310     0.8640     1.7600 H     1 <1>   0.0800 
 27 H       -6.0900    -0.5050     2.2300 H     1 <1>   0.0800 
 28 H       -3.4030    -4.2710    -1.6580 H     1 <1>   0.1500 
 29 H       -6.6080    -2.7860     1.8100 H     1 <1>   0.1500 
 30 H       -5.0120    -5.8840    -0.6540 H     1 <1>   0.1500 
 31 H       -6.5910    -5.1360     1.0600 H     1 <1>   0.1500 
 32 H       -6.6240    -1.0420    -0.8180 H     1 <1>   0.3700 
 33 H       -8.4950    -0.6090    -2.2070 H     1 <1>   0.0800 
 34 H       -7.3070     0.5870    -2.5830 H     1 <1>   0.0800 
 35 H       -9.6590     1.4660    -2.4330 H     1 <1>   0.0800 
 36 H       -8.4900     2.2970    -1.4450 H     1 <1>   0.0800 
 37 H       -9.1540     1.0320     0.4160 H     1 <1>   0.4500 
 38 H       -9.9760    -0.9880    -0.2970 H     1 <1>   0.0800 
 39 H      -11.2310    -0.2360    -1.2380 H     1 <1>   0.0800 
 40 H      -11.4390     2.4990    -0.6550 H     1 <1>   0.0800 
 41 H      -10.0490     3.1820     0.1400 H     1 <1>   0.0800 
 42 H      -11.5700    -1.1990     1.3220 H     1 <1>   0.0800 
 43 H      -12.6160    -0.0150     0.5830 H     1 <1>   0.0800 
 44 H      -12.3750     2.3230     1.4230 H     1 <1>   0.0800 
 45 H      -10.8530     2.6550     2.2030 H     1 <1>   0.0800 
@<TRIPOS>BOND
  1   1   2  1   
  2   2   3  1   
  3   2   4  1   
  4   2   5  1   
  5   5   6  2   
  6   5   7  1   
  7   6   8  1   
  8   7   9  1   
  9   7  10  1   
 10   8   9  ar  
 11   8  11  ar  
 12   9  12  ar  
 13  10  13  1   
 14  10  26  1   
 15  10  27  1   
 16  11  14  ar  
 17  11  28  1   
 18  12  15  ar  
 19  12  29  1   
 20  13  16  2   
 21  13  17  am  
 22  14  15  ar  
 23  14  30  1   
 24  15  31  1   
 25  17  18  1   
 26  17  32  1   
 27  18  19  1   
 28  18  33  1   
 29  18  34  1   
 30  19  20  1   
 31  19  35  1   
 32  19  36  1   
 33  20  21  1   
 34  20  22  1   
 35  20  37  1   
 36  21  23  1   
 37  21  38  1   
 38  21  39  1   
 39  22  24  1   
 40  22  40  1   
 41  22  41  1   
 42  23  25  1   
 43  23  42  1   
 44  23  43  1   
 45  24  25  1   
 46  24  44  1   
 47  24  45  1   
@<TRIPOS>SUBSTRUCTURE
  1 ****  17 GROUP 4 **** **** 0

# MOE 2024.06 (io_trps.svl 2023.06)
