@<TRIPOS>MOLECULE
NONAME
48 49 1 0 0 
SMALL
USER_CHARGES


@<TRIPOS>ATOM
  1 O       -6.8810    -2.0020     0.1200 O.3   1 <1>  -0.3630 
  2 C       -8.2310    -1.9210     0.0050 C.ar  1 <1>   0.0830 
  3 C       -6.2410    -3.2280     0.4030 C.3   1 <1>   0.1200 
  4 C       -9.0850    -3.0170     0.0980 C.ar  1 <1>  -0.1500 
  5 C       -8.7610    -0.6600    -0.2160 C.ar  1 <1>  -0.1500 
  6 C       -4.7310    -2.9740     0.4870 C.3   1 <1>   0.2000 
  7 C      -10.4530    -2.8460    -0.0290 C.ar  1 <1>  -0.1440 
  8 C      -10.1270    -0.4810    -0.3440 C.ar  1 <1>  -0.1440 
  9 O       -4.3190    -2.2980    -0.6640 O.3   1 <1>  -0.6800 
 10 C       -3.9130    -4.2770     0.6220 C.3   1 <1>   0.3430 
 11 C      -10.9680    -1.5780    -0.2480 C.ar  1 <1>  -0.1500 
 12 C      -11.3950    -4.0340     0.0720 C.3   1 <1>  -0.0970 
 13 C      -10.7100     0.9000    -0.5840 C.3   1 <1>  -0.0970 
 14 N       -2.5090    -4.0630     0.1540 N.4   1 <1>  -0.9590 
 15 C       -1.8760    -5.3060    -0.3650 C.3   1 <1>   0.3430 
 16 C       -1.6650    -3.3580     1.1600 C.3   1 <1>   0.3430 
 17 C       -0.5310    -4.9690    -1.0080 C.3   1 <1>  -0.1600 
 18 C       -0.3170    -2.9960     0.5360 C.3   1 <1>  -0.1600 
 19 C        0.3970    -4.2310    -0.0320 C.3   1 <1>  -0.0800 
 20 C        1.7010    -3.8270    -0.7280 C.3   1 <1>  -0.2400 
 21 H       -6.4690    -3.9200    -0.3890 H     1 <1>   0.0800 
 22 H       -6.6200    -3.6000     1.3390 H     1 <1>   0.0800 
 23 H       -8.7070    -4.0060     0.2690 H     1 <1>   0.1500 
 24 H       -8.0950     0.1800    -0.2850 H     1 <1>   0.1500 
 25 H       -4.5330    -2.3340     1.3300 H     1 <1>   0.0800 
 26 H       -4.9970    -1.6130    -0.8780 H     1 <1>   0.4000 
 27 H       -4.3810    -5.0250     0.0030 H     1 <1>   0.0800 
 28 H       -3.9310    -4.6300     1.6390 H     1 <1>   0.0800 
 29 H      -12.0310    -1.4430    -0.3440 H     1 <1>   0.1500 
 30 H      -10.8800    -4.9500    -0.1550 H     1 <1>   0.0800 
 31 H      -12.2090    -3.9230    -0.6210 H     1 <1>   0.0800 
 32 H      -11.7940    -4.0970     1.0680 H     1 <1>   0.0800 
 33 H       -9.9430     1.5920    -0.8820 H     1 <1>   0.0800 
 34 H      -11.1710     1.2610     0.3170 H     1 <1>   0.0800 
 35 H      -11.4500     0.8580    -1.3620 H     1 <1>   0.0800 
 36 H       -2.6260    -3.4010    -0.6390 H     1 <1>   0.4500 
 37 H       -2.5170    -5.7680    -1.1000 H     1 <1>   0.0800 
 38 H       -1.7240    -6.0030     0.4430 H     1 <1>   0.0800 
 39 H       -1.5060    -3.9950     2.0150 H     1 <1>   0.0800 
 40 H       -2.1570    -2.4570     1.4890 H     1 <1>   0.0800 
 41 H       -0.7000    -4.3710    -1.8860 H     1 <1>   0.0800 
 42 H       -0.0600    -5.8830    -1.3270 H     1 <1>   0.0800 
 43 H        0.3020    -2.5390     1.2880 H     1 <1>   0.0800 
 44 H       -0.4730    -2.2660    -0.2390 H     1 <1>   0.0800 
 45 H        0.6420    -4.8940     0.7820 H     1 <1>   0.0800 
 46 H        1.5090    -3.1620    -1.5520 H     1 <1>   0.0800 
 47 H        2.2100    -4.6970    -1.1050 H     1 <1>   0.0800 
 48 H        2.3590    -3.3310    -0.0350 H     1 <1>   0.0800 
@<TRIPOS>BOND
  1   1   2  1   
  2   1   3  1   
  3   2   4  ar  
  4   2   5  ar  
  5   3   6  1   
  6   3  21  1   
  7   3  22  1   
  8   4   7  ar  
  9   4  23  1   
 10   5   8  ar  
 11   5  24  1   
 12   6   9  1   
 13   6  10  1   
 14   6  25  1   
 15   7  11  ar  
 16   7  12  1   
 17   8  11  ar  
 18   8  13  1   
 19   9  26  1   
 20  10  14  1   
 21  10  27  1   
 22  10  28  1   
 23  11  29  1   
 24  12  30  1   
 25  12  31  1   
 26  12  32  1   
 27  13  33  1   
 28  13  34  1   
 29  13  35  1   
 30  14  15  1   
 31  14  16  1   
 32  14  36  1   
 33  15  17  1   
 34  15  37  1   
 35  15  38  1   
 36  16  18  1   
 37  16  39  1   
 38  16  40  1   
 39  17  19  1   
 40  17  41  1   
 41  17  42  1   
 42  18  19  1   
 43  18  43  1   
 44  18  44  1   
 45  19  20  1   
 46  19  45  1   
 47  20  46  1   
 48  20  47  1   
 49  20  48  1   
@<TRIPOS>SUBSTRUCTURE
  1 ****   3 GROUP 4 **** **** 0

# MOE 2024.06 (io_trps.svl 2023.06)
