@<TRIPOS>MOLECULE
NONAME
35 39 1 0 0 
SMALL
USER_CHARGES


@<TRIPOS>ATOM
  1 BR      -0.3500     1.1330     2.3180 Br    1 <1>  -0.1110 
  2 C        1.0960     1.5840     1.1200 C.ar  1 <1>   0.1110 
  3 C        0.9150     2.5910     0.1770 C.ar  1 <1>   0.1170 
  4 C        2.2770     0.8770     1.2410 C.ar  1 <1>  -0.1500 
  5 N       -0.2950     3.2990     0.0730 N.am  1 <1>  -0.2370 
  6 C        1.9800     2.8770    -0.6690 C.ar  1 <1>  -0.1500 
  7 C        3.3240     1.1810     0.3880 C.ar  1 <1>  -0.1500 
  8 C       -1.3270     2.9940    -0.7950 C.2   1 <1>   0.5690 
  9 C       -0.6940     4.3170     0.9190 C.2   1 <1>   0.5690 
 10 C        3.1730     2.1780    -0.5640 C.ar  1 <1>  -0.1500 
 11 O       -1.4130     2.0530    -1.5400 O.2   1 <1>  -0.5700 
 12 C       -2.3340     4.1040    -0.6960 C.3   1 <1>  -0.0190 
 13 O       -0.0070     4.9860     1.6460 O.2   1 <1>  -0.5700 
 14 C       -2.1850     4.4360     0.7970 C.3   1 <1>  -0.0190 
 15 C       -3.8230     4.2700    -1.1190 C.3   1 <1>   0.1530 
 16 C       -3.2400     5.5050     1.1830 C.3   1 <1>   0.1530 
 17 C       -4.7560     3.9630     0.0620 C.2   1 <1>  -0.2880 
 18 C       -3.9140     5.8220    -1.2820 C.3   1 <1>  -0.1950 
 19 C       -4.4940     4.6180     1.2050 C.2   1 <1>  -0.2880 
 20 C       -3.4630     6.5030     0.0030 C.3   1 <1>  -0.1950 
 21 C       -4.8010     6.8280    -0.5940 C.3   1 <1>  -0.2000 
 22 H        2.3750     0.1060     1.9850 H     1 <1>   0.1500 
 23 H        1.8770     3.6470    -1.4120 H     1 <1>   0.1500 
 24 H        4.2550     0.6430     0.4630 H     1 <1>   0.1500 
 25 H        3.9900     2.4110    -1.2270 H     1 <1>   0.1500 
 26 H       -1.8100     4.8600    -1.2590 H     1 <1>   0.0800 
 27 H       -2.4770     3.5650     1.3650 H     1 <1>   0.0800 
 28 H       -4.0790     3.7450    -2.0230 H     1 <1>   0.0800 
 29 H       -3.0520     5.9770     2.1330 H     1 <1>   0.0800 
 30 H       -5.5640     3.2760    -0.1230 H     1 <1>   0.1500 
 31 H       -3.4870     6.1550    -2.2130 H     1 <1>   0.1000 
 32 H       -5.0490     4.5730     2.1270 H     1 <1>   0.1500 
 33 H       -2.6800     7.2380    -0.0760 H     1 <1>   0.1000 
 34 H       -5.7110     6.4970    -0.1260 H     1 <1>   0.1000 
 35 H       -4.9280     7.7920    -1.0550 H     1 <1>   0.1000 
@<TRIPOS>BOND
  1   1   2  1   
  2   2   3  ar  
  3   2   4  ar  
  4   3   5  1   
  5   3   6  ar  
  6   4   7  ar  
  7   4  22  1   
  8   5   8  am  
  9   5   9  am  
 10   6  10  ar  
 11   6  23  1   
 12   7  10  ar  
 13   7  24  1   
 14   8  11  2   
 15   8  12  1   
 16   9  13  2   
 17   9  14  1   
 18  10  25  1   
 19  12  14  1   
 20  12  15  1   
 21  12  26  1   
 22  14  16  1   
 23  14  27  1   
 24  15  17  1   
 25  15  18  1   
 26  15  28  1   
 27  16  19  1   
 28  16  20  1   
 29  16  29  1   
 30  17  19  2   
 31  17  30  1   
 32  18  20  1   
 33  18  21  1   
 34  18  31  1   
 35  19  32  1   
 36  20  21  1   
 37  20  33  1   
 38  21  34  1   
 39  21  35  1   
@<TRIPOS>SUBSTRUCTURE
  1 ****   5 GROUP 4 **** **** 0

# MOE 2024.06 (io_trps.svl 2023.06)
