@<TRIPOS>MOLECULE
NONAME
50 53 1 0 0 
SMALL
USER_CHARGES


@<TRIPOS>ATOM
  1 F       -0.7600    -4.5570     2.9530 F     1 <1>  -0.3400 
  2 C        0.0440    -3.6080     2.4910 C.3   1 <1>   1.1580 
  3 F       -0.6740    -2.4980     2.3860 F     1 <1>  -0.3400 
  4 F        0.9190    -3.3770     3.4630 F     1 <1>  -0.3400 
  5 C        0.7470    -3.9910     1.2080 C.2   1 <1>  -0.1690 
  6 N       -0.0740    -4.2660     0.1420 N.pl3 1 <1>   0.6010 
  7 C        2.0920    -4.0860     1.0130 C.2   1 <1>  -0.1360 
  8 N       -1.4140    -4.2480     0.0650 N.2   1 <1>  -0.7070 
  9 C        0.4930    -4.6170    -1.0570 C.2   1 <1>  -0.0260 
 10 C        2.6340    -4.4670    -0.2580 C.2   1 <1>   0.3490 
 11 C       -1.7090    -4.5890    -1.1860 C.2   1 <1>   0.2030 
 12 N        1.8460    -4.7180    -1.2650 N.2   1 <1>  -0.5760 
 13 C       -0.5390    -4.8210    -1.9080 C.2   1 <1>  -0.1500 
 14 C        4.0720    -4.5580    -0.4160 C.ar  1 <1>   0.0860 
 15 C       -3.0410    -4.6970    -1.7860 C.2   1 <1>   0.7160 
 16 C        4.8860    -5.1480     0.5520 C.ar  1 <1>  -0.1500 
 17 C        4.6980    -4.0530    -1.5550 C.ar  1 <1>  -0.1500 
 18 O       -3.1440    -4.6040    -3.0000 O.2   1 <1>  -0.5700 
 19 N       -4.2040    -4.9010    -1.0600 N.am  1 <1>  -0.6600 
 20 C        6.2590    -5.2130     0.3970 C.ar  1 <1>  -0.1500 
 21 C        6.0700    -4.1160    -1.7140 C.ar  1 <1>  -0.1500 
 22 C       -4.2510    -5.4260     0.3310 C.3   1 <1>   0.1400 
 23 C       -5.5380    -4.5140    -1.5920 C.3   1 <1>   0.1400 
 24 C        6.8600    -4.6950    -0.7370 C.ar  1 <1>  -0.1430 
 25 C       -4.8180    -4.3470     1.2560 C.3   1 <1>  -0.1600 
 26 C       -6.1460    -3.4340    -0.6880 C.3   1 <1>  -0.1600 
 27 C        8.3670    -4.7630    -0.9080 C.3   1 <1>  -0.0970 
 28 C       -6.2050    -3.8810     0.7830 C.3   1 <1>  -0.0800 
 29 C       -6.7250    -2.7460     1.6720 C.3   1 <1>  -0.2400 
 30 H        2.7940    -3.8730     1.8000 H     1 <1>   0.1500 
 31 H       -0.4820    -5.1040    -2.9430 H     1 <1>   0.1500 
 32 H        4.4440    -5.5710     1.4360 H     1 <1>   0.1500 
 33 H        4.0940    -3.6050    -2.3260 H     1 <1>   0.1500 
 34 H        6.8600    -5.6710     1.1630 H     1 <1>   0.1500 
 35 H        6.5200    -3.7120    -2.6050 H     1 <1>   0.1500 
 36 H       -3.2790    -5.7380     0.6680 H     1 <1>   0.0800 
 37 H       -4.8910    -6.2910     0.3530 H     1 <1>   0.0800 
 38 H       -6.1740    -5.3810    -1.6140 H     1 <1>   0.0800 
 39 H       -5.4550    -4.1350    -2.5970 H     1 <1>   0.0800 
 40 H       -4.1320    -3.5170     1.2760 H     1 <1>   0.0800 
 41 H       -4.8850    -4.7400     2.2550 H     1 <1>   0.0800 
 42 H       -7.1360    -3.2020    -1.0380 H     1 <1>   0.0800 
 43 H       -5.5500    -2.5430    -0.7760 H     1 <1>   0.0800 
 44 H        8.6240    -4.8380    -1.9500 H     1 <1>   0.0800 
 45 H        8.7660    -5.6220    -0.4000 H     1 <1>   0.0800 
 46 H        8.8200    -3.8770    -0.5020 H     1 <1>   0.0800 
 47 H       -6.8870    -4.7120     0.8590 H     1 <1>   0.0800 
 48 H       -6.0650    -1.8970     1.6250 H     1 <1>   0.0800 
 49 H       -6.7900    -3.0730     2.6940 H     1 <1>   0.0800 
 50 H       -7.7040    -2.4390     1.3510 H     1 <1>   0.0800 
@<TRIPOS>BOND
  1   1   2  1   
  2   2   3  1   
  3   2   4  1   
  4   2   5  1   
  5   5   6  1   
  6   5   7  2   
  7   6   8  1   
  8   6   9  1   
  9   7  10  1   
 10   7  30  1   
 11   8  11  2   
 12   9  12  1   
 13   9  13  2   
 14  10  12  2   
 15  10  14  1   
 16  11  13  1   
 17  11  15  1   
 18  13  31  1   
 19  14  16  ar  
 20  14  17  ar  
 21  15  18  2   
 22  15  19  am  
 23  16  20  ar  
 24  16  32  1   
 25  17  21  ar  
 26  17  33  1   
 27  19  22  1   
 28  19  23  1   
 29  20  24  ar  
 30  20  34  1   
 31  21  24  ar  
 32  21  35  1   
 33  22  25  1   
 34  22  36  1   
 35  22  37  1   
 36  23  26  1   
 37  23  38  1   
 38  23  39  1   
 39  24  27  1   
 40  25  28  1   
 41  25  40  1   
 42  25  41  1   
 43  26  28  1   
 44  26  42  1   
 45  26  43  1   
 46  27  44  1   
 47  27  45  1   
 48  27  46  1   
 49  28  29  1   
 50  28  47  1   
 51  29  48  1   
 52  29  49  1   
 53  29  50  1   
@<TRIPOS>SUBSTRUCTURE
  1 ****   6 GROUP 4 **** **** 0

# MOE 2024.06 (io_trps.svl 2023.06)
