@<TRIPOS>MOLECULE
NONAME
47 49 1 0 0 
SMALL
USER_CHARGES


@<TRIPOS>ATOM
  1 O       -2.0380    -0.0280    -0.8370 O.3   1 <1>  -0.3630 
  2 C       -2.2750     0.8590     0.1710 C.ar  1 <1>   0.0830 
  3 C       -0.8750    -0.0050    -1.6310 C.3   1 <1>   0.1200 
  4 C       -1.4560     1.9230     0.5830 C.ar  1 <1>   0.0820 
  5 C       -3.4740     0.6470     0.8300 C.ar  1 <1>  -0.1500 
  6 C       -0.9740    -1.1430    -2.6430 C.3   1 <1>  -0.2400 
  7 O       -0.2670     2.2110     0.0130 O.3   1 <1>  -0.5320 
  8 C       -1.8620     2.7380     1.6290 C.ar  1 <1>  -0.1500 
  9 C       -3.8870     1.4700     1.8660 C.ar  1 <1>  -0.1430 
 10 C       -3.0700     2.5170     2.2670 C.ar  1 <1>  -0.1500 
 11 C       -5.2240     1.2280     2.5390 C.3   1 <1>   0.4860 
 12 N       -6.3010     1.4620     1.5410 N.4   1 <1>  -0.9590 
 13 C       -6.2990     2.8820     1.0280 C.3   1 <1>   0.3430 
 14 C       -7.6600     1.0830     2.0680 C.3   1 <1>   0.3430 
 15 C       -7.4050     3.1280    -0.0170 C.3   1 <1>   0.2090 
 16 C       -8.7750     1.3140     1.0280 C.3   1 <1>   0.2090 
 17 N       -8.7460     2.7070     0.4890 N.pl3 1 <1>  -0.8380 
 18 C       -9.7780     2.9900    -0.3780 C.ar  1 <1>   0.4100 
 19 N       -9.7980     2.2950    -1.5070 N.ar  1 <1>  -0.6200 
 20 C      -10.7190     3.9590    -0.0480 C.ar  1 <1>  -0.1500 
 21 C      -10.7930     2.5770    -2.3330 C.ar  1 <1>   0.1600 
 22 C      -11.7470     4.2420    -0.9160 C.ar  1 <1>  -0.1500 
 23 C      -11.7750     3.5220    -2.0940 C.ar  1 <1>  -0.1500 
 24 H       -0.0200    -0.1380    -0.9900 H     1 <1>   0.0800 
 25 H       -0.8220     0.9460    -2.1320 H     1 <1>   0.0800 
 26 H       -4.0740    -0.1850     0.5060 H     1 <1>   0.1500 
 27 H       -1.0340    -2.0870    -2.1330 H     1 <1>   0.0800 
 28 H       -0.1000    -1.1470    -3.2690 H     1 <1>   0.0800 
 29 H       -1.8410    -1.0110    -3.2650 H     1 <1>   0.0800 
 30 H        0.2010     2.9500     0.4400 H     1 <1>   0.4500 
 31 H       -1.2370     3.5510     1.9530 H     1 <1>   0.1500 
 32 H       -3.3580     3.1670     3.0770 H     1 <1>   0.1500 
 33 H       -5.3420     1.8940     3.3790 H     1 <1>   0.0800 
 34 H       -5.2620     0.2120     2.8970 H     1 <1>   0.0800 
 35 H       -6.0950     0.8650     0.7300 H     1 <1>   0.4500 
 36 H       -5.3440     3.1100     0.5820 H     1 <1>   0.0800 
 37 H       -6.4530     3.5640     1.8470 H     1 <1>   0.0800 
 38 H       -7.8890     1.6750     2.9380 H     1 <1>   0.0800 
 39 H       -7.6660     0.0460     2.3590 H     1 <1>   0.0800 
 40 H       -7.1750     2.5890    -0.9210 H     1 <1>   0.0800 
 41 H       -7.4340     4.1760    -0.2640 H     1 <1>   0.0800 
 42 H       -9.7330     1.1350     1.4860 H     1 <1>   0.0800 
 43 H       -8.6650     0.6120     0.2180 H     1 <1>   0.0800 
 44 H      -10.6290     4.4760     0.8880 H     1 <1>   0.1500 
 45 H      -10.8280     2.0240    -3.2570 H     1 <1>   0.1500 
 46 H      -12.4930     4.9850    -0.6920 H     1 <1>   0.1500 
 47 H      -12.5510     3.6920    -2.8180 H     1 <1>   0.1500 
@<TRIPOS>BOND
  1   1   2  1   
  2   1   3  1   
  3   2   4  ar  
  4   2   5  ar  
  5   3   6  1   
  6   3  24  1   
  7   3  25  1   
  8   4   7  1   
  9   4   8  ar  
 10   5   9  ar  
 11   5  26  1   
 12   6  27  1   
 13   6  28  1   
 14   6  29  1   
 15   7  30  1   
 16   8  10  ar  
 17   8  31  1   
 18   9  10  ar  
 19   9  11  1   
 20  10  32  1   
 21  11  12  1   
 22  11  33  1   
 23  11  34  1   
 24  12  13  1   
 25  12  14  1   
 26  12  35  1   
 27  13  15  1   
 28  13  36  1   
 29  13  37  1   
 30  14  16  1   
 31  14  38  1   
 32  14  39  1   
 33  15  17  1   
 34  15  40  1   
 35  15  41  1   
 36  16  17  1   
 37  16  42  1   
 38  16  43  1   
 39  17  18  1   
 40  18  19  ar  
 41  18  20  ar  
 42  19  21  ar  
 43  20  22  ar  
 44  20  44  1   
 45  21  23  ar  
 46  21  45  1   
 47  22  23  ar  
 48  22  46  1   
 49  23  47  1   
@<TRIPOS>SUBSTRUCTURE
  1 ****  13 GROUP 4 **** **** 0

# MOE 2024.06 (io_trps.svl 2023.06)
