@<TRIPOS>MOLECULE
NONAME
27 27 1 0 0 
SMALL
USER_CHARGES


@<TRIPOS>ATOM
  1 S        0.0710     0.0030     0.1240 S.3   1 <1>  -0.3310 
  2 C       -1.5250     0.8150     0.0450 C.ar  1 <1>   0.4120 
  3 C       -0.2460    -1.7980     0.4430 C.3   1 <1>   0.1310 
  4 N       -1.4670     2.1020    -0.1810 N.ar  1 <1>  -0.6200 
  5 C       -2.7040     0.1230     0.2130 C.ar  1 <1>  -0.1500 
  6 C        1.0610    -2.5570     0.5740 C.2   1 <1>   0.6590 
  7 C       -2.6520     2.6790    -0.2340 C.ar  1 <1>   0.7220 
  8 C       -3.8660     0.8520     0.1330 C.ar  1 <1>   0.1660 
  9 O        1.4050    -3.0350     1.6250 O.2   1 <1>  -0.5700 
 10 O        1.7790    -2.6920    -0.5350 O.3   1 <1>  -0.4300 
 11 S       -2.6490     4.4400    -0.5400 S.3   1 <1>  -0.3310 
 12 N       -3.8540     2.1450    -0.0930 N.ar  1 <1>  -0.6200 
 13 C       -5.2240     0.2020     0.3000 C.3   1 <1>  -0.0970 
 14 C        3.0160    -3.3760    -0.5390 C.3   1 <1>   0.0400 
 15 C       -0.8630     4.8940    -0.6910 C.3   1 <1>  -0.0100 
 16 H       -0.8160    -2.1790    -0.3830 H     1 <1>   0.0800 
 17 H       -0.8040    -1.8690     1.3580 H     1 <1>   0.0800 
 18 H       -2.7320    -0.9290     0.3970 H     1 <1>   0.1500 
 19 H       -5.1320    -0.8520     0.4830 H     1 <1>   0.0800 
 20 H       -5.8060     0.3530    -0.5900 H     1 <1>   0.0800 
 21 H       -5.7390     0.6560     1.1280 H     1 <1>   0.0800 
 22 H        3.4140    -3.3540    -1.5380 H     1 <1>   0.0800 
 23 H        2.8540    -4.3920    -0.2250 H     1 <1>   0.0800 
 24 H        3.6890    -2.8800     0.1390 H     1 <1>   0.0800 
 25 H       -0.8070     5.9510    -0.8790 H     1 <1>   0.0800 
 26 H       -0.4470     4.3330    -1.5100 H     1 <1>   0.0800 
 27 H       -0.3780     4.6390     0.2340 H     1 <1>   0.0800 
@<TRIPOS>BOND
  1   1   2  1   
  2   1   3  1   
  3   2   4  ar  
  4   2   5  ar  
  5   3   6  1   
  6   3  16  1   
  7   3  17  1   
  8   4   7  ar  
  9   5   8  ar  
 10   5  18  1   
 11   6   9  2   
 12   6  10  1   
 13   7  11  1   
 14   7  12  ar  
 15   8  12  ar  
 16   8  13  1   
 17  10  14  1   
 18  11  15  1   
 19  13  19  1   
 20  13  20  1   
 21  13  21  1   
 22  14  22  1   
 23  14  23  1   
 24  14  24  1   
 25  15  25  1   
 26  15  26  1   
 27  15  27  1   
@<TRIPOS>SUBSTRUCTURE
  1 ****   2 GROUP 4 **** **** 0

# MOE 2024.06 (io_trps.svl 2023.06)
