@<TRIPOS>MOLECULE
NONAME
39 40 1 0 0 
SMALL
USER_CHARGES


@<TRIPOS>ATOM
  1 S        0.0240     0.0490     0.3150 S.o2  1 <1>   1.3330 
  2 O        0.4020     1.4150     0.0460 O.2   1 <1>  -0.6500 
  3 O        0.1060    -0.4790     1.6560 O.2   1 <1>  -0.6500 
  4 N       -1.6010    -0.1140    -0.1560 N.am  1 <1>  -0.8490 
  5 C        0.8970    -1.0150    -0.8150 C.3   1 <1>  -0.1350 
  6 C       -2.3570     1.1180     0.1450 C.3   1 <1>   0.1960 
  7 C       -2.2480    -1.2980     0.4460 C.3   1 <1>   0.1960 
  8 C       -3.8400     1.0150    -0.2710 C.3   1 <1>   0.3430 
  9 C       -3.7250    -1.4340     0.0150 C.3   1 <1>   0.3430 
 10 N       -4.5220    -0.1910     0.3240 N.4   1 <1>  -0.9590 
 11 C       -5.9370    -0.2760    -0.1550 C.3   1 <1>   0.3430 
 12 C       -6.7520    -1.3100     0.6240 C.3   1 <1>  -0.0170 
 13 C       -8.1930    -1.2320     0.1620 C.ar  1 <1>  -0.1440 
 14 C       -8.6260    -1.9930    -0.9140 C.ar  1 <1>  -0.1500 
 15 C       -9.0890    -0.3900     0.8050 C.ar  1 <1>  -0.1500 
 16 C       -9.9380    -1.9070    -1.3470 C.ar  1 <1>  -0.1500 
 17 C      -10.4000    -0.3050     0.3720 C.ar  1 <1>  -0.1500 
 18 C      -10.8250    -1.0620    -0.7050 C.ar  1 <1>  -0.1500 
 19 H        0.7270    -0.6990    -1.8260 H     1 <1>   0.0800 
 20 H        0.5740    -2.0300    -0.7060 H     1 <1>   0.0800 
 21 H        1.9500    -0.9690    -0.6160 H     1 <1>   0.0800 
 22 H       -1.9220     1.9470    -0.3910 H     1 <1>   0.0800 
 23 H       -2.2880     1.3430     1.1970 H     1 <1>   0.0800 
 24 H       -2.2070    -1.2400     1.5210 H     1 <1>   0.0800 
 25 H       -1.7150    -2.1860     0.1480 H     1 <1>   0.0800 
 26 H       -3.8820     0.9610    -1.3460 H     1 <1>   0.0800 
 27 H       -4.3520     1.9140     0.0330 H     1 <1>   0.0800 
 28 H       -4.1570    -2.2830     0.5190 H     1 <1>   0.0800 
 29 H       -3.7520    -1.6290    -1.0450 H     1 <1>   0.0800 
 30 H       -4.5300    -0.0640     1.3460 H     1 <1>   0.4500 
 31 H       -5.9600    -0.5230    -1.2050 H     1 <1>   0.0800 
 32 H       -6.4150     0.6840    -0.0360 H     1 <1>   0.0800 
 33 H       -6.7070    -1.1050     1.6790 H     1 <1>   0.0800 
 34 H       -6.3810    -2.3030     0.4480 H     1 <1>   0.0800 
 35 H       -7.9570    -2.6610    -1.4270 H     1 <1>   0.1500 
 36 H       -8.7830     0.2040     1.6480 H     1 <1>   0.1500 
 37 H      -10.2730    -2.4990    -2.1810 H     1 <1>   0.1500 
 38 H      -11.0950     0.3480     0.8730 H     1 <1>   0.1500 
 39 H      -11.8460    -0.9960    -1.0410 H     1 <1>   0.1500 
@<TRIPOS>BOND
  1   1   2  2   
  2   1   3  2   
  3   1   4  am  
  4   1   5  1   
  5   4   6  1   
  6   4   7  1   
  7   5  19  1   
  8   5  20  1   
  9   5  21  1   
 10   6   8  1   
 11   6  22  1   
 12   6  23  1   
 13   7   9  1   
 14   7  24  1   
 15   7  25  1   
 16   8  10  1   
 17   8  26  1   
 18   8  27  1   
 19   9  10  1   
 20   9  28  1   
 21   9  29  1   
 22  10  11  1   
 23  10  30  1   
 24  11  12  1   
 25  11  31  1   
 26  11  32  1   
 27  12  13  1   
 28  12  33  1   
 29  12  34  1   
 30  13  14  ar  
 31  13  15  ar  
 32  14  16  ar  
 33  14  35  1   
 34  15  17  ar  
 35  15  36  1   
 36  16  18  ar  
 37  16  37  1   
 38  17  18  ar  
 39  17  38  1   
 40  18  39  1   
@<TRIPOS>SUBSTRUCTURE
  1 ****  10 GROUP 4 **** **** 0

# MOE 2024.06 (io_trps.svl 2023.06)
