@<TRIPOS>MOLECULE
NONAME
49 50 1 0 0 
SMALL
USER_CHARGES


@<TRIPOS>ATOM
  1 S       -0.0470     0.1600     0.5390 S.o2  1 <1>   1.3330 
  2 O        0.3190     0.5680     1.8780 O.2   1 <1>  -0.6500 
  3 O       -0.2400    -1.2430     0.2490 O.2   1 <1>  -0.6500 
  4 N       -1.4740     0.9820     0.1350 N.am  1 <1>  -0.8490 
  5 C        1.1410     0.8170    -0.6420 C.3   1 <1>  -0.0550 
  6 C       -1.5430     2.3120     0.7530 C.3   1 <1>   0.1960 
  7 C       -2.6640     0.1830     0.4410 C.3   1 <1>   0.1960 
  8 C        2.5580     0.2320    -0.5120 C.3   1 <1>  -0.2400 
  9 C       -2.7600     3.0780     0.2330 C.3   1 <1>  -0.1600 
 10 C       -3.9280     0.8830    -0.0670 C.3   1 <1>  -0.1600 
 11 C       -4.0600     2.3010     0.5100 C.3   1 <1>  -0.0190 
 12 C       -5.3040     3.0020    -0.0350 C.2   1 <1>   0.5690 
 13 O       -5.2200     3.6920    -1.0220 O.2   1 <1>  -0.5700 
 14 N       -6.4800     2.7950     0.6260 N.am  1 <1>  -0.5470 
 15 C       -7.7580     3.2610     0.2820 C.ar  1 <1>   0.1170 
 16 C       -8.7110     2.3640    -0.2140 C.ar  1 <1>  -0.1440 
 17 C       -8.0930     4.6060     0.4610 C.ar  1 <1>  -0.1440 
 18 C       -9.9860     2.8290    -0.5100 C.ar  1 <1>  -0.1500 
 19 C       -8.3160     0.8960    -0.4290 C.3   1 <1>  -0.0170 
 20 C       -9.3690     5.0440     0.1530 C.ar  1 <1>  -0.1500 
 21 C       -7.0840     5.6180     0.9890 C.3   1 <1>  -0.0970 
 22 C      -10.3140     4.1590    -0.3270 C.ar  1 <1>  -0.1500 
 23 C       -9.3860    -0.0070    -1.0560 C.3   1 <1>  -0.2400 
 24 H        1.2000     1.8810    -0.5230 H     1 <1>   0.0800 
 25 H        0.7800     0.6220    -1.6330 H     1 <1>   0.0800 
 26 H       -0.6530     2.8700     0.5190 H     1 <1>   0.0800 
 27 H       -1.6040     2.2150     1.8260 H     1 <1>   0.0800 
 28 H       -2.7270     0.0170     1.5040 H     1 <1>   0.0800 
 29 H       -2.5940    -0.7770    -0.0440 H     1 <1>   0.0800 
 30 H        2.9540     0.4350     0.4690 H     1 <1>   0.0800 
 31 H        3.2110     0.6670    -1.2480 H     1 <1>   0.0800 
 32 H        2.5320    -0.8340    -0.6570 H     1 <1>   0.0800 
 33 H       -2.6430     3.2370    -0.8260 H     1 <1>   0.0800 
 34 H       -2.8070     4.0420     0.7050 H     1 <1>   0.0800 
 35 H       -4.7880     0.2950     0.1990 H     1 <1>   0.0800 
 36 H       -3.8870     0.9330    -1.1420 H     1 <1>   0.0800 
 37 H       -4.1700     2.2240     1.5770 H     1 <1>   0.0800 
 38 H       -6.4620     2.1420     1.4040 H     1 <1>   0.3700 
 39 H      -10.7480     2.1750    -0.8910 H     1 <1>   0.1500 
 40 H       -8.0350     0.4740     0.5200 H     1 <1>   0.0800 
 41 H       -7.4500     0.8720    -1.0680 H     1 <1>   0.0800 
 42 H       -9.6370     6.0770     0.2840 H     1 <1>   0.1500 
 43 H       -6.6070     5.2430     1.8770 H     1 <1>   0.0800 
 44 H       -7.5600     6.5500     1.2310 H     1 <1>   0.0800 
 45 H       -6.3340     5.8040     0.2410 H     1 <1>   0.0800 
 46 H      -11.3040     4.5060    -0.5640 H     1 <1>   0.1500 
 47 H      -10.2530    -0.0610    -0.4210 H     1 <1>   0.0800 
 48 H       -8.9970    -1.0010    -1.1820 H     1 <1>   0.0800 
 49 H       -9.6730     0.3700    -2.0210 H     1 <1>   0.0800 
@<TRIPOS>BOND
  1   1   2  2   
  2   1   3  2   
  3   1   4  am  
  4   1   5  1   
  5   4   6  1   
  6   4   7  1   
  7   5   8  1   
  8   5  24  1   
  9   5  25  1   
 10   6   9  1   
 11   6  26  1   
 12   6  27  1   
 13   7  10  1   
 14   7  28  1   
 15   7  29  1   
 16   8  30  1   
 17   8  31  1   
 18   8  32  1   
 19   9  11  1   
 20   9  33  1   
 21   9  34  1   
 22  10  11  1   
 23  10  35  1   
 24  10  36  1   
 25  11  12  1   
 26  11  37  1   
 27  12  13  2   
 28  12  14  am  
 29  14  15  1   
 30  14  38  1   
 31  15  16  ar  
 32  15  17  ar  
 33  16  18  ar  
 34  16  19  1   
 35  17  20  ar  
 36  17  21  1   
 37  18  22  ar  
 38  18  39  1   
 39  19  23  1   
 40  19  40  1   
 41  19  41  1   
 42  20  22  ar  
 43  20  42  1   
 44  21  43  1   
 45  21  44  1   
 46  21  45  1   
 47  22  46  1   
 48  23  47  1   
 49  23  48  1   
 50  23  49  1   
@<TRIPOS>SUBSTRUCTURE
  1 ****  11 GROUP 4 **** **** 0

# MOE 2024.06 (io_trps.svl 2023.06)
