@<TRIPOS>MOLECULE
NONAME
34 34 1 0 0 
SMALL
USER_CHARGES


@<TRIPOS>ATOM
  1 O        0.2580    -0.5930     0.1930 O.2   1 <1>  -0.5700 
  2 C        1.3510    -1.1060     0.0620 C.2   1 <1>   0.8050 
  3 O        1.4180    -2.4220    -0.1730 O.3   1 <1>  -0.4300 
  4 C        2.6020    -0.3990     0.1380 C.2   1 <1>  -0.2370 
  5 C        0.2550    -3.2130    -0.2640 C.3   1 <1>   0.1200 
  6 N        3.7800    -1.0690    -0.0160 N.pl3 1 <1>   0.0330 
  7 C        2.9280     0.9180     0.3550 C.2   1 <1>  -0.1810 
  8 C        0.6830    -4.6520    -0.5340 C.3   1 <1>  -0.2400 
  9 C        4.8100    -0.2140     0.1010 C.2   1 <1>  -0.3320 
 10 C        4.3330     1.0610     0.3330 C.2   1 <1>  -0.0860 
 11 C        1.9590     2.0700     0.5840 C.3   1 <1>  -0.0590 
 12 C        6.2370    -0.7300     0.0000 C.3   1 <1>   0.3000 
 13 C        5.0590     2.3000     0.5210 C.2   1 <1>   0.5950 
 14 O        6.2070    -2.1250    -0.0260 O.3   1 <1>  -0.5600 
 15 O        4.6260     3.2630     1.1020 O.2   1 <1>  -0.5700 
 16 C        6.4560     2.4420    -0.0440 C.3   1 <1>  -0.1790 
 17 C        7.4640    -2.7180    -0.0830 C.3   1 <1>   0.0400 
 18 H       -0.3540    -2.8330    -1.0680 H     1 <1>   0.0800 
 19 H       -0.2840    -3.1370     0.6660 H     1 <1>   0.0800 
 20 H        3.8810    -2.0810    -0.1720 H     1 <1>   0.2700 
 21 H        1.2280    -4.7100    -1.4600 H     1 <1>   0.0800 
 22 H       -0.1860    -5.2800    -0.6090 H     1 <1>   0.0800 
 23 H        1.2990    -5.0130     0.2700 H     1 <1>   0.0800 
 24 H        0.9390     1.7720     0.4380 H     1 <1>   0.0800 
 25 H        2.1750     2.8720    -0.0980 H     1 <1>   0.0800 
 26 H        2.0650     2.4370     1.5890 H     1 <1>   0.0800 
 27 H        6.8110    -0.4140     0.8540 H     1 <1>   0.0800 
 28 H        6.6980    -0.3860    -0.9100 H     1 <1>   0.0800 
 29 H        6.6960     3.4840    -0.1500 H     1 <1>   0.0800 
 30 H        7.1650     1.9920     0.6240 H     1 <1>   0.0800 
 31 H        6.5110     1.9800    -1.0110 H     1 <1>   0.0800 
 32 H        7.9680    -2.4030    -0.9800 H     1 <1>   0.0800 
 33 H        7.3300    -3.7860    -0.1010 H     1 <1>   0.0800 
 34 H        8.0300    -2.4410     0.7900 H     1 <1>   0.0800 
@<TRIPOS>BOND
  1   1   2  2   
  2   2   3  1   
  3   2   4  1   
  4   3   5  1   
  5   4   6  1   
  6   4   7  2   
  7   5   8  1   
  8   5  18  1   
  9   5  19  1   
 10   6   9  1   
 11   6  20  1   
 12   7  10  1   
 13   7  11  1   
 14   8  21  1   
 15   8  22  1   
 16   8  23  1   
 17   9  10  2   
 18   9  12  1   
 19  10  13  1   
 20  11  24  1   
 21  11  25  1   
 22  11  26  1   
 23  12  14  1   
 24  12  27  1   
 25  12  28  1   
 26  13  15  2   
 27  13  16  1   
 28  14  17  1   
 29  16  29  1   
 30  16  30  1   
 31  16  31  1   
 32  17  32  1   
 33  17  33  1   
 34  17  34  1   
@<TRIPOS>SUBSTRUCTURE
  1 ****   6 GROUP 4 **** **** 0

# MOE 2024.06 (io_trps.svl 2023.06)
