@<TRIPOS>MOLECULE
NONAME
46 48 1 0 0 
SMALL
USER_CHARGES


@<TRIPOS>ATOM
  1 F       -0.1830    -0.1290     1.4130 F     1 <1>  -0.3400 
  2 C        0.1180    -1.3620     1.0290 C.3   1 <1>   1.1640 
  3 F        0.6190    -1.9750     2.0940 F     1 <1>  -0.3400 
  4 F        1.1130    -1.2510     0.1580 F     1 <1>  -0.3400 
  5 C       -1.1080    -2.0870     0.4440 C.ar  1 <1>  -0.1440 
  6 C       -1.9480    -2.8380     1.2590 C.ar  1 <1>  -0.1500 
  7 C       -1.4060    -2.0020    -0.9120 C.ar  1 <1>  -0.1500 
  8 C       -3.0540    -3.4850     0.7360 C.ar  1 <1>  -0.1500 
  9 C       -2.5110    -2.6470    -1.4380 C.ar  1 <1>  -0.1500 
 10 C       -3.3470    -3.3880    -0.6160 C.ar  1 <1>  -0.1430 
 11 C       -4.5710    -4.0770    -1.1880 C.3   1 <1>   0.4870 
 12 N       -5.7790    -3.3370    -0.7410 N.4   1 <1>  -0.9590 
 13 C       -7.0340    -4.0570    -1.0830 C.3   1 <1>   0.4860 
 14 C       -5.8280    -1.9340    -1.2520 C.3   1 <1>   0.3430 
 15 C       -8.2300    -3.2910    -0.5450 C.ar  1 <1>  -0.1430 
 16 C       -6.8920    -1.1380    -0.4920 C.3   1 <1>  -0.0170 
 17 C       -8.1760    -1.9300    -0.2790 C.ar  1 <1>  -0.1430 
 18 C       -9.4120    -3.9770    -0.3220 C.ar  1 <1>  -0.1500 
 19 C       -9.3000    -1.2790     0.2030 C.ar  1 <1>  -0.1500 
 20 C      -10.5440    -3.3410     0.1590 C.ar  1 <1>   0.0830 
 21 C      -10.4940    -1.9610     0.4300 C.ar  1 <1>   0.0830 
 22 O      -11.6120    -4.1760     0.3150 O.3   1 <1>  -0.3630 
 23 O      -11.5940    -1.3110     0.9090 O.3   1 <1>  -0.3620 
 24 C      -12.8900    -3.7460     0.7280 C.3   1 <1>   0.0400 
 25 C      -11.6090     0.0730     1.1860 C.3   1 <1>   0.0400 
 26 H       -1.7420    -2.9260     2.3150 H     1 <1>   0.1500 
 27 H       -0.7710    -1.4290    -1.5700 H     1 <1>   0.1500 
 28 H       -3.6750    -4.0640     1.4000 H     1 <1>   0.1500 
 29 H       -2.7040    -2.5630    -2.4950 H     1 <1>   0.1500 
 30 H       -4.6020    -5.0940    -0.8330 H     1 <1>   0.0800 
 31 H       -4.5170    -4.0910    -2.2650 H     1 <1>   0.0800 
 32 H       -5.7450    -3.2760     0.2840 H     1 <1>   0.4500 
 33 H       -7.0240    -5.0450    -0.6520 H     1 <1>   0.0800 
 34 H       -7.1290    -4.1510    -2.1530 H     1 <1>   0.0800 
 35 H       -6.0700    -1.9400    -2.3020 H     1 <1>   0.0800 
 36 H       -4.8720    -1.4510    -1.1250 H     1 <1>   0.0800 
 37 H       -7.1060    -0.2360    -1.0370 H     1 <1>   0.0800 
 38 H       -6.4960    -0.8490     0.4660 H     1 <1>   0.0800 
 39 H       -9.4850    -5.0320    -0.5200 H     1 <1>   0.1500 
 40 H       -9.2280    -0.2260     0.4030 H     1 <1>   0.1500 
 41 H      -13.5460    -4.5970     0.7290 H     1 <1>   0.0800 
 42 H      -13.2500    -3.0070     0.0360 H     1 <1>   0.0800 
 43 H      -12.8170    -3.3400     1.7220 H     1 <1>   0.0800 
 44 H      -12.5900     0.3310     1.5410 H     1 <1>   0.0800 
 45 H      -11.3970     0.6140     0.2810 H     1 <1>   0.0800 
 46 H      -10.8800     0.2860     1.9470 H     1 <1>   0.0800 
@<TRIPOS>BOND
  1   1   2  1   
  2   2   3  1   
  3   2   4  1   
  4   2   5  1   
  5   5   6  ar  
  6   5   7  ar  
  7   6   8  ar  
  8   6  26  1   
  9   7   9  ar  
 10   7  27  1   
 11   8  10  ar  
 12   8  28  1   
 13   9  10  ar  
 14   9  29  1   
 15  10  11  1   
 16  11  12  1   
 17  11  30  1   
 18  11  31  1   
 19  12  13  1   
 20  12  14  1   
 21  12  32  1   
 22  13  15  1   
 23  13  33  1   
 24  13  34  1   
 25  14  16  1   
 26  14  35  1   
 27  14  36  1   
 28  15  17  ar  
 29  15  18  ar  
 30  16  17  1   
 31  16  37  1   
 32  16  38  1   
 33  17  19  ar  
 34  18  20  ar  
 35  18  39  1   
 36  19  21  ar  
 37  19  40  1   
 38  20  21  ar  
 39  20  22  1   
 40  21  23  1   
 41  22  24  1   
 42  23  25  1   
 43  24  41  1   
 44  24  42  1   
 45  24  43  1   
 46  25  44  1   
 47  25  45  1   
 48  25  46  1   
@<TRIPOS>SUBSTRUCTURE
  1 ****  12 GROUP 4 **** **** 0

# MOE 2024.06 (io_trps.svl 2023.06)
