@<TRIPOS>MOLECULE
NONAME
30 31 1 0 0 
SMALL
USER_CHARGES


@<TRIPOS>ATOM
  1 BR       0.1140     0.1390    -0.6300 Br    1 <1>  -0.1110 
  2 C       -1.6120     0.9850    -0.5010 C.ar  1 <1>   0.1110 
  3 C       -1.9290     1.6830     0.6470 C.ar  1 <1>  -0.1500 
  4 C       -2.4910     0.8720    -1.5590 C.ar  1 <1>  -0.1500 
  5 C       -3.1700     2.2950     0.7450 C.ar  1 <1>  -0.1440 
  6 C       -3.7270     1.4820    -1.4550 C.ar  1 <1>  -0.1500 
  7 C       -4.0820     2.2000    -0.3120 C.ar  1 <1>   0.1170 
  8 C       -3.5090     3.0660     2.0160 C.3   1 <1>  -0.0960 
  9 N       -5.3360     2.8200    -0.1870 N.am  1 <1>  -0.5470 
 10 C       -6.3370     3.1250    -1.0670 C.2   1 <1>   0.5690 
 11 O       -6.3010     2.8800    -2.2510 O.2   1 <1>  -0.5700 
 12 C       -7.5720     3.8290    -0.4900 C.3   1 <1>   0.2610 
 13 O       -7.3980     4.1800     0.8610 O.3   1 <1>  -0.5600 
 14 C       -8.8300     2.9670    -0.4820 C.3   1 <1>  -0.1600 
 15 C       -8.6390     4.3910     1.4540 C.3   1 <1>   0.1200 
 16 C       -9.6300     3.5120     0.6930 C.3   1 <1>  -0.1600 
 17 H       -1.2090     1.7410     1.4430 H     1 <1>   0.1500 
 18 H       -2.2150     0.3210    -2.4400 H     1 <1>   0.1500 
 19 H       -4.4170     1.3940    -2.2730 H     1 <1>   0.1500 
 20 H       -2.6790     3.0680     2.7000 H     1 <1>   0.0800 
 21 H       -4.3510     2.6130     2.5090 H     1 <1>   0.0800 
 22 H       -3.7480     4.0870     1.7760 H     1 <1>   0.0800 
 23 H       -5.5530     3.1700     0.7500 H     1 <1>   0.3700 
 24 H       -7.7490     4.7370    -1.0390 H     1 <1>   0.0800 
 25 H       -8.5600     1.9400    -0.3060 H     1 <1>   0.0800 
 26 H       -9.3580     3.0360    -1.4160 H     1 <1>   0.0800 
 27 H       -8.8860     5.4340     1.3520 H     1 <1>   0.0800 
 28 H       -8.5760     4.1270     2.4960 H     1 <1>   0.0800 
 29 H       -9.9970     2.7170     1.3180 H     1 <1>   0.0800 
 30 H      -10.4630     4.1050     0.3590 H     1 <1>   0.0800 
@<TRIPOS>BOND
  1   1   2  1   
  2   2   3  ar  
  3   2   4  ar  
  4   3   5  ar  
  5   3  17  1   
  6   4   6  ar  
  7   4  18  1   
  8   5   7  ar  
  9   5   8  1   
 10   6   7  ar  
 11   6  19  1   
 12   7   9  1   
 13   8  20  1   
 14   8  21  1   
 15   8  22  1   
 16   9  10  am  
 17   9  23  1   
 18  10  11  2   
 19  10  12  1   
 20  12  13  1   
 21  12  14  1   
 22  12  24  1   
 23  13  15  1   
 24  14  16  1   
 25  14  25  1   
 26  14  26  1   
 27  15  16  1   
 28  15  27  1   
 29  15  28  1   
 30  16  29  1   
 31  16  30  1   
@<TRIPOS>SUBSTRUCTURE
  1 ****   9 GROUP 4 **** **** 0

# MOE 2024.06 (io_trps.svl 2023.06)
