@<TRIPOS>MOLECULE
NONAME
42 43 1 0 0 
SMALL
USER_CHARGES


@<TRIPOS>ATOM
  1 O        0.1850     0.3910    -0.3220 O.2   1 <1>  -0.5700 
  2 C        0.6660    -0.7080    -0.5130 C.2   1 <1>   0.6900 
  3 N       -0.0850    -1.8440    -0.5480 N.am  1 <1>  -0.5470 
  4 N        1.9970    -0.8360    -0.7130 N.am  1 <1>  -0.7300 
  5 C       -1.4410    -2.0640    -0.2660 C.ar  1 <1>   0.1170 
  6 C        2.9490     0.2810    -0.6100 C.3   1 <1>   0.2840 
  7 C       -2.0610    -3.1880    -0.7980 C.ar  1 <1>  -0.1500 
  8 C       -2.1970    -1.2200     0.5400 C.ar  1 <1>  -0.1500 
  9 C        4.2560    -0.2740    -0.0800 C.ar  1 <1>  -0.1430 
 10 C       -3.3930    -3.4600    -0.5380 C.ar  1 <1>  -0.1500 
 11 C       -3.5280    -1.4890     0.8000 C.ar  1 <1>  -0.1500 
 12 C        4.4360    -0.5360     1.2640 C.ar  1 <1>  -0.1500 
 13 C        5.3260    -0.5560    -0.9070 C.ar  1 <1>  -0.1500 
 14 C       -4.1420    -2.6120     0.2640 C.ar  1 <1>  -0.1430 
 15 C        5.6430    -1.0530     1.7040 C.ar  1 <1>   0.1600 
 16 C        6.4910    -1.0710    -0.3640 C.ar  1 <1>   0.1600 
 17 C       -5.6130    -2.9200     0.5400 C.3   1 <1>   0.0630 
 18 N        6.6730    -1.3280     0.9210 N.ar  1 <1>  -0.6200 
 19 C       -6.5060    -1.8130    -0.0510 C.3   1 <1>  -0.1600 
 20 C       -5.8400    -3.1210     2.0450 C.3   1 <1>  -0.2400 
 21 C       -8.0050    -2.1360     0.0050 C.3   1 <1>  -0.2400 
 22 H        0.4040    -2.6430    -0.9320 H     1 <1>   0.3700 
 23 H        2.4320    -1.7540    -0.6600 H     1 <1>   0.3700 
 24 H        2.5680     1.0370     0.0580 H     1 <1>   0.0800 
 25 H        3.0880     0.7230    -1.5810 H     1 <1>   0.0800 
 26 H       -1.5030    -3.8580    -1.4240 H     1 <1>   0.1500 
 27 H       -1.7470    -0.3460     0.9720 H     1 <1>   0.1500 
 28 H       -3.8440    -4.3370    -0.9670 H     1 <1>   0.1500 
 29 H       -4.0840    -0.8140     1.4250 H     1 <1>   0.1500 
 30 H        3.6470    -0.3440     1.9690 H     1 <1>   0.1500 
 31 H        5.2660    -0.3800    -1.9650 H     1 <1>   0.1500 
 32 H        5.7670    -1.2510     2.7550 H     1 <1>   0.1500 
 33 H        7.3170    -1.2840    -1.0210 H     1 <1>   0.1500 
 34 H       -5.8630    -3.8440     0.0460 H     1 <1>   0.0800 
 35 H       -6.2260    -1.6670    -1.0800 H     1 <1>   0.0800 
 36 H       -6.3250    -0.8860     0.4650 H     1 <1>   0.0800 
 37 H       -5.7080    -2.1970     2.5770 H     1 <1>   0.0800 
 38 H       -5.1340    -3.8380     2.4250 H     1 <1>   0.0800 
 39 H       -6.8300    -3.4920     2.2340 H     1 <1>   0.0800 
 40 H       -8.2070    -3.0740    -0.4820 H     1 <1>   0.0800 
 41 H       -8.5620    -1.3650    -0.4980 H     1 <1>   0.0800 
 42 H       -8.3500    -2.1890     1.0220 H     1 <1>   0.0800 
@<TRIPOS>BOND
  1   1   2  2   
  2   2   3  am  
  3   2   4  am  
  4   3   5  1   
  5   3  22  1   
  6   4   6  1   
  7   4  23  1   
  8   5   7  ar  
  9   5   8  ar  
 10   6   9  1   
 11   6  24  1   
 12   6  25  1   
 13   7  10  ar  
 14   7  26  1   
 15   8  11  ar  
 16   8  27  1   
 17   9  12  ar  
 18   9  13  ar  
 19  10  14  ar  
 20  10  28  1   
 21  11  14  ar  
 22  11  29  1   
 23  12  15  ar  
 24  12  30  1   
 25  13  16  ar  
 26  13  31  1   
 27  14  17  1   
 28  15  18  ar  
 29  15  32  1   
 30  16  18  ar  
 31  16  33  1   
 32  17  19  1   
 33  17  20  1   
 34  17  34  1   
 35  19  21  1   
 36  19  35  1   
 37  19  36  1   
 38  20  37  1   
 39  20  38  1   
 40  20  39  1   
 41  21  40  1   
 42  21  41  1   
 43  21  42  1   
@<TRIPOS>SUBSTRUCTURE
  1 ****   3 GROUP 4 **** **** 0

# MOE 2024.06 (io_trps.svl 2023.06)
