@<TRIPOS>MOLECULE
NONAME
39 41 1 0 0 
SMALL
USER_CHARGES


@<TRIPOS>ATOM
  1 CL       3.4290    -1.2140     3.4470 Cl    1 <1>  -0.1770 
  2 C        3.6960    -0.4270     1.9040 C.ar  1 <1>   0.1770 
  3 C        3.2380    -1.0180     0.7300 C.ar  1 <1>   0.0820 
  4 C        4.3680     0.7790     1.8950 C.ar  1 <1>  -0.1500 
  5 O        2.5780    -2.2080     0.8160 O.3   1 <1>  -0.3630 
  6 C        3.4750    -0.3640    -0.4750 C.ar  1 <1>  -0.1500 
  7 C        4.6080     1.4390     0.6960 C.ar  1 <1>   0.1170 
  8 C        2.0180    -2.8160    -0.3270 C.3   1 <1>   0.0400 
  9 C        4.1560     0.8410    -0.4880 C.ar  1 <1>   0.0820 
 10 N        5.2970     2.6670     0.6600 N.am  1 <1>  -0.5470 
 11 O        4.3420     1.4440    -1.6860 O.3   1 <1>  -0.3630 
 12 C        5.3800     3.6860     1.5630 C.2   1 <1>   0.5690 
 13 C        5.6090     1.2740    -2.2870 C.3   1 <1>   0.0400 
 14 O        4.8590     3.6630     2.6550 O.2   1 <1>  -0.5700 
 15 C        6.2150     4.8760     1.1460 C.3   1 <1>  -0.0190 
 16 C        6.1320     6.1360     2.0060 C.3   1 <1>   0.3380 
 17 C        5.8490     5.4500    -0.2460 C.3   1 <1>  -0.1860 
 18 O        6.7640     7.0080     1.1300 O.3   1 <1>  -0.5600 
 19 C        4.7490     6.7590     1.9710 C.2   1 <1>  -0.2880 
 20 C        6.7620     4.9540    -1.3250 C.2   1 <1>   0.9060 
 21 C        5.9070     6.9530     0.0320 C.3   1 <1>   0.3380 
 22 C        4.6210     7.2860     0.7590 C.2   1 <1>  -0.2880 
 23 O        7.0250     3.7440    -1.3120 O.co2 1 <1>  -0.9000 
 24 O        7.1510     5.7140    -2.2110 O.co2 1 <1>  -0.9000 
 25 H        4.7040     1.2000     2.8240 H     1 <1>   0.1500 
 26 H        3.1430    -0.7630    -1.4130 H     1 <1>   0.1500 
 27 H        1.5230    -3.7180    -0.0150 H     1 <1>   0.0800 
 28 H        2.8070    -3.0540    -1.0190 H     1 <1>   0.0800 
 29 H        1.3060    -2.1430    -0.7680 H     1 <1>   0.0800 
 30 H        5.8000     2.8670    -0.2300 H     1 <1>   0.3700 
 31 H        5.7500     2.0630    -3.0050 H     1 <1>   0.0800 
 32 H        5.6370     0.3160    -2.7720 H     1 <1>   0.0800 
 33 H        6.3790     1.3340    -1.5380 H     1 <1>   0.0800 
 34 H        7.2430     4.5590     1.1560 H     1 <1>   0.0800 
 35 H        6.6330     6.1170     2.9580 H     1 <1>   0.0800 
 36 H        4.8520     5.1820    -0.5400 H     1 <1>   0.0800 
 37 H        4.0950     6.7010     2.8220 H     1 <1>   0.1500 
 38 H        6.2210     7.6130    -0.7590 H     1 <1>   0.0800 
 39 H        3.8270     7.8180     0.2690 H     1 <1>   0.1500 
@<TRIPOS>BOND
  1   1   2  1   
  2   2   3  ar  
  3   2   4  ar  
  4   3   5  1   
  5   3   6  ar  
  6   4   7  ar  
  7   4  25  1   
  8   5   8  1   
  9   6   9  ar  
 10   6  26  1   
 11   7   9  ar  
 12   7  10  1   
 13   8  27  1   
 14   8  28  1   
 15   8  29  1   
 16   9  11  1   
 17  10  12  am  
 18  10  30  1   
 19  11  13  1   
 20  12  14  2   
 21  12  15  1   
 22  13  31  1   
 23  13  32  1   
 24  13  33  1   
 25  15  16  1   
 26  15  17  1   
 27  15  34  1   
 28  16  18  1   
 29  16  19  1   
 30  16  35  1   
 31  17  20  1   
 32  17  21  1   
 33  17  36  1   
 34  18  21  1   
 35  19  22  2   
 36  19  37  1   
 37  20  23  ar  
 38  20  24  ar  
 39  21  22  1   
 40  21  38  1   
 41  22  39  1   
@<TRIPOS>SUBSTRUCTURE
  1 ****  10 GROUP 4 **** **** 0

# MOE 2024.06 (io_trps.svl 2023.06)
