@<TRIPOS>MOLECULE
NONAME
51 53 1 0 0 
SMALL
USER_CHARGES


@<TRIPOS>ATOM
  1 O       -0.5450     0.3060    -0.5860 O.2   1 <1>  -0.5700 
  2 C       -0.5380     1.5150    -0.4530 C.2   1 <1>   0.7800 
  3 O        0.6070     2.1430    -0.1840 O.3   1 <1>  -0.4300 
  4 N       -1.6720     2.2730    -0.5620 N.am  1 <1>  -0.6600 
  5 C        1.8140     1.4260    -0.0630 C.3   1 <1>   0.1200 
  6 C       -1.7090     3.7490    -0.3310 C.3   1 <1>   0.1400 
  7 C       -3.0080     1.6660    -0.8340 C.3   1 <1>   0.1400 
  8 C        2.9280     2.4210     0.2460 C.3   1 <1>  -0.2400 
  9 C       -2.6990     4.0920     0.7920 C.3   1 <1>   0.1400 
 10 C       -4.0130     2.0210     0.2750 C.3   1 <1>   0.1400 
 11 N       -4.0460     3.4980     0.5180 N.am  1 <1>  -0.6600 
 12 C       -5.1410     4.2920     0.2430 C.2   1 <1>   0.5440 
 13 O       -4.9560     5.4640    -0.0280 O.2   1 <1>  -0.5700 
 14 C       -6.4960     3.7720     0.2540 C.ar  1 <1>   0.0860 
 15 C       -7.3930     4.0940    -0.7640 C.ar  1 <1>  -0.1500 
 16 C       -6.9600     2.9470     1.2800 C.ar  1 <1>  -0.1500 
 17 C       -8.6880     3.6080    -0.7740 C.ar  1 <1>  -0.1500 
 18 C       -8.2510     2.4540     1.2780 C.ar  1 <1>  -0.1500 
 19 C       -9.1260     2.7770     0.2530 C.ar  1 <1>   0.0820 
 20 O      -10.3700     2.2570     0.3270 O.3   1 <1>  -0.3630 
 21 C      -11.3730     2.5930    -0.6080 C.3   1 <1>   0.2640 
 22 C      -12.6570     1.8640    -0.2430 C.ar  1 <1>  -0.1440 
 23 C      -13.8060     2.5720     0.0760 C.ar  1 <1>  -0.1500 
 24 C      -12.6890     0.4770    -0.2330 C.ar  1 <1>  -0.1500 
 25 C      -14.9740     1.9010     0.3960 C.ar  1 <1>  -0.1500 
 26 C      -13.8570    -0.1940     0.0870 C.ar  1 <1>  -0.1500 
 27 C      -15.0010     0.5180     0.4010 C.ar  1 <1>  -0.1500 
 28 H        1.9990     0.9120    -0.9910 H     1 <1>   0.0800 
 29 H        1.7050     0.7070     0.7320 H     1 <1>   0.0800 
 30 H       -2.0210     4.2420    -1.2360 H     1 <1>   0.0800 
 31 H       -0.7360     4.1240    -0.0710 H     1 <1>   0.0800 
 32 H       -2.9280     0.5950    -0.9100 H     1 <1>   0.0800 
 33 H       -3.3740     2.0360    -1.7750 H     1 <1>   0.0800 
 34 H        3.0150     3.1370    -0.5510 H     1 <1>   0.0800 
 35 H        3.8620     1.8990     0.3430 H     1 <1>   0.0800 
 36 H        2.7220     2.9320     1.1690 H     1 <1>   0.0800 
 37 H       -2.7680     5.1610     0.8910 H     1 <1>   0.0800 
 38 H       -2.3260     3.7030     1.7220 H     1 <1>   0.0800 
 39 H       -3.7260     1.5210     1.1840 H     1 <1>   0.0800 
 40 H       -4.9830     1.6590    -0.0120 H     1 <1>   0.0800 
 41 H       -7.0590     4.7440    -1.5560 H     1 <1>   0.1500 
 42 H       -6.2970     2.6970     2.0900 H     1 <1>   0.1500 
 43 H       -9.3350     3.8870    -1.5840 H     1 <1>   0.1500 
 44 H       -8.5960     1.8180     2.0740 H     1 <1>   0.1500 
 45 H      -11.0430     2.2900    -1.5850 H     1 <1>   0.0800 
 46 H      -11.5160     3.6590    -0.5800 H     1 <1>   0.0800 
 47 H      -13.8000     3.6470     0.0790 H     1 <1>   0.1500 
 48 H      -11.8010    -0.0820    -0.4700 H     1 <1>   0.1500 
 49 H      -15.8630     2.4560     0.6430 H     1 <1>   0.1500 
 50 H      -13.8730    -1.2700     0.0930 H     1 <1>   0.1500 
 51 H      -15.9080    -0.0040     0.6500 H     1 <1>   0.1500 
@<TRIPOS>BOND
  1   1   2  2   
  2   2   3  1   
  3   2   4  am  
  4   3   5  1   
  5   4   6  1   
  6   4   7  1   
  7   5   8  1   
  8   5  28  1   
  9   5  29  1   
 10   6   9  1   
 11   6  30  1   
 12   6  31  1   
 13   7  10  1   
 14   7  32  1   
 15   7  33  1   
 16   8  34  1   
 17   8  35  1   
 18   8  36  1   
 19   9  11  1   
 20   9  37  1   
 21   9  38  1   
 22  10  11  1   
 23  10  39  1   
 24  10  40  1   
 25  11  12  am  
 26  12  13  2   
 27  12  14  1   
 28  14  15  ar  
 29  14  16  ar  
 30  15  17  ar  
 31  15  41  1   
 32  16  18  ar  
 33  16  42  1   
 34  17  19  ar  
 35  17  43  1   
 36  18  19  ar  
 37  18  44  1   
 38  19  20  1   
 39  20  21  1   
 40  21  22  1   
 41  21  45  1   
 42  21  46  1   
 43  22  23  ar  
 44  22  24  ar  
 45  23  25  ar  
 46  23  47  1   
 47  24  26  ar  
 48  24  48  1   
 49  25  27  ar  
 50  25  49  1   
 51  26  27  ar  
 52  26  50  1   
 53  27  51  1   
@<TRIPOS>SUBSTRUCTURE
  1 ****  14 GROUP 4 **** **** 0

# MOE 2024.06 (io_trps.svl 2023.06)
