@<TRIPOS>MOLECULE
NONAME
43 46 1 0 0 
SMALL
USER_CHARGES


@<TRIPOS>ATOM
  1 CL       1.6810     1.1930    -3.1660 Cl    1 <1>  -0.1770 
  2 C        2.2640     1.2350    -1.5210 C.ar  1 <1>   0.1770 
  3 C        3.5080     0.7110    -1.2350 C.ar  1 <1>  -0.1500 
  4 C        1.4690     1.7920    -0.5360 C.ar  1 <1>  -0.1500 
  5 C        3.9820     0.7390     0.0720 C.ar  1 <1>   0.1000 
  6 C        1.9370     1.8230     0.7670 C.ar  1 <1>  -0.1500 
  7 N        5.2280     0.2220     0.4030 N.pl3 1 <1>  -0.8380 
  8 C        3.1840     1.2990     1.0630 C.ar  1 <1>  -0.1500 
  9 C        6.4150     0.9450    -0.1400 C.3   1 <1>   0.2090 
 10 C        5.3510    -1.2640     0.3910 C.3   1 <1>   0.2090 
 11 C        7.7060     0.4840     0.5700 C.3   1 <1>   0.3430 
 12 C        6.6470    -1.7100     1.1020 C.3   1 <1>   0.3430 
 13 N        7.8750    -1.0200     0.5580 N.4   1 <1>  -0.9590 
 14 C        9.1060    -1.4370     1.2810 C.3   1 <1>   0.4860 
 15 C       10.3060    -0.8820     0.5390 C.ar  1 <1>  -0.1430 
 16 C       10.9570     0.2490     1.0270 C.ar  1 <1>  -0.1500 
 17 C       10.7550    -1.4960    -0.6320 C.ar  1 <1>  -0.1500 
 18 C       12.0300     0.7410     0.3120 C.ar  1 <1>   0.0830 
 19 C       11.8410    -0.9850    -1.3330 C.ar  1 <1>  -0.1500 
 20 O       12.7840     1.8080     0.5870 O.3   1 <1>  -0.3620 
 21 C       12.4600     0.1430    -0.8350 C.ar  1 <1>   0.0830 
 22 C       13.7730     1.8850    -0.4400 C.3   1 <1>   0.4000 
 23 O       13.5070     0.8050    -1.3340 O.3   1 <1>  -0.3620 
 24 H        4.0970     0.2860    -2.0230 H     1 <1>   0.1500 
 25 H        0.5040     2.1940    -0.7880 H     1 <1>   0.1500 
 26 H        1.3310     2.2530     1.5470 H     1 <1>   0.1500 
 27 H        3.5500     1.3220     2.0740 H     1 <1>   0.1500 
 28 H        6.2840     2.0030     0.0110 H     1 <1>   0.0800 
 29 H        6.4970     0.7690    -1.1980 H     1 <1>   0.0800 
 30 H        5.3460    -1.6210    -0.6240 H     1 <1>   0.0800 
 31 H        4.5010    -1.6930     0.8960 H     1 <1>   0.0800 
 32 H        7.6670     0.8340     1.5880 H     1 <1>   0.0800 
 33 H        8.5510     0.9530     0.0920 H     1 <1>   0.0800 
 34 H        6.7500    -2.7780     1.0040 H     1 <1>   0.0800 
 35 H        6.5420    -1.4830     2.1500 H     1 <1>   0.0800 
 36 H        7.9980    -1.2950    -0.4230 H     1 <1>   0.4500 
 37 H        9.1750    -2.5120     1.3130 H     1 <1>   0.0800 
 38 H        9.0920    -1.0650     2.2930 H     1 <1>   0.0800 
 39 H       10.6600     0.7500     1.9320 H     1 <1>   0.1500 
 40 H       10.2740    -2.3810    -1.0130 H     1 <1>   0.1500 
 41 H       12.2050    -1.4430    -2.2360 H     1 <1>   0.1500 
 42 H       14.7510     1.7650    -0.0100 H     1 <1>   0.0800 
 43 H       13.6800     2.8200    -0.9640 H     1 <1>   0.0800 
@<TRIPOS>BOND
  1   1   2  1   
  2   2   3  ar  
  3   2   4  ar  
  4   3   5  ar  
  5   3  24  1   
  6   4   6  ar  
  7   4  25  1   
  8   5   7  1   
  9   5   8  ar  
 10   6   8  ar  
 11   6  26  1   
 12   7   9  1   
 13   7  10  1   
 14   8  27  1   
 15   9  11  1   
 16   9  28  1   
 17   9  29  1   
 18  10  12  1   
 19  10  30  1   
 20  10  31  1   
 21  11  13  1   
 22  11  32  1   
 23  11  33  1   
 24  12  13  1   
 25  12  34  1   
 26  12  35  1   
 27  13  14  1   
 28  13  36  1   
 29  14  15  1   
 30  14  37  1   
 31  14  38  1   
 32  15  16  ar  
 33  15  17  ar  
 34  16  18  ar  
 35  16  39  1   
 36  17  19  ar  
 37  17  40  1   
 38  18  20  1   
 39  18  21  ar  
 40  19  21  ar  
 41  19  41  1   
 42  20  22  1   
 43  21  23  1   
 44  22  23  1   
 45  22  42  1   
 46  22  43  1   
@<TRIPOS>SUBSTRUCTURE
  1 ****  11 GROUP 4 **** **** 0

# MOE 2024.06 (io_trps.svl 2023.06)
