@<TRIPOS>MOLECULE
NONAME
29 29 1 0 0 
SMALL
USER_CHARGES


@<TRIPOS>ATOM
  1 O       -1.4030    -1.7270     0.5150 O.co2 1 <1>  -0.9000 
  2 C       -1.8300    -0.5780     0.7220 C.2   1 <1>   0.9060 
  3 O       -1.8970    -0.1390     1.8780 O.co2 1 <1>  -0.9000 
  4 C       -2.3400     0.2010    -0.5010 C.3   1 <1>  -0.1860 
  5 C       -2.4960     1.7510    -0.4160 C.3   1 <1>  -0.1860 
  6 C       -3.6710    -0.4100    -0.9870 C.3   1 <1>  -0.0220 
  7 C       -1.2050     2.5620    -0.2780 C.2   1 <1>   0.9060 
  8 C       -3.5770     2.1370     0.6080 C.3   1 <1>  -0.0220 
  9 C       -4.9080     0.1730    -0.2950 C.2   1 <1>  -0.2760 
 10 O       -1.1850     3.5800     0.4320 O.co2 1 <1>  -0.9000 
 11 O       -0.2520     2.2960    -1.0250 O.co2 1 <1>  -0.9000 
 12 C       -4.8420     1.3050     0.4200 C.2   1 <1>  -0.2880 
 13 C       -6.1680    -0.6660    -0.5000 C.3   1 <1>   0.0580 
 14 C       -7.4540     0.1600    -0.3790 C.3   1 <1>  -0.2400 
 15 C       -6.1930    -1.8170     0.5100 C.3   1 <1>  -0.2400 
 16 H       -1.6060     0.0060    -1.2610 H     1 <1>   0.0800 
 17 H       -2.8740     2.0600    -1.3710 H     1 <1>   0.0800 
 18 H       -3.6270    -1.4750    -0.8440 H     1 <1>   0.0800 
 19 H       -3.7630    -0.2330    -2.0430 H     1 <1>   0.0800 
 20 H       -3.8080     3.1800     0.4860 H     1 <1>   0.0800 
 21 H       -3.1990     2.0020     1.6060 H     1 <1>   0.0800 
 22 H       -5.6740     1.7300     0.9470 H     1 <1>   0.1500 
 23 H       -6.1420    -1.0760    -1.4960 H     1 <1>   0.0800 
 24 H       -7.5840     0.5110     0.6290 H     1 <1>   0.0800 
 25 H       -8.3060    -0.4370    -0.6480 H     1 <1>   0.0800 
 26 H       -7.4030     1.0080    -1.0390 H     1 <1>   0.0800 
 27 H       -6.1820    -1.4230     1.5110 H     1 <1>   0.0800 
 28 H       -5.3230    -2.4380     0.3920 H     1 <1>   0.0800 
 29 H       -7.0700    -2.4220     0.3770 H     1 <1>   0.0800 
@<TRIPOS>BOND
  1   1   2  ar  
  2   2   3  ar  
  3   2   4  1   
  4   4   5  1   
  5   4   6  1   
  6   4  16  1   
  7   5   7  1   
  8   5   8  1   
  9   5  17  1   
 10   6   9  1   
 11   6  18  1   
 12   6  19  1   
 13   7  10  ar  
 14   7  11  ar  
 15   8  12  1   
 16   8  20  1   
 17   8  21  1   
 18   9  12  2   
 19   9  13  1   
 20  12  22  1   
 21  13  14  1   
 22  13  15  1   
 23  13  23  1   
 24  14  24  1   
 25  14  25  1   
 26  14  26  1   
 27  15  27  1   
 28  15  28  1   
 29  15  29  1   
@<TRIPOS>SUBSTRUCTURE
  1 ****   4 GROUP 4 **** **** 0

# MOE 2024.06 (io_trps.svl 2023.06)
