@<TRIPOS>MOLECULE
NONAME
41 43 1 0 0 
SMALL
USER_CHARGES


@<TRIPOS>ATOM
  1 CL       3.7710    -2.7070    -4.1890 Cl    1 <1>  -0.1770 
  2 C        3.7090    -2.2230    -2.5100 C.ar  1 <1>   0.1770 
  3 C        2.5040    -2.1870    -1.8290 C.ar  1 <1>   0.1770 
  4 C        4.8860    -1.8760    -1.8740 C.ar  1 <1>  -0.1500 
  5 CL       1.0070    -2.6250    -2.6240 Cl    1 <1>  -0.1770 
  6 C        2.4700    -1.8010    -0.5020 C.ar  1 <1>  -0.1500 
  7 C        4.8720    -1.4880    -0.5390 C.ar  1 <1>   0.1170 
  8 C        3.6500    -1.4540     0.1350 C.ar  1 <1>  -0.1500 
  9 N        6.0890    -1.1430     0.0660 N.am  1 <1>  -0.5470 
 10 C        6.4610    -0.9270     1.3630 C.2   1 <1>   0.5690 
 11 O        5.7190    -1.0170     2.3110 O.2   1 <1>  -0.5700 
 12 C        7.9260    -0.5480     1.5900 C.3   1 <1>   0.1710 
 13 N        8.8280    -0.9640     0.4730 N.3   1 <1>  -0.8100 
 14 C       10.1080    -0.2200     0.5320 C.3   1 <1>   0.1100 
 15 C        9.1170    -2.4200     0.5450 C.3   1 <1>   0.1100 
 16 C       11.0680    -0.6120    -0.6070 C.3   1 <1>   0.2090 
 17 C       10.0470    -2.8950    -0.5890 C.3   1 <1>   0.2090 
 18 N       11.3070    -2.0890    -0.6310 N.pl3 1 <1>  -0.8380 
 19 C       12.5440    -2.6450    -0.8900 C.ar  1 <1>   0.7200 
 20 N       12.5900    -3.9620    -1.0940 N.ar  1 <1>  -0.6200 
 21 N       13.5910    -1.8190    -0.9180 N.ar  1 <1>  -0.6200 
 22 C       13.7700    -4.4760    -1.3400 C.ar  1 <1>   0.1600 
 23 C       14.7580    -2.3600    -1.1660 C.ar  1 <1>   0.1600 
 24 C       14.9060    -3.7060    -1.3880 C.ar  1 <1>  -0.1500 
 25 H        5.8090    -1.9110    -2.4220 H     1 <1>   0.1500 
 26 H        1.5320    -1.7730     0.0250 H     1 <1>   0.1500 
 27 H        3.6110    -1.1510     1.1660 H     1 <1>   0.1500 
 28 H        6.9070    -1.0780    -0.5500 H     1 <1>   0.3700 
 29 H        8.2600    -0.9780     2.5180 H     1 <1>   0.0800 
 30 H        7.9570     0.5220     1.6930 H     1 <1>   0.0800 
 31 H       10.5990    -0.4080     1.4720 H     1 <1>   0.0800 
 32 H        9.9120     0.8350     0.4630 H     1 <1>   0.0800 
 33 H        8.1990    -2.9780     0.4890 H     1 <1>   0.0800 
 34 H        9.5880    -2.6540     1.4850 H     1 <1>   0.0800 
 35 H       11.9870    -0.0700    -0.4740 H     1 <1>   0.0800 
 36 H       10.6430    -0.3110    -1.5470 H     1 <1>   0.0800 
 37 H        9.5380    -2.7990    -1.5320 H     1 <1>   0.0800 
 38 H       10.2600    -3.9380    -0.4340 H     1 <1>   0.0800 
 39 H       13.8330    -5.5380    -1.5080 H     1 <1>   0.1500 
 40 H       15.6180    -1.7130    -1.1930 H     1 <1>   0.1500 
 41 H       15.8670    -4.1380    -1.5910 H     1 <1>   0.1500 
@<TRIPOS>BOND
  1   1   2  1   
  2   2   3  ar  
  3   2   4  ar  
  4   3   5  1   
  5   3   6  ar  
  6   4   7  ar  
  7   4  25  1   
  8   6   8  ar  
  9   6  26  1   
 10   7   8  ar  
 11   7   9  1   
 12   8  27  1   
 13   9  10  am  
 14   9  28  1   
 15  10  11  2   
 16  10  12  1   
 17  12  13  1   
 18  12  29  1   
 19  12  30  1   
 20  13  14  1   
 21  13  15  1   
 22  14  16  1   
 23  14  31  1   
 24  14  32  1   
 25  15  17  1   
 26  15  33  1   
 27  15  34  1   
 28  16  18  1   
 29  16  35  1   
 30  16  36  1   
 31  17  18  1   
 32  17  37  1   
 33  17  38  1   
 34  18  19  1   
 35  19  20  ar  
 36  19  21  ar  
 37  20  22  ar  
 38  21  23  ar  
 39  22  24  ar  
 40  22  39  1   
 41  23  24  ar  
 42  23  40  1   
 43  24  41  1   
@<TRIPOS>SUBSTRUCTURE
  1 ****  15 GROUP 4 **** **** 0

# MOE 2024.06 (io_trps.svl 2023.06)
