@<TRIPOS>MOLECULE
NONAME
31 33 1 0 0 
SMALL
USER_CHARGES


@<TRIPOS>ATOM
  1 CL       0.6830    -0.0250    -1.9510 Cl    1 <1>  -0.1770 
  2 C        1.9520     0.9460    -1.2570 C.ar  1 <1>   0.1770 
  3 C        1.8750     2.3230    -1.3340 C.ar  1 <1>  -0.1500 
  4 C        3.0210     0.3290    -0.6380 C.ar  1 <1>  -0.1500 
  5 C        2.8850     3.0910    -0.7810 C.ar  1 <1>  -0.1500 
  6 C        4.0250     1.1070    -0.0870 C.ar  1 <1>  -0.1500 
  7 C        3.9810     2.5030    -0.1430 C.ar  1 <1>   0.0280 
  8 C        5.0330     3.3070     0.4390 C.2   1 <1>   0.0480 
  9 O        6.2420     2.7260     0.5150 O.3   1 <1>  -0.3570 
 10 C        4.9240     4.5680     0.9130 C.2   1 <1>  -0.1360 
 11 C        7.4210     3.5080     0.6730 C.3   1 <1>   0.5600 
 12 C        6.0320     5.2360     1.4870 C.2   1 <1>   0.7060 
 13 O        7.1930     4.5970     1.5360 O.3   1 <1>  -0.4300 
 14 C        7.9280     3.9690    -0.6900 C.3   1 <1>  -0.1600 
 15 C        8.5380     2.6220     1.2060 C.3   1 <1>  -0.1600 
 16 O        5.9800     6.3610     1.9310 O.2   1 <1>  -0.5700 
 17 C        8.7370     2.7870    -1.2400 C.3   1 <1>  -0.1600 
 18 C        9.1350     1.9330    -0.0270 C.3   1 <1>  -0.1600 
 19 H        1.0350     2.7820    -1.8240 H     1 <1>   0.1500 
 20 H        3.0630    -0.7440    -0.5890 H     1 <1>   0.1500 
 21 H        2.8200     4.1610    -0.8550 H     1 <1>   0.1500 
 22 H        4.8560     0.6240     0.3970 H     1 <1>   0.1500 
 23 H        4.0060     5.1190     0.9020 H     1 <1>   0.1500 
 24 H        8.5910     4.8050    -0.5480 H     1 <1>   0.0800 
 25 H        7.1270     4.2520    -1.3490 H     1 <1>   0.0800 
 26 H        8.1750     1.9180     1.9330 H     1 <1>   0.0800 
 27 H        9.2920     3.2460     1.6540 H     1 <1>   0.0800 
 28 H        9.6010     3.1300    -1.7830 H     1 <1>   0.0800 
 29 H        8.1200     2.2030    -1.9020 H     1 <1>   0.0800 
 30 H        8.7160     0.9460    -0.1310 H     1 <1>   0.0800 
 31 H       10.2050     1.8480     0.0610 H     1 <1>   0.0800 
@<TRIPOS>BOND
  1   1   2  1   
  2   2   3  ar  
  3   2   4  ar  
  4   3   5  ar  
  5   3  19  1   
  6   4   6  ar  
  7   4  20  1   
  8   5   7  ar  
  9   5  21  1   
 10   6   7  ar  
 11   6  22  1   
 12   7   8  1   
 13   8   9  1   
 14   8  10  2   
 15   9  11  1   
 16  10  12  1   
 17  10  23  1   
 18  11  13  1   
 19  11  14  1   
 20  11  15  1   
 21  12  13  1   
 22  12  16  2   
 23  14  17  1   
 24  14  24  1   
 25  14  25  1   
 26  15  18  1   
 27  15  26  1   
 28  15  27  1   
 29  17  18  1   
 30  17  28  1   
 31  17  29  1   
 32  18  30  1   
 33  18  31  1   
@<TRIPOS>SUBSTRUCTURE
  1 ****   8 GROUP 4 **** **** 0

# MOE 2024.06 (io_trps.svl 2023.06)
