@<TRIPOS>MOLECULE
NONAME
40 42 1 0 0 
SMALL
USER_CHARGES


@<TRIPOS>ATOM
  1 CL       1.6450     1.6320    -3.2430 Cl    1 <1>  -0.1770 
  2 C        2.2420     1.5390    -1.6060 C.ar  1 <1>   0.1770 
  3 C        3.4520     0.9210    -1.3650 C.ar  1 <1>  -0.1500 
  4 C        1.4910     2.0840    -0.5810 C.ar  1 <1>  -0.1500 
  5 C        3.9370     0.8420    -0.0650 C.ar  1 <1>   0.1000 
  6 C        1.9690     2.0070     0.7170 C.ar  1 <1>  -0.1500 
  7 N        5.1500     0.2280     0.2210 N.pl3 1 <1>  -0.8380 
  8 C        3.1830     1.3900     0.9670 C.ar  1 <1>  -0.1500 
  9 C        6.3750     0.8910    -0.3150 C.3   1 <1>   0.2090 
 10 C        5.1670    -1.2610     0.1470 C.3   1 <1>   0.2090 
 11 C        7.6420     0.3110     0.3460 C.3   1 <1>   0.3430 
 12 C        6.4440    -1.8260     0.8060 C.3   1 <1>   0.3430 
 13 N        7.7050    -1.1990     0.2610 N.4   1 <1>  -0.9590 
 14 C        8.9210    -1.7350     0.9300 C.3   1 <1>   0.4860 
 15 C       10.1440    -1.2070     0.2040 C.ar  1 <1>  -0.1430 
 16 C       10.4870    -1.7030    -1.0470 C.ar  1 <1>  -0.1500 
 17 C       10.9310    -0.2170     0.7810 C.ar  1 <1>  -0.1500 
 18 C       11.5920    -1.1950    -1.7030 C.ar  1 <1>   0.1770 
 19 C       12.0390     0.2820     0.1150 C.ar  1 <1>  -0.1500 
 20 CL      12.0010    -1.8160    -3.2790 Cl    1 <1>  -0.1770 
 21 C       12.3730    -0.2060    -1.1360 C.ar  1 <1>  -0.1500 
 22 H        4.0070     0.5080    -2.1840 H     1 <1>   0.1500 
 23 H        0.5510     2.5590    -0.7970 H     1 <1>   0.1500 
 24 H        1.3980     2.4270     1.5270 H     1 <1>   0.1500 
 25 H        3.5570     1.3300     1.9730 H     1 <1>   0.1500 
 26 H        6.3200     1.9480    -0.1160 H     1 <1>   0.0800 
 27 H        6.4240     0.7580    -1.3820 H     1 <1>   0.0800 
 28 H        5.1130    -1.5740    -0.8810 H     1 <1>   0.0800 
 29 H        4.3010    -1.6500     0.6570 H     1 <1>   0.0800 
 30 H        7.6440     0.6140     1.3800 H     1 <1>   0.0800 
 31 H        8.5090     0.7430    -0.1250 H     1 <1>   0.0800 
 32 H        6.4700    -2.8930     0.6600 H     1 <1>   0.0800 
 33 H        6.3790    -1.6390     1.8650 H     1 <1>   0.0800 
 34 H        7.7800    -1.4350    -0.7360 H     1 <1>   0.4500 
 35 H        8.9230    -2.8130     0.8920 H     1 <1>   0.0800 
 36 H        8.9440    -1.4300     1.9640 H     1 <1>   0.0800 
 37 H        9.9200    -2.4800    -1.5290 H     1 <1>   0.1500 
 38 H       10.6980     0.1770     1.7570 H     1 <1>   0.1500 
 39 H       12.6470     1.0480     0.5690 H     1 <1>   0.1500 
 40 H       13.2300     0.1710    -1.6680 H     1 <1>   0.1500 
@<TRIPOS>BOND
  1   1   2  1   
  2   2   3  ar  
  3   2   4  ar  
  4   3   5  ar  
  5   3  22  1   
  6   4   6  ar  
  7   4  23  1   
  8   5   7  1   
  9   5   8  ar  
 10   6   8  ar  
 11   6  24  1   
 12   7   9  1   
 13   7  10  1   
 14   8  25  1   
 15   9  11  1   
 16   9  26  1   
 17   9  27  1   
 18  10  12  1   
 19  10  28  1   
 20  10  29  1   
 21  11  13  1   
 22  11  30  1   
 23  11  31  1   
 24  12  13  1   
 25  12  32  1   
 26  12  33  1   
 27  13  14  1   
 28  13  34  1   
 29  14  15  1   
 30  14  35  1   
 31  14  36  1   
 32  15  16  ar  
 33  15  17  ar  
 34  16  18  ar  
 35  16  37  1   
 36  17  19  ar  
 37  17  38  1   
 38  18  20  1   
 39  18  21  ar  
 40  19  21  ar  
 41  19  39  1   
 42  21  40  1   
@<TRIPOS>SUBSTRUCTURE
  1 ****   9 GROUP 4 **** **** 0

# MOE 2024.06 (io_trps.svl 2023.06)
