@<TRIPOS>MOLECULE
NONAME
38 39 1 0 0 
SMALL
USER_CHARGES


@<TRIPOS>ATOM
  1 BR      -0.2200    -0.1920    -1.1700 Br    1 <1>  -0.1110 
  2 C        1.2470     0.7700    -0.3560 C.ar  1 <1>   0.1110 
  3 C        1.0980     2.1200    -0.0410 C.ar  1 <1>   0.1170 
  4 C        2.4200     0.0760    -0.1300 C.ar  1 <1>  -0.1500 
  5 N       -0.0960     2.8210    -0.2710 N.am  1 <1>  -0.5470 
  6 C        2.1930     2.7740     0.5100 C.ar  1 <1>  -0.1500 
  7 C        3.4950     0.7500     0.4260 C.ar  1 <1>  -0.1500 
  8 C       -1.2810     2.5920     0.3740 C.2   1 <1>   0.5690 
  9 C        3.3790     2.0950     0.7420 C.ar  1 <1>  -0.1500 
 10 O       -1.3650     1.8810     1.3460 O.2   1 <1>  -0.5700 
 11 C       -2.5880     3.2090    -0.1500 C.3   1 <1>   0.4040 
 12 N       -3.7950     2.3410     0.1270 N.4   1 <1>  -0.9590 
 13 C       -3.7260     1.0450    -0.6120 C.3   1 <1>   0.3430 
 14 C       -5.0850     3.0560    -0.0770 C.3   1 <1>   0.3430 
 15 C       -4.8680     0.1350    -0.1630 C.3   1 <1>  -0.1600 
 16 C       -6.2430     2.1700     0.3810 C.3   1 <1>  -0.1600 
 17 C       -6.2360     0.8110    -0.3330 C.3   1 <1>  -0.0800 
 18 C       -7.3530    -0.0890     0.2080 C.3   1 <1>  -0.2400 
 19 H        2.4940    -0.9660    -0.3840 H     1 <1>   0.1500 
 20 H       -0.0360     3.5410    -0.9930 H     1 <1>   0.3700 
 21 H        2.1200     3.8150     0.7690 H     1 <1>   0.1500 
 22 H        4.4190     0.2290     0.6120 H     1 <1>   0.1500 
 23 H        4.2180     2.6130     1.1740 H     1 <1>   0.1500 
 24 H       -2.4980     3.3760    -1.2090 H     1 <1>   0.0800 
 25 H       -2.7160     4.1610     0.3340 H     1 <1>   0.0800 
 26 H       -3.7170     2.0810     1.1260 H     1 <1>   0.4500 
 27 H       -2.7860     0.5530    -0.4120 H     1 <1>   0.0800 
 28 H       -3.8010     1.2200    -1.6730 H     1 <1>   0.0800 
 29 H       -5.2090     3.2950    -1.1210 H     1 <1>   0.0800 
 30 H       -5.0940     3.9750     0.4880 H     1 <1>   0.0800 
 31 H       -4.7130    -0.1420     0.8660 H     1 <1>   0.0800 
 32 H       -4.8400    -0.7700    -0.7460 H     1 <1>   0.0800 
 33 H       -7.1700     2.6770     0.1760 H     1 <1>   0.0800 
 34 H       -6.1820     2.0300     1.4470 H     1 <1>   0.0800 
 35 H       -6.4150     0.9710    -1.3850 H     1 <1>   0.0800 
 36 H       -7.2200    -0.2810     1.2590 H     1 <1>   0.0800 
 37 H       -7.3600    -1.0310    -0.3110 H     1 <1>   0.0800 
 38 H       -8.3130     0.3770     0.0660 H     1 <1>   0.0800 
@<TRIPOS>BOND
  1   1   2  1   
  2   2   3  ar  
  3   2   4  ar  
  4   3   5  1   
  5   3   6  ar  
  6   4   7  ar  
  7   4  19  1   
  8   5   8  am  
  9   5  20  1   
 10   6   9  ar  
 11   6  21  1   
 12   7   9  ar  
 13   7  22  1   
 14   8  10  2   
 15   8  11  1   
 16   9  23  1   
 17  11  12  1   
 18  11  24  1   
 19  11  25  1   
 20  12  13  1   
 21  12  14  1   
 22  12  26  1   
 23  13  15  1   
 24  13  27  1   
 25  13  28  1   
 26  14  16  1   
 27  14  29  1   
 28  14  30  1   
 29  15  17  1   
 30  15  31  1   
 31  15  32  1   
 32  16  17  1   
 33  16  33  1   
 34  16  34  1   
 35  17  18  1   
 36  17  35  1   
 37  18  36  1   
 38  18  37  1   
 39  18  38  1   
@<TRIPOS>SUBSTRUCTURE
  1 ****   8 GROUP 4 **** **** 0

# MOE 2024.06 (io_trps.svl 2023.06)
