@<TRIPOS>MOLECULE
NONAME
45 46 1 0 0 
SMALL
USER_CHARGES


@<TRIPOS>ATOM
  1 O       -0.2660     0.1010    -1.5060 O.2   1 <1>  -0.5700 
  2 C       -0.1260    -0.9080    -0.8430 C.2   1 <1>   0.5440 
  3 N        1.1240    -1.2280    -0.4060 N.am  1 <1>  -0.7300 
  4 C       -1.2640    -1.7480    -0.5080 C.ar  1 <1>   0.0860 
  5 C        2.3640    -0.5020    -0.7260 C.3   1 <1>   0.2840 
  6 C       -1.1290    -3.1120    -0.2490 C.ar  1 <1>  -0.1500 
  7 C       -2.5500    -1.2200    -0.4300 C.ar  1 <1>  -0.1500 
  8 C        3.4580    -1.5210    -0.9990 C.ar  1 <1>  -0.1440 
  9 C       -2.2170    -3.9000     0.0830 C.ar  1 <1>  -0.1500 
 10 C       -3.6380    -2.0060    -0.0980 C.ar  1 <1>  -0.1500 
 11 C        4.0720    -2.2060     0.0460 C.ar  1 <1>   0.0830 
 12 C        3.8450    -1.7720    -2.3060 C.ar  1 <1>  -0.1500 
 13 C       -3.4980    -3.3630     0.1680 C.ar  1 <1>  -0.1430 
 14 O        3.6490    -1.9410     1.3110 O.3   1 <1>  -0.3620 
 15 C        5.0790    -3.1280    -0.2350 C.ar  1 <1>  -0.1500 
 16 C        4.8440    -2.6900    -2.5790 C.ar  1 <1>  -0.1500 
 17 C       -4.7430    -4.2000     0.5360 C.3   1 <1>   0.1440 
 18 C        4.2810    -2.5070     2.4380 C.3   1 <1>   0.0400 
 19 C        5.4620    -3.3660    -1.5430 C.ar  1 <1>  -0.1500 
 20 C       -5.7560    -4.1480    -0.6170 C.3   1 <1>  -0.2400 
 21 C       -4.4200    -5.6800     0.8040 C.3   1 <1>  -0.2400 
 22 C       -5.3880    -3.6290     1.8080 C.3   1 <1>  -0.2400 
 23 H        1.2720    -2.0110     0.2310 H     1 <1>   0.3700 
 24 H        2.6380     0.1210     0.1080 H     1 <1>   0.0800 
 25 H        2.2130     0.1300    -1.5840 H     1 <1>   0.0800 
 26 H       -0.1590    -3.5690    -0.3160 H     1 <1>   0.1500 
 27 H       -2.6920    -0.1730    -0.6330 H     1 <1>   0.1500 
 28 H       -2.0350    -4.9420     0.2700 H     1 <1>   0.1500 
 29 H       -4.6060    -1.5400    -0.0520 H     1 <1>   0.1500 
 30 H        3.3670    -1.2530    -3.1200 H     1 <1>   0.1500 
 31 H        5.5740    -3.6710     0.5470 H     1 <1>   0.1500 
 32 H        5.1390    -2.8770    -3.5970 H     1 <1>   0.1500 
 33 H        3.8040    -2.1180     3.3190 H     1 <1>   0.0800 
 34 H        5.3200    -2.2270     2.4320 H     1 <1>   0.0800 
 35 H        4.1690    -3.5760     2.4030 H     1 <1>   0.0800 
 36 H        6.2390    -4.0790    -1.7560 H     1 <1>   0.1500 
 37 H       -5.3020    -4.5140    -1.5210 H     1 <1>   0.0800 
 38 H       -6.0930    -3.1430    -0.7930 H     1 <1>   0.0800 
 39 H       -6.6160    -4.7540    -0.3960 H     1 <1>   0.0800 
 40 H       -3.9910    -6.1370    -0.0690 H     1 <1>   0.0800 
 41 H       -5.3140    -6.2220     1.0580 H     1 <1>   0.0800 
 42 H       -3.7310    -5.7730     1.6240 H     1 <1>   0.0800 
 43 H       -5.7230    -2.6200     1.6540 H     1 <1>   0.0800 
 44 H       -4.6750    -3.6280     2.6130 H     1 <1>   0.0800 
 45 H       -6.2360    -4.2200     2.1020 H     1 <1>   0.0800 
@<TRIPOS>BOND
  1   1   2  2   
  2   2   3  am  
  3   2   4  1   
  4   3   5  1   
  5   3  23  1   
  6   4   6  ar  
  7   4   7  ar  
  8   5   8  1   
  9   5  24  1   
 10   5  25  1   
 11   6   9  ar  
 12   6  26  1   
 13   7  10  ar  
 14   7  27  1   
 15   8  11  ar  
 16   8  12  ar  
 17   9  13  ar  
 18   9  28  1   
 19  10  13  ar  
 20  10  29  1   
 21  11  14  1   
 22  11  15  ar  
 23  12  16  ar  
 24  12  30  1   
 25  13  17  1   
 26  14  18  1   
 27  15  19  ar  
 28  15  31  1   
 29  16  19  ar  
 30  16  32  1   
 31  17  20  1   
 32  17  21  1   
 33  17  22  1   
 34  18  33  1   
 35  18  34  1   
 36  18  35  1   
 37  19  36  1   
 38  20  37  1   
 39  20  38  1   
 40  20  39  1   
 41  21  40  1   
 42  21  41  1   
 43  21  42  1   
 44  22  43  1   
 45  22  44  1   
 46  22  45  1   
@<TRIPOS>SUBSTRUCTURE
  1 ****   6 GROUP 4 **** **** 0

# MOE 2024.06 (io_trps.svl 2023.06)
