@<TRIPOS>MOLECULE
NONAME
44 45 1 0 0 
SMALL
USER_CHARGES


@<TRIPOS>ATOM
  1 O       -0.1100    -0.0800     0.5170 O.3   1 <1>  -0.3630 
  2 C       -1.3030    -0.6420     0.1880 C.ar  1 <1>   0.0830 
  3 C        0.8810    -0.7880     1.2280 C.3   1 <1>   0.0400 
  4 C       -2.1790     0.1150    -0.5820 C.ar  1 <1>  -0.1440 
  5 C       -1.6720    -1.9240     0.5850 C.ar  1 <1>  -0.1500 
  6 C       -3.4070    -0.4150    -0.9350 C.ar  1 <1>  -0.1500 
  7 C       -1.7910     1.5140    -1.0400 C.3   1 <1>  -0.0960 
  8 C       -2.9020    -2.4560     0.2310 C.ar  1 <1>  -0.1430 
  9 C       -3.7820    -1.6870    -0.5260 C.ar  1 <1>  -0.1430 
 10 C       -3.2330    -3.8740     0.6830 C.3   1 <1>  -0.0970 
 11 C       -5.1580    -2.1930    -0.9140 C.3   1 <1>   0.4860 
 12 N       -6.0580    -2.0530     0.2620 N.4   1 <1>  -0.9590 
 13 C       -7.3420    -2.8080     0.0690 C.3   1 <1>   0.3430 
 14 C       -6.2160    -0.6100     0.6440 C.3   1 <1>   0.3430 
 15 C       -8.5070    -1.8690    -0.2760 C.3   1 <1>  -0.0800 
 16 C       -7.4320    -0.4310     1.5540 C.3   1 <1>  -0.1600 
 17 C       -8.7400    -0.8480     0.8560 C.3   1 <1>  -0.1600 
 18 C       -9.7910    -2.6620    -0.5550 C.3   1 <1>  -0.2400 
 19 H        1.7360    -0.1450     1.3370 H     1 <1>   0.0800 
 20 H        1.1540    -1.6650     0.6680 H     1 <1>   0.0800 
 21 H        0.4960    -1.0500     2.1970 H     1 <1>   0.0800 
 22 H       -0.9990    -2.5180     1.1730 H     1 <1>   0.1500 
 23 H       -4.0720     0.1800    -1.5360 H     1 <1>   0.1500 
 24 H       -0.8960     1.4660    -1.6340 H     1 <1>   0.0800 
 25 H       -1.5990     2.1370    -0.1850 H     1 <1>   0.0800 
 26 H       -2.5680     1.9680    -1.6280 H     1 <1>   0.0800 
 27 H       -2.3470    -4.3750     1.0350 H     1 <1>   0.0800 
 28 H       -3.6230    -4.4550    -0.1330 H     1 <1>   0.0800 
 29 H       -3.9440    -3.8580     1.4870 H     1 <1>   0.0800 
 30 H       -5.0880    -3.2260    -1.2120 H     1 <1>   0.0800 
 31 H       -5.5400    -1.6240    -1.7460 H     1 <1>   0.0800 
 32 H       -5.5470    -2.4920     1.0370 H     1 <1>   0.4500 
 33 H       -7.5900    -3.3240     0.9820 H     1 <1>   0.0800 
 34 H       -7.2280    -3.5480    -0.7070 H     1 <1>   0.0800 
 35 H       -6.3590    -0.0130    -0.2420 H     1 <1>   0.0800 
 36 H       -5.3240    -0.2620     1.1420 H     1 <1>   0.0800 
 37 H       -8.2530    -1.3390    -1.1790 H     1 <1>   0.0800 
 38 H       -7.5020     0.5990     1.8560 H     1 <1>   0.0800 
 39 H       -7.2870    -1.0150     2.4460 H     1 <1>   0.0800 
 40 H       -9.4060    -1.2530     1.6000 H     1 <1>   0.0800 
 41 H       -9.2220     0.0220     0.4400 H     1 <1>   0.0800 
 42 H      -10.0890    -3.2320     0.3080 H     1 <1>   0.0800 
 43 H       -9.6480    -3.3380    -1.3800 H     1 <1>   0.0800 
 44 H      -10.5940    -1.9910    -0.8110 H     1 <1>   0.0800 
@<TRIPOS>BOND
  1   1   2  1   
  2   1   3  1   
  3   2   4  ar  
  4   2   5  ar  
  5   3  19  1   
  6   3  20  1   
  7   3  21  1   
  8   4   6  ar  
  9   4   7  1   
 10   5   8  ar  
 11   5  22  1   
 12   6   9  ar  
 13   6  23  1   
 14   7  24  1   
 15   7  25  1   
 16   7  26  1   
 17   8   9  ar  
 18   8  10  1   
 19   9  11  1   
 20  10  27  1   
 21  10  28  1   
 22  10  29  1   
 23  11  12  1   
 24  11  30  1   
 25  11  31  1   
 26  12  13  1   
 27  12  14  1   
 28  12  32  1   
 29  13  15  1   
 30  13  33  1   
 31  13  34  1   
 32  14  16  1   
 33  14  35  1   
 34  14  36  1   
 35  15  17  1   
 36  15  18  1   
 37  15  37  1   
 38  16  17  1   
 39  16  38  1   
 40  16  39  1   
 41  17  40  1   
 42  17  41  1   
 43  18  42  1   
 44  18  43  1   
 45  18  44  1   
@<TRIPOS>SUBSTRUCTURE
  1 ****   9 GROUP 4 **** **** 0

# MOE 2024.06 (io_trps.svl 2023.06)
