@<TRIPOS>MOLECULE
NONAME
28 28 1 0 0 
SMALL
USER_CHARGES


@<TRIPOS>ATOM
  1 O       -0.9830     1.3120     0.8770 O.2   1 <1>  -0.5700 
  2 C       -0.1000     1.9660     0.3800 C.2   1 <1>   0.5690 
  3 N        0.0080     2.0500    -0.9620 N.am  1 <1>  -0.8000 
  4 C        0.8990     2.7100     1.2730 C.3   1 <1>   0.2700 
  5 N        0.9430     4.2000     1.0150 N.pl3 1 <1>  -0.7880 
  6 C        1.8150     4.7390     0.0920 C.2   1 <1>   0.4390 
  7 C       -0.1970     4.9500     1.6170 C.3   1 <1>   0.2090 
  8 N        2.4750     3.9670    -0.6770 N.2   1 <1>  -0.5560 
  9 C        1.8970     6.2710     0.0620 C.3   1 <1>  -0.0990 
 10 C       -1.0810     5.5820     0.5350 C.3   1 <1>  -0.1600 
 11 C        3.3370     4.4870    -1.6400 C.1   1 <1>   0.6630 
 12 C        0.7460     6.8900    -0.7450 C.3   1 <1>  -0.1600 
 13 C       -0.5770     6.9440     0.0320 C.3   1 <1>  -0.1600 
 14 N        4.0290     4.9250    -2.4310 N.1   1 <1>  -0.5570 
 15 H       -0.6580     1.5790    -1.5730 H     1 <1>   0.3700 
 16 H        0.7160     2.6490    -1.3950 H     1 <1>   0.3700 
 17 H        1.8730     2.2830     1.1180 H     1 <1>   0.0800 
 18 H        0.6380     2.5340     2.3010 H     1 <1>   0.0800 
 19 H       -0.8040     4.2720     2.1930 H     1 <1>   0.0800 
 20 H        0.1730     5.7030     2.2920 H     1 <1>   0.0800 
 21 H        1.8930     6.6520     1.0660 H     1 <1>   0.0800 
 22 H        2.8270     6.6020    -0.3610 H     1 <1>   0.0800 
 23 H       -1.2060     4.8950    -0.2850 H     1 <1>   0.0800 
 24 H       -2.0540     5.7390     0.9650 H     1 <1>   0.0800 
 25 H        1.0180     7.8960    -1.0150 H     1 <1>   0.0800 
 26 H        0.6100     6.3380    -1.6590 H     1 <1>   0.0800 
 27 H       -1.3270     7.3680    -0.6140 H     1 <1>   0.0800 
 28 H       -0.4680     7.6120     0.8690 H     1 <1>   0.0800 
@<TRIPOS>BOND
  1   1   2  2   
  2   2   3  am  
  3   2   4  1   
  4   3  15  1   
  5   3  16  1   
  6   4   5  1   
  7   4  17  1   
  8   4  18  1   
  9   5   6  1   
 10   5   7  1   
 11   6   8  2   
 12   6   9  1   
 13   7  10  1   
 14   7  19  1   
 15   7  20  1   
 16   8  11  1   
 17   9  12  1   
 18   9  21  1   
 19   9  22  1   
 20  10  13  1   
 21  10  23  1   
 22  10  24  1   
 23  11  14  3   
 24  12  13  1   
 25  12  25  1   
 26  12  26  1   
 27  13  27  1   
 28  13  28  1   
@<TRIPOS>SUBSTRUCTURE
  1 ****   6 GROUP 4 **** **** 0

# MOE 2024.06 (io_trps.svl 2023.06)
