@<TRIPOS>MOLECULE
NONAME
32 32 1 0 0 
SMALL
USER_CHARGES


@<TRIPOS>ATOM
  1 O       -0.3290    -0.4490    -1.3540 O.2   1 <1>  -0.5700 
  2 C        0.2910    -1.3880    -0.8800 C.2   1 <1>   0.5440 
  3 N        1.5690    -1.1580    -0.4040 N.am  1 <1>  -0.6600 
  4 C       -0.3340    -2.6960    -0.8070 C.ar  1 <1>   0.0860 
  5 C        2.3070     0.0940    -0.7280 C.3   1 <1>   0.0600 
  6 C        2.2330    -2.0210     0.6110 C.3   1 <1>   0.0600 
  7 C       -1.6410    -2.8520    -0.3130 C.ar  1 <1>   0.1170 
  8 C        0.3580    -3.8340    -1.2270 C.ar  1 <1>  -0.1500 
  9 N       -2.3690    -1.7130     0.0620 N.am  1 <1>  -0.5470 
 10 C       -2.1900    -4.1300    -0.2320 C.ar  1 <1>  -0.1500 
 11 C       -0.2010    -5.0940    -1.1420 C.ar  1 <1>  -0.1500 
 12 C       -3.4720    -1.5220     0.8440 C.2   1 <1>   0.5690 
 13 C       -1.4800    -5.2420    -0.6370 C.ar  1 <1>  -0.1500 
 14 O       -4.0420    -2.4060     1.4320 O.2   1 <1>  -0.5700 
 15 C       -3.9850    -0.1000     0.9880 C.3   1 <1>  -0.0990 
 16 C       -4.4090     0.5300    -0.3490 C.3   1 <1>  -0.2400 
 17 H        1.8800     0.5720    -1.5930 H     1 <1>   0.0800 
 18 H        3.3380    -0.1310    -0.9380 H     1 <1>   0.0800 
 19 H        2.2520     0.7730     0.1050 H     1 <1>   0.0800 
 20 H        1.5360    -2.7210     1.0370 H     1 <1>   0.0800 
 21 H        2.6250    -1.4120     1.4070 H     1 <1>   0.0800 
 22 H        3.0420    -2.5630     0.1530 H     1 <1>   0.0800 
 23 H        1.3500    -3.7210    -1.6280 H     1 <1>   0.1500 
 24 H       -1.9750    -0.8490    -0.3360 H     1 <1>   0.3700 
 25 H       -3.1880    -4.2620     0.1460 H     1 <1>   0.1500 
 26 H        0.3520    -5.9590    -1.4680 H     1 <1>   0.1500 
 27 H       -1.9230    -6.2200    -0.5650 H     1 <1>   0.1500 
 28 H       -3.2160     0.4970     1.4430 H     1 <1>   0.0800 
 29 H       -4.8290    -0.1090     1.6550 H     1 <1>   0.0800 
 30 H       -3.5700     0.6070    -1.0200 H     1 <1>   0.0800 
 31 H       -4.8040     1.5170    -0.1830 H     1 <1>   0.0800 
 32 H       -5.1700    -0.0710    -0.8160 H     1 <1>   0.0800 
@<TRIPOS>BOND
  1   1   2  2   
  2   2   3  am  
  3   2   4  1   
  4   3   5  1   
  5   3   6  1   
  6   4   7  ar  
  7   4   8  ar  
  8   5  17  1   
  9   5  18  1   
 10   5  19  1   
 11   6  20  1   
 12   6  21  1   
 13   6  22  1   
 14   7   9  1   
 15   7  10  ar  
 16   8  11  ar  
 17   8  23  1   
 18   9  12  am  
 19   9  24  1   
 20  10  13  ar  
 21  10  25  1   
 22  11  13  ar  
 23  11  26  1   
 24  12  14  2   
 25  12  15  1   
 26  13  27  1   
 27  15  16  1   
 28  15  28  1   
 29  15  29  1   
 30  16  30  1   
 31  16  31  1   
 32  16  32  1   
@<TRIPOS>SUBSTRUCTURE
  1 ****   7 GROUP 4 **** **** 0

# MOE 2024.06 (io_trps.svl 2023.06)
