@<TRIPOS>MOLECULE
NONAME
39 40 1 0 0 
SMALL
USER_CHARGES


@<TRIPOS>ATOM
  1 S       -4.9760    -4.5300    -0.7710 S.3   1 <1>  -0.4600 
  2 C       -5.0320    -2.7310    -0.9140 C.3   1 <1>   0.5940 
  3 C       -3.6980    -4.6310     0.5010 C.3   1 <1>   0.1310 
  4 N       -3.9880    -2.2530     0.0220 N.am  1 <1>  -0.6600 
  5 C       -6.4260    -2.2390    -0.5340 C.ar  1 <1>  -0.1440 
  6 C       -3.3300    -3.1880     0.7640 C.2   1 <1>   0.5690 
  7 C       -3.8650    -0.8020     0.2920 C.3   1 <1>   0.1400 
  8 C       -6.9100    -2.3880     0.7640 C.ar  1 <1>  -0.1500 
  9 C       -7.2200    -1.6200    -1.4950 C.ar  1 <1>  -0.1500 
 10 O       -2.4960    -2.8990     1.5890 O.2   1 <1>  -0.5700 
 11 C       -2.5420    -0.2820    -0.2770 C.3   1 <1>  -0.1600 
 12 C       -8.1670    -1.9190     1.1050 C.ar  1 <1>  -0.1500 
 13 C       -8.4790    -1.1460    -1.1650 C.ar  1 <1>  -0.1500 
 14 C       -2.2070     1.0780     0.3310 C.3   1 <1>   0.3430 
 15 C       -8.9280    -1.3030     0.1310 C.ar  1 <1>   0.1900 
 16 N       -0.7950     1.4480     0.0250 N.4   1 <1>  -0.9590 
 17 F      -10.1120    -0.8540     0.4470 F     1 <1>  -0.1900 
 18 C       -0.3590     2.5970     0.8780 C.3   1 <1>   0.2630 
 19 C       -0.5790     1.7590    -1.4230 C.3   1 <1>   0.2630 
 20 H       -4.7810    -2.4840    -1.9310 H     1 <1>   0.0800 
 21 H       -2.8690    -5.1910     0.1100 H     1 <1>   0.0800 
 22 H       -4.1190    -5.0990     1.3710 H     1 <1>   0.0800 
 23 H       -3.8870    -0.6610     1.3610 H     1 <1>   0.0800 
 24 H       -4.6980    -0.2640    -0.1310 H     1 <1>   0.0800 
 25 H       -6.3090    -2.8730     1.5150 H     1 <1>   0.1500 
 26 H       -6.8680    -1.5050    -2.5060 H     1 <1>   0.1500 
 27 H       -2.6230    -0.2130    -1.3460 H     1 <1>   0.0800 
 28 H       -1.7590    -0.9730    -0.0210 H     1 <1>   0.0800 
 29 H       -8.5520    -2.0270     2.1030 H     1 <1>   0.1500 
 30 H       -9.1060    -0.6660    -1.8960 H     1 <1>   0.1500 
 31 H       -2.3300     1.0140     1.4010 H     1 <1>   0.0800 
 32 H       -2.8840     1.8310    -0.0420 H     1 <1>   0.0800 
 33 H       -0.2100     0.6330     0.2730 H     1 <1>   0.4500 
 34 H       -0.9510     3.4710     0.6630 H     1 <1>   0.0800 
 35 H        0.6780     2.8280     0.6920 H     1 <1>   0.0800 
 36 H       -0.4720     2.3520     1.9220 H     1 <1>   0.0800 
 37 H       -1.1940     2.5910    -1.7250 H     1 <1>   0.0800 
 38 H       -0.8280     0.9050    -2.0330 H     1 <1>   0.0800 
 39 H        0.4540     2.0120    -1.6000 H     1 <1>   0.0800 
@<TRIPOS>BOND
  1   1   2  1   
  2   1   3  1   
  3   2   4  1   
  4   2   5  1   
  5   2  20  1   
  6   3   6  1   
  7   3  21  1   
  8   3  22  1   
  9   4   6  am  
 10   4   7  1   
 11   5   8  ar  
 12   5   9  ar  
 13   6  10  2   
 14   7  11  1   
 15   7  23  1   
 16   7  24  1   
 17   8  12  ar  
 18   8  25  1   
 19   9  13  ar  
 20   9  26  1   
 21  11  14  1   
 22  11  27  1   
 23  11  28  1   
 24  12  15  ar  
 25  12  29  1   
 26  13  15  ar  
 27  13  30  1   
 28  14  16  1   
 29  14  31  1   
 30  14  32  1   
 31  15  17  1   
 32  16  18  1   
 33  16  19  1   
 34  16  33  1   
 35  18  34  1   
 36  18  35  1   
 37  18  36  1   
 38  19  37  1   
 39  19  38  1   
 40  19  39  1   
@<TRIPOS>SUBSTRUCTURE
  1 ****   7 GROUP 4 **** **** 0

# MOE 2024.06 (io_trps.svl 2023.06)
