@<TRIPOS>MOLECULE
NONAME
34 35 1 0 0 
SMALL
USER_CHARGES


@<TRIPOS>ATOM
  1 BR      -2.0960     1.0580    -1.5350 Br    1 <1>  -0.1110 
  2 C       -0.8210     2.2510    -0.7240 C.ar  1 <1>   0.1110 
  3 C        0.4530     2.3180    -1.2400 C.ar  1 <1>  -0.1500 
  4 C       -1.2200     3.0080     0.3570 C.ar  1 <1>  -0.1500 
  5 C        1.4080     3.1720    -0.6770 C.ar  1 <1>   0.0860 
  6 C       -0.2990     3.8620     0.9310 C.ar  1 <1>  -0.1500 
  7 C        1.0020     3.9530     0.4270 C.ar  1 <1>   0.0830 
  8 C        2.7440     3.1970    -1.2590 C.2   1 <1>   0.5440 
  9 O        1.9000     4.8040     0.9910 O.3   1 <1>  -0.3630 
 10 O        2.9200     2.7670    -2.3830 O.2   1 <1>  -0.5700 
 11 N        3.8100     3.6840    -0.5610 N.am  1 <1>  -0.4930 
 12 C        1.5730     5.7070     2.0270 C.3   1 <1>   0.0400 
 13 C        5.1590     3.7690    -0.8600 C.2   1 <1>   0.5790 
 14 N        5.7770     3.1640    -1.8730 N.2   1 <1>  -0.2270 
 15 N        5.9260     4.4660    -0.1110 N.2   1 <1>  -0.7070 
 16 N        7.0060     3.4910    -1.7770 N.2   1 <1>  -0.4180 
 17 N        7.0840     4.2740    -0.7160 N.pl3 1 <1>   0.5800 
 18 C        8.3450     4.8830    -0.2490 C.3   1 <1>   0.0960 
 19 C        9.0160     4.0210     0.8330 C.3   1 <1>  -0.1600 
 20 C       10.3280     4.6510     1.3140 C.3   1 <1>  -0.2400 
 21 H        0.7090     1.7030    -2.0860 H     1 <1>   0.1500 
 22 H       -2.2250     2.9280     0.7340 H     1 <1>   0.1500 
 23 H       -0.6180     4.4470     1.7720 H     1 <1>   0.1500 
 24 H        3.5780     4.1710     0.3020 H     1 <1>   0.3700 
 25 H        2.4480     6.2910     2.2520 H     1 <1>   0.0800 
 26 H        1.2740     5.1510     2.8980 H     1 <1>   0.0800 
 27 H        0.7820     6.3540     1.6920 H     1 <1>   0.0800 
 28 H        8.1210     5.8580     0.1390 H     1 <1>   0.0800 
 29 H        8.9980     4.9900    -1.0960 H     1 <1>   0.0800 
 30 H        9.2210     3.0410     0.4330 H     1 <1>   0.0800 
 31 H        8.3470     3.9150     1.6700 H     1 <1>   0.0800 
 32 H       11.0240     4.7490     0.4990 H     1 <1>   0.0800 
 33 H       10.7770     4.0300     2.0700 H     1 <1>   0.0800 
 34 H       10.1490     5.6240     1.7370 H     1 <1>   0.0800 
@<TRIPOS>BOND
  1   1   2  1   
  2   2   3  ar  
  3   2   4  ar  
  4   3   5  ar  
  5   3  21  1   
  6   4   6  ar  
  7   4  22  1   
  8   5   7  ar  
  9   5   8  1   
 10   6   7  ar  
 11   6  23  1   
 12   7   9  1   
 13   8  10  2   
 14   8  11  am  
 15   9  12  1   
 16  11  13  1   
 17  11  24  1   
 18  12  25  1   
 19  12  26  1   
 20  12  27  1   
 21  13  14  1   
 22  13  15  2   
 23  14  16  2   
 24  15  17  1   
 25  16  17  1   
 26  17  18  1   
 27  18  19  1   
 28  18  28  1   
 29  18  29  1   
 30  19  20  1   
 31  19  30  1   
 32  19  31  1   
 33  20  32  1   
 34  20  33  1   
 35  20  34  1   
@<TRIPOS>SUBSTRUCTURE
  1 ****  11 GROUP 4 **** **** 0

# MOE 2024.06 (io_trps.svl 2023.06)
