@<TRIPOS>MOLECULE
NONAME
40 42 1 0 0 
SMALL
USER_CHARGES


@<TRIPOS>ATOM
  1 O       -0.3410     0.4010    -1.0840 O.2   1 <1>  -0.5700 
  2 C       -1.1990     1.1810    -0.6900 C.2   1 <1>   0.6160 
  3 N       -2.4640     0.7790    -0.4170 N.am  1 <1>  -0.5470 
  4 C       -1.0720     2.5810    -0.4310 C.2   1 <1>  -0.0140 
  5 C       -3.1980     1.8660     0.0200 C.ar  1 <1>   0.1170 
  6 C       -2.3740     2.9850     0.0220 C.ar  1 <1>   0.0280 
  7 C        0.0480     3.3510    -0.5780 C.2   1 <1>  -0.0500 
  8 C       -4.5240     1.9400     0.4130 C.ar  1 <1>  -0.1500 
  9 C       -2.8940     4.2110     0.4250 C.ar  1 <1>  -0.1500 
 10 N        1.2320     2.8570    -1.0360 N.pl3 1 <1>  -0.8690 
 11 C       -5.0310     3.1640     0.8130 C.ar  1 <1>  -0.1500 
 12 C       -4.2180     4.2930     0.8180 C.ar  1 <1>  -0.1500 
 13 C        2.5100     3.5810    -1.1740 C.3   1 <1>   0.2090 
 14 C        3.5110     3.0180    -0.1500 C.3   1 <1>   0.3430 
 15 N        4.8880     3.6090    -0.2600 N.4   1 <1>  -0.9590 
 16 C        5.8450     2.8540     0.6250 C.3   1 <1>   0.3430 
 17 C        4.9160     5.0760     0.0870 C.3   1 <1>   0.3430 
 18 C        7.2440     3.5010     0.6300 C.3   1 <1>   0.1200 
 19 C        6.3560     5.6250     0.1170 C.3   1 <1>   0.1200 
 20 O        7.1500     4.8530     0.9700 O.3   1 <1>  -0.5600 
 21 H       -2.7690    -0.1860    -0.5300 H     1 <1>   0.3700 
 22 H        0.0050     4.3990    -0.3260 H     1 <1>   0.1500 
 23 H       -5.1420     1.0600     0.4040 H     1 <1>   0.1500 
 24 H       -2.2700     5.0860     0.4290 H     1 <1>   0.1500 
 25 H        1.2250     1.8630    -1.3470 H     1 <1>   0.4000 
 26 H       -6.0590     3.2460     1.1230 H     1 <1>   0.1500 
 27 H       -4.6280     5.2390     1.1320 H     1 <1>   0.1500 
 28 H        2.8770     3.4430    -2.1760 H     1 <1>   0.0800 
 29 H        2.3390     4.6290    -0.9980 H     1 <1>   0.0800 
 30 H        3.5700     1.9530    -0.3020 H     1 <1>   0.0800 
 31 H        3.1200     3.1910     0.8390 H     1 <1>   0.0800 
 32 H        5.2220     3.5030    -1.2280 H     1 <1>   0.4500 
 33 H        5.4750     2.8450     1.6370 H     1 <1>   0.0800 
 34 H        5.9270     1.8320     0.2940 H     1 <1>   0.0800 
 35 H        4.3390     5.6390    -0.6270 H     1 <1>   0.0800 
 36 H        4.4780     5.2280     1.0600 H     1 <1>   0.0800 
 37 H        7.7190     3.4160    -0.3320 H     1 <1>   0.0800 
 38 H        7.8700     3.0230     1.3640 H     1 <1>   0.0800 
 39 H        6.3610     6.6340     0.4910 H     1 <1>   0.0800 
 40 H        6.7970     5.6220    -0.8660 H     1 <1>   0.0800 
@<TRIPOS>BOND
  1   1   2  2   
  2   2   3  am  
  3   2   4  1   
  4   3   5  1   
  5   3  21  1   
  6   4   6  1   
  7   4   7  2   
  8   5   6  ar  
  9   5   8  ar  
 10   6   9  ar  
 11   7  10  1   
 12   7  22  1   
 13   8  11  ar  
 14   8  23  1   
 15   9  12  ar  
 16   9  24  1   
 17  10  13  1   
 18  10  25  1   
 19  11  12  ar  
 20  11  26  1   
 21  12  27  1   
 22  13  14  1   
 23  13  28  1   
 24  13  29  1   
 25  14  15  1   
 26  14  30  1   
 27  14  31  1   
 28  15  16  1   
 29  15  17  1   
 30  15  32  1   
 31  16  18  1   
 32  16  33  1   
 33  16  34  1   
 34  17  19  1   
 35  17  35  1   
 36  17  36  1   
 37  18  20  1   
 38  18  37  1   
 39  18  38  1   
 40  19  20  1   
 41  19  39  1   
 42  19  40  1   
@<TRIPOS>SUBSTRUCTURE
  1 ****   7 GROUP 4 **** **** 0

# MOE 2024.06 (io_trps.svl 2023.06)
