@<TRIPOS>MOLECULE
NONAME
46 47 1 0 0 
SMALL
USER_CHARGES


@<TRIPOS>ATOM
  1 S        0.9980     0.6280    -0.9300 S.o2  1 <1>   1.4470 
  2 O        0.5230    -0.4890    -1.7170 O.2   1 <1>  -0.6500 
  3 O        2.1620     1.3450    -1.4210 O.2   1 <1>  -0.6500 
  4 N        1.5160     0.0070     0.5660 N.am  1 <1>  -0.8490 
  5 C       -0.4140     1.7360    -0.5060 C.ar  1 <1>  -0.0090 
  6 C        2.3220    -1.2180     0.4730 C.3   1 <1>   0.1960 
  7 C        2.0060     1.0420     1.4960 C.3   1 <1>   0.1960 
  8 C       -0.5190     3.0290    -1.0500 C.ar  1 <1>  -0.1440 
  9 C       -1.4190     1.3120     0.3830 C.ar  1 <1>  -0.1430 
 10 C        3.8090    -0.8990     0.2880 C.3   1 <1>  -0.1600 
 11 C        3.2350     0.5900     2.2910 C.3   1 <1>  -0.1600 
 12 C       -1.5100     3.9060    -0.6140 C.ar  1 <1>  -0.1430 
 13 C        0.4420     3.5030    -2.1460 C.3   1 <1>  -0.0970 
 14 C       -2.4060     2.1950     0.8130 C.ar  1 <1>  -0.1430 
 15 C       -1.4780    -0.1290     0.9060 C.3   1 <1>  -0.0970 
 16 C        4.3550     0.0690     1.3670 C.3   1 <1>  -0.0190 
 17 C       -2.4330     3.4800     0.3160 C.ar  1 <1>  -0.1500 
 18 C       -1.6390     5.3420    -1.1130 C.3   1 <1>  -0.0970 
 19 C       -3.4820     1.8140     1.8260 C.3   1 <1>  -0.0970 
 20 C        5.1760     1.2190     0.7780 C.2   1 <1>   0.5690 
 21 O        6.2450     1.4850     1.2610 O.2   1 <1>  -0.5700 
 22 N        4.7120     1.9430    -0.2570 N.am  1 <1>  -0.8000 
 23 H        1.9750    -1.8450    -0.3320 H     1 <1>   0.0800 
 24 H        2.1940    -1.7800     1.3830 H     1 <1>   0.0800 
 25 H        1.2110     1.2990     2.1770 H     1 <1>   0.0800 
 26 H        2.2630     1.9400     0.9600 H     1 <1>   0.0800 
 27 H        3.9530    -0.5060    -0.7020 H     1 <1>   0.0800 
 28 H        4.3640    -1.8190     0.3300 H     1 <1>   0.0800 
 29 H        2.9390    -0.1820     2.9790 H     1 <1>   0.0800 
 30 H        3.6040     1.4120     2.8800 H     1 <1>   0.0800 
 31 H        1.3750     3.8160    -1.7110 H     1 <1>   0.0800 
 32 H        0.0490     4.3190    -2.7190 H     1 <1>   0.0800 
 33 H        0.6260     2.7160    -2.8540 H     1 <1>   0.0800 
 34 H       -1.0630    -0.8310     0.2090 H     1 <1>   0.0800 
 35 H       -2.4900    -0.4500     1.0640 H     1 <1>   0.0800 
 36 H       -0.9450    -0.2070     1.8360 H     1 <1>   0.0800 
 37 H        5.0330    -0.4910     1.9890 H     1 <1>   0.0800 
 38 H       -3.1960     4.1590     0.6530 H     1 <1>   0.1500 
 39 H       -0.6910     5.8440    -1.0550 H     1 <1>   0.0800 
 40 H       -2.3410     5.8990    -0.5190 H     1 <1>   0.0800 
 41 H       -1.9850     5.3480    -2.1310 H     1 <1>   0.0800 
 42 H       -3.0430     1.3220     2.6740 H     1 <1>   0.0800 
 43 H       -4.2010     1.1590     1.3680 H     1 <1>   0.0800 
 44 H       -4.0020     2.6840     2.1850 H     1 <1>   0.0800 
 45 H        5.2830     2.6880    -0.6530 H     1 <1>   0.3700 
 46 H        3.8320     1.7300    -0.7520 H     1 <1>   0.3700 
@<TRIPOS>BOND
  1   1   2  2   
  2   1   3  2   
  3   1   4  am  
  4   1   5  1   
  5   4   6  1   
  6   4   7  1   
  7   5   8  ar  
  8   5   9  ar  
  9   6  10  1   
 10   6  23  1   
 11   6  24  1   
 12   7  11  1   
 13   7  25  1   
 14   7  26  1   
 15   8  12  ar  
 16   8  13  1   
 17   9  14  ar  
 18   9  15  1   
 19  10  16  1   
 20  10  27  1   
 21  10  28  1   
 22  11  16  1   
 23  11  29  1   
 24  11  30  1   
 25  12  17  ar  
 26  12  18  1   
 27  13  31  1   
 28  13  32  1   
 29  13  33  1   
 30  14  17  ar  
 31  14  19  1   
 32  15  34  1   
 33  15  35  1   
 34  15  36  1   
 35  16  20  1   
 36  16  37  1   
 37  17  38  1   
 38  18  39  1   
 39  18  40  1   
 40  18  41  1   
 41  19  42  1   
 42  19  43  1   
 43  19  44  1   
 44  20  21  2   
 45  20  22  am  
 46  22  45  1   
 47  22  46  1   
@<TRIPOS>SUBSTRUCTURE
  1 ****   1 GROUP 4 **** **** 0

# MOE 2024.06 (io_trps.svl 2023.06)
