@<TRIPOS>MOLECULE
NONAME
37 38 1 0 0 
SMALL
USER_CHARGES


@<TRIPOS>ATOM
  1 S       -0.0670    -0.4080     1.2060 S.o2  1 <1>   1.4470 
  2 O        0.6320     0.8440     0.9990 O.2   1 <1>  -0.6500 
  3 O       -0.6480    -0.6540     2.5100 O.2   1 <1>  -0.6500 
  4 N       -1.3510    -0.5000     0.1010 N.am  1 <1>  -0.8490 
  5 C        1.0320    -1.7860     0.7820 C.ar  1 <1>  -0.0090 
  6 C       -2.1940    -1.6740     0.3460 C.3   1 <1>   0.1960 
  7 C       -2.0980     0.7600     0.0660 C.3   1 <1>   0.1960 
  8 C        1.5950    -1.9100    -0.4890 C.ar  1 <1>   0.0830 
  9 C        1.3490    -2.7560     1.7280 C.ar  1 <1>  -0.1500 
 10 C       -2.8670    -2.1270    -0.9530 C.3   1 <1>  -0.1600 
 11 C       -3.1260     0.8340    -1.0710 C.3   1 <1>  -0.1600 
 12 O        1.3120    -1.0070    -1.4470 O.3   1 <1>  -0.3620 
 13 C        2.4350    -2.9690    -0.8170 C.ar  1 <1>  -0.1500 
 14 C        2.1900    -3.7980     1.3900 C.ar  1 <1>   0.1900 
 15 C       -4.2350    -1.4850    -1.2340 C.3   1 <1>  -0.1600 
 16 C       -4.3810    -0.0150    -0.8180 C.3   1 <1>  -0.1600 
 17 C        2.2910    -0.0250    -1.7030 C.3   1 <1>   0.0400 
 18 C        2.7420    -3.9270     0.1310 C.ar  1 <1>  -0.1500 
 19 F        2.4720    -4.6970     2.2940 F     1 <1>  -0.1900 
 20 H       -2.9160    -1.4800     1.1230 H     1 <1>   0.0800 
 21 H       -1.5740    -2.4890     0.6800 H     1 <1>   0.0800 
 22 H       -1.4030     1.5680    -0.0900 H     1 <1>   0.0800 
 23 H       -2.5790     0.9280     1.0160 H     1 <1>   0.0800 
 24 H        0.9470    -2.7030     2.7250 H     1 <1>   0.1500 
 25 H       -3.0080    -3.1920    -0.9090 H     1 <1>   0.0800 
 26 H       -2.1950    -1.9360    -1.7730 H     1 <1>   0.0800 
 27 H       -2.6620     0.5780    -2.0070 H     1 <1>   0.0800 
 28 H       -3.4390     1.8600    -1.1430 H     1 <1>   0.0800 
 29 H        2.8380    -3.0370    -1.8120 H     1 <1>   0.1500 
 30 H       -4.9990    -2.0510    -0.7300 H     1 <1>   0.0800 
 31 H       -4.4280    -1.5680    -2.2900 H     1 <1>   0.0800 
 32 H       -5.2030     0.4050    -1.3710 H     1 <1>   0.0800 
 33 H       -4.6440     0.0410     0.2240 H     1 <1>   0.0800 
 34 H        1.8980     0.6560    -2.4360 H     1 <1>   0.0800 
 35 H        3.1780    -0.5020    -2.0780 H     1 <1>   0.0800 
 36 H        2.5030     0.5050    -0.7910 H     1 <1>   0.0800 
 37 H        3.3900    -4.7550    -0.0960 H     1 <1>   0.1500 
@<TRIPOS>BOND
  1   1   2  2   
  2   1   3  2   
  3   1   4  am  
  4   1   5  1   
  5   4   6  1   
  6   4   7  1   
  7   5   8  ar  
  8   5   9  ar  
  9   6  10  1   
 10   6  20  1   
 11   6  21  1   
 12   7  11  1   
 13   7  22  1   
 14   7  23  1   
 15   8  12  1   
 16   8  13  ar  
 17   9  14  ar  
 18   9  24  1   
 19  10  15  1   
 20  10  25  1   
 21  10  26  1   
 22  11  16  1   
 23  11  27  1   
 24  11  28  1   
 25  12  17  1   
 26  13  18  ar  
 27  13  29  1   
 28  14  18  ar  
 29  14  19  1   
 30  15  16  1   
 31  15  30  1   
 32  15  31  1   
 33  16  32  1   
 34  16  33  1   
 35  17  34  1   
 36  17  35  1   
 37  17  36  1   
 38  18  37  1   
@<TRIPOS>SUBSTRUCTURE
  1 ****   5 GROUP 4 **** **** 0

# MOE 2024.06 (io_trps.svl 2023.06)
