@<TRIPOS>MOLECULE
NONAME
45 45 1 0 0 
SMALL
USER_CHARGES


@<TRIPOS>ATOM
  1 CL      -2.7070     1.2340    -2.3060 Cl    1 <1>  -0.1770 
  2 C       -2.0710     1.7610    -0.7680 C.ar  1 <1>   0.1770 
  3 C       -2.1910     3.0910    -0.3920 C.ar  1 <1>  -0.1440 
  4 C       -1.4910     0.8220     0.0630 C.ar  1 <1>  -0.1500 
  5 C       -1.7130     3.4770     0.8530 C.ar  1 <1>  -0.1500 
  6 C       -2.8270     4.1010    -1.3260 C.3   1 <1>   0.4870 
  7 C       -1.0270     1.2160     1.3060 C.ar  1 <1>  -0.1500 
  8 C       -1.1390     2.5390     1.6970 C.ar  1 <1>  -0.1500 
  9 N       -4.2210     4.4160    -0.8670 N.4   1 <1>  -0.9590 
 10 C       -5.1370     3.2080    -0.8890 C.3   1 <1>   0.3430 
 11 C       -4.7520     5.5270    -1.7080 C.3   1 <1>   0.3430 
 12 C       -5.1580     2.3800     0.4320 C.3   1 <1>   0.3430 
 13 C       -5.9240     6.1910    -0.9930 C.3   1 <1>  -0.2400 
 14 N       -5.9670     1.1030     0.3760 N.4   1 <1>  -0.9590 
 15 C       -5.3080     0.0600    -0.4670 C.3   1 <1>   0.3430 
 16 C       -7.4100     1.2790     0.0170 C.3   1 <1>   0.3430 
 17 C       -5.8030    -1.3220    -0.0570 C.3   1 <1>  -0.2400 
 18 C       -8.1060     2.1510     1.0570 C.3   1 <1>  -0.2400 
 19 H       -1.3940    -0.2030    -0.2540 H     1 <1>   0.1500 
 20 H       -1.7640     4.5020     1.1820 H     1 <1>   0.1500 
 21 H       -2.8420     3.7190    -2.3340 H     1 <1>   0.0800 
 22 H       -2.2280     4.9980    -1.3250 H     1 <1>   0.0800 
 23 H       -0.5670     0.4970     1.9660 H     1 <1>   0.1500 
 24 H       -0.7630     2.8400     2.6630 H     1 <1>   0.1500 
 25 H       -4.1380     4.7910     0.0890 H     1 <1>   0.4500 
 26 H       -4.8490     2.5660    -1.7040 H     1 <1>   0.0800 
 27 H       -6.1440     3.5390    -1.0780 H     1 <1>   0.0800 
 28 H       -5.0640     5.1580    -2.6730 H     1 <1>   0.0800 
 29 H       -3.9840     6.2690    -1.8660 H     1 <1>   0.0800 
 30 H       -5.5560     3.0040     1.2150 H     1 <1>   0.0800 
 31 H       -4.1480     2.1260     0.7060 H     1 <1>   0.0800 
 32 H       -6.7600     5.5260    -0.8820 H     1 <1>   0.0800 
 33 H       -6.2570     7.0300    -1.5800 H     1 <1>   0.0800 
 34 H       -5.6250     6.5680    -0.0310 H     1 <1>   0.0800 
 35 H       -5.9680     0.7100     1.3320 H     1 <1>   0.4500 
 36 H       -4.2400     0.0930    -0.3190 H     1 <1>   0.0800 
 37 H       -5.5110     0.2300    -1.5130 H     1 <1>   0.0800 
 38 H       -7.9000     0.3180    -0.0030 H     1 <1>   0.0800 
 39 H       -7.5090     1.7190    -0.9620 H     1 <1>   0.0800 
 40 H       -5.6230    -1.5040     0.9870 H     1 <1>   0.0800 
 41 H       -5.2610    -2.0660    -0.6160 H     1 <1>   0.0800 
 42 H       -6.8470    -1.4550    -0.2760 H     1 <1>   0.0800 
 43 H       -7.9930     1.7360     2.0430 H     1 <1>   0.0800 
 44 H       -9.1600     2.1800     0.8370 H     1 <1>   0.0800 
 45 H       -7.7470     3.1630     1.0420 H     1 <1>   0.0800 
@<TRIPOS>BOND
  1   1   2  1   
  2   2   3  ar  
  3   2   4  ar  
  4   3   5  ar  
  5   3   6  1   
  6   4   7  ar  
  7   4  19  1   
  8   5   8  ar  
  9   5  20  1   
 10   6   9  1   
 11   6  21  1   
 12   6  22  1   
 13   7   8  ar  
 14   7  23  1   
 15   8  24  1   
 16   9  10  1   
 17   9  11  1   
 18   9  25  1   
 19  10  12  1   
 20  10  26  1   
 21  10  27  1   
 22  11  13  1   
 23  11  28  1   
 24  11  29  1   
 25  12  14  1   
 26  12  30  1   
 27  12  31  1   
 28  13  32  1   
 29  13  33  1   
 30  13  34  1   
 31  14  15  1   
 32  14  16  1   
 33  14  35  1   
 34  15  17  1   
 35  15  36  1   
 36  15  37  1   
 37  16  18  1   
 38  16  38  1   
 39  16  39  1   
 40  17  40  1   
 41  17  41  1   
 42  17  42  1   
 43  18  43  1   
 44  18  44  1   
 45  18  45  1   
@<TRIPOS>SUBSTRUCTURE
  1 ****  12 GROUP 4 **** **** 0

# MOE 2024.06 (io_trps.svl 2023.06)
