@<TRIPOS>MOLECULE
NONAME
39 41 1 0 0 
SMALL
USER_CHARGES


@<TRIPOS>ATOM
  1 CL      -2.0280     0.6720     3.8040 Cl    1 <1>  -0.1770 
  2 C       -2.7220     1.0760     2.2560 C.ar  1 <1>   0.1770 
  3 C       -3.9730     0.5980     1.9300 C.ar  1 <1>  -0.1500 
  4 C       -2.0000     1.8730     1.3830 C.ar  1 <1>  -0.1500 
  5 C       -4.5440     0.9130     0.6940 C.ar  1 <1>   0.0860 
  6 C       -2.5480     2.1940     0.1560 C.ar  1 <1>  -0.1500 
  7 C       -5.8480     0.4590     0.2860 C.2   1 <1>   0.4690 
  8 C       -3.8080     1.7190    -0.1870 C.ar  1 <1>   0.0830 
  9 O       -6.5810    -0.1780     1.0230 O.2   1 <1>  -0.5700 
 10 C       -6.2850     0.8240    -1.0230 C.2   1 <1>  -0.1240 
 11 O       -4.3160     2.0500    -1.3950 O.3   1 <1>  -0.1590 
 12 C       -5.5050     1.6030    -1.8060 C.2   1 <1>  -0.0730 
 13 C       -7.6310     0.2910    -1.4830 C.3   1 <1>   0.4810 
 14 N       -8.7010     0.6830    -0.5250 N.4   1 <1>  -0.9590 
 15 C       -9.9340    -0.1220    -0.7350 C.3   1 <1>   0.3430 
 16 C       -8.9120     2.1560    -0.4830 C.3   1 <1>   0.3430 
 17 C      -10.6390    -0.3350     0.6040 C.3   1 <1>  -0.1600 
 18 C       -9.7710     2.5810     0.7090 C.3   1 <1>  -0.1600 
 19 C      -11.6020     0.7890     1.0240 C.3   1 <1>  -0.1600 
 20 C      -11.2520     2.2080     0.5520 C.3   1 <1>  -0.1600 
 21 H       -4.5070    -0.0190     2.6320 H     1 <1>   0.1500 
 22 H       -1.0260     2.2300     1.6690 H     1 <1>   0.1500 
 23 H       -2.0030     2.8120    -0.5380 H     1 <1>   0.1500 
 24 H       -5.7550     1.9220    -2.8050 H     1 <1>   0.1500 
 25 H       -7.5710    -0.7840    -1.5310 H     1 <1>   0.0800 
 26 H       -7.8620     0.6620    -2.4680 H     1 <1>   0.0800 
 27 H       -8.3170     0.3990     0.3990 H     1 <1>   0.4500 
 28 H       -9.6640    -1.0910    -1.1240 H     1 <1>   0.0800 
 29 H      -10.5940     0.3550    -1.4420 H     1 <1>   0.0800 
 30 H       -9.3770     2.4890    -1.3980 H     1 <1>   0.0800 
 31 H       -7.9570     2.6500    -0.3990 H     1 <1>   0.0800 
 32 H       -9.9060    -0.4970     1.3760 H     1 <1>   0.0800 
 33 H      -11.2150    -1.2420     0.5370 H     1 <1>   0.0800 
 34 H       -9.7140     3.6550     0.7670 H     1 <1>   0.0800 
 35 H       -9.3670     2.1980     1.6300 H     1 <1>   0.0800 
 36 H      -11.6690     0.7870     2.1000 H     1 <1>   0.0800 
 37 H      -12.5880     0.5570     0.6570 H     1 <1>   0.0800 
 38 H      -11.5540     2.3380    -0.4740 H     1 <1>   0.0800 
 39 H      -11.8420     2.8960     1.1340 H     1 <1>   0.0800 
@<TRIPOS>BOND
  1   1   2  1   
  2   2   3  ar  
  3   2   4  ar  
  4   3   5  ar  
  5   3  21  1   
  6   4   6  ar  
  7   4  22  1   
  8   5   7  1   
  9   5   8  ar  
 10   6   8  ar  
 11   6  23  1   
 12   7   9  2   
 13   7  10  1   
 14   8  11  1   
 15  10  12  2   
 16  10  13  1   
 17  11  12  1   
 18  12  24  1   
 19  13  14  1   
 20  13  25  1   
 21  13  26  1   
 22  14  15  1   
 23  14  16  1   
 24  14  27  1   
 25  15  17  1   
 26  15  28  1   
 27  15  29  1   
 28  16  18  1   
 29  16  30  1   
 30  16  31  1   
 31  17  19  1   
 32  17  32  1   
 33  17  33  1   
 34  18  20  1   
 35  18  34  1   
 36  18  35  1   
 37  19  20  1   
 38  19  36  1   
 39  19  37  1   
 40  20  38  1   
 41  20  39  1   
@<TRIPOS>SUBSTRUCTURE
  1 ****   7 GROUP 4 **** **** 0

# MOE 2024.06 (io_trps.svl 2023.06)
