@<TRIPOS>MOLECULE
NONAME
37 38 1 0 0 
SMALL
USER_CHARGES


@<TRIPOS>ATOM
  1 S       -0.6290    -0.0540     1.2210 S.3   1 <1>  -0.0800 
  2 C        0.0940    -1.2850     0.2570 C.2   1 <1>   0.4340 
  3 C        0.4700     1.0370     0.4440 C.2   1 <1>   0.1980 
  4 S       -0.5240    -2.9470     0.4670 S.3   1 <1>  -0.2860 
  5 N        1.0160    -0.8790    -0.5190 N.2   1 <1>  -0.3380 
  6 N        1.2320     0.4700    -0.4060 N.2   1 <1>  -0.3380 
  7 C        0.4170     2.4960     0.8390 C.3   1 <1>  -0.0600 
  8 C        0.5860    -3.9700    -0.6000 C.3   1 <1>   0.0700 
  9 C        1.8330    -4.3300     0.2080 C.3   1 <1>  -0.0990 
 10 C        2.8040    -5.1300    -0.6400 C.2   1 <1>   0.5690 
 11 O        2.4780    -6.2310    -1.0010 O.2   1 <1>  -0.5700 
 12 N        4.0260    -4.6450    -0.9830 N.am  1 <1>  -0.5470 
 13 C        4.6080    -3.4000    -0.7310 C.ar  1 <1>   0.1170 
 14 C        5.8110    -3.3190    -0.0440 C.ar  1 <1>  -0.1500 
 15 C        4.0030    -2.2260    -1.1580 C.ar  1 <1>  -0.1500 
 16 C        6.3860    -2.0900     0.2280 C.ar  1 <1>  -0.1500 
 17 C        4.5720    -0.9980    -0.8830 C.ar  1 <1>  -0.1500 
 18 C        5.7680    -0.9200    -0.1870 C.ar  1 <1>  -0.1430 
 19 C        6.3840     0.4350     0.1190 C.3   1 <1>  -0.0170 
 20 C        5.7660     1.0300     1.3850 C.3   1 <1>  -0.2400 
 21 H        0.6270     2.5980     1.8880 H     1 <1>   0.0800 
 22 H       -0.5590     2.8950     0.6320 H     1 <1>   0.0800 
 23 H        1.1480     3.0510     0.2800 H     1 <1>   0.0800 
 24 H        0.8250    -3.3920    -1.4760 H     1 <1>   0.0800 
 25 H        0.0370    -4.8510    -0.8820 H     1 <1>   0.0800 
 26 H        1.5470    -4.9340     1.0490 H     1 <1>   0.0800 
 27 H        2.2990    -3.4390     0.5840 H     1 <1>   0.0800 
 28 H        4.6060    -5.3300    -1.4680 H     1 <1>   0.3700 
 29 H        6.2950    -4.2200     0.2870 H     1 <1>   0.1500 
 30 H        3.0800    -2.2670    -1.7070 H     1 <1>   0.1500 
 31 H        7.3150    -2.0450     0.7680 H     1 <1>   0.1500 
 32 H        4.0730    -0.1010    -1.2090 H     1 <1>   0.1500 
 33 H        6.2180     1.1000    -0.7110 H     1 <1>   0.0800 
 34 H        7.4470     0.3330     0.2480 H     1 <1>   0.0800 
 35 H        4.7040     1.1530     1.2560 H     1 <1>   0.0800 
 36 H        6.2030     1.9890     1.5970 H     1 <1>   0.0800 
 37 H        5.9370     0.3770     2.2230 H     1 <1>   0.0800 
@<TRIPOS>BOND
  1   1   2  1   
  2   1   3  1   
  3   2   4  1   
  4   2   5  2   
  5   3   6  2   
  6   3   7  1   
  7   4   8  1   
  8   5   6  1   
  9   7  21  1   
 10   7  22  1   
 11   7  23  1   
 12   8   9  1   
 13   8  24  1   
 14   8  25  1   
 15   9  10  1   
 16   9  26  1   
 17   9  27  1   
 18  10  11  2   
 19  10  12  am  
 20  12  13  1   
 21  12  28  1   
 22  13  14  ar  
 23  13  15  ar  
 24  14  16  ar  
 25  14  29  1   
 26  15  17  ar  
 27  15  30  1   
 28  16  18  ar  
 29  16  31  1   
 30  17  18  ar  
 31  17  32  1   
 32  18  19  1   
 33  19  20  1   
 34  19  33  1   
 35  19  34  1   
 36  20  35  1   
 37  20  36  1   
 38  20  37  1   
@<TRIPOS>SUBSTRUCTURE
  1 ****  15 GROUP 4 **** **** 0

# MOE 2024.06 (io_trps.svl 2023.06)
