@<TRIPOS>MOLECULE
NONAME
36 36 1 0 0 
SMALL
USER_CHARGES


@<TRIPOS>ATOM
  1 S       -0.2710    -0.3190     1.1160 S.o2  1 <1>   1.6260 
  2 O       -1.0040    -1.2030     1.9970 O.2   1 <1>  -0.6500 
  3 O        1.0700     0.0980     1.4610 O.2   1 <1>  -0.6500 
  4 N       -1.2140     1.0370     0.7720 N.2   1 <1>  -0.6380 
  5 N       -0.1810    -1.0610    -0.4090 N.am  1 <1>  -0.8490 
  6 C       -2.4170     0.9280     0.3700 C.2   1 <1>   0.4210 
  7 C        0.3450    -2.4240    -0.3110 C.3   1 <1>   0.1160 
  8 C        0.6220    -0.2870    -1.3630 C.3   1 <1>   0.1160 
  9 C       -3.1480     2.1420     0.1340 C.2   1 <1>  -0.1360 
 10 C       -3.1930    -0.2620     0.1010 C.2   1 <1>  -0.1360 
 11 C       -4.4320     2.1720    -0.2950 C.2   1 <1>  -0.1360 
 12 C       -4.4780    -0.2320    -0.3290 C.2   1 <1>  -0.1360 
 13 C       -5.2080     0.9940    -0.5650 C.2   1 <1>   0.4210 
 14 N       -6.4060     1.1590    -0.9620 N.2   1 <1>  -0.6380 
 15 S       -7.3990    -0.1500    -1.3430 S.o2  1 <1>   1.6260 
 16 O       -6.7000    -1.0370    -2.2480 O.2   1 <1>  -0.6500 
 17 O       -8.7240     0.3260    -1.6750 O.2   1 <1>  -0.6500 
 18 N       -7.5180    -0.9300     0.1610 N.am  1 <1>  -0.8490 
 19 C       -8.0950    -2.2690     0.0270 C.3   1 <1>   0.1160 
 20 C       -8.2910    -0.1530     1.1370 C.3   1 <1>   0.1160 
 21 H        0.3670    -2.8850    -1.2840 H     1 <1>   0.0800 
 22 H       -0.2870    -3.0190     0.3280 H     1 <1>   0.0800 
 23 H        1.3410    -2.4150     0.1000 H     1 <1>   0.0800 
 24 H        0.6000    -0.7580    -2.3300 H     1 <1>   0.0800 
 25 H        1.6450    -0.2160    -1.0290 H     1 <1>   0.0800 
 26 H        0.2220     0.7080    -1.4640 H     1 <1>   0.0800 
 27 H       -2.6060     3.0510     0.3220 H     1 <1>   0.1500 
 28 H       -2.7230    -1.2150     0.2480 H     1 <1>   0.1500 
 29 H       -4.9390     3.1060    -0.4590 H     1 <1>   0.1500 
 30 H       -4.9840    -1.1620    -0.5020 H     1 <1>   0.1500 
 31 H       -8.1350    -2.7550     0.9870 H     1 <1>   0.0800 
 32 H       -7.4850    -2.8690    -0.6290 H     1 <1>   0.0800 
 33 H       -9.0900    -2.2110    -0.3830 H     1 <1>   0.0800 
 34 H       -8.2880    -0.6510     2.0910 H     1 <1>   0.0800 
 35 H       -9.3100    -0.0340     0.8060 H     1 <1>   0.0800 
 36 H       -7.8540     0.8230     1.2640 H     1 <1>   0.0800 
@<TRIPOS>BOND
  1   1   2  2   
  2   1   3  2   
  3   1   4  1   
  4   1   5  am  
  5   4   6  2   
  6   5   7  1   
  7   5   8  1   
  8   6   9  1   
  9   6  10  1   
 10   7  21  1   
 11   7  22  1   
 12   7  23  1   
 13   8  24  1   
 14   8  25  1   
 15   8  26  1   
 16   9  11  2   
 17   9  27  1   
 18  10  12  2   
 19  10  28  1   
 20  11  13  1   
 21  11  29  1   
 22  12  13  1   
 23  12  30  1   
 24  13  14  2   
 25  14  15  1   
 26  15  16  2   
 27  15  17  2   
 28  15  18  am  
 29  18  19  1   
 30  18  20  1   
 31  19  31  1   
 32  19  32  1   
 33  19  33  1   
 34  20  34  1   
 35  20  35  1   
 36  20  36  1   
@<TRIPOS>SUBSTRUCTURE
  1 ****  10 GROUP 4 **** **** 0

# MOE 2024.06 (io_trps.svl 2023.06)
