@<TRIPOS>MOLECULE
NONAME
47 49 1 0 0 
SMALL
USER_CHARGES


@<TRIPOS>ATOM
  1 F        3.4770    -5.0090    -1.6500 F     1 <1>  -0.1900 
  2 C        2.2940    -4.5830    -1.2810 C.ar  1 <1>   0.1900 
  3 C        2.2040    -3.4040    -0.5340 C.ar  1 <1>   0.1170 
  4 C        1.1960    -5.3310    -1.6540 C.ar  1 <1>  -0.1500 
  5 N        3.3740    -2.6970    -0.1940 N.am  1 <1>  -0.5470 
  6 C        0.9280    -2.9790    -0.1610 C.ar  1 <1>  -0.1500 
  7 C       -0.0420    -4.8680    -1.2580 C.ar  1 <1>   0.1900 
  8 C        3.6410    -1.6990     0.6980 C.2   1 <1>   0.5690 
  9 C       -0.1970    -3.7070    -0.5200 C.ar  1 <1>  -0.1500 
 10 F       -1.1060    -5.5500    -1.5920 F     1 <1>  -0.1900 
 11 O        2.8140    -1.1870     1.4130 O.2   1 <1>  -0.5700 
 12 C        5.0960    -1.2300     0.7770 C.3   1 <1>   0.1710 
 13 N        6.0720    -2.2310     0.2540 N.3   1 <1>  -0.8100 
 14 C        6.2670    -3.3450     1.2200 C.3   1 <1>   0.1100 
 15 C        7.3810    -1.5980    -0.0330 C.3   1 <1>   0.1100 
 16 C        7.2860    -4.3840     0.7130 C.3   1 <1>   0.2090 
 17 C        8.4170    -2.6130    -0.5560 C.3   1 <1>   0.2090 
 18 N        8.5930    -3.7350     0.4100 N.pl3 1 <1>  -0.8380 
 19 C        9.6510    -4.6110     0.1280 C.ar  1 <1>   0.1000 
 20 C        9.7070    -5.4600    -0.9940 C.ar  1 <1>   0.0830 
 21 C       10.7060    -4.6290     1.0280 C.ar  1 <1>  -0.1500 
 22 O        8.6630    -5.4400    -1.8810 O.3   1 <1>  -0.3620 
 23 C       10.8100    -6.2900    -1.1740 C.ar  1 <1>  -0.1500 
 24 C       11.7980    -5.4570     0.8430 C.ar  1 <1>  -0.1500 
 25 C        8.6260    -6.2980    -2.9990 C.3   1 <1>   0.0400 
 26 C       11.8500    -6.2890    -0.2590 C.ar  1 <1>  -0.1500 
 27 H        1.2970    -6.2330    -2.2280 H     1 <1>   0.1500 
 28 H        4.2400    -3.0370    -0.6330 H     1 <1>   0.3700 
 29 H        0.8050    -2.0760     0.4090 H     1 <1>   0.1500 
 30 H       -1.1810    -3.3810    -0.2320 H     1 <1>   0.1500 
 31 H        5.3300    -0.9820     1.7970 H     1 <1>   0.0800 
 32 H        5.1650    -0.3290     0.1940 H     1 <1>   0.0800 
 33 H        5.3310    -3.8440     1.3980 H     1 <1>   0.0800 
 34 H        6.6210    -2.9570     2.1600 H     1 <1>   0.0800 
 35 H        7.7720    -1.1430     0.8610 H     1 <1>   0.0800 
 36 H        7.2520    -0.8290    -0.7730 H     1 <1>   0.0800 
 37 H        6.8980    -4.8580    -0.1710 H     1 <1>   0.0800 
 38 H        7.4340    -5.1410     1.4630 H     1 <1>   0.0800 
 39 H        9.3620    -2.1220    -0.7030 H     1 <1>   0.0800 
 40 H        8.0860    -2.9970    -1.5050 H     1 <1>   0.0800 
 41 H       10.6590    -3.9800     1.8830 H     1 <1>   0.1500 
 42 H       10.8850    -6.9470    -2.0170 H     1 <1>   0.1500 
 43 H       12.6040    -5.4520     1.5570 H     1 <1>   0.1500 
 44 H        7.7080    -6.1160    -3.5270 H     1 <1>   0.0800 
 45 H        8.6560    -7.3180    -2.6580 H     1 <1>   0.0800 
 46 H        9.4640    -6.0770    -3.6370 H     1 <1>   0.0800 
 47 H       12.6990    -6.9340    -0.4060 H     1 <1>   0.1500 
@<TRIPOS>BOND
  1   1   2  1   
  2   2   3  ar  
  3   2   4  ar  
  4   3   5  1   
  5   3   6  ar  
  6   4   7  ar  
  7   4  27  1   
  8   5   8  am  
  9   5  28  1   
 10   6   9  ar  
 11   6  29  1   
 12   7   9  ar  
 13   7  10  1   
 14   8  11  2   
 15   8  12  1   
 16   9  30  1   
 17  12  13  1   
 18  12  31  1   
 19  12  32  1   
 20  13  14  1   
 21  13  15  1   
 22  14  16  1   
 23  14  33  1   
 24  14  34  1   
 25  15  17  1   
 26  15  35  1   
 27  15  36  1   
 28  16  18  1   
 29  16  37  1   
 30  16  38  1   
 31  17  18  1   
 32  17  39  1   
 33  17  40  1   
 34  18  19  1   
 35  19  20  ar  
 36  19  21  ar  
 37  20  22  1   
 38  20  23  ar  
 39  21  24  ar  
 40  21  41  1   
 41  22  25  1   
 42  23  26  ar  
 43  23  42  1   
 44  24  26  ar  
 45  24  43  1   
 46  25  44  1   
 47  25  45  1   
 48  25  46  1   
 49  26  47  1   
@<TRIPOS>SUBSTRUCTURE
  1 ****  14 GROUP 4 **** **** 0

# MOE 2024.06 (io_trps.svl 2023.06)
