@<TRIPOS>MOLECULE
NONAME
40 41 1 0 0 
SMALL
USER_CHARGES


@<TRIPOS>ATOM
  1 O       -0.3370    -0.4630    -1.2550 O.2   1 <1>  -0.5700 
  2 C        0.2910    -1.3360    -0.6780 C.2   1 <1>   0.5440 
  3 N        1.5250    -1.0130    -0.1550 N.am  1 <1>  -0.6600 
  4 C       -0.2830    -2.6590    -0.5390 C.ar  1 <1>   0.0860 
  5 C        2.2470     0.2350    -0.5430 C.3   1 <1>   0.1400 
  6 C        2.1850    -1.7390     0.9710 C.3   1 <1>   0.1400 
  7 C       -1.5900    -2.8350    -0.0540 C.ar  1 <1>   0.1170 
  8 C        0.4570    -3.7910    -0.8880 C.ar  1 <1>  -0.1500 
  9 C        3.7460    -0.0480    -0.7350 C.3   1 <1>   0.1200 
 10 C        3.6850    -1.9210     0.6850 C.3   1 <1>   0.1200 
 11 N       -2.3650    -1.7030     0.2410 N.am  1 <1>  -0.5470 
 12 C       -2.0910    -4.1260     0.0960 C.ar  1 <1>  -0.1500 
 13 C       -0.0550    -5.0640    -0.7360 C.ar  1 <1>  -0.1500 
 14 O        4.2830    -0.6900     0.3890 O.3   1 <1>  -0.5600 
 15 C       -3.4780    -1.5110     1.0080 C.2   1 <1>   0.5690 
 16 C       -1.3340    -5.2310    -0.2370 C.ar  1 <1>  -0.1500 
 17 O       -4.0060    -2.3790     1.6580 O.2   1 <1>  -0.5700 
 18 C       -4.0610    -0.1110     1.0480 C.3   1 <1>  -0.0990 
 19 C       -4.6400     0.3250    -0.3090 C.3   1 <1>  -0.1600 
 20 C       -5.2400     1.7320    -0.2310 C.3   1 <1>  -0.2400 
 21 H        2.1180     0.9740     0.2280 H     1 <1>   0.0800 
 22 H        1.8420     0.6330    -1.4580 H     1 <1>   0.0800 
 23 H        1.7300    -2.6980     1.1380 H     1 <1>   0.0800 
 24 H        2.0720    -1.1630     1.8720 H     1 <1>   0.0800 
 25 H        1.4490    -3.6630    -1.2850 H     1 <1>   0.1500 
 26 H        4.2820     0.8740    -0.8740 H     1 <1>   0.0800 
 27 H        3.9040    -0.6720    -1.5970 H     1 <1>   0.0800 
 28 H        3.8370    -2.5870    -0.1460 H     1 <1>   0.0800 
 29 H        4.1820    -2.3260     1.5490 H     1 <1>   0.0800 
 30 H       -2.0080    -0.8530    -0.2150 H     1 <1>   0.3700 
 31 H       -3.0880    -4.2740     0.4690 H     1 <1>   0.1500 
 32 H        0.5330    -5.9260    -1.0060 H     1 <1>   0.1500 
 33 H       -1.7420    -6.2200    -0.1130 H     1 <1>   0.1500 
 34 H       -3.2910     0.5720     1.3560 H     1 <1>   0.0800 
 35 H       -4.8380    -0.0880     1.7920 H     1 <1>   0.0800 
 36 H       -5.4040    -0.3730    -0.6090 H     1 <1>   0.0800 
 37 H       -3.8670     0.3130    -1.0590 H     1 <1>   0.0800 
 38 H       -6.0360     1.7630     0.4930 H     1 <1>   0.0800 
 39 H       -5.6410     2.0130    -1.1890 H     1 <1>   0.0800 
 40 H       -4.4880     2.4490     0.0480 H     1 <1>   0.0800 
@<TRIPOS>BOND
  1   1   2  2   
  2   2   3  am  
  3   2   4  1   
  4   3   5  1   
  5   3   6  1   
  6   4   7  ar  
  7   4   8  ar  
  8   5   9  1   
  9   5  21  1   
 10   5  22  1   
 11   6  10  1   
 12   6  23  1   
 13   6  24  1   
 14   7  11  1   
 15   7  12  ar  
 16   8  13  ar  
 17   8  25  1   
 18   9  14  1   
 19   9  26  1   
 20   9  27  1   
 21  10  14  1   
 22  10  28  1   
 23  10  29  1   
 24  11  15  am  
 25  11  30  1   
 26  12  16  ar  
 27  12  31  1   
 28  13  16  ar  
 29  13  32  1   
 30  15  17  2   
 31  15  18  1   
 32  16  33  1   
 33  18  19  1   
 34  18  34  1   
 35  18  35  1   
 36  19  20  1   
 37  19  36  1   
 38  19  37  1   
 39  20  38  1   
 40  20  39  1   
 41  20  40  1   
@<TRIPOS>SUBSTRUCTURE
  1 ****   4 GROUP 4 **** **** 0

# MOE 2024.06 (io_trps.svl 2023.06)
