@<TRIPOS>MOLECULE
NONAME
52 54 1 0 0 
SMALL
USER_CHARGES


@<TRIPOS>ATOM
  1 F        0.6750     0.1150    -1.2790 F     1 <1>  -0.1900 
  2 C        1.7520    -0.5480    -0.9630 C.ar  1 <1>   0.1900 
  3 C        2.0470    -0.7490     0.3720 C.ar  1 <1>  -0.1500 
  4 C        2.5620    -1.0290    -1.9730 C.ar  1 <1>  -0.1500 
  5 C        3.1940    -1.4510     0.6990 C.ar  1 <1>  -0.1500 
  6 C        3.7050    -1.7290    -1.6280 C.ar  1 <1>  -0.1500 
  7 C        4.0480    -1.9480    -0.2910 C.ar  1 <1>   0.0860 
  8 C        5.2530    -2.6770     0.0520 C.2   1 <1>   0.5440 
  9 O        5.3710    -3.8240    -0.3370 O.2   1 <1>  -0.5700 
 10 N        6.2680    -2.1100     0.7990 N.am  1 <1>  -0.6600 
 11 C        7.4400    -2.9100     1.2550 C.3   1 <1>   0.1400 
 12 C        6.3700    -0.6500     1.0810 C.3   1 <1>   0.1400 
 13 C        8.7210    -2.3640     0.6180 C.3   1 <1>  -0.1600 
 14 C        7.6470    -0.0890     0.4500 C.3   1 <1>  -0.1600 
 15 C        8.9000    -0.8630     0.9070 C.3   1 <1>  -0.0190 
 16 C       10.1780    -0.3310     0.2590 C.2   1 <1>   0.5690 
 17 O       10.1720    -0.0460    -0.9140 O.2   1 <1>  -0.5700 
 18 N       11.2840    -0.2050     1.0430 N.am  1 <1>  -0.7300 
 19 C       12.6280     0.2670     0.6400 C.3   1 <1>   0.2200 
 20 C       12.5580     1.7580     0.2830 C.3   1 <1>  -0.1600 
 21 C       13.2000    -0.6470    -0.4560 C.3   1 <1>  -0.1600 
 22 C       13.8990     2.3840    -0.1360 C.3   1 <1>  -0.1600 
 23 C       14.7220    -0.4990    -0.6090 C.3   1 <1>  -0.1600 
 24 C       14.3460     1.9230    -1.5310 C.3   1 <1>  -0.1600 
 25 C       15.1710     0.6260    -1.5550 C.3   1 <1>  -0.1600 
 26 H        1.3880    -0.3650     1.1310 H     1 <1>   0.1500 
 27 H        2.3000    -0.8600    -3.0020 H     1 <1>   0.1500 
 28 H        3.4390    -1.6270     1.7320 H     1 <1>   0.1500 
 29 H        4.3500    -2.1220    -2.3960 H     1 <1>   0.1500 
 30 H        7.3230    -3.9480     0.9910 H     1 <1>   0.0800 
 31 H        7.5070    -2.8510     2.3270 H     1 <1>   0.0800 
 32 H        6.3900    -0.5000     2.1470 H     1 <1>   0.0800 
 33 H        5.5240    -0.1170     0.6840 H     1 <1>   0.0800 
 34 H        8.6750    -2.5260    -0.4450 H     1 <1>   0.0800 
 35 H        9.5660    -2.9120     0.9950 H     1 <1>   0.0800 
 36 H        7.7500     0.9490     0.7100 H     1 <1>   0.0800 
 37 H        7.5550    -0.1470    -0.6210 H     1 <1>   0.0800 
 38 H        8.9920    -0.7350     1.9700 H     1 <1>   0.0800 
 39 H       11.2180    -0.4710     2.0240 H     1 <1>   0.3700 
 40 H       13.2640     0.1720     1.5040 H     1 <1>   0.0800 
 41 H       12.1980     2.2890     1.1460 H     1 <1>   0.0800 
 42 H       11.8450     1.9060    -0.5080 H     1 <1>   0.0800 
 43 H       12.7100    -0.4660    -1.3970 H     1 <1>   0.0800 
 44 H       12.9980    -1.6660    -0.1750 H     1 <1>   0.0800 
 45 H       14.6640     2.1860     0.5950 H     1 <1>   0.0800 
 46 H       13.7600     3.4500    -0.1720 H     1 <1>   0.0800 
 47 H       15.1200    -1.4230    -0.9910 H     1 <1>   0.0800 
 48 H       15.1670    -0.3490     0.3600 H     1 <1>   0.0800 
 49 H       14.9450     2.7000    -1.9740 H     1 <1>   0.0800 
 50 H       13.4810     1.8060    -2.1630 H     1 <1>   0.0800 
 51 H       15.1570     0.2510    -2.5640 H     1 <1>   0.0800 
 52 H       16.1950     0.8640    -1.3250 H     1 <1>   0.0800 
@<TRIPOS>BOND
  1   1   2  1   
  2   2   3  ar  
  3   2   4  ar  
  4   3   5  ar  
  5   3  26  1   
  6   4   6  ar  
  7   4  27  1   
  8   5   7  ar  
  9   5  28  1   
 10   6   7  ar  
 11   6  29  1   
 12   7   8  1   
 13   8   9  2   
 14   8  10  am  
 15  10  11  1   
 16  10  12  1   
 17  11  13  1   
 18  11  30  1   
 19  11  31  1   
 20  12  14  1   
 21  12  32  1   
 22  12  33  1   
 23  13  15  1   
 24  13  34  1   
 25  13  35  1   
 26  14  15  1   
 27  14  36  1   
 28  14  37  1   
 29  15  16  1   
 30  15  38  1   
 31  16  17  2   
 32  16  18  am  
 33  18  19  1   
 34  18  39  1   
 35  19  20  1   
 36  19  21  1   
 37  19  40  1   
 38  20  22  1   
 39  20  41  1   
 40  20  42  1   
 41  21  23  1   
 42  21  43  1   
 43  21  44  1   
 44  22  24  1   
 45  22  45  1   
 46  22  46  1   
 47  23  25  1   
 48  23  47  1   
 49  23  48  1   
 50  24  25  1   
 51  24  49  1   
 52  24  50  1   
 53  25  51  1   
 54  25  52  1   
@<TRIPOS>SUBSTRUCTURE
  1 ****  14 GROUP 4 **** **** 0

# MOE 2024.06 (io_trps.svl 2023.06)
