@<TRIPOS>MOLECULE
NONAME
41 41 1 0 0 
SMALL
USER_CHARGES


@<TRIPOS>ATOM
  1 O       -0.1750     2.2460    -2.7880 O.2   1 <1>  -0.5700 
  2 C       -0.0740     2.3840    -1.5920 C.2   1 <1>   0.6900 
  3 N        1.1870     2.5210    -1.1060 N.am  1 <1>  -0.4900 
  4 N       -1.2080     2.4170    -0.8630 N.am  1 <1>  -0.7300 
  5 C        1.7450     2.4260     0.1330 C.2   1 <1>   0.5690 
  6 C       -1.4640     3.2010     0.3560 C.3   1 <1>   0.2840 
  7 O        1.1250     2.2210     1.1440 O.2   1 <1>  -0.5700 
  8 C        3.2510     2.5870     0.2290 C.3   1 <1>  -0.0990 
  9 C       -2.8280     3.8540     0.2230 C.ar  1 <1>  -0.1430 
 10 C        3.6930     4.0460     0.0270 C.3   1 <1>  -0.1600 
 11 C       -3.0200     4.8880    -0.6800 C.ar  1 <1>  -0.1500 
 12 C       -3.8940     3.4210     0.9980 C.ar  1 <1>  -0.1500 
 13 C        5.2170     4.1870     0.1400 C.3   1 <1>  -0.1600 
 14 C       -4.2620     5.4860    -0.8060 C.ar  1 <1>  -0.1500 
 15 C       -5.1370     4.0190     0.8730 C.ar  1 <1>  -0.1500 
 16 C        5.6520     5.6430    -0.0600 C.3   1 <1>  -0.1600 
 17 C       -5.3210     5.0520    -0.0290 C.ar  1 <1>  -0.1500 
 18 C        7.1750     5.7860     0.0530 C.3   1 <1>  -0.1600 
 19 C        7.6080     7.2400    -0.1490 C.3   1 <1>  -0.2400 
 20 H        1.8390     2.6010    -1.8770 H     1 <1>   0.3700 
 21 H       -2.0580     2.2560    -1.4040 H     1 <1>   0.3700 
 22 H       -0.7080     3.9580     0.4800 H     1 <1>   0.0800 
 23 H       -1.4390     2.5480     1.2110 H     1 <1>   0.0800 
 24 H        3.7180     1.9540    -0.5030 H     1 <1>   0.0800 
 25 H        3.5670     2.2500     1.2010 H     1 <1>   0.0800 
 26 H        3.2210     4.6630     0.7750 H     1 <1>   0.0800 
 27 H        3.3740     4.3950    -0.9400 H     1 <1>   0.0800 
 28 H       -2.2020     5.2290    -1.2920 H     1 <1>   0.1500 
 29 H       -3.7620     2.6170     1.7010 H     1 <1>   0.1500 
 30 H        5.6930     3.5680    -0.6010 H     1 <1>   0.0800 
 31 H        5.5370     3.8510     1.1120 H     1 <1>   0.0800 
 32 H       -4.4040     6.2880    -1.5090 H     1 <1>   0.1500 
 33 H       -5.9600     3.6790     1.4770 H     1 <1>   0.1500 
 34 H        5.1810     6.2640     0.6830 H     1 <1>   0.0800 
 35 H        5.3340     5.9840    -1.0310 H     1 <1>   0.0800 
 36 H       -6.2870     5.5160    -0.1260 H     1 <1>   0.1500 
 37 H        7.6530     5.1690    -0.6890 H     1 <1>   0.0800 
 38 H        7.4990     5.4520     1.0240 H     1 <1>   0.0800 
 39 H        7.3140     7.5890    -1.1240 H     1 <1>   0.0800 
 40 H        8.6770     7.3210    -0.0650 H     1 <1>   0.0800 
 41 H        7.1590     7.8740     0.5960 H     1 <1>   0.0800 
@<TRIPOS>BOND
  1   1   2  2   
  2   2   3  am  
  3   2   4  am  
  4   3   5  am  
  5   3  20  1   
  6   4   6  1   
  7   4  21  1   
  8   5   7  2   
  9   5   8  1   
 10   6   9  1   
 11   6  22  1   
 12   6  23  1   
 13   8  10  1   
 14   8  24  1   
 15   8  25  1   
 16   9  11  ar  
 17   9  12  ar  
 18  10  13  1   
 19  10  26  1   
 20  10  27  1   
 21  11  14  ar  
 22  11  28  1   
 23  12  15  ar  
 24  12  29  1   
 25  13  16  1   
 26  13  30  1   
 27  13  31  1   
 28  14  17  ar  
 29  14  32  1   
 30  15  17  ar  
 31  15  33  1   
 32  16  18  1   
 33  16  34  1   
 34  16  35  1   
 35  17  36  1   
 36  18  19  1   
 37  18  37  1   
 38  18  38  1   
 39  19  39  1   
 40  19  40  1   
 41  19  41  1   
@<TRIPOS>SUBSTRUCTURE
  1 ****   3 GROUP 4 **** **** 0

# MOE 2024.06 (io_trps.svl 2023.06)
