@<TRIPOS>MOLECULE
NONAME
41 43 1 0 0 
SMALL
USER_CHARGES


@<TRIPOS>ATOM
  1 S        0.2480    -0.2200    -0.2590 S.3   1 <1>  -0.2860 
  2 C       -1.3430    -1.0370    -0.1900 C.2   1 <1>   0.2420 
  3 C        1.2400    -1.1510     1.0120 C.3   1 <1>   0.1310 
  4 N       -1.6140    -2.0440     0.5600 N.2   1 <1>  -0.3380 
  5 N       -2.3640    -0.6450    -0.9280 N.pl3 1 <1>   0.0330 
  6 C        2.6690    -0.6370     1.1010 C.2   1 <1>   0.5690 
  7 N       -2.8890    -2.3430     0.3090 N.2   1 <1>  -0.3380 
  8 C       -3.3390    -1.5010    -0.5840 C.2   1 <1>   0.1330 
  9 O        3.2930    -0.8540     2.1110 O.2   1 <1>  -0.5700 
 10 N        3.2120     0.0360     0.0530 N.am  1 <1>  -0.7300 
 11 C       -4.6770    -1.4840    -1.1310 C.ar  1 <1>   0.0530 
 12 C        4.5740     0.5880    -0.0010 C.3   1 <1>   0.2200 
 13 C       -5.5900    -2.4920    -0.8530 C.ar  1 <1>  -0.1500 
 14 C       -5.1630    -0.4810    -1.9620 C.ar  1 <1>  -0.1500 
 15 C        4.4850     2.1120    -0.1260 C.3   1 <1>  -0.1600 
 16 C        5.3110    -0.0270    -1.1950 C.3   1 <1>  -0.1600 
 17 C       -6.8620    -2.4590    -1.3890 C.ar  1 <1>   0.1600 
 18 C       -6.4560    -0.5390    -2.4480 C.ar  1 <1>   0.1600 
 19 C        5.8770     2.7370    -0.2960 C.3   1 <1>  -0.1600 
 20 C        6.7050     0.5940    -1.3660 C.3   1 <1>  -0.1600 
 21 N       -7.3190    -1.5040    -2.1830 N.ar  1 <1>  -0.6200 
 22 C        6.6210     2.1210    -1.4890 C.3   1 <1>  -0.1600 
 23 H        1.2340    -2.1870     0.7300 H     1 <1>   0.0800 
 24 H        0.7420    -1.0300     1.9560 H     1 <1>   0.0800 
 25 H       -2.3840     0.1230    -1.5960 H     1 <1>   0.2700 
 26 H        2.6280     0.2320    -0.7620 H     1 <1>   0.3700 
 27 H        5.1030     0.3390     0.9050 H     1 <1>   0.0800 
 28 H       -5.3050    -3.3100    -0.2160 H     1 <1>   0.1500 
 29 H       -4.5480     0.3530    -2.2380 H     1 <1>   0.1500 
 30 H        4.0210     2.5130     0.7580 H     1 <1>   0.0800 
 31 H        3.8800     2.3700    -0.9780 H     1 <1>   0.0800 
 32 H        4.7420     0.1370    -2.0930 H     1 <1>   0.0800 
 33 H        5.4110    -1.0870    -1.0410 H     1 <1>   0.0800 
 34 H       -7.5430    -3.2590    -1.1520 H     1 <1>   0.1500 
 35 H       -6.8050     0.2520    -3.0900 H     1 <1>   0.1500 
 36 H        6.4510     2.5770     0.6020 H     1 <1>   0.0800 
 37 H        5.7820     3.8000    -0.4390 H     1 <1>   0.0800 
 38 H        7.1770     0.1860    -2.2440 H     1 <1>   0.0800 
 39 H        7.3150     0.3380    -0.5160 H     1 <1>   0.0800 
 40 H        7.6140     2.5330    -1.5460 H     1 <1>   0.0800 
 41 H        6.1070     2.3780    -2.4000 H     1 <1>   0.0800 
@<TRIPOS>BOND
  1   1   2  1   
  2   1   3  1   
  3   2   4  2   
  4   2   5  1   
  5   3   6  1   
  6   3  23  1   
  7   3  24  1   
  8   4   7  1   
  9   5   8  1   
 10   5  25  1   
 11   6   9  2   
 12   6  10  am  
 13   7   8  2   
 14   8  11  1   
 15  10  12  1   
 16  10  26  1   
 17  11  13  ar  
 18  11  14  ar  
 19  12  15  1   
 20  12  16  1   
 21  12  27  1   
 22  13  17  ar  
 23  13  28  1   
 24  14  18  ar  
 25  14  29  1   
 26  15  19  1   
 27  15  30  1   
 28  15  31  1   
 29  16  20  1   
 30  16  32  1   
 31  16  33  1   
 32  17  21  ar  
 33  17  34  1   
 34  18  21  ar  
 35  18  35  1   
 36  19  22  1   
 37  19  36  1   
 38  19  37  1   
 39  20  22  1   
 40  20  38  1   
 41  20  39  1   
 42  22  40  1   
 43  22  41  1   
@<TRIPOS>SUBSTRUCTURE
  1 ****   1 GROUP 4 **** **** 0

# MOE 2024.06 (io_trps.svl 2023.06)
