@<TRIPOS>MOLECULE
NONAME
37 38 1 0 0 
SMALL
USER_CHARGES


@<TRIPOS>ATOM
  1 CL       0.4150     0.6940     1.0980 Cl    1 <1>  -0.1770 
  2 C        1.7160    -0.3720     0.6150 C.ar  1 <1>   0.1770 
  3 C        3.0080     0.1070     0.4230 C.ar  1 <1>  -0.1440 
  4 C        1.3940    -1.7040     0.4300 C.ar  1 <1>  -0.1500 
  5 C        3.9990    -0.7930     0.0170 C.ar  1 <1>   0.1170 
  6 C        3.3520     1.5810     0.6490 C.3   1 <1>  -0.0960 
  7 C        2.3780    -2.5910     0.0370 C.ar  1 <1>  -0.1500 
  8 N        5.3030    -0.3360    -0.2250 N.am  1 <1>  -0.5470 
  9 C        3.6660    -2.1330    -0.1680 C.ar  1 <1>  -0.1500 
 10 C        6.5180    -0.9450    -0.1040 C.2   1 <1>   0.6900 
 11 O        6.6140    -2.0670     0.3600 O.2   1 <1>  -0.5700 
 12 N        7.6390    -0.2510    -0.4890 N.am  1 <1>  -0.6600 
 13 C        7.5960     0.8640    -1.4710 C.3   1 <1>   0.1400 
 14 C        8.9820    -0.7540    -0.0800 C.3   1 <1>   0.1400 
 15 C        7.5630     2.2090    -0.7360 C.3   1 <1>  -0.1600 
 16 C       10.0420     0.3460     0.0800 C.3   1 <1>  -0.1600 
 17 C        8.9160     2.6360    -0.1450 C.3   1 <1>  -0.1600 
 18 C        9.5520     1.6110     0.8070 C.3   1 <1>  -0.1600 
 19 H        0.3850    -2.0380     0.5920 H     1 <1>   0.1500 
 20 H        2.5900     2.0940     1.2050 H     1 <1>   0.0800 
 21 H        3.4720     2.0770    -0.2970 H     1 <1>   0.0800 
 22 H        4.2640     1.6680     1.2120 H     1 <1>   0.0800 
 23 H        2.1460    -3.6320    -0.1090 H     1 <1>   0.1500 
 24 H        5.3930     0.6590    -0.3850 H     1 <1>   0.3700 
 25 H        4.4240    -2.8290    -0.4800 H     1 <1>   0.1500 
 26 H        6.7170     0.7660    -2.0860 H     1 <1>   0.0800 
 27 H        8.4480     0.8130    -2.1270 H     1 <1>   0.0800 
 28 H        9.3170    -1.4790    -0.8010 H     1 <1>   0.0800 
 29 H        8.8820    -1.2610     0.8650 H     1 <1>   0.0800 
 30 H        6.8250     2.1750     0.0450 H     1 <1>   0.0800 
 31 H        7.2560     2.9660    -1.4350 H     1 <1>   0.0800 
 32 H       10.4480     0.6030    -0.8820 H     1 <1>   0.0800 
 33 H       10.8520    -0.0790     0.6470 H     1 <1>   0.0800 
 34 H        8.7700     3.5560     0.3950 H     1 <1>   0.0800 
 35 H        9.6040     2.8470    -0.9460 H     1 <1>   0.0800 
 36 H       10.4020     2.0800     1.2720 H     1 <1>   0.0800 
 37 H        8.8620     1.3470     1.5920 H     1 <1>   0.0800 
@<TRIPOS>BOND
  1   1   2  1   
  2   2   3  ar  
  3   2   4  ar  
  4   3   5  ar  
  5   3   6  1   
  6   4   7  ar  
  7   4  19  1   
  8   5   8  1   
  9   5   9  ar  
 10   6  20  1   
 11   6  21  1   
 12   6  22  1   
 13   7   9  ar  
 14   7  23  1   
 15   8  10  am  
 16   8  24  1   
 17   9  25  1   
 18  10  11  2   
 19  10  12  am  
 20  12  13  1   
 21  12  14  1   
 22  13  15  1   
 23  13  26  1   
 24  13  27  1   
 25  14  16  1   
 26  14  28  1   
 27  14  29  1   
 28  15  17  1   
 29  15  30  1   
 30  15  31  1   
 31  16  18  1   
 32  16  32  1   
 33  16  33  1   
 34  17  18  1   
 35  17  34  1   
 36  17  35  1   
 37  18  36  1   
 38  18  37  1   
@<TRIPOS>SUBSTRUCTURE
  1 ****   8 GROUP 4 **** **** 0

# MOE 2024.06 (io_trps.svl 2023.06)
