@<TRIPOS>MOLECULE
NONAME
35 36 1 0 0 
SMALL
USER_CHARGES


@<TRIPOS>ATOM
  1 S       -0.6530     0.0050    -0.2070 S.3   1 <1>  -0.2860 
  2 C        1.0080    -0.5910     0.1250 C.2   1 <1>   0.2420 
  3 C       -1.6020    -1.5760    -0.4710 C.3   1 <1>   0.1310 
  4 N        1.3190    -1.8370     0.1850 N.2   1 <1>  -0.3380 
  5 N        2.0370     0.2270     0.3360 N.pl3 1 <1>   0.0480 
  6 C       -3.0850    -1.3140    -0.6860 C.2   1 <1>   0.5690 
  7 N        2.6300    -1.8700     0.4510 N.2   1 <1>  -0.3380 
  8 C        3.0310    -0.6450     0.5350 C.2   1 <1>   0.0360 
  9 C        2.0740     1.7010     0.3440 C.3   1 <1>   0.0160 
 10 O       -3.7350    -2.1710    -1.2320 O.2   1 <1>  -0.5700 
 11 N       -3.6070    -0.1260    -0.2500 N.am  1 <1>  -0.5470 
 12 C       -4.9070     0.4040    -0.2690 C.ar  1 <1>   0.1170 
 13 C       -5.0890     1.7880    -0.1860 C.ar  1 <1>  -0.1430 
 14 C       -6.0300    -0.4160    -0.3440 C.ar  1 <1>  -0.1500 
 15 C       -6.3720     2.3130    -0.1740 C.ar  1 <1>  -0.1500 
 16 C       -3.9100     2.7560    -0.1150 C.3   1 <1>  -0.0170 
 17 C       -7.3050     0.1170    -0.3360 C.ar  1 <1>  -0.1500 
 18 C       -7.4780     1.4850    -0.2500 C.ar  1 <1>  -0.1500 
 19 C       -3.3830     2.8770     1.3180 C.3   1 <1>  -0.2400 
 20 H       -1.4550    -2.1880     0.3980 H     1 <1>   0.0800 
 21 H       -1.1790    -2.0610    -1.3320 H     1 <1>   0.0800 
 22 H        4.0440    -0.3470     0.7400 H     1 <1>   0.1500 
 23 H        1.7570     2.0690    -0.6150 H     1 <1>   0.0800 
 24 H        3.0740     2.0380     0.5450 H     1 <1>   0.0800 
 25 H        1.4110     2.0690     1.1060 H     1 <1>   0.0800 
 26 H       -2.9080     0.5270     0.1030 H     1 <1>   0.3700 
 27 H       -5.9130    -1.4820    -0.4040 H     1 <1>   0.1500 
 28 H       -6.5230     3.3760    -0.1070 H     1 <1>   0.1500 
 29 H       -4.2220     3.7280    -0.4560 H     1 <1>   0.0800 
 30 H       -3.1240     2.4330    -0.7740 H     1 <1>   0.0800 
 31 H       -8.1600    -0.5340    -0.3960 H     1 <1>   0.1500 
 32 H       -8.4690     1.9040    -0.2420 H     1 <1>   0.1500 
 33 H       -4.1630     3.2370     1.9660 H     1 <1>   0.0800 
 34 H       -2.5610     3.5690     1.3530 H     1 <1>   0.0800 
 35 H       -3.0500     1.9230     1.6860 H     1 <1>   0.0800 
@<TRIPOS>BOND
  1   1   2  1   
  2   1   3  1   
  3   2   4  2   
  4   2   5  1   
  5   3   6  1   
  6   3  20  1   
  7   3  21  1   
  8   4   7  1   
  9   5   8  1   
 10   5   9  1   
 11   6  10  2   
 12   6  11  am  
 13   7   8  2   
 14   8  22  1   
 15   9  23  1   
 16   9  24  1   
 17   9  25  1   
 18  11  12  1   
 19  11  26  1   
 20  12  13  ar  
 21  12  14  ar  
 22  13  15  ar  
 23  13  16  1   
 24  14  17  ar  
 25  14  27  1   
 26  15  18  ar  
 27  15  28  1   
 28  16  19  1   
 29  16  29  1   
 30  16  30  1   
 31  17  18  ar  
 32  17  31  1   
 33  18  32  1   
 34  19  33  1   
 35  19  34  1   
 36  19  35  1   
@<TRIPOS>SUBSTRUCTURE
  1 ****  11 GROUP 4 **** **** 0

# MOE 2024.06 (io_trps.svl 2023.06)
