@<TRIPOS>MOLECULE
NONAME
41 43 1 0 0 
SMALL
USER_CHARGES


@<TRIPOS>ATOM
  1 F       -0.5690     0.1230    -1.5220 F     1 <1>  -0.3400 
  2 C       -1.5600    -0.6200    -1.0310 C.3   1 <1>   1.0200 
  3 F       -2.5390    -0.5450    -1.9290 F     1 <1>  -0.3400 
  4 F       -2.0110     0.0320     0.0380 F     1 <1>  -0.3400 
  5 C       -1.1250    -2.0990    -0.7090 C.3   1 <1>   0.6610 
  6 N       -0.6740    -2.9090    -1.8620 N.am  1 <1>  -0.7300 
  7 N       -2.1210    -2.9400     0.0290 N.am  1 <1>  -0.7300 
  8 C        0.1890    -2.0070     0.0730 C.2   1 <1>   0.5690 
  9 C        0.6170    -3.2460    -1.7220 C.2   1 <1>   0.6900 
 10 C       -3.2180    -3.5200    -0.5040 C.2   1 <1>   0.6300 
 11 O        0.2970    -1.4930     1.1620 O.2   1 <1>  -0.5700 
 12 N        1.1680    -2.6690    -0.6140 N.am  1 <1>  -0.4200 
 13 O        1.1880    -4.0070    -2.4680 O.2   1 <1>  -0.5700 
 14 O       -3.4210    -3.5100    -1.6900 O.2   1 <1>  -0.5700 
 15 C       -4.2170    -4.2010     0.4220 C.3   1 <1>  -0.1000 
 16 C        2.5800    -2.8720    -0.2120 C.3   1 <1>   0.2200 
 17 C       -4.5700    -3.6240     1.7650 C.3   1 <1>  -0.2000 
 18 C       -3.7910    -4.9010     1.6830 C.3   1 <1>  -0.2000 
 19 C        2.6660    -3.7260     1.0620 C.3   1 <1>  -0.1600 
 20 C        3.3000    -1.5260    -0.0380 C.3   1 <1>  -0.1600 
 21 C        4.1270    -3.9340     1.4850 C.3   1 <1>  -0.1600 
 22 C        4.7620    -1.7370     0.3860 C.3   1 <1>  -0.1600 
 23 C        4.8520    -2.5920     1.6580 C.3   1 <1>  -0.1600 
 24 H       -1.3640    -3.4800    -2.3610 H     1 <1>   0.3700 
 25 H       -2.0250    -2.9100     1.0460 H     1 <1>   0.3700 
 26 H       -5.0160    -4.6530    -0.1380 H     1 <1>   0.1000 
 27 H        3.0830    -3.4090    -1.0000 H     1 <1>   0.0800 
 28 H       -5.5980    -3.6650     2.0830 H     1 <1>   0.1000 
 29 H       -4.0750    -2.7320     2.1070 H     1 <1>   0.1000 
 30 H       -2.7530    -4.8980     1.9690 H     1 <1>   0.1000 
 31 H       -4.2810    -5.8230     1.9460 H     1 <1>   0.1000 
 32 H        2.2090    -4.6830     0.8850 H     1 <1>   0.0800 
 33 H        2.1430    -3.2380     1.8660 H     1 <1>   0.0800 
 34 H        2.8080    -0.9400     0.7180 H     1 <1>   0.0800 
 35 H        3.2750    -0.9800    -0.9650 H     1 <1>   0.0800 
 36 H        4.6360    -4.5200     0.7390 H     1 <1>   0.0800 
 37 H        4.1600    -4.4820     2.4120 H     1 <1>   0.0800 
 38 H        5.2280    -0.7820     0.5600 H     1 <1>   0.0800 
 39 H        5.2990    -2.2240    -0.4100 H     1 <1>   0.0800 
 40 H        5.8860    -2.7690     1.9000 H     1 <1>   0.0800 
 41 H        4.4110    -2.0530     2.4800 H     1 <1>   0.0800 
@<TRIPOS>BOND
  1   1   2  1   
  2   2   3  1   
  3   2   4  1   
  4   2   5  1   
  5   5   6  1   
  6   5   7  1   
  7   5   8  1   
  8   6   9  am  
  9   6  24  1   
 10   7  10  am  
 11   7  25  1   
 12   8  11  2   
 13   8  12  am  
 14   9  12  am  
 15   9  13  2   
 16  10  14  2   
 17  10  15  1   
 18  12  16  1   
 19  15  17  1   
 20  15  18  1   
 21  15  26  1   
 22  16  19  1   
 23  16  20  1   
 24  16  27  1   
 25  17  18  1   
 26  17  28  1   
 27  17  29  1   
 28  18  30  1   
 29  18  31  1   
 30  19  21  1   
 31  19  32  1   
 32  19  33  1   
 33  20  22  1   
 34  20  34  1   
 35  20  35  1   
 36  21  23  1   
 37  21  36  1   
 38  21  37  1   
 39  22  23  1   
 40  22  38  1   
 41  22  39  1   
 42  23  40  1   
 43  23  41  1   
@<TRIPOS>SUBSTRUCTURE
  1 ****   8 GROUP 4 **** **** 0

# MOE 2024.06 (io_trps.svl 2023.06)
