@<TRIPOS>MOLECULE
NONAME
40 41 1 0 0 
SMALL
USER_CHARGES


@<TRIPOS>ATOM
  1 O        2.7980    -1.5410    -3.3410 O.co2 1 <1>  -0.9000 
  2 C        3.2480    -2.0010    -2.2810 C.2   1 <1>   1.0320 
  3 O        4.4700    -1.8600    -2.0670 O.co2 1 <1>  -0.9000 
  4 C        2.3820    -2.2760    -1.1530 C.2   1 <1>  -0.0920 
  5 O        1.3850    -3.1540    -1.1880 O.3   1 <1>  -0.2800 
  6 C        2.4040    -1.6910     0.0800 C.2   1 <1>  -0.1810 
  7 C        0.7740    -3.1600    -0.0210 C.2   1 <1>  -0.0400 
  8 C        1.3640    -2.2720     0.8110 C.2   1 <1>  -0.1500 
  9 C        3.3550    -0.6190     0.5920 C.3   1 <1>   0.5240 
 10 C       -0.4140    -4.1040     0.1810 C.3   1 <1>   0.1800 
 11 N        3.8520     0.2500    -0.5060 N.4   1 <1>  -0.9590 
 12 C       -0.9890    -3.9640     1.5980 C.3   1 <1>  -0.2400 
 13 C       -1.5110    -3.7640    -0.8360 C.3   1 <1>  -0.2400 
 14 C        0.0460    -5.5520    -0.0280 C.3   1 <1>  -0.2400 
 15 C        4.9800     1.1580    -0.1410 C.3   1 <1>   0.3430 
 16 C        2.7840     0.9120    -1.3280 C.3   1 <1>   0.3430 
 17 C        4.8000     2.5900    -0.6900 C.3   1 <1>   0.1200 
 18 C        3.4270     1.7170    -2.4730 C.3   1 <1>   0.1200 
 19 O        4.4480     2.5960    -2.0470 O.3   1 <1>  -0.5600 
 20 H        1.1010    -2.0460     1.8280 H     1 <1>   0.1500 
 21 H        4.1890    -1.1060     1.0690 H     1 <1>   0.0800 
 22 H        2.8460    -0.0160     1.3240 H     1 <1>   0.0800 
 23 H        4.2770    -0.4410    -1.1810 H     1 <1>   0.4500 
 24 H       -1.8230    -4.6280     1.7320 H     1 <1>   0.0800 
 25 H       -0.2400    -4.2060     2.3300 H     1 <1>   0.0800 
 26 H       -1.3260    -2.9570     1.7670 H     1 <1>   0.0800 
 27 H       -1.8290    -2.7450    -0.7120 H     1 <1>   0.0800 
 28 H       -2.3600    -4.4120    -0.7140 H     1 <1>   0.0800 
 29 H       -1.1350    -3.8770    -1.8380 H     1 <1>   0.0800 
 30 H        0.8300    -5.7960     0.6650 H     1 <1>   0.0800 
 31 H        0.4300    -5.6780    -1.0260 H     1 <1>   0.0800 
 32 H       -0.7700    -6.2370     0.1130 H     1 <1>   0.0800 
 33 H        5.8960     0.7530    -0.5410 H     1 <1>   0.0800 
 34 H        5.0850     1.2060     0.9290 H     1 <1>   0.0800 
 35 H        2.1980     1.5740    -0.7140 H     1 <1>   0.0800 
 36 H        2.1210     0.1750    -1.7520 H     1 <1>   0.0800 
 37 H        5.7170     3.1430    -0.5890 H     1 <1>   0.0800 
 38 H        4.0320     3.1080    -0.1430 H     1 <1>   0.0800 
 39 H        2.6790     2.2980    -2.9830 H     1 <1>   0.0800 
 40 H        3.8580     1.0320    -3.1860 H     1 <1>   0.0800 
@<TRIPOS>BOND
  1   1   2  ar  
  2   2   3  ar  
  3   2   4  1   
  4   4   5  1   
  5   4   6  2   
  6   5   7  1   
  7   6   8  1   
  8   6   9  1   
  9   7   8  2   
 10   7  10  1   
 11   8  20  1   
 12   9  11  1   
 13   9  21  1   
 14   9  22  1   
 15  10  12  1   
 16  10  13  1   
 17  10  14  1   
 18  11  15  1   
 19  11  16  1   
 20  11  23  1   
 21  12  24  1   
 22  12  25  1   
 23  12  26  1   
 24  13  27  1   
 25  13  28  1   
 26  13  29  1   
 27  14  30  1   
 28  14  31  1   
 29  14  32  1   
 30  15  17  1   
 31  15  33  1   
 32  15  34  1   
 33  16  18  1   
 34  16  35  1   
 35  16  36  1   
 36  17  19  1   
 37  17  37  1   
 38  17  38  1   
 39  18  19  1   
 40  18  39  1   
 41  18  40  1   
@<TRIPOS>SUBSTRUCTURE
  1 ****   6 GROUP 4 **** **** 0

# MOE 2024.06 (io_trps.svl 2023.06)
