@<TRIPOS>MOLECULE
NONAME
50 51 1 0 0 
SMALL
USER_CHARGES


@<TRIPOS>ATOM
  1 S       -0.0340    -0.0850     0.2460 S.o2  1 <1>   1.3330 
  2 O       -1.4560    -0.3180     0.3330 O.2   1 <1>  -0.6500 
  3 O        0.8700    -0.6030     1.2440 O.2   1 <1>  -0.6500 
  4 N        0.1990     1.6260     0.1410 N.am  1 <1>  -0.6930 
  5 C        0.5120    -0.6200    -1.3610 C.3   1 <1>  -0.1350 
  6 C        1.4680     2.1850     0.0740 C.ar  1 <1>   0.1990 
  7 C       -1.0380     2.4250    -0.0170 C.3   1 <1>   0.3340 
  8 C        1.9020     2.8560    -1.0630 C.ar  1 <1>  -0.1500 
  9 C        2.3480     2.0880     1.1450 C.ar  1 <1>  -0.1500 
 10 C       -0.7750     3.9140     0.1340 C.2   1 <1>  -0.2880 
 11 C        3.1680     3.4050    -1.1260 C.ar  1 <1>  -0.1500 
 12 C        3.6130     2.6390     1.0820 C.ar  1 <1>  -0.1500 
 13 C       -1.0110     4.8480    -0.7940 C.2   1 <1>  -0.3000 
 14 C        4.0640     3.3100    -0.0580 C.ar  1 <1>   0.0860 
 15 C        5.3940     3.8900    -0.1380 C.2   1 <1>   0.5440 
 16 O        5.7020     4.6500    -1.0380 O.2   1 <1>  -0.5700 
 17 N        6.3870     3.5730     0.7590 N.am  1 <1>  -0.6600 
 18 C        7.0240     2.2330     0.6470 C.3   1 <1>   0.1400 
 19 C        7.3440     4.6480     1.1540 C.3   1 <1>   0.1400 
 20 C        8.2130     2.2920    -0.3380 C.3   1 <1>   0.3430 
 21 C        8.5200     4.7060     0.1600 C.3   1 <1>   0.3430 
 22 N        9.2100     3.3680     0.0150 N.4   1 <1>  -0.9590 
 23 C       10.2910     3.4190    -1.0030 C.3   1 <1>   0.3430 
 24 C       11.4740     4.2100    -0.4570 C.3   1 <1>  -0.2400 
 25 H        0.4080    -1.6840    -1.4460 H     1 <1>   0.0800 
 26 H        1.5420    -0.3630    -1.5060 H     1 <1>   0.0800 
 27 H       -0.0750    -0.1540    -2.1270 H     1 <1>   0.0800 
 28 H       -1.7480     2.1280     0.7370 H     1 <1>   0.0800 
 29 H       -1.4700     2.2220    -0.9810 H     1 <1>   0.0800 
 30 H        1.2340     2.9520    -1.8990 H     1 <1>   0.1500 
 31 H        2.0260     1.5760     2.0360 H     1 <1>   0.1500 
 32 H       -0.3630     4.1520     1.1010 H     1 <1>   0.1500 
 33 H        3.4720     3.9260    -2.0190 H     1 <1>   0.1500 
 34 H        4.2580     2.5510     1.9390 H     1 <1>   0.1500 
 35 H       -0.8090     5.8960    -0.6510 H     1 <1>   0.1500 
 36 H       -1.4200     4.6500    -1.7700 H     1 <1>   0.1500 
 37 H        6.3040     1.5150     0.2920 H     1 <1>   0.0800 
 38 H        7.3600     1.9100     1.6170 H     1 <1>   0.0800 
 39 H        7.7030     4.4660     2.1510 H     1 <1>   0.0800 
 40 H        6.8350     5.5970     1.1540 H     1 <1>   0.0800 
 41 H        7.8190     2.4810    -1.3240 H     1 <1>   0.0800 
 42 H        8.7020     1.3310    -0.3580 H     1 <1>   0.0800 
 43 H        9.2230     5.4520     0.4920 H     1 <1>   0.0800 
 44 H        8.1320     5.0200    -0.7960 H     1 <1>   0.0800 
 45 H        9.6330     3.1290     0.9200 H     1 <1>   0.4500 
 46 H        9.9270     3.8730    -1.9120 H     1 <1>   0.0800 
 47 H       10.6200     2.4180    -1.2340 H     1 <1>   0.0800 
 48 H       11.2210     5.2430    -0.3000 H     1 <1>   0.0800 
 49 H       12.2760     4.1790    -1.1730 H     1 <1>   0.0800 
 50 H       11.8350     3.7790     0.4600 H     1 <1>   0.0800 
@<TRIPOS>BOND
  1   1   2  2   
  2   1   3  2   
  3   1   4  am  
  4   1   5  1   
  5   4   6  1   
  6   4   7  1   
  7   5  25  1   
  8   5  26  1   
  9   5  27  1   
 10   6   8  ar  
 11   6   9  ar  
 12   7  10  1   
 13   7  28  1   
 14   7  29  1   
 15   8  11  ar  
 16   8  30  1   
 17   9  12  ar  
 18   9  31  1   
 19  10  13  2   
 20  10  32  1   
 21  11  14  ar  
 22  11  33  1   
 23  12  14  ar  
 24  12  34  1   
 25  13  35  1   
 26  13  36  1   
 27  14  15  1   
 28  15  16  2   
 29  15  17  am  
 30  17  18  1   
 31  17  19  1   
 32  18  20  1   
 33  18  37  1   
 34  18  38  1   
 35  19  21  1   
 36  19  39  1   
 37  19  40  1   
 38  20  22  1   
 39  20  41  1   
 40  20  42  1   
 41  21  22  1   
 42  21  43  1   
 43  21  44  1   
 44  22  23  1   
 45  22  45  1   
 46  23  24  1   
 47  23  46  1   
 48  23  47  1   
 49  24  48  1   
 50  24  49  1   
 51  24  50  1   
@<TRIPOS>SUBSTRUCTURE
  1 ****  14 GROUP 4 **** **** 0

# MOE 2024.06 (io_trps.svl 2023.06)
