@<TRIPOS>MOLECULE
NONAME
40 42 1 0 0 
SMALL
USER_CHARGES


@<TRIPOS>ATOM
  1 S       -0.0510    -0.3630     0.3030 S.3   1 <1>  -0.0800 
  2 C        0.8970     1.1180     0.1980 C.2   1 <1>   0.1040 
  3 C       -1.5500     0.5320     0.1760 C.2   1 <1>  -0.1400 
  4 N        2.2830     1.0390     0.1610 N.am  1 <1>  -0.4940 
  5 C        0.0780     2.2120     0.1000 C.2   1 <1>  -0.0860 
  6 C       -1.3190     1.8480     0.0840 C.2   1 <1>  -0.1810 
  7 C       -2.8770    -0.1930     0.1810 C.3   1 <1>   0.0200 
  8 C        3.1570     0.0890     0.6470 C.2   1 <1>   0.5440 
  9 C        0.5440     3.5710     0.0410 C.2   1 <1>   0.7160 
 10 C       -2.4730     2.8350    -0.0260 C.3   1 <1>   0.0210 
 11 C       -3.9830     0.7750    -0.2890 C.3   1 <1>  -0.0800 
 12 O        2.7650    -0.7390     1.4430 O.2   1 <1>  -0.5700 
 13 C        4.5490     0.1040     0.2300 C.ar  1 <1>   0.0860 
 14 O        0.0090     4.4340    -0.6230 O.2   1 <1>  -0.5700 
 15 N        1.6220     3.9600     0.7580 N.am  1 <1>  -0.8000 
 16 C       -3.8150     2.1720     0.3490 C.3   1 <1>  -0.1600 
 17 C       -5.3730     0.2020     0.0140 C.3   1 <1>  -0.2400 
 18 C        5.3070    -1.0680     0.2560 C.ar  1 <1>  -0.1500 
 19 C        5.1930     1.2660    -0.2090 C.ar  1 <1>  -0.1500 
 20 C        6.6310    -1.0890    -0.1430 C.ar  1 <1>  -0.1500 
 21 C        6.5170     1.2520    -0.6110 C.ar  1 <1>  -0.1500 
 22 C        7.2390     0.0730    -0.5800 C.ar  1 <1>  -0.1500 
 23 H        2.7330     1.8030    -0.3390 H     1 <1>   0.3700 
 24 H       -3.0740    -0.5380     1.1800 H     1 <1>   0.0800 
 25 H       -2.8330    -1.0440    -0.4750 H     1 <1>   0.0800 
 26 H       -2.5170     3.1990    -1.0380 H     1 <1>   0.0800 
 27 H       -2.3040     3.6760     0.6230 H     1 <1>   0.0800 
 28 H       -3.8900     0.8880    -1.3570 H     1 <1>   0.0800 
 29 H        1.8140     4.9600     0.8030 H     1 <1>   0.3700 
 30 H        1.9270     3.4040     1.5570 H     1 <1>   0.3700 
 31 H       -4.6190     2.8170     0.0410 H     1 <1>   0.0800 
 32 H       -3.8630     2.0740     1.4190 H     1 <1>   0.0800 
 33 H       -5.5140     0.0890     1.0750 H     1 <1>   0.0800 
 34 H       -5.4890    -0.7590    -0.4540 H     1 <1>   0.0800 
 35 H       -6.1370     0.8570    -0.3650 H     1 <1>   0.0800 
 36 H        4.8440    -1.9790     0.5970 H     1 <1>   0.1500 
 37 H        4.6660     2.2020    -0.2340 H     1 <1>   0.1500 
 38 H        7.1890    -2.0100    -0.1120 H     1 <1>   0.1500 
 39 H        6.9910     2.1580    -0.9470 H     1 <1>   0.1500 
 40 H        8.2700     0.0590    -0.8920 H     1 <1>   0.1500 
@<TRIPOS>BOND
  1   1   2  1   
  2   1   3  1   
  3   2   4  1   
  4   2   5  2   
  5   3   6  2   
  6   3   7  1   
  7   4   8  am  
  8   4  23  1   
  9   5   6  1   
 10   5   9  1   
 11   6  10  1   
 12   7  11  1   
 13   7  24  1   
 14   7  25  1   
 15   8  12  2   
 16   8  13  1   
 17   9  14  2   
 18   9  15  am  
 19  10  16  1   
 20  10  26  1   
 21  10  27  1   
 22  11  16  1   
 23  11  17  1   
 24  11  28  1   
 25  13  18  ar  
 26  13  19  ar  
 27  15  29  1   
 28  15  30  1   
 29  16  31  1   
 30  16  32  1   
 31  17  33  1   
 32  17  34  1   
 33  17  35  1   
 34  18  20  ar  
 35  18  36  1   
 36  19  21  ar  
 37  19  37  1   
 38  20  22  ar  
 39  20  38  1   
 40  21  22  ar  
 41  21  39  1   
 42  22  40  1   
@<TRIPOS>SUBSTRUCTURE
  1 ****   2 GROUP 4 **** **** 0

# MOE 2024.06 (io_trps.svl 2023.06)
