@<TRIPOS>MOLECULE
NONAME
51 54 1 0 0 
SMALL
USER_CHARGES


@<TRIPOS>ATOM
  1 O       -1.3970    -0.5220    -2.4160 O.2   1 <1>  -0.5700 
  2 C       -1.6390    -1.1240    -1.3880 C.2   1 <1>   0.5440 
  3 N       -0.7960    -2.1410    -0.9940 N.am  1 <1>  -0.6600 
  4 C       -2.8180    -0.7610    -0.6340 C.ar  1 <1>   0.0860 
  5 C        0.4990    -2.3760    -1.6940 C.3   1 <1>   0.2780 
  6 C       -1.0870    -3.0820     0.1390 C.3   1 <1>   0.1400 
  7 C       -4.0730    -0.8310    -1.2350 C.ar  1 <1>   0.1600 
  8 C       -2.7700    -0.3330     0.6860 C.ar  1 <1>  -0.1500 
  9 C        1.6140    -1.6770    -0.9380 C.2   1 <1>  -0.1240 
 10 C       -2.2420    -4.0380    -0.1890 C.3   1 <1>   0.2000 
 11 N       -5.2290    -0.5580    -0.6490 N.ar  1 <1>  -0.6200 
 12 C       -3.9610    -0.0370     1.3130 C.ar  1 <1>  -0.1500 
 13 C        2.4730    -2.4740    -0.1180 C.2   1 <1>   0.6160 
 14 C        1.8010    -0.3360    -1.0270 C.2   1 <1>  -0.1780 
 15 O       -2.4450    -4.8960     0.8840 O.3   1 <1>  -0.5600 
 16 C       -1.9890    -4.9660    -1.3690 C.3   1 <1>  -0.1600 
 17 C       -5.1470    -0.1680     0.6130 C.ar  1 <1>   0.1600 
 18 O        2.3720    -3.6830     0.0020 O.2   1 <1>  -0.5700 
 19 N        3.4660    -1.8440     0.5670 N.am  1 <1>  -0.5470 
 20 C        2.8520     0.3110    -0.3010 C.ar  1 <1>   0.0280 
 21 C       -3.0660    -6.0720     0.4650 C.3   1 <1>   0.1200 
 22 C       -2.8810    -6.1510    -1.0490 C.3   1 <1>  -0.1600 
 23 C        3.6940    -0.4710     0.5100 C.ar  1 <1>   0.1170 
 24 C        3.0680     1.6870    -0.3690 C.ar  1 <1>  -0.1500 
 25 C        4.7290     0.1340     1.2330 C.ar  1 <1>  -0.1430 
 26 C        4.0880     2.2750     0.3450 C.ar  1 <1>  -0.1500 
 27 C        4.9160     1.4990     1.1450 C.ar  1 <1>  -0.1500 
 28 C        5.6510    -0.6950     2.1170 C.3   1 <1>  -0.0970 
 29 H        0.4560    -1.9840    -2.6960 H     1 <1>   0.0800 
 30 H        0.6860    -3.4320    -1.7780 H     1 <1>   0.0800 
 31 H       -1.3330    -2.5220     1.0220 H     1 <1>   0.0800 
 32 H       -0.2110    -3.6660     0.3610 H     1 <1>   0.0800 
 33 H       -4.1120    -1.1350    -2.2670 H     1 <1>   0.1500 
 34 H       -1.8270    -0.2350     1.1960 H     1 <1>   0.1500 
 35 H       -3.1600    -3.4930    -0.3290 H     1 <1>   0.0800 
 36 H       -3.9740     0.2930     2.3370 H     1 <1>   0.1500 
 37 H        1.1630     0.2800    -1.6380 H     1 <1>   0.1500 
 38 H       -0.9570    -5.2700    -1.3760 H     1 <1>   0.0800 
 39 H       -2.2330    -4.4990    -2.3060 H     1 <1>   0.0800 
 40 H       -6.0740     0.0620     1.1120 H     1 <1>   0.1500 
 41 H        4.0580    -2.4450     1.1350 H     1 <1>   0.3700 
 42 H       -4.1080    -6.0210     0.7340 H     1 <1>   0.0800 
 43 H       -2.5940    -6.8970     0.9710 H     1 <1>   0.0800 
 44 H       -2.4350    -7.0850    -1.3450 H     1 <1>   0.0800 
 45 H       -3.8370    -6.0500    -1.5310 H     1 <1>   0.0800 
 46 H        2.4270     2.2890    -0.9880 H     1 <1>   0.1500 
 47 H        4.2480     3.3380     0.2870 H     1 <1>   0.1500 
 48 H        5.7070     1.9800     1.6940 H     1 <1>   0.1500 
 49 H        5.0790    -1.2010     2.8750 H     1 <1>   0.0800 
 50 H        6.3800    -0.0730     2.6040 H     1 <1>   0.0800 
 51 H        6.1730    -1.4240     1.5230 H     1 <1>   0.0800 
@<TRIPOS>BOND
  1   1   2  2   
  2   2   3  am  
  3   2   4  1   
  4   3   5  1   
  5   3   6  1   
  6   4   7  ar  
  7   4   8  ar  
  8   5   9  1   
  9   5  29  1   
 10   5  30  1   
 11   6  10  1   
 12   6  31  1   
 13   6  32  1   
 14   7  11  ar  
 15   7  33  1   
 16   8  12  ar  
 17   8  34  1   
 18   9  13  1   
 19   9  14  2   
 20  10  15  1   
 21  10  16  1   
 22  10  35  1   
 23  11  17  ar  
 24  12  17  ar  
 25  12  36  1   
 26  13  18  2   
 27  13  19  am  
 28  14  20  1   
 29  14  37  1   
 30  15  21  1   
 31  16  22  1   
 32  16  38  1   
 33  16  39  1   
 34  17  40  1   
 35  19  23  1   
 36  19  41  1   
 37  20  23  ar  
 38  20  24  ar  
 39  21  22  1   
 40  21  42  1   
 41  21  43  1   
 42  22  44  1   
 43  22  45  1   
 44  23  25  ar  
 45  24  26  ar  
 46  24  46  1   
 47  25  27  ar  
 48  25  28  1   
 49  26  27  ar  
 50  26  47  1   
 51  27  48  1   
 52  28  49  1   
 53  28  50  1   
 54  28  51  1   
@<TRIPOS>SUBSTRUCTURE
  1 ****   3 GROUP 4 **** **** 0

# MOE 2024.06 (io_trps.svl 2023.06)
