@<TRIPOS>MOLECULE
NONAME
31 31 1 0 0 
SMALL
USER_CHARGES


@<TRIPOS>ATOM
  1 CL       0.6740    -0.3050     1.9320 Cl    1 <1>  -0.1770 
  2 C       -0.8070    -1.0010     1.3170 C.ar  1 <1>   0.1770 
  3 C       -0.7480    -2.1260     0.5000 C.ar  1 <1>   0.0860 
  4 C       -2.0060    -0.3960     1.6510 C.ar  1 <1>  -0.1500 
  5 C       -1.9580    -2.6120     0.0140 C.ar  1 <1>   0.1770 
  6 C        0.5110    -2.7440     0.1860 C.2   1 <1>   0.5440 
  7 C       -3.1950    -0.9100     1.1590 C.ar  1 <1>  -0.1500 
  8 CL      -1.9690    -4.0020    -1.0410 Cl    1 <1>  -0.1770 
  9 C       -3.1680    -2.0230     0.3340 C.ar  1 <1>  -0.1500 
 10 O        1.0990    -3.4090     1.0150 O.2   1 <1>  -0.5700 
 11 N        1.1150    -2.5470    -1.0240 N.am  1 <1>  -0.7300 
 12 C        2.3610    -3.2230    -1.4980 C.3   1 <1>   0.1400 
 13 C        3.6350    -2.5410    -0.9560 C.3   1 <1>   0.3430 
 14 N        3.6930    -2.5990     0.5370 N.4   1 <1>  -0.9590 
 15 C        4.2280    -1.3480     1.1460 C.3   1 <1>   0.2630 
 16 C        4.3910    -3.8170     1.0420 C.3   1 <1>   0.2630 
 17 H       -2.0100     0.4710     2.2900 H     1 <1>   0.1500 
 18 H       -4.1340    -0.4460     1.4160 H     1 <1>   0.1500 
 19 H       -4.0830    -2.4330    -0.0590 H     1 <1>   0.1500 
 20 H        0.5700    -2.0770    -1.7560 H     1 <1>   0.3700 
 21 H        2.3800    -3.1990    -2.5750 H     1 <1>   0.0800 
 22 H        2.3460    -4.2570    -1.1960 H     1 <1>   0.0800 
 23 H        3.6280    -1.5130    -1.2800 H     1 <1>   0.0800 
 24 H        4.5080    -3.0140    -1.3740 H     1 <1>   0.0800 
 25 H        2.6970    -2.7010     0.8420 H     1 <1>   0.4500 
 26 H        5.2530    -1.1940     0.8530 H     1 <1>   0.0800 
 27 H        4.1800    -1.4100     2.2220 H     1 <1>   0.0800 
 28 H        3.6420    -0.5010     0.8290 H     1 <1>   0.0800 
 29 H        5.4260    -3.8100     0.7450 H     1 <1>   0.0800 
 30 H        3.9180    -4.7030     0.6510 H     1 <1>   0.0800 
 31 H        4.3370    -3.8530     2.1180 H     1 <1>   0.0800 
@<TRIPOS>BOND
  1   1   2  1   
  2   2   3  ar  
  3   2   4  ar  
  4   3   5  ar  
  5   3   6  1   
  6   4   7  ar  
  7   4  17  1   
  8   5   8  1   
  9   5   9  ar  
 10   6  10  2   
 11   6  11  am  
 12   7   9  ar  
 13   7  18  1   
 14   9  19  1   
 15  11  12  1   
 16  11  20  1   
 17  12  13  1   
 18  12  21  1   
 19  12  22  1   
 20  13  14  1   
 21  13  23  1   
 22  13  24  1   
 23  14  15  1   
 24  14  16  1   
 25  14  25  1   
 26  15  26  1   
 27  15  27  1   
 28  15  28  1   
 29  16  29  1   
 30  16  30  1   
 31  16  31  1   
@<TRIPOS>SUBSTRUCTURE
  1 ****   6 GROUP 4 **** **** 0

# MOE 2024.06 (io_trps.svl 2023.06)
