@<TRIPOS>MOLECULE
NONAME
50 51 1 0 0 
SMALL
USER_CHARGES


@<TRIPOS>ATOM
  1 N       -0.0080    -0.1290    -0.2480 N.4   1 <1>  -0.9590 
  2 C       -1.1490     0.8310    -0.2710 C.3   1 <1>   0.3430 
  3 C       -0.2080    -1.2460     0.7250 C.3   1 <1>   0.3430 
  4 C        1.2630     0.6120     0.0280 C.3   1 <1>   0.3430 
  5 C       -2.4520     0.0970    -0.6010 C.3   1 <1>  -0.1600 
  6 C       -1.4990    -2.0000     0.3990 C.3   1 <1>  -0.1600 
  7 C        2.4760    -0.2410    -0.3510 C.3   1 <1>  -0.1600 
  8 C       -2.7010    -1.0550     0.3770 C.3   1 <1>   0.4230 
  9 C        3.7730     0.5570    -0.1840 C.3   1 <1>  -0.2400 
 10 N       -3.9070    -1.8250    -0.0150 N.4   1 <1>  -0.9060 
 11 C       -5.1960    -1.0990     0.1960 C.3   1 <1>   0.3430 
 12 C       -6.3820    -1.9780    -0.2030 C.3   1 <1>  -0.0220 
 13 C       -7.7170    -1.2660    -0.0210 C.2   1 <1>  -0.2760 
 14 C       -7.8860    -0.0320     0.4760 C.2   1 <1>  -0.2880 
 15 C       -8.8980    -2.1220    -0.4800 C.3   1 <1>  -0.0220 
 16 C       -9.2350     0.6590     0.6160 C.3   1 <1>  -0.0220 
 17 C      -10.2430    -1.5750     0.0170 C.3   1 <1>  -0.1600 
 18 C      -10.3280    -0.0590    -0.1860 C.3   1 <1>  -0.1600 
 19 H        0.1060    -0.5270    -1.1930 H     1 <1>   0.4500 
 20 H       -0.9700     1.5970    -1.0110 H     1 <1>   0.0800 
 21 H       -1.2370     1.3140     0.6910 H     1 <1>   0.0800 
 22 H       -0.2570    -0.8500     1.7270 H     1 <1>   0.0800 
 23 H        0.6260    -1.9300     0.6790 H     1 <1>   0.0800 
 24 H        1.3210     0.8890     1.0690 H     1 <1>   0.0800 
 25 H        1.2900     1.5170    -0.5590 H     1 <1>   0.0800 
 26 H       -2.3980    -0.2650    -1.6130 H     1 <1>   0.0800 
 27 H       -3.2540     0.8120    -0.5430 H     1 <1>   0.0800 
 28 H       -1.6430    -2.7540     1.1530 H     1 <1>   0.0800 
 29 H       -1.3810    -2.4920    -0.5510 H     1 <1>   0.0800 
 30 H        2.4000    -0.5540    -1.3780 H     1 <1>   0.0800 
 31 H        2.5390    -1.1140     0.2760 H     1 <1>   0.0800 
 32 H       -2.8430    -0.6530     1.3700 H     1 <1>   0.0800 
 33 H        3.7740     1.4280    -0.8180 H     1 <1>   0.0800 
 34 H        4.6180    -0.0540    -0.4560 H     1 <1>   0.0800 
 35 H        3.9050     0.8710     0.8370 H     1 <1>   0.0800 
 36 H       -3.9530    -2.6960     0.5320 H     1 <1>   0.4500 
 37 H       -3.8490    -2.1120    -1.0010 H     1 <1>   0.4500 
 38 H       -5.2220    -0.1990    -0.3970 H     1 <1>   0.0800 
 39 H       -5.3030    -0.8240     1.2340 H     1 <1>   0.0800 
 40 H       -6.3890    -2.8700     0.3990 H     1 <1>   0.0800 
 41 H       -6.2890    -2.2570    -1.2380 H     1 <1>   0.0800 
 42 H       -7.0980     0.6060     0.8320 H     1 <1>   0.1500 
 43 H       -8.7930    -3.1300    -0.1180 H     1 <1>   0.0800 
 44 H       -8.9070    -2.1570    -1.5560 H     1 <1>   0.0800 
 45 H       -9.1620     1.6750     0.2690 H     1 <1>   0.0800 
 46 H       -9.5080     0.6820     1.6570 H     1 <1>   0.0800 
 47 H      -10.3500    -1.7950     1.0650 H     1 <1>   0.0800 
 48 H      -11.0470    -2.0610    -0.5080 H     1 <1>   0.0800 
 49 H      -10.2050     0.1640    -1.2320 H     1 <1>   0.0800 
 50 H      -11.2950     0.3010     0.1190 H     1 <1>   0.0800 
@<TRIPOS>BOND
  1   1   2  1   
  2   1   3  1   
  3   1   4  1   
  4   1  19  1   
  5   2   5  1   
  6   2  20  1   
  7   2  21  1   
  8   3   6  1   
  9   3  22  1   
 10   3  23  1   
 11   4   7  1   
 12   4  24  1   
 13   4  25  1   
 14   5   8  1   
 15   5  26  1   
 16   5  27  1   
 17   6   8  1   
 18   6  28  1   
 19   6  29  1   
 20   7   9  1   
 21   7  30  1   
 22   7  31  1   
 23   8  10  1   
 24   8  32  1   
 25   9  33  1   
 26   9  34  1   
 27   9  35  1   
 28  10  11  1   
 29  10  36  1   
 30  10  37  1   
 31  11  12  1   
 32  11  38  1   
 33  11  39  1   
 34  12  13  1   
 35  12  40  1   
 36  12  41  1   
 37  13  14  2   
 38  13  15  1   
 39  14  16  1   
 40  14  42  1   
 41  15  17  1   
 42  15  43  1   
 43  15  44  1   
 44  16  18  1   
 45  16  45  1   
 46  16  46  1   
 47  17  18  1   
 48  17  47  1   
 49  17  48  1   
 50  18  49  1   
 51  18  50  1   
@<TRIPOS>SUBSTRUCTURE
  1 ****  10 GROUP 4 **** **** 0

# MOE 2024.06 (io_trps.svl 2023.06)
