@<TRIPOS>MOLECULE
NONAME
50 52 1 0 0 
SMALL
USER_CHARGES


@<TRIPOS>ATOM
  1 CL       1.3630    -1.3150     2.3360 Cl    1 <1>  -0.1770 
  2 C        2.5640    -2.4800     1.8350 C.ar  1 <1>   0.1770 
  3 C        3.6170    -2.0670     1.0450 C.ar  1 <1>  -0.1500 
  4 C        2.4360    -3.7960     2.2410 C.ar  1 <1>  -0.1500 
  5 C        4.5780    -2.9870     0.6430 C.ar  1 <1>   0.1000 
  6 C        3.3900    -4.7180     1.8420 C.ar  1 <1>  -0.1500 
  7 N        5.6550    -2.6180    -0.1500 N.pl3 1 <1>  -0.8380 
  8 C        4.4500    -4.3100     1.0490 C.ar  1 <1>  -0.1500 
  9 C        5.3370    -2.2140    -1.5500 C.3   1 <1>   0.2090 
 10 C        6.6360    -1.6760     0.4620 C.3   1 <1>   0.2090 
 11 C        6.6220    -2.1040    -2.3930 C.3   1 <1>   0.1100 
 12 C        7.9070    -1.5620    -0.4010 C.3   1 <1>   0.1100 
 13 N        7.6130    -1.1720    -1.8040 N.3   1 <1>  -0.8100 
 14 C        8.8210    -1.0890    -2.6810 C.3   1 <1>   0.1710 
 15 C        9.9030    -0.0760    -2.2790 C.2   1 <1>   0.5690 
 16 O       10.0350     0.9330    -2.9310 O.2   1 <1>  -0.5700 
 17 N       10.6950    -0.3920    -1.2120 N.am  1 <1>  -0.5470 
 18 C       11.6760     0.3150    -0.4990 C.ar  1 <1>   0.1170 
 19 C       11.9620    -0.1060     0.8030 C.ar  1 <1>   0.0830 
 20 C       12.3700     1.3960    -1.0290 C.ar  1 <1>  -0.1500 
 21 O       11.2470    -1.1690     1.2820 O.3   1 <1>  -0.3630 
 22 C       12.9340     0.5550     1.5500 C.ar  1 <1>  -0.1500 
 23 C       13.3330     2.0500    -0.2820 C.ar  1 <1>  -0.1500 
 24 C       11.3670    -1.5890     2.6210 C.3   1 <1>   0.1200 
 25 C       13.6160     1.6300     1.0060 C.ar  1 <1>  -0.1500 
 26 C       10.3660    -2.7170     2.8490 C.3   1 <1>  -0.2400 
 27 H        3.6930    -1.0400     0.7440 H     1 <1>   0.1500 
 28 H        1.6050    -4.0900     2.8560 H     1 <1>   0.1500 
 29 H        3.3090    -5.7470     2.1460 H     1 <1>   0.1500 
 30 H        5.1970    -5.0150     0.7330 H     1 <1>   0.1500 
 31 H        4.8330    -1.2640    -1.5500 H     1 <1>   0.0800 
 32 H        4.6810    -2.9450    -1.9900 H     1 <1>   0.0800 
 33 H        6.8990    -2.0270     1.4440 H     1 <1>   0.0800 
 34 H        6.1900    -0.7020     0.5610 H     1 <1>   0.0800 
 35 H        6.3560    -1.7630    -3.3780 H     1 <1>   0.0800 
 36 H        7.0540    -3.0860    -2.4830 H     1 <1>   0.0800 
 37 H        8.4220    -2.5070    -0.3810 H     1 <1>   0.0800 
 38 H        8.5340    -0.8180     0.0570 H     1 <1>   0.0800 
 39 H        8.5000    -0.8210    -3.6720 H     1 <1>   0.0800 
 40 H        9.2800    -2.0600    -2.7450 H     1 <1>   0.0800 
 41 H       10.4260    -1.2420    -0.7180 H     1 <1>   0.3700 
 42 H       12.1620     1.7300    -2.0290 H     1 <1>   0.1500 
 43 H       13.1770     0.2510     2.5500 H     1 <1>   0.1500 
 44 H       13.8620     2.8870    -0.7060 H     1 <1>   0.1500 
 45 H       11.1500    -0.7520     3.2640 H     1 <1>   0.0800 
 46 H       12.3750    -1.9330     2.7820 H     1 <1>   0.0800 
 47 H       14.3660     2.1410     1.5830 H     1 <1>   0.1500 
 48 H        9.3650    -2.3660     2.6780 H     1 <1>   0.0800 
 49 H       10.4370    -3.0650     3.8640 H     1 <1>   0.0800 
 50 H       10.5790    -3.5410     2.1910 H     1 <1>   0.0800 
@<TRIPOS>BOND
  1   1   2  1   
  2   2   3  ar  
  3   2   4  ar  
  4   3   5  ar  
  5   3  27  1   
  6   4   6  ar  
  7   4  28  1   
  8   5   7  1   
  9   5   8  ar  
 10   6   8  ar  
 11   6  29  1   
 12   7   9  1   
 13   7  10  1   
 14   8  30  1   
 15   9  11  1   
 16   9  31  1   
 17   9  32  1   
 18  10  12  1   
 19  10  33  1   
 20  10  34  1   
 21  11  13  1   
 22  11  35  1   
 23  11  36  1   
 24  12  13  1   
 25  12  37  1   
 26  12  38  1   
 27  13  14  1   
 28  14  15  1   
 29  14  39  1   
 30  14  40  1   
 31  15  16  2   
 32  15  17  am  
 33  17  18  1   
 34  17  41  1   
 35  18  19  ar  
 36  18  20  ar  
 37  19  21  1   
 38  19  22  ar  
 39  20  23  ar  
 40  20  42  1   
 41  21  24  1   
 42  22  25  ar  
 43  22  43  1   
 44  23  25  ar  
 45  23  44  1   
 46  24  26  1   
 47  24  45  1   
 48  24  46  1   
 49  25  47  1   
 50  26  48  1   
 51  26  49  1   
 52  26  50  1   
@<TRIPOS>SUBSTRUCTURE
  1 ****  12 GROUP 4 **** **** 0

# MOE 2024.06 (io_trps.svl 2023.06)
