@<TRIPOS>MOLECULE
Structure2537
23 24 1 0 0 
SMALL
USER_CHARGES


@<TRIPOS>ATOM
  1 F        0.3410     0.2520     0.4270 F     1 <1>  -0.1900 
  2 C        1.6170     0.4750     0.2570 C.ar  1 <1>   0.1900 
  3 C        2.3310    -0.3540    -0.5880 C.ar  1 <1>  -0.1500 
  4 C        2.2050     1.5300     0.9280 C.ar  1 <1>  -0.1500 
  5 C        3.6850    -0.1210    -0.7660 C.ar  1 <1>  -0.1500 
  6 C        3.5590     1.7560     0.7460 C.ar  1 <1>  -0.1500 
  7 C        4.3030     0.9320    -0.0890 C.ar  1 <1>   0.0830 
  8 O        5.6260     1.2100    -0.1940 O.3   1 <1>  -0.3400 
  9 C        6.5410     0.2190    -0.6150 C.3   1 <1>   0.2580 
 10 C        6.7830    -0.8500     0.4800 C.3   1 <1>   0.4720 
 11 C        7.9960     0.6740    -0.3580 C.3   1 <1>   0.4720 
 12 N        8.2630    -0.6420     0.3200 N.4   1 <1>  -0.8440 
 13 H        1.8260    -1.1570    -1.0960 H     1 <1>   0.1500 
 14 H        1.6130     2.1560     1.5720 H     1 <1>   0.1500 
 15 H        4.2220    -0.7600    -1.4410 H     1 <1>   0.1500 
 16 H        4.0370     2.5750     1.2550 H     1 <1>   0.1500 
 17 H        6.3490    -0.1390    -1.6100 H     1 <1>   0.0000 
 18 H        6.4910    -1.8450     0.1980 H     1 <1>   0.0000 
 19 H        6.4540    -0.5410     1.4560 H     1 <1>   0.0000 
 20 H        8.0710     1.4870     0.3410 H     1 <1>   0.0000 
 21 H        8.5890     0.7850    -1.2480 H     1 <1>   0.0000 
 22 H        8.7010    -1.3310    -0.3000 H     1 <1>   0.4500 
 23 H        8.7540    -0.5400     1.2160 H     1 <1>   0.4500 
@<TRIPOS>BOND
  1   1   2  1   
  2   2   3  ar  
  3   2   4  ar  
  4   3   5  ar  
  5   3  13  1   
  6   4   6  ar  
  7   4  14  1   
  8   5   7  ar  
  9   5  15  1   
 10   6   7  ar  
 11   6  16  1   
 12   7   8  1   
 13   8   9  1   
 14   9  10  1   
 15   9  11  1   
 16   9  17  1   
 17  10  12  1   
 18  10  18  1   
 19  10  19  1   
 20  11  12  1   
 21  11  20  1   
 22  11  21  1   
 23  12  22  1   
 24  12  23  1   
@<TRIPOS>SUBSTRUCTURE
  1 ****   7 GROUP 4 **** **** 0

# MOE 2024.06 (io_trps.svl 2023.06)
