@<TRIPOS>MOLECULE
NONAME
39 41 1 0 0 
SMALL
USER_CHARGES


@<TRIPOS>ATOM
  1 O       -0.2860    -1.3820     2.2300 O.3   1 <1>  -0.0190 
  2 N       -1.5380    -1.0680     2.1420 N.2   1 <1>  -0.4100 
  3 C       -0.0170    -1.9190     1.0730 C.2   1 <1>   0.2980 
  4 C       -1.9640    -1.4230     0.9810 C.2   1 <1>   0.4620 
  5 N       -0.9830    -1.9760     0.2540 N.2   1 <1>  -0.5650 
  6 C        1.4110    -2.3800     0.8090 C.3   1 <1>   0.5230 
  7 C       -3.3180    -1.2530     0.4810 C.ar  1 <1>   0.0540 
  8 N        2.3120    -1.2420     0.4090 N.4   1 <1>  -0.9590 
  9 C       -3.7110    -1.7450    -0.7650 C.ar  1 <1>  -0.1500 
 10 C       -4.2870    -0.5830     1.2300 C.ar  1 <1>  -0.1500 
 11 C        1.8140    -0.5730    -0.8350 C.3   1 <1>   0.3430 
 12 C        3.7290    -1.6870     0.2720 C.3   1 <1>   0.3430 
 13 C       -4.9990    -1.5770    -1.2380 C.ar  1 <1>  -0.1500 
 14 C       -5.5760    -0.4110     0.7620 C.ar  1 <1>  -0.1500 
 15 C        2.6730     0.6550    -1.1370 C.3   1 <1>  -0.1600 
 16 C        4.6230    -0.4770    -0.0070 C.3   1 <1>  -0.1600 
 17 C       -5.9420    -0.9080    -0.4770 C.ar  1 <1>  -0.1430 
 18 C        4.1600     0.2980    -1.2480 C.3   1 <1>  -0.1600 
 19 C       -7.3560    -0.7200    -0.9950 C.3   1 <1>  -0.0970 
 20 H        1.3870    -3.1140     0.0200 H     1 <1>   0.0800 
 21 H        1.7870    -2.8560     1.6990 H     1 <1>   0.0800 
 22 H        2.2770    -0.5350     1.1560 H     1 <1>   0.4500 
 23 H       -3.0010    -2.2720    -1.3780 H     1 <1>   0.1500 
 24 H       -4.0290    -0.1880     2.1980 H     1 <1>   0.1500 
 25 H        0.7860    -0.2660    -0.7120 H     1 <1>   0.0800 
 26 H        1.8630    -1.2590    -1.6660 H     1 <1>   0.0800 
 27 H        3.8160    -2.3900    -0.5420 H     1 <1>   0.0800 
 28 H        4.0580    -2.1720     1.1780 H     1 <1>   0.0800 
 29 H       -5.2670    -1.9680    -2.2040 H     1 <1>   0.1500 
 30 H       -6.2960     0.1120     1.3670 H     1 <1>   0.1500 
 31 H        2.5270     1.3920    -0.3650 H     1 <1>   0.0800 
 32 H        2.3430     1.0950    -2.0620 H     1 <1>   0.0800 
 33 H        5.6340    -0.8140    -0.1560 H     1 <1>   0.0800 
 34 H        4.6260     0.1720     0.8520 H     1 <1>   0.0800 
 35 H        4.7460     1.1970    -1.3570 H     1 <1>   0.0800 
 36 H        4.3210    -0.3040    -2.1280 H     1 <1>   0.0800 
 37 H       -7.6330    -1.5360    -1.6380 H     1 <1>   0.0800 
 38 H       -7.4210     0.1980    -1.5500 H     1 <1>   0.0800 
 39 H       -8.0540    -0.6820    -0.1770 H     1 <1>   0.0800 
@<TRIPOS>BOND
  1   1   2  1   
  2   1   3  1   
  3   2   4  2   
  4   3   5  2   
  5   3   6  1   
  6   4   5  1   
  7   4   7  1   
  8   6   8  1   
  9   6  20  1   
 10   6  21  1   
 11   7   9  ar  
 12   7  10  ar  
 13   8  11  1   
 14   8  12  1   
 15   8  22  1   
 16   9  13  ar  
 17   9  23  1   
 18  10  14  ar  
 19  10  24  1   
 20  11  15  1   
 21  11  25  1   
 22  11  26  1   
 23  12  16  1   
 24  12  27  1   
 25  12  28  1   
 26  13  17  ar  
 27  13  29  1   
 28  14  17  ar  
 29  14  30  1   
 30  15  18  1   
 31  15  31  1   
 32  15  32  1   
 33  16  18  1   
 34  16  33  1   
 35  16  34  1   
 36  17  19  1   
 37  18  35  1   
 38  18  36  1   
 39  19  37  1   
 40  19  38  1   
 41  19  39  1   
@<TRIPOS>SUBSTRUCTURE
  1 ****   5 GROUP 4 **** **** 0

# MOE 2024.06 (io_trps.svl 2023.06)
