@<TRIPOS>MOLECULE
NONAME
40 41 1 0 0 
SMALL
USER_CHARGES


@<TRIPOS>ATOM
  1 F       -2.2060     1.6160     2.0970 F     1 <1>  -0.1900 
  2 C       -1.3320     2.1950     1.3160 C.ar  1 <1>   0.1900 
  3 C       -1.5910     2.2570    -0.0470 C.ar  1 <1>  -0.1440 
  4 C       -0.1950     2.7310     1.8890 C.ar  1 <1>  -0.1500 
  5 C       -0.6640     2.8860    -0.8720 C.ar  1 <1>  -0.1500 
  6 C       -2.8570     1.6410    -0.6170 C.3   1 <1>   0.4870 
  7 C        0.7000     3.3490     1.0380 C.ar  1 <1>   0.1900 
  8 C        0.4880     3.4360    -0.3270 C.ar  1 <1>  -0.1500 
  9 N       -4.0460     2.3670    -0.0890 N.4   1 <1>  -0.9590 
 10 F        1.7850     3.8700     1.5400 F     1 <1>  -0.1900 
 11 C       -5.3110     1.6520    -0.4550 C.3   1 <1>   0.3430 
 12 C       -4.0600     3.7990    -0.5120 C.3   1 <1>   0.3430 
 13 C       -6.5400     2.3330     0.1580 C.3   1 <1>  -0.0190 
 14 C       -5.2480     4.5150     0.1340 C.3   1 <1>  -0.1600 
 15 C       -7.7840     1.6070    -0.3210 C.2   1 <1>   0.6590 
 16 C       -6.5810     3.8310    -0.2040 C.3   1 <1>  -0.1600 
 17 O       -7.7320     0.8110    -1.2220 O.2   1 <1>  -0.5700 
 18 O       -8.9080     1.9020     0.3110 O.3   1 <1>  -0.4300 
 19 C      -10.1330     1.3010    -0.0410 C.3   1 <1>   0.1200 
 20 C      -11.2160     1.8660     0.8730 C.3   1 <1>  -0.2400 
 21 H       -0.0090     2.6730     2.9460 H     1 <1>   0.1500 
 22 H       -0.8190     2.9520    -1.9370 H     1 <1>   0.1500 
 23 H       -2.9020     0.6040    -0.3260 H     1 <1>   0.0800 
 24 H       -2.8390     1.6910    -1.6930 H     1 <1>   0.0800 
 25 H        1.2190     3.9270    -0.9470 H     1 <1>   0.1500 
 26 H       -3.9490     2.3500     0.9370 H     1 <1>   0.4500 
 27 H       -5.2710     0.6280    -0.1160 H     1 <1>   0.0800 
 28 H       -5.4220     1.6390    -1.5280 H     1 <1>   0.0800 
 29 H       -4.1430     3.8640    -1.5860 H     1 <1>   0.0800 
 30 H       -3.1440     4.2860    -0.2130 H     1 <1>   0.0800 
 31 H       -6.4970     2.2230     1.2270 H     1 <1>   0.0800 
 32 H       -5.2740     5.5330    -0.2150 H     1 <1>   0.0800 
 33 H       -5.1090     4.5470     1.2010 H     1 <1>   0.0800 
 34 H       -7.3830     4.3130     0.3320 H     1 <1>   0.0800 
 35 H       -6.7820     3.9410    -1.2570 H     1 <1>   0.0800 
 36 H      -10.0410     0.2350     0.0830 H     1 <1>   0.0800 
 37 H      -10.3430     1.5270    -1.0730 H     1 <1>   0.0800 
 38 H      -10.9910     1.6410     1.9010 H     1 <1>   0.0800 
 39 H      -12.1640     1.4230     0.6270 H     1 <1>   0.0800 
 40 H      -11.2930     2.9310     0.7450 H     1 <1>   0.0800 
@<TRIPOS>BOND
  1   1   2  1   
  2   2   3  ar  
  3   2   4  ar  
  4   3   5  ar  
  5   3   6  1   
  6   4   7  ar  
  7   4  21  1   
  8   5   8  ar  
  9   5  22  1   
 10   6   9  1   
 11   6  23  1   
 12   6  24  1   
 13   7   8  ar  
 14   7  10  1   
 15   8  25  1   
 16   9  11  1   
 17   9  12  1   
 18   9  26  1   
 19  11  13  1   
 20  11  27  1   
 21  11  28  1   
 22  12  14  1   
 23  12  29  1   
 24  12  30  1   
 25  13  15  1   
 26  13  16  1   
 27  13  31  1   
 28  14  16  1   
 29  14  32  1   
 30  14  33  1   
 31  15  17  2   
 32  15  18  1   
 33  16  34  1   
 34  16  35  1   
 35  18  19  1   
 36  19  20  1   
 37  19  36  1   
 38  19  37  1   
 39  20  38  1   
 40  20  39  1   
 41  20  40  1   
@<TRIPOS>SUBSTRUCTURE
  1 ****   9 GROUP 4 **** **** 0

# MOE 2024.06 (io_trps.svl 2023.06)
