@<TRIPOS>MOLECULE
NONAME
39 40 1 0 0 
SMALL
USER_CHARGES


@<TRIPOS>ATOM
  1 O       -0.5860     0.0210     1.2670 O.3   1 <1>  -0.5320 
  2 C       -1.8950     0.0040     0.9800 C.ar  1 <1>   0.0830 
  3 C       -2.7370     0.9020     1.6100 C.ar  1 <1>  -0.1500 
  4 C       -2.4020    -0.9030     0.0640 C.ar  1 <1>  -0.1500 
  5 C       -4.0890     0.8950     1.3210 C.ar  1 <1>  -0.1500 
  6 C       -3.7550    -0.9020    -0.2200 C.ar  1 <1>  -0.1500 
  7 C       -4.6230    -0.0020     0.3960 C.ar  1 <1>   0.0280 
  8 C       -6.0320    -0.0170     0.0820 C.2   1 <1>  -0.1670 
  9 C       -6.8280    -1.0890     0.2300 C.2   1 <1>  -0.2880 
 10 C       -6.6130     1.2730    -0.4780 C.3   1 <1>  -0.0220 
 11 C       -8.3000    -1.1750    -0.1150 C.3   1 <1>   0.6410 
 12 C       -8.1350     1.3590    -0.2530 C.3   1 <1>   0.5030 
 13 N       -8.7970     0.0990    -0.6430 N.4   1 <1>  -0.9060 
 14 C       -8.4850    -2.1950    -1.2300 C.3   1 <1>  -0.2400 
 15 C       -9.1320    -1.5870     1.0960 C.3   1 <1>  -0.2400 
 16 C       -8.7370     2.4430    -1.1450 C.3   1 <1>  -0.2400 
 17 C       -8.4580     1.6910     1.2070 C.3   1 <1>  -0.2400 
 18 H       -0.0720    -0.6460     0.7800 H     1 <1>   0.4500 
 19 H       -2.3280     1.5950     2.3220 H     1 <1>   0.1500 
 20 H       -1.7500    -1.6040    -0.4250 H     1 <1>   0.1500 
 21 H       -4.7340     1.5900     1.8270 H     1 <1>   0.1500 
 22 H       -4.1460    -1.6060    -0.9320 H     1 <1>   0.1500 
 23 H       -6.4450    -2.0160     0.6230 H     1 <1>   0.1500 
 24 H       -6.3840     1.3210    -1.5270 H     1 <1>   0.0800 
 25 H       -6.1460     2.1260    -0.0180 H     1 <1>   0.0800 
 26 H       -9.7910     0.1650    -0.4300 H     1 <1>   0.4500 
 27 H       -8.7010     0.0260    -1.6540 H     1 <1>   0.4500 
 28 H       -7.8900    -1.9350    -2.0880 H     1 <1>   0.0800 
 29 H       -9.5180    -2.2790    -1.5180 H     1 <1>   0.0800 
 30 H       -8.1580    -3.1640    -0.8940 H     1 <1>   0.0800 
 31 H       -8.9840    -0.9240     1.9260 H     1 <1>   0.0800 
 32 H       -8.8300    -2.5670     1.4220 H     1 <1>   0.0800 
 33 H      -10.1780    -1.6300     0.8550 H     1 <1>   0.0800 
 34 H       -8.5540     2.2390    -2.1860 H     1 <1>   0.0800 
 35 H       -8.2890     3.3950    -0.9180 H     1 <1>   0.0800 
 36 H       -9.7970     2.5360    -0.9850 H     1 <1>   0.0800 
 37 H       -7.9350     1.0390     1.8820 H     1 <1>   0.0800 
 38 H       -9.5140     1.6390     1.3990 H     1 <1>   0.0800 
 39 H       -8.1320     2.6920     1.4330 H     1 <1>   0.0800 
@<TRIPOS>BOND
  1   1   2  1   
  2   1  18  1   
  3   2   3  ar  
  4   2   4  ar  
  5   3   5  ar  
  6   3  19  1   
  7   4   6  ar  
  8   4  20  1   
  9   5   7  ar  
 10   5  21  1   
 11   6   7  ar  
 12   6  22  1   
 13   7   8  1   
 14   8   9  2   
 15   8  10  1   
 16   9  11  1   
 17   9  23  1   
 18  10  12  1   
 19  10  24  1   
 20  10  25  1   
 21  11  13  1   
 22  11  14  1   
 23  11  15  1   
 24  12  13  1   
 25  12  16  1   
 26  12  17  1   
 27  13  26  1   
 28  13  27  1   
 29  14  28  1   
 30  14  29  1   
 31  14  30  1   
 32  15  31  1   
 33  15  32  1   
 34  15  33  1   
 35  16  34  1   
 36  16  35  1   
 37  16  36  1   
 38  17  37  1   
 39  17  38  1   
 40  17  39  1   
@<TRIPOS>SUBSTRUCTURE
  1 ****   8 GROUP 4 **** **** 0

# MOE 2024.06 (io_trps.svl 2023.06)
