@<TRIPOS>MOLECULE
NONAME
52 55 1 0 0 
SMALL
USER_CHARGES


@<TRIPOS>ATOM
  1 O        2.5790     1.4180     2.7520 O.2   1 <1>  -0.5700 
  2 C        2.3750     0.9660     1.6410 C.2   1 <1>   0.5440 
  3 N        1.8680    -0.3090     1.5160 N.am  1 <1>  -0.6600 
  4 C        2.6650     1.7810     0.4820 C.ar  1 <1>   0.0860 
  5 C        1.9430    -1.0850     0.2400 C.3   1 <1>   0.1400 
  6 C        1.2080    -0.9680     2.6820 C.3   1 <1>   0.1400 
  7 C        1.6610     2.1550    -0.4290 C.ar  1 <1>   0.0530 
  8 C        3.9740     2.2000     0.2510 C.ar  1 <1>  -0.1500 
  9 C        1.9250    -2.5900     0.5240 C.3   1 <1>  -0.1600 
 10 C        0.1080    -1.9180     2.1990 C.3   1 <1>  -0.1600 
 11 C        0.2760     1.7970    -0.2360 C.2   1 <1>   0.4250 
 12 C        2.0240     2.8910    -1.5570 C.ar  1 <1>  -0.1500 
 13 C        4.3100     2.9400    -0.8650 C.ar  1 <1>  -0.1500 
 14 C        0.6520    -3.0210     1.2740 C.3   1 <1>  -0.1600 
 15 O       -0.3130     1.9130     0.9200 O.3   1 <1>  -0.0190 
 16 N       -0.5450     1.3420    -1.1130 N.2   1 <1>  -0.5650 
 17 C        3.3300     3.2810    -1.7770 C.ar  1 <1>  -0.1500 
 18 N       -1.5290     1.5250     0.8420 N.2   1 <1>  -0.4100 
 19 C       -1.6720     1.1750    -0.3920 C.2   1 <1>   0.4620 
 20 C       -2.8970     0.6490    -0.9720 C.ar  1 <1>   0.0540 
 21 C       -4.0440     0.4690    -0.1970 C.ar  1 <1>  -0.1500 
 22 C       -2.9790     0.3010    -2.3210 C.ar  1 <1>  -0.1500 
 23 C       -5.2240    -0.0350    -0.7340 C.ar  1 <1>   0.0820 
 24 C       -4.1420    -0.2010    -2.8740 C.ar  1 <1>  -0.1500 
 25 O       -6.3510    -0.2150     0.0140 O.3   1 <1>  -0.3620 
 26 C       -5.2760    -0.3750    -2.0880 C.ar  1 <1>   0.0820 
 27 C       -6.4070     0.1400     1.3780 C.3   1 <1>   0.0400 
 28 O       -6.4460    -0.8670    -2.5860 O.3   1 <1>  -0.3630 
 29 C       -6.5890    -1.2250    -3.9420 C.3   1 <1>   0.0400 
 30 H        2.8450    -0.8290    -0.2890 H     1 <1>   0.0800 
 31 H        1.0990    -0.8340    -0.3790 H     1 <1>   0.0800 
 32 H        0.7780    -0.2180     3.3260 H     1 <1>   0.0800 
 33 H        1.9480    -1.5110     3.2440 H     1 <1>   0.0800 
 34 H        4.7350     1.9330     0.9650 H     1 <1>   0.1500 
 35 H        2.7920    -2.8310     1.1140 H     1 <1>   0.0800 
 36 H        2.0010    -3.1340    -0.4010 H     1 <1>   0.0800 
 37 H       -0.6290    -1.3340     1.6730 H     1 <1>   0.0800 
 38 H       -0.3820    -2.3640     3.0460 H     1 <1>   0.0800 
 39 H        1.2650     3.1640    -2.2710 H     1 <1>   0.1500 
 40 H        5.3300     3.2500    -1.0240 H     1 <1>   0.1500 
 41 H        0.8760    -3.9010     1.8520 H     1 <1>   0.0800 
 42 H       -0.1150    -3.2840     0.5650 H     1 <1>   0.0800 
 43 H        3.5860     3.8530    -2.6540 H     1 <1>   0.1500 
 44 H       -3.9920     0.7320     0.8410 H     1 <1>   0.1500 
 45 H       -2.1160     0.4260    -2.9520 H     1 <1>   0.1500 
 46 H       -4.1450    -0.4510    -3.9180 H     1 <1>   0.1500 
 47 H       -7.3960    -0.0790     1.7370 H     1 <1>   0.0800 
 48 H       -6.2080     1.1930     1.4730 H     1 <1>   0.0800 
 49 H       -5.6840    -0.4430     1.9200 H     1 <1>   0.0800 
 50 H       -7.5940    -1.5780    -4.0870 H     1 <1>   0.0800 
 51 H       -5.8900    -2.0080    -4.1720 H     1 <1>   0.0800 
 52 H       -6.4160    -0.3560    -4.5520 H     1 <1>   0.0800 
@<TRIPOS>BOND
  1   1   2  2   
  2   2   3  am  
  3   2   4  1   
  4   3   5  1   
  5   3   6  1   
  6   4   7  ar  
  7   4   8  ar  
  8   5   9  1   
  9   5  30  1   
 10   5  31  1   
 11   6  10  1   
 12   6  32  1   
 13   6  33  1   
 14   7  11  1   
 15   7  12  ar  
 16   8  13  ar  
 17   8  34  1   
 18   9  14  1   
 19   9  35  1   
 20   9  36  1   
 21  10  14  1   
 22  10  37  1   
 23  10  38  1   
 24  11  15  1   
 25  11  16  2   
 26  12  17  ar  
 27  12  39  1   
 28  13  17  ar  
 29  13  40  1   
 30  14  41  1   
 31  14  42  1   
 32  15  18  1   
 33  16  19  1   
 34  17  43  1   
 35  18  19  2   
 36  19  20  1   
 37  20  21  ar  
 38  20  22  ar  
 39  21  23  ar  
 40  21  44  1   
 41  22  24  ar  
 42  22  45  1   
 43  23  25  1   
 44  23  26  ar  
 45  24  26  ar  
 46  24  46  1   
 47  25  27  1   
 48  26  28  1   
 49  27  47  1   
 50  27  48  1   
 51  27  49  1   
 52  28  29  1   
 53  29  50  1   
 54  29  51  1   
 55  29  52  1   
@<TRIPOS>SUBSTRUCTURE
  1 ****  19 GROUP 4 **** **** 0

# MOE 2024.06 (io_trps.svl 2023.06)
