@<TRIPOS>MOLECULE
NONAME
47 49 1 0 0 
SMALL
USER_CHARGES


@<TRIPOS>ATOM
  1 O       -0.1310     0.7250     1.5490 O.2   1 <1>  -0.5700 
  2 C       -0.5930     1.6510     0.9290 C.2   1 <1>   0.5690 
  3 N        0.0940     2.6570     0.3140 N.am  1 <1>  -0.4770 
  4 C       -2.0750     1.8020     0.7350 C.3   1 <1>  -0.0990 
  5 C        1.4890     2.8490     0.2320 C.ar  1 <1>   0.1170 
  6 C       -0.8450     3.5920    -0.3410 C.3   1 <1>   0.1400 
  7 C       -2.1700     2.8160    -0.4150 C.3   1 <1>  -0.0190 
  8 C        2.3580     1.7680     0.1190 C.ar  1 <1>  -0.1500 
  9 C        2.0350     4.1300     0.2490 C.ar  1 <1>  -0.1500 
 10 C       -3.4200     3.6920    -0.3520 C.2   1 <1>   0.5690 
 11 C        3.7240     1.9600     0.0190 C.ar  1 <1>  -0.1500 
 12 C        3.4010     4.3300     0.1480 C.ar  1 <1>  -0.1500 
 13 O       -3.2820     4.8410    -0.0040 O.2   1 <1>  -0.5700 
 14 N       -4.6570     3.1860    -0.6740 N.am  1 <1>  -0.6600 
 15 C        4.2560     3.2380     0.0300 C.ar  1 <1>   0.0830 
 16 C       -5.8880     4.0200    -0.5300 C.3   1 <1>   0.1400 
 17 C       -4.9490     1.7980    -1.1330 C.3   1 <1>   0.1400 
 18 O        5.6080     3.3410    -0.0760 O.3   1 <1>  -0.3630 
 19 C       -6.8450     3.3720     0.4850 C.3   1 <1>  -0.0800 
 20 C       -5.8730     1.1130    -0.1210 C.3   1 <1>  -0.1600 
 21 C        6.2460     4.5970    -0.0320 C.3   1 <1>   0.0400 
 22 C       -7.1630     1.9190     0.0950 C.3   1 <1>  -0.1600 
 23 C       -8.1390     4.1870     0.6070 C.3   1 <1>  -0.2400 
 24 H       -2.5030     2.1960     1.6390 H     1 <1>   0.0800 
 25 H       -2.5270     0.8600     0.4910 H     1 <1>   0.0800 
 26 H       -0.4960     3.8670    -1.3210 H     1 <1>   0.0800 
 27 H       -0.9330     4.4710     0.2740 H     1 <1>   0.0800 
 28 H       -2.1620     2.2930    -1.3530 H     1 <1>   0.0800 
 29 H        1.9640     0.7680     0.1100 H     1 <1>   0.1500 
 30 H        1.3900     4.9830     0.3500 H     1 <1>   0.1500 
 31 H        4.3860     1.1180    -0.0680 H     1 <1>   0.1500 
 32 H        3.7770     5.3340     0.1650 H     1 <1>   0.1500 
 33 H       -6.3690     4.1010    -1.4890 H     1 <1>   0.0800 
 34 H       -5.6400     5.0150    -0.2020 H     1 <1>   0.0800 
 35 H       -4.0530     1.2180    -1.2500 H     1 <1>   0.0800 
 36 H       -5.4360     1.8450    -2.0920 H     1 <1>   0.0800 
 37 H       -6.3550     3.3760     1.4450 H     1 <1>   0.0800 
 38 H       -5.3510     1.0050     0.8140 H     1 <1>   0.0800 
 39 H       -6.1200     0.1280    -0.4740 H     1 <1>   0.0800 
 40 H        7.3050     4.4360    -0.1180 H     1 <1>   0.0800 
 41 H        6.0230     5.0690     0.9090 H     1 <1>   0.0800 
 42 H        5.8990     5.1940    -0.8570 H     1 <1>   0.0800 
 43 H       -7.7400     1.9090    -0.8140 H     1 <1>   0.0800 
 44 H       -7.7510     1.4540     0.8670 H     1 <1>   0.0800 
 45 H       -8.6600     4.2200    -0.3340 H     1 <1>   0.0800 
 46 H       -7.9170     5.1940     0.9130 H     1 <1>   0.0800 
 47 H       -8.7880     3.7470     1.3440 H     1 <1>   0.0800 
@<TRIPOS>BOND
  1   1   2  2   
  2   2   3  am  
  3   2   4  1   
  4   3   5  1   
  5   3   6  1   
  6   4   7  1   
  7   4  24  1   
  8   4  25  1   
  9   5   8  ar  
 10   5   9  ar  
 11   6   7  1   
 12   6  26  1   
 13   6  27  1   
 14   7  10  1   
 15   7  28  1   
 16   8  11  ar  
 17   8  29  1   
 18   9  12  ar  
 19   9  30  1   
 20  10  13  2   
 21  10  14  am  
 22  11  15  ar  
 23  11  31  1   
 24  12  15  ar  
 25  12  32  1   
 26  14  16  1   
 27  14  17  1   
 28  15  18  1   
 29  16  19  1   
 30  16  33  1   
 31  16  34  1   
 32  17  20  1   
 33  17  35  1   
 34  17  36  1   
 35  18  21  1   
 36  19  22  1   
 37  19  23  1   
 38  19  37  1   
 39  20  22  1   
 40  20  38  1   
 41  20  39  1   
 42  21  40  1   
 43  21  41  1   
 44  21  42  1   
 45  22  43  1   
 46  22  44  1   
 47  23  45  1   
 48  23  46  1   
 49  23  47  1   
@<TRIPOS>SUBSTRUCTURE
  1 ****   6 GROUP 4 **** **** 0

# MOE 2024.06 (io_trps.svl 2023.06)
