@<TRIPOS>MOLECULE
NONAME
36 37 1 0 0 
SMALL
USER_CHARGES


@<TRIPOS>ATOM
  1 F       -0.7940    -1.8890     1.0500 F     1 <1>  -0.3400 
  2 C        0.4290    -1.3760     0.9900 C.3   1 <1>   1.1640 
  3 F        0.6510    -0.7940     2.1610 F     1 <1>  -0.3400 
  4 F        0.3820    -0.4010     0.0920 F     1 <1>  -0.3400 
  5 C        1.5020    -2.4070     0.6560 C.ar  1 <1>  -0.1440 
  6 C        2.8060    -1.9730     0.4860 C.ar  1 <1>   0.1600 
  7 C        1.2380    -3.7610     0.5180 C.ar  1 <1>  -0.1500 
  8 N        3.8400    -2.7490     0.1960 N.ar  1 <1>  -0.6200 
  9 C        2.3010    -4.5790     0.2140 C.ar  1 <1>  -0.1500 
 10 C        3.5740    -4.0410     0.0580 C.ar  1 <1>   0.4100 
 11 N        4.6260    -4.8740    -0.2550 N.pl3 1 <1>  -0.8690 
 12 C        5.9060    -4.3430    -0.7860 C.3   1 <1>   0.2090 
 13 C        6.7240    -3.7130     0.3580 C.3   1 <1>   0.3430 
 14 N        7.9590    -3.0010    -0.1110 N.4   1 <1>  -0.9590 
 15 C        9.0060    -3.8960    -0.7160 C.3   1 <1>   0.3430 
 16 C        8.5560    -2.1540     0.9730 C.3   1 <1>   0.3430 
 17 C       10.3100    -3.1240    -1.0260 C.3   1 <1>   0.1200 
 18 C        9.7890    -1.3730     0.4620 C.3   1 <1>   0.1200 
 19 O       10.1320    -1.7460    -0.8480 O.3   1 <1>  -0.5600 
 20 H        3.0170    -0.9200     0.5930 H     1 <1>   0.1500 
 21 H        0.2460    -4.1670     0.6410 H     1 <1>   0.1500 
 22 H        2.1550    -5.6360     0.0980 H     1 <1>   0.1500 
 23 H        4.3420    -5.7750    -0.6520 H     1 <1>   0.4000 
 24 H        5.6900    -3.6000    -1.5350 H     1 <1>   0.0800 
 25 H        6.4580    -5.1480    -1.2370 H     1 <1>   0.0800 
 26 H        6.9900    -4.4840     1.0610 H     1 <1>   0.0800 
 27 H        6.0890    -3.0070     0.8670 H     1 <1>   0.0800 
 28 H        7.7010    -2.3280    -0.8500 H     1 <1>   0.4500 
 29 H        8.6350    -4.3290    -1.6300 H     1 <1>   0.0800 
 30 H        9.2340    -4.7060    -0.0440 H     1 <1>   0.0800 
 31 H        8.8550    -2.7760     1.8000 H     1 <1>   0.0800 
 32 H        7.8240    -1.4540     1.3430 H     1 <1>   0.0800 
 33 H       10.6080    -3.2900    -2.0470 H     1 <1>   0.0800 
 34 H       11.1110    -3.4530    -0.3860 H     1 <1>   0.0800 
 35 H       10.6380    -1.5420     1.1020 H     1 <1>   0.0800 
 36 H        9.5800    -0.3170     0.4540 H     1 <1>   0.0800 
@<TRIPOS>BOND
  1   1   2  1   
  2   2   3  1   
  3   2   4  1   
  4   2   5  1   
  5   5   6  ar  
  6   5   7  ar  
  7   6   8  ar  
  8   6  20  1   
  9   7   9  ar  
 10   7  21  1   
 11   8  10  ar  
 12   9  10  ar  
 13   9  22  1   
 14  10  11  1   
 15  11  12  1   
 16  11  23  1   
 17  12  13  1   
 18  12  24  1   
 19  12  25  1   
 20  13  14  1   
 21  13  26  1   
 22  13  27  1   
 23  14  15  1   
 24  14  16  1   
 25  14  28  1   
 26  15  17  1   
 27  15  29  1   
 28  15  30  1   
 29  16  18  1   
 30  16  31  1   
 31  16  32  1   
 32  17  19  1   
 33  17  33  1   
 34  17  34  1   
 35  18  19  1   
 36  18  35  1   
 37  18  36  1   
@<TRIPOS>SUBSTRUCTURE
  1 ****   8 GROUP 4 **** **** 0

# MOE 2024.06 (io_trps.svl 2023.06)
