@<TRIPOS>MOLECULE
NONAME
50 51 1 0 0 
SMALL
USER_CHARGES


@<TRIPOS>ATOM
  1 S        0.4100    -0.1060    -1.3190 S.o2  1 <1>   1.3330 
  2 O        0.6390    -0.6420    -0.0020 O.2   1 <1>  -0.6500 
  3 O        1.4210    -0.2570    -2.3400 O.2   1 <1>  -0.6500 
  4 N        0.1060     1.5900    -1.1700 N.am  1 <1>  -0.6930 
  5 C       -1.1360    -0.7120    -1.9590 C.3   1 <1>  -0.1350 
  6 C       -0.7710     2.0330    -0.1810 C.ar  1 <1>   0.1990 
  7 C        1.2400     2.4800    -1.5860 C.3   1 <1>   0.3370 
  8 C       -0.3980     2.0660     1.1570 C.ar  1 <1>  -0.1500 
  9 C       -2.0490     2.4540    -0.5290 C.ar  1 <1>  -0.1500 
 10 C        2.4760     2.3620    -0.6590 C.2   1 <1>   0.5690 
 11 C        0.7480     3.9260    -1.7670 C.3   1 <1>  -0.2400 
 12 C       -1.2830     2.5070     2.1240 C.ar  1 <1>  -0.1500 
 13 C       -2.9390     2.8960     0.4340 C.ar  1 <1>  -0.1500 
 14 O        2.6710     3.2030     0.1900 O.2   1 <1>  -0.5700 
 15 N        3.3120     1.2960    -0.8300 N.am  1 <1>  -0.7300 
 16 C       -2.5570     2.9240     1.7730 C.ar  1 <1>   0.0830 
 17 C        4.4170     0.8490     0.0400 C.3   1 <1>   0.2200 
 18 O       -3.3640     3.3420     2.7850 O.3   1 <1>  -0.3630 
 19 C        3.8950     0.5040     1.4400 C.3   1 <1>  -0.1600 
 20 C        5.5450     1.8870     0.0920 C.3   1 <1>  -0.1600 
 21 C       -4.6620     3.8260     2.5230 C.3   1 <1>   0.0400 
 22 C        5.0370     0.0270     2.3490 C.3   1 <1>  -0.1600 
 23 C        6.6880     1.4070     1.0000 C.3   1 <1>  -0.1600 
 24 C        6.1700     1.0630     2.4040 C.3   1 <1>  -0.1600 
 25 H       -1.0730    -1.7690    -2.1290 H     1 <1>   0.0800 
 26 H       -1.3700    -0.2260    -2.8850 H     1 <1>   0.0800 
 27 H       -1.9250    -0.5240    -1.2580 H     1 <1>   0.0800 
 28 H        1.5640     2.1600    -2.5600 H     1 <1>   0.0800 
 29 H        0.5890     1.7440     1.4410 H     1 <1>   0.1500 
 30 H       -2.3390     2.4380    -1.5630 H     1 <1>   0.1500 
 31 H        0.4570     4.3510    -0.8220 H     1 <1>   0.0800 
 32 H       -0.0810     3.9580    -2.4490 H     1 <1>   0.0800 
 33 H        1.5450     4.5270    -2.1650 H     1 <1>   0.0800 
 34 H       -0.9880     2.5300     3.1570 H     1 <1>   0.1500 
 35 H       -3.9170     3.2140     0.1270 H     1 <1>   0.1500 
 36 H        3.0150     0.5770    -1.5050 H     1 <1>   0.3700 
 37 H        4.8220    -0.0530    -0.3900 H     1 <1>   0.0800 
 38 H        3.1470    -0.2660     1.3660 H     1 <1>   0.0800 
 39 H        3.4430     1.3740     1.8810 H     1 <1>   0.0800 
 40 H        5.1660     2.8160     0.4780 H     1 <1>   0.0800 
 41 H        5.9220     2.0590    -0.9010 H     1 <1>   0.0800 
 42 H       -5.1050     4.1140     3.4600 H     1 <1>   0.0800 
 43 H       -5.2430     3.0430     2.0700 H     1 <1>   0.0800 
 44 H       -4.5910     4.6820     1.8750 H     1 <1>   0.0800 
 45 H        5.4230    -0.9070     1.9780 H     1 <1>   0.0800 
 46 H        4.6560    -0.1440     3.3410 H     1 <1>   0.0800 
 47 H        7.4360     2.1780     1.0720 H     1 <1>   0.0800 
 48 H        7.1490     0.5370     0.5660 H     1 <1>   0.0800 
 49 H        6.9780     0.6820     3.0040 H     1 <1>   0.0800 
 50 H        5.8050     1.9600     2.8760 H     1 <1>   0.0800 
@<TRIPOS>BOND
  1   1   2  2   
  2   1   3  2   
  3   1   4  am  
  4   1   5  1   
  5   4   6  1   
  6   4   7  1   
  7   5  25  1   
  8   5  26  1   
  9   5  27  1   
 10   6   8  ar  
 11   6   9  ar  
 12   7  10  1   
 13   7  11  1   
 14   7  28  1   
 15   8  12  ar  
 16   8  29  1   
 17   9  13  ar  
 18   9  30  1   
 19  10  14  2   
 20  10  15  am  
 21  11  31  1   
 22  11  32  1   
 23  11  33  1   
 24  12  16  ar  
 25  12  34  1   
 26  13  16  ar  
 27  13  35  1   
 28  15  17  1   
 29  15  36  1   
 30  16  18  1   
 31  17  19  1   
 32  17  20  1   
 33  17  37  1   
 34  18  21  1   
 35  19  22  1   
 36  19  38  1   
 37  19  39  1   
 38  20  23  1   
 39  20  40  1   
 40  20  41  1   
 41  21  42  1   
 42  21  43  1   
 43  21  44  1   
 44  22  24  1   
 45  22  45  1   
 46  22  46  1   
 47  23  24  1   
 48  23  47  1   
 49  23  48  1   
 50  24  49  1   
 51  24  50  1   
@<TRIPOS>SUBSTRUCTURE
  1 ****   4 GROUP 4 **** **** 0

# MOE 2024.06 (io_trps.svl 2023.06)
