@<TRIPOS>MOLECULE
NONAME
28 29 1 0 0 
SMALL
USER_CHARGES


@<TRIPOS>ATOM
  1 F        0.4380     0.3970    -0.2360 F     1 <1>  -0.1900 
  2 C        1.7330     0.2310    -0.1460 C.ar  1 <1>   0.1900 
  3 C        2.2810    -0.9750    -0.5360 C.ar  1 <1>  -0.1500 
  4 C        2.5060     1.2700     0.3340 C.ar  1 <1>  -0.1500 
  5 C        3.6510    -1.1410    -0.4390 C.ar  1 <1>  -0.1500 
  6 C        3.8750     1.0870     0.4260 C.ar  1 <1>  -0.1500 
  7 C        4.4650    -0.1170     0.0450 C.ar  1 <1>   0.1170 
  8 N        5.8580    -0.2430     0.1440 N.am  1 <1>  -0.5470 
  9 C        6.6580    -1.3400     0.2850 C.2   1 <1>   0.6900 
 10 O        6.1890    -2.4510     0.4480 O.2   1 <1>  -0.5700 
 11 N        8.0160    -1.1660     0.2600 N.am  1 <1>  -0.6600 
 12 C        8.7290     0.0690    -0.1350 C.3   1 <1>   0.1400 
 13 C        8.9530    -2.3060     0.3720 C.3   1 <1>   0.1400 
 14 C       10.2090    -0.2900    -0.0540 C.3   1 <1>  -0.1600 
 15 C       10.2530    -1.8030    -0.2440 C.3   1 <1>  -0.1600 
 16 H        1.6500    -1.7630    -0.9060 H     1 <1>   0.1500 
 17 H        2.0420     2.1940     0.6280 H     1 <1>   0.1500 
 18 H        4.0900    -2.0750    -0.7440 H     1 <1>   0.1500 
 19 H        4.4890     1.8850     0.8020 H     1 <1>   0.1500 
 20 H        6.3750     0.6240     0.2140 H     1 <1>   0.3700 
 21 H        8.4910     0.8830     0.5290 H     1 <1>   0.0800 
 22 H        8.4600     0.3240    -1.1460 H     1 <1>   0.0800 
 23 H        8.5760    -3.1710    -0.1480 H     1 <1>   0.0800 
 24 H        9.0900    -2.5430     1.4130 H     1 <1>   0.0800 
 25 H       10.5770    -0.0360     0.9250 H     1 <1>   0.0800 
 26 H       10.7890     0.2330    -0.7930 H     1 <1>   0.0800 
 27 H       10.2550    -2.0410    -1.2940 H     1 <1>   0.0800 
 28 H       11.1130    -2.2530     0.2180 H     1 <1>   0.0800 
@<TRIPOS>BOND
  1   1   2  1   
  2   2   3  ar  
  3   2   4  ar  
  4   3   5  ar  
  5   3  16  1   
  6   4   6  ar  
  7   4  17  1   
  8   5   7  ar  
  9   5  18  1   
 10   6   7  ar  
 11   6  19  1   
 12   7   8  1   
 13   8   9  am  
 14   8  20  1   
 15   9  10  2   
 16   9  11  am  
 17  11  12  1   
 18  11  13  1   
 19  12  14  1   
 20  12  21  1   
 21  12  22  1   
 22  13  15  1   
 23  13  23  1   
 24  13  24  1   
 25  14  15  1   
 26  14  25  1   
 27  14  26  1   
 28  15  27  1   
 29  15  28  1   
@<TRIPOS>SUBSTRUCTURE
  1 ****   8 GROUP 4 **** **** 0

# MOE 2024.06 (io_trps.svl 2023.06)
