@<TRIPOS>MOLECULE
NONAME
44 45 1 0 0 
SMALL
USER_CHARGES


@<TRIPOS>ATOM
  1 S       -0.5510     0.8500     0.3280 S.3   1 <1>  -0.2860 
  2 C        1.2040     0.8230     0.7120 C.2   1 <1>   0.2420 
  3 C       -1.3230     0.3720     1.9530 C.3   1 <1>   0.1310 
  4 N        1.6720     0.4760     1.8560 N.2   1 <1>  -0.3380 
  5 N        2.1420     1.1660    -0.1700 N.pl3 1 <1>   0.0480 
  6 C       -2.8350     0.2530     1.8440 C.2   1 <1>   0.5690 
  7 N        2.9990     0.5890     1.7520 N.2   1 <1>  -0.3380 
  8 C        3.2610     1.0020     0.5550 C.2   1 <1>   0.0060 
  9 C        1.9610     1.6120    -1.5660 C.3   1 <1>   0.0160 
 10 O       -3.4820     0.3640     2.8560 O.2   1 <1>  -0.5700 
 11 N       -3.3850     0.0210     0.6110 N.am  1 <1>  -0.5470 
 12 C        4.6720     1.2630     0.0470 C.3   1 <1>   0.0200 
 13 C       -4.7120    -0.1690     0.1940 C.ar  1 <1>   0.1170 
 14 C        4.9750     2.7620    -0.1500 C.3   1 <1>  -0.0800 
 15 C       -5.0070    -0.0280    -1.1580 C.ar  1 <1>  -0.1500 
 16 C       -5.7450    -0.5060     1.0630 C.ar  1 <1>  -0.1500 
 17 C        6.3830     2.9490    -0.7280 C.3   1 <1>  -0.2400 
 18 C        4.8500     3.5420     1.1670 C.3   1 <1>  -0.2400 
 19 C       -6.2930    -0.2130    -1.6380 C.ar  1 <1>  -0.1430 
 20 C       -7.0320    -0.6900     0.5930 C.ar  1 <1>  -0.1500 
 21 C       -7.3070    -0.5440    -0.7550 C.ar  1 <1>  -0.1500 
 22 C       -6.6030    -0.0530    -3.1160 C.3   1 <1>  -0.0970 
 23 H       -1.0570     1.1310     2.6660 H     1 <1>   0.0800 
 24 H       -0.8950    -0.5680     2.2480 H     1 <1>   0.0800 
 25 H        1.6890     2.6520    -1.5710 H     1 <1>   0.0800 
 26 H        1.1810     1.0360    -2.0280 H     1 <1>   0.0800 
 27 H        2.8730     1.4750    -2.1160 H     1 <1>   0.0800 
 28 H       -2.7060     0.0460    -0.1490 H     1 <1>   0.3700 
 29 H        4.8130     0.7350    -0.8780 H     1 <1>   0.0800 
 30 H        5.3710     0.8530     0.7570 H     1 <1>   0.0800 
 31 H        4.2700     3.1730    -0.8510 H     1 <1>   0.0800 
 32 H       -4.2210     0.2330    -1.8410 H     1 <1>   0.1500 
 33 H       -5.5510    -0.6290     2.1120 H     1 <1>   0.1500 
 34 H        7.1250     2.5630    -0.0520 H     1 <1>   0.0800 
 35 H        6.5830     3.9940    -0.8930 H     1 <1>   0.0800 
 36 H        6.4760     2.4370    -1.6700 H     1 <1>   0.0800 
 37 H        5.5290     3.1500     1.9040 H     1 <1>   0.0800 
 38 H        3.8500     3.4720     1.5580 H     1 <1>   0.0800 
 39 H        5.0760     4.5820     1.0110 H     1 <1>   0.0800 
 40 H       -7.8210    -0.9480     1.2780 H     1 <1>   0.1500 
 41 H       -8.3110    -0.6880    -1.1120 H     1 <1>   0.1500 
 42 H       -5.7000    -0.0340    -3.6990 H     1 <1>   0.0800 
 43 H       -7.1390     0.8650    -3.2770 H     1 <1>   0.0800 
 44 H       -7.2100    -0.8740    -3.4560 H     1 <1>   0.0800 
@<TRIPOS>BOND
  1   1   2  1   
  2   1   3  1   
  3   2   4  2   
  4   2   5  1   
  5   3   6  1   
  6   3  23  1   
  7   3  24  1   
  8   4   7  1   
  9   5   8  1   
 10   5   9  1   
 11   6  10  2   
 12   6  11  am  
 13   7   8  2   
 14   8  12  1   
 15   9  25  1   
 16   9  26  1   
 17   9  27  1   
 18  11  13  1   
 19  11  28  1   
 20  12  14  1   
 21  12  29  1   
 22  12  30  1   
 23  13  15  ar  
 24  13  16  ar  
 25  14  17  1   
 26  14  18  1   
 27  14  31  1   
 28  15  19  ar  
 29  15  32  1   
 30  16  20  ar  
 31  16  33  1   
 32  17  34  1   
 33  17  35  1   
 34  17  36  1   
 35  18  37  1   
 36  18  38  1   
 37  18  39  1   
 38  19  21  ar  
 39  19  22  1   
 40  20  21  ar  
 41  20  40  1   
 42  21  41  1   
 43  22  42  1   
 44  22  43  1   
 45  22  44  1   
@<TRIPOS>SUBSTRUCTURE
  1 ****   1 GROUP 4 **** **** 0

# MOE 2024.06 (io_trps.svl 2023.06)
