@<TRIPOS>MOLECULE
NONAME
34 34 1 0 0 
SMALL
USER_CHARGES


@<TRIPOS>ATOM
  1 BR       0.0300     0.0810     0.3920 Br    1 <1>  -0.1110 
  2 C        1.6140    -0.8630    -0.1600 C.ar  1 <1>   0.1110 
  3 C        2.8380    -0.4380     0.3160 C.ar  1 <1>  -0.1500 
  4 C        1.4810    -1.9390    -1.0150 C.ar  1 <1>  -0.1500 
  5 C        3.9910    -1.1080    -0.0750 C.ar  1 <1>   0.1170 
  6 C        2.6260    -2.6110    -1.4040 C.ar  1 <1>  -0.1500 
  7 N        5.2260    -0.6690     0.4310 N.am  1 <1>  -0.5470 
  8 C        3.8640    -2.2000    -0.9350 C.ar  1 <1>  -0.1500 
  9 C        6.4870    -0.8070    -0.0950 C.2   1 <1>   0.5690 
 10 O        6.7180    -1.3340    -1.1580 O.2   1 <1>  -0.5700 
 11 C        7.7070    -0.2760     0.6790 C.3   1 <1>   0.4040 
 12 N        9.0070    -0.8050     0.1080 N.4   1 <1>  -0.9590 
 13 C        9.6250    -1.8800     0.9330 C.3   1 <1>   0.3430 
 14 C        9.9480     0.2940    -0.2260 C.3   1 <1>   0.3430 
 15 C        8.7310    -3.1150     0.9460 C.3   1 <1>  -0.2400 
 16 C       10.9580    -0.1940    -1.2580 C.3   1 <1>  -0.2400 
 17 H        2.8790     0.4070     0.9770 H     1 <1>   0.1500 
 18 H        0.5100    -2.2400    -1.3660 H     1 <1>   0.1500 
 19 H        2.5540    -3.4540    -2.0700 H     1 <1>   0.1500 
 20 H        5.1310    -0.1290     1.2910 H     1 <1>   0.3700 
 21 H        4.7350    -2.7460    -1.2500 H     1 <1>   0.1500 
 22 H        7.6190    -0.5570     1.7140 H     1 <1>   0.0800 
 23 H        7.6940     0.7980     0.6170 H     1 <1>   0.0800 
 24 H        8.7100    -1.2400    -0.7890 H     1 <1>   0.4500 
 25 H        9.7930    -1.5320     1.9400 H     1 <1>   0.0800 
 26 H       10.5790    -2.1560     0.5130 H     1 <1>   0.0800 
 27 H       10.4570     0.6370     0.6610 H     1 <1>   0.0800 
 28 H        9.4030     1.1230    -0.6480 H     1 <1>   0.0800 
 29 H        7.8100    -2.9350     1.4700 H     1 <1>   0.0800 
 30 H        9.2420    -3.9140     1.4540 H     1 <1>   0.0800 
 31 H        8.5190    -3.4440    -0.0570 H     1 <1>   0.0800 
 32 H       11.5980    -0.9590    -0.8590 H     1 <1>   0.0800 
 33 H       11.5840     0.6300    -1.5540 H     1 <1>   0.0800 
 34 H       10.4590    -0.5600    -2.1380 H     1 <1>   0.0800 
@<TRIPOS>BOND
  1   1   2  1   
  2   2   3  ar  
  3   2   4  ar  
  4   3   5  ar  
  5   3  17  1   
  6   4   6  ar  
  7   4  18  1   
  8   5   7  1   
  9   5   8  ar  
 10   6   8  ar  
 11   6  19  1   
 12   7   9  am  
 13   7  20  1   
 14   8  21  1   
 15   9  10  2   
 16   9  11  1   
 17  11  12  1   
 18  11  22  1   
 19  11  23  1   
 20  12  13  1   
 21  12  14  1   
 22  12  24  1   
 23  13  15  1   
 24  13  25  1   
 25  13  26  1   
 26  14  16  1   
 27  14  27  1   
 28  14  28  1   
 29  15  29  1   
 30  15  30  1   
 31  15  31  1   
 32  16  32  1   
 33  16  33  1   
 34  16  34  1   
@<TRIPOS>SUBSTRUCTURE
  1 ****   7 GROUP 4 **** **** 0

# MOE 2024.06 (io_trps.svl 2023.06)
