@<TRIPOS>MOLECULE
NONAME
45 47 1 0 0 
SMALL
USER_CHARGES


@<TRIPOS>ATOM
  1 O       -0.0790    -0.3670     0.1250 O.2   1 <1>  -0.5700 
  2 C       -0.2200    -1.5720    -0.0270 C.2   1 <1>   0.5650 
  3 N       -1.4940    -2.1880    -0.0960 N.pl3 1 <1>   0.5610 
  4 C        0.9150    -2.4300    -0.1440 C.2   1 <1>  -0.1360 
  5 N       -2.7520    -1.7050    -0.0220 N.2   1 <1>  -0.7070 
  6 C       -1.5940    -3.5260    -0.2690 C.2   1 <1>   0.2700 
  7 C        0.7920    -3.7730    -0.3150 C.2   1 <1>  -0.0380 
  8 C       -3.4970    -2.7650    -0.1540 C.2   1 <1>   0.4620 
  9 N       -2.8090    -3.9230    -0.3090 N.2   1 <1>  -0.5650 
 10 N       -0.4660    -4.3260    -0.3810 N.pl3 1 <1>  -0.5840 
 11 C        1.9790    -4.7150    -0.4430 C.3   1 <1>  -0.0220 
 12 C       -4.9520    -2.7370    -0.1370 C.ar  1 <1>   0.0540 
 13 C        2.0960    -5.6310     0.7820 C.3   1 <1>  -0.1600 
 14 C       -5.7090    -3.8990    -0.2880 C.ar  1 <1>  -0.1500 
 15 C       -5.6440    -1.5360     0.0330 C.ar  1 <1>  -0.1500 
 16 C        3.3060    -6.5650     0.6700 C.3   1 <1>  -0.2400 
 17 C       -7.0990    -3.8770    -0.2760 C.ar  1 <1>   0.0830 
 18 C       -7.0320    -1.4840     0.0510 C.ar  1 <1>   0.0830 
 19 O       -7.8530    -5.0060    -0.4170 O.3   1 <1>  -0.3630 
 20 C       -7.7610    -2.6620    -0.1070 C.ar  1 <1>   0.0830 
 21 O       -7.7220    -0.3170     0.2220 O.3   1 <1>  -0.3630 
 22 C       -7.2780    -6.2320    -0.8100 C.3   1 <1>   0.0400 
 23 O       -9.1200    -2.6230    -0.1170 O.3   1 <1>  -0.3630 
 24 C       -7.0690     0.9330     0.2070 C.3   1 <1>   0.0400 
 25 C       -9.7310    -2.7720     1.1410 C.3   1 <1>   0.0400 
 26 H        1.8730    -1.9480    -0.0870 H     1 <1>   0.1500 
 27 H       -0.6210    -5.3330    -0.5040 H     1 <1>   0.4000 
 28 H        2.8840    -4.1410    -0.5420 H     1 <1>   0.0800 
 29 H        1.8690    -5.3070    -1.3350 H     1 <1>   0.0800 
 30 H        1.2030    -6.2230     0.8820 H     1 <1>   0.0800 
 31 H        2.1940    -5.0290     1.6700 H     1 <1>   0.0800 
 32 H       -5.1860    -4.8270    -0.4130 H     1 <1>   0.1500 
 33 H       -5.0650    -0.6410     0.1560 H     1 <1>   0.1500 
 34 H        3.2190    -7.1940    -0.1990 H     1 <1>   0.0800 
 35 H        3.3650    -7.1950     1.5400 H     1 <1>   0.0800 
 36 H        4.2170    -5.9980     0.5990 H     1 <1>   0.0800 
 37 H       -8.0720    -6.9430    -0.9460 H     1 <1>   0.0800 
 38 H       -6.6140    -6.5710    -0.0350 H     1 <1>   0.0800 
 39 H       -6.7520    -6.0900    -1.7370 H     1 <1>   0.0800 
 40 H       -7.8180     1.7000     0.2800 H     1 <1>   0.0800 
 41 H       -6.5310     1.0340    -0.7190 H     1 <1>   0.0800 
 42 H       -6.4040     0.9910     1.0500 H     1 <1>   0.0800 
 43 H      -10.7960    -2.7250     1.0030 H     1 <1>   0.0800 
 44 H       -9.4040    -1.9730     1.7820 H     1 <1>   0.0800 
 45 H       -9.4510    -3.7260     1.5510 H     1 <1>   0.0800 
@<TRIPOS>BOND
  1   1   2  2   
  2   2   3  1   
  3   2   4  1   
  4   3   5  1   
  5   3   6  1   
  6   4   7  2   
  7   4  26  1   
  8   5   8  2   
  9   6   9  2   
 10   6  10  1   
 11   7  10  1   
 12   7  11  1   
 13   8   9  1   
 14   8  12  1   
 15  10  27  1   
 16  11  13  1   
 17  11  28  1   
 18  11  29  1   
 19  12  14  ar  
 20  12  15  ar  
 21  13  16  1   
 22  13  30  1   
 23  13  31  1   
 24  14  17  ar  
 25  14  32  1   
 26  15  18  ar  
 27  15  33  1   
 28  16  34  1   
 29  16  35  1   
 30  16  36  1   
 31  17  19  1   
 32  17  20  ar  
 33  18  20  ar  
 34  18  21  1   
 35  19  22  1   
 36  20  23  1   
 37  21  24  1   
 38  22  37  1   
 39  22  38  1   
 40  22  39  1   
 41  23  25  1   
 42  24  40  1   
 43  24  41  1   
 44  24  42  1   
 45  25  43  1   
 46  25  44  1   
 47  25  45  1   
@<TRIPOS>SUBSTRUCTURE
  1 ****   8 GROUP 4 **** **** 0

# MOE 2024.06 (io_trps.svl 2023.06)
