@<TRIPOS>MOLECULE
NONAME
26 26 1 0 0 
SMALL
USER_CHARGES


@<TRIPOS>ATOM
  1 O       -0.2350     0.2130    -0.3450 O.3   1 <1>  -0.3630 
  2 C       -1.5880     0.2270    -0.1890 C.ar  1 <1>   0.0830 
  3 C        0.5350     1.3320     0.0350 C.3   1 <1>   0.1200 
  4 C       -2.2550    -0.9720    -0.3730 C.ar  1 <1>  -0.1500 
  5 C       -2.3210     1.3620     0.1480 C.ar  1 <1>  -0.1500 
  6 C        2.0110     0.9630    -0.0960 C.3   1 <1>   0.1200 
  7 C       -3.6260    -1.0390    -0.2260 C.ar  1 <1>  -0.1500 
  8 C       -3.6930     1.2810     0.2920 C.ar  1 <1>  -0.1500 
  9 O        2.7890     2.0760     0.1920 O.3   1 <1>  -0.6800 
 10 C       -4.4030     0.0820     0.1050 C.ar  1 <1>   0.0860 
 11 C       -5.8320     0.0260     0.2180 C.2   1 <1>   0.3030 
 12 N       -6.5940    -0.9280     0.6840 N.2   1 <1>  -0.8000 
 13 C       -6.6140     1.2300    -0.2720 C.3   1 <1>  -0.1790 
 14 O       -6.0030    -1.8900     1.1530 O.3   1 <1>  -0.6500 
 15 H        0.2850     2.1460    -0.6210 H     1 <1>   0.0800 
 16 H        0.3020     1.5720     1.0570 H     1 <1>   0.0800 
 17 H       -1.6980    -1.8550    -0.6250 H     1 <1>   0.1500 
 18 H       -1.8440     2.3090     0.3030 H     1 <1>   0.1500 
 19 H        2.2420     0.6360    -1.0950 H     1 <1>   0.0800 
 20 H        2.2640     0.1910     0.6110 H     1 <1>   0.0800 
 21 H       -4.1420    -1.9740    -0.3620 H     1 <1>   0.1500 
 22 H       -4.2430     2.1610     0.5670 H     1 <1>   0.1500 
 23 H        2.7520     2.7280    -0.5350 H     1 <1>   0.4000 
 24 H       -6.1080     1.7020    -1.0920 H     1 <1>   0.0800 
 25 H       -6.7390     1.9230     0.5370 H     1 <1>   0.0800 
 26 H       -7.5840     0.9110    -0.6060 H     1 <1>   0.0800 
@<TRIPOS>BOND
  1   1   2  1   
  2   1   3  1   
  3   2   4  ar  
  4   2   5  ar  
  5   3   6  1   
  6   3  15  1   
  7   3  16  1   
  8   4   7  ar  
  9   4  17  1   
 10   5   8  ar  
 11   5  18  1   
 12   6   9  1   
 13   6  19  1   
 14   6  20  1   
 15   7  10  ar  
 16   7  21  1   
 17   8  10  ar  
 18   8  22  1   
 19   9  23  1   
 20  10  11  1   
 21  11  12  2   
 22  11  13  1   
 23  12  14  1   
 24  13  24  1   
 25  13  25  1   
 26  13  26  1   
@<TRIPOS>SUBSTRUCTURE
  1 ****   5 GROUP 4 **** **** 0

# MOE 2024.06 (io_trps.svl 2023.06)
