@<TRIPOS>MOLECULE
NONAME
30 30 1 0 0 
SMALL
USER_CHARGES


@<TRIPOS>ATOM
  1 CL      -1.9000    -1.7710     0.5680 Cl    1 <1>  -0.1770 
  2 C       -0.5890    -2.5820    -0.2590 C.ar  1 <1>   0.1770 
  3 C       -0.5270    -2.5980    -1.6430 C.ar  1 <1>   0.1770 
  4 C        0.3840    -3.2080     0.4960 C.ar  1 <1>  -0.1500 
  5 CL      -1.7560    -1.8090    -2.6070 Cl    1 <1>  -0.1770 
  6 C        0.5150    -3.2440    -2.2840 C.ar  1 <1>  -0.1500 
  7 C        1.4340    -3.8640    -0.1350 C.ar  1 <1>   0.1990 
  8 C        1.4890    -3.8730    -1.5270 C.ar  1 <1>  -0.1500 
  9 N        2.4120    -4.4890     0.6270 N.am  1 <1>  -0.6930 
 10 S        2.5090    -6.2160     0.7020 S.o2  1 <1>   1.3330 
 11 C        3.6980    -3.7440     0.8170 C.3   1 <1>   0.2570 
 12 O        3.7420    -6.5290     1.3860 O.2   1 <1>  -0.6500 
 13 O        2.2590    -6.7300    -0.6200 O.2   1 <1>  -0.6500 
 14 C        1.1480    -6.6190     1.7740 C.3   1 <1>  -0.1350 
 15 C        4.7040    -3.9230    -0.3260 C.2   1 <1>   0.5690 
 16 O        4.8450    -3.0220    -1.1190 O.2   1 <1>  -0.5700 
 17 N        5.4140    -5.0810    -0.4200 N.am  1 <1>  -0.7300 
 18 C        6.3790    -5.4220    -1.4930 C.3   1 <1>   0.0600 
 19 H        0.3280    -3.1840     1.5680 H     1 <1>   0.1500 
 20 H        0.5620    -3.2530    -3.3590 H     1 <1>   0.1500 
 21 H        2.3050    -4.3780    -2.0170 H     1 <1>   0.1500 
 22 H        4.1610    -4.0560     1.7360 H     1 <1>   0.0800 
 23 H        3.4830    -2.6940     0.9060 H     1 <1>   0.0800 
 24 H        1.2690    -6.1390     2.7250 H     1 <1>   0.0800 
 25 H        1.1040    -7.6800     1.9280 H     1 <1>   0.0800 
 26 H        0.2240    -6.2980     1.3360 H     1 <1>   0.0800 
 27 H        5.1900    -5.8430     0.2400 H     1 <1>   0.3700 
 28 H        6.0010    -6.2500    -2.0680 H     1 <1>   0.0800 
 29 H        7.3250    -5.6930    -1.0590 H     1 <1>   0.0800 
 30 H        6.5240    -4.5800    -2.1490 H     1 <1>   0.0800 
@<TRIPOS>BOND
  1   1   2  1   
  2   2   3  ar  
  3   2   4  ar  
  4   3   5  1   
  5   3   6  ar  
  6   4   7  ar  
  7   4  19  1   
  8   6   8  ar  
  9   6  20  1   
 10   7   8  ar  
 11   7   9  1   
 12   8  21  1   
 13   9  10  am  
 14   9  11  1   
 15  10  12  2   
 16  10  13  2   
 17  10  14  1   
 18  11  15  1   
 19  11  22  1   
 20  11  23  1   
 21  14  24  1   
 22  14  25  1   
 23  14  26  1   
 24  15  16  2   
 25  15  17  am  
 26  17  18  1   
 27  17  27  1   
 28  18  28  1   
 29  18  29  1   
 30  18  30  1   
@<TRIPOS>SUBSTRUCTURE
  1 ****   7 GROUP 4 **** **** 0

# MOE 2024.06 (io_trps.svl 2023.06)
