@<TRIPOS>MOLECULE
NONAME
44 46 1 0 0 
SMALL
USER_CHARGES


@<TRIPOS>ATOM
  1 O       -0.8700    -0.1350     0.7350 O.2   1 <1>  -0.5700 
  2 C       -1.8150     0.6060     0.6660 C.2   1 <1>   0.5690 
  3 N       -2.9230     0.2280    -0.0180 N.am  1 <1>  -0.5470 
  4 C       -1.7480     1.9430     1.3660 C.3   1 <1>  -0.1790 
  5 C       -4.1220     0.9140    -0.2550 C.ar  1 <1>   0.1170 
  6 C       -5.3250     0.3400     0.1010 C.ar  1 <1>  -0.1500 
  7 C       -4.1120     2.1790    -0.8650 C.ar  1 <1>  -0.1500 
  8 C       -6.5110     1.0280    -0.1370 C.ar  1 <1>   0.2270 
  9 C       -5.2800     2.8670    -1.1030 C.ar  1 <1>  -0.1500 
 10 N       -7.7910     0.6570     0.1360 N.2   1 <1>  -0.5650 
 11 C       -6.4890     2.2760    -0.7280 C.ar  1 <1>  -0.1520 
 12 C       -8.5120     1.6480    -0.2770 C.2   1 <1>   0.0060 
 13 N       -7.7880     2.6740    -0.8140 N.pl3 1 <1>   0.0480 
 14 C      -10.0320     1.6640    -0.1600 C.3   1 <1>   0.5230 
 15 C       -8.2260     3.9690    -1.3760 C.3   1 <1>   0.0160 
 16 N      -10.4700     0.2830     0.1690 N.4   1 <1>  -0.9590 
 17 C      -10.5920    -0.5650    -1.0480 C.3   1 <1>   0.3430 
 18 C      -11.6560     0.2270     1.0630 C.3   1 <1>   0.3430 
 19 C      -10.8300    -2.0190    -0.6380 C.3   1 <1>  -0.1600 
 20 C      -11.9040    -1.2190     1.4960 C.3   1 <1>  -0.1600 
 21 C      -12.0410    -2.1610     0.2930 C.3   1 <1>  -0.1600 
 22 H       -2.8680    -0.7340    -0.3550 H     1 <1>   0.3700 
 23 H       -2.6950     2.1790     1.8140 H     1 <1>   0.0800 
 24 H       -1.4800     2.7060     0.6620 H     1 <1>   0.0800 
 25 H       -1.0010     1.9060     2.1380 H     1 <1>   0.0800 
 26 H       -5.3680    -0.6270     0.5650 H     1 <1>   0.1500 
 27 H       -3.1680     2.6060    -1.1540 H     1 <1>   0.1500 
 28 H       -5.2640     3.8370    -1.5700 H     1 <1>   0.1500 
 29 H      -10.4830     1.9940    -1.0800 H     1 <1>   0.0800 
 30 H      -10.3090     2.3390     0.6320 H     1 <1>   0.0800 
 31 H       -7.7370     4.7670    -0.8440 H     1 <1>   0.0800 
 32 H       -9.2900     4.0840    -1.2860 H     1 <1>   0.0800 
 33 H       -7.9480     4.0170    -2.4140 H     1 <1>   0.0800 
 34 H       -9.6440    -0.0890     0.6750 H     1 <1>   0.4500 
 35 H       -9.6860    -0.5030    -1.6310 H     1 <1>   0.0800 
 36 H      -11.4160    -0.2230    -1.6540 H     1 <1>   0.0800 
 37 H      -12.5240     0.5990     0.5430 H     1 <1>   0.0800 
 38 H      -11.4920     0.8380     1.9370 H     1 <1>   0.0800 
 39 H       -9.9470    -2.3960    -0.1500 H     1 <1>   0.0800 
 40 H      -10.9850    -2.6130    -1.5220 H     1 <1>   0.0800 
 41 H      -12.8030    -1.2610     2.0870 H     1 <1>   0.0800 
 42 H      -11.0920    -1.5450     2.1240 H     1 <1>   0.0800 
 43 H      -12.1220    -3.1800     0.6340 H     1 <1>   0.0800 
 44 H      -12.9420    -1.9260    -0.2490 H     1 <1>   0.0800 
@<TRIPOS>BOND
  1   1   2  2   
  2   2   3  am  
  3   2   4  1   
  4   3   5  1   
  5   3  22  1   
  6   4  23  1   
  7   4  24  1   
  8   4  25  1   
  9   5   6  ar  
 10   5   7  ar  
 11   6   8  ar  
 12   6  26  1   
 13   7   9  ar  
 14   7  27  1   
 15   8  10  1   
 16   8  11  ar  
 17   9  11  ar  
 18   9  28  1   
 19  10  12  2   
 20  11  13  1   
 21  12  13  1   
 22  12  14  1   
 23  13  15  1   
 24  14  16  1   
 25  14  29  1   
 26  14  30  1   
 27  15  31  1   
 28  15  32  1   
 29  15  33  1   
 30  16  17  1   
 31  16  18  1   
 32  16  34  1   
 33  17  19  1   
 34  17  35  1   
 35  17  36  1   
 36  18  20  1   
 37  18  37  1   
 38  18  38  1   
 39  19  21  1   
 40  19  39  1   
 41  19  40  1   
 42  20  21  1   
 43  20  41  1   
 44  20  42  1   
 45  21  43  1   
 46  21  44  1   
@<TRIPOS>SUBSTRUCTURE
  1 ****   8 GROUP 4 **** **** 0

# MOE 2024.06 (io_trps.svl 2023.06)
