@<TRIPOS>MOLECULE
NONAME
47 49 1 0 0 
SMALL
USER_CHARGES


@<TRIPOS>ATOM
  1 S       -0.5100     0.5030     1.7050 S.o2  1 <1>   1.4470 
  2 O        0.0540    -0.3020     2.7690 O.2   1 <1>  -0.6500 
  3 O       -1.3740     1.6130     2.0450 O.2   1 <1>  -0.6500 
  4 N        0.8040     1.1340     0.8370 N.am  1 <1>  -0.8490 
  5 C       -1.3410    -0.5550     0.4880 C.ar  1 <1>  -0.0090 
  6 C        1.8120     0.1090     0.5500 C.3   1 <1>   0.1960 
  7 C        1.3870     2.2910     1.5210 C.3   1 <1>   0.1960 
  8 C       -1.6760    -1.8710     0.7840 C.ar  1 <1>  -0.1500 
  9 C       -1.6630    -0.0730    -0.7750 C.ar  1 <1>  -0.1500 
 10 C        2.9070     0.6780    -0.3540 C.3   1 <1>  -0.1600 
 11 C        2.4770     2.9270     0.6540 C.3   1 <1>  -0.1600 
 12 C       -2.3040    -2.6790    -0.1490 C.ar  1 <1>  -0.1500 
 13 C       -2.2910    -0.8750    -1.7120 C.ar  1 <1>  -0.1500 
 14 C        3.5700     1.9070     0.2870 C.3   1 <1>  -0.0190 
 15 C       -2.6150    -2.1850    -1.4030 C.ar  1 <1>  -0.1430 
 16 C        4.6490     2.4940    -0.6310 C.2   1 <1>   0.5690 
 17 C       -3.3020    -3.0680    -2.4290 C.3   1 <1>  -0.0970 
 18 O        4.3200     3.2960    -1.4740 O.2   1 <1>  -0.5700 
 19 N        5.9560     2.1040    -0.5020 N.am  1 <1>  -0.6600 
 20 C        7.0220     2.6560    -1.3670 C.3   1 <1>   0.1400 
 21 C        6.5040     1.0930     0.4300 C.3   1 <1>   0.1400 
 22 C        8.3220     2.1230    -0.7770 C.3   1 <1>  -0.1600 
 23 C        7.9210     0.8330    -0.0670 C.3   1 <1>  -0.1600 
 24 H        1.3490    -0.7260     0.0500 H     1 <1>   0.0800 
 25 H        2.2460    -0.2490     1.4700 H     1 <1>   0.0800 
 26 H        1.7950     1.9870     2.4720 H     1 <1>   0.0800 
 27 H        0.6230     3.0290     1.7040 H     1 <1>   0.0800 
 28 H       -1.4420    -2.2700     1.7570 H     1 <1>   0.1500 
 29 H       -1.4160     0.9450    -1.0250 H     1 <1>   0.1500 
 30 H        2.4730     0.9520    -1.3010 H     1 <1>   0.0800 
 31 H        3.6460    -0.0800    -0.5400 H     1 <1>   0.0800 
 32 H        2.9170     3.7550     1.1810 H     1 <1>   0.0800 
 33 H        2.0200     3.3160    -0.2400 H     1 <1>   0.0800 
 34 H       -2.5490    -3.6960     0.1080 H     1 <1>   0.1500 
 35 H       -2.5250    -0.4740    -2.6830 H     1 <1>   0.1500 
 36 H        4.0340     1.6020     1.2060 H     1 <1>   0.0800 
 37 H       -2.5650    -3.5770    -3.0230 H     1 <1>   0.0800 
 38 H       -3.9240    -2.4780    -3.0770 H     1 <1>   0.0800 
 39 H       -3.9210    -3.8000    -1.9410 H     1 <1>   0.0800 
 40 H        6.9950     3.7330    -1.3690 H     1 <1>   0.0800 
 41 H        6.8810     2.2930    -2.3710 H     1 <1>   0.0800 
 42 H        5.9160     0.1920     0.4210 H     1 <1>   0.0800 
 43 H        6.5290     1.5080     1.4240 H     1 <1>   0.0800 
 44 H        8.6980     2.8340    -0.0630 H     1 <1>   0.0800 
 45 H        9.0670     1.9610    -1.5360 H     1 <1>   0.0800 
 46 H        7.9020     0.0200    -0.7710 H     1 <1>   0.0800 
 47 H        8.5890     0.5840     0.7390 H     1 <1>   0.0800 
@<TRIPOS>BOND
  1   1   2  2   
  2   1   3  2   
  3   1   4  am  
  4   1   5  1   
  5   4   6  1   
  6   4   7  1   
  7   5   8  ar  
  8   5   9  ar  
  9   6  10  1   
 10   6  24  1   
 11   6  25  1   
 12   7  11  1   
 13   7  26  1   
 14   7  27  1   
 15   8  12  ar  
 16   8  28  1   
 17   9  13  ar  
 18   9  29  1   
 19  10  14  1   
 20  10  30  1   
 21  10  31  1   
 22  11  14  1   
 23  11  32  1   
 24  11  33  1   
 25  12  15  ar  
 26  12  34  1   
 27  13  15  ar  
 28  13  35  1   
 29  14  16  1   
 30  14  36  1   
 31  15  17  1   
 32  16  18  2   
 33  16  19  am  
 34  17  37  1   
 35  17  38  1   
 36  17  39  1   
 37  19  20  1   
 38  19  21  1   
 39  20  22  1   
 40  20  40  1   
 41  20  41  1   
 42  21  23  1   
 43  21  42  1   
 44  21  43  1   
 45  22  23  1   
 46  22  44  1   
 47  22  45  1   
 48  23  46  1   
 49  23  47  1   
@<TRIPOS>SUBSTRUCTURE
  1 ****   6 GROUP 4 **** **** 0

# MOE 2024.06 (io_trps.svl 2023.06)
