@<TRIPOS>MOLECULE
NONAME
44 45 1 0 0 
SMALL
USER_CHARGES


@<TRIPOS>ATOM
  1 F        0.0070     1.2090    -0.8890 F     1 <1>  -0.1900 
  2 C        1.2500     1.4280    -0.5480 C.ar  1 <1>   0.1900 
  3 C        1.5090     2.2180     0.5560 C.ar  1 <1>  -0.1500 
  4 C        2.2570     0.8600    -1.3050 C.ar  1 <1>  -0.1500 
  5 C        2.8280     2.4440     0.9100 C.ar  1 <1>  -0.1500 
  6 C        3.5750     1.0920    -0.9430 C.ar  1 <1>  -0.1500 
  7 C        3.8630     1.8870     0.1690 C.ar  1 <1>   0.0830 
  8 O        5.1220     2.1630     0.5890 O.3   1 <1>  -0.3630 
  9 C        6.2500     1.6530    -0.0840 C.3   1 <1>   0.1200 
 10 C        7.5010     2.1480     0.6410 C.3   1 <1>  -0.1600 
 11 C        8.7780     1.6330    -0.0380 C.3   1 <1>  -0.1600 
 12 C       10.0290     2.1280     0.6970 C.3   1 <1>  -0.1600 
 13 C       11.3060     1.6120     0.0190 C.3   1 <1>  -0.1600 
 14 C       12.5660     2.0890     0.7490 C.3   1 <1>   0.0210 
 15 C       13.8090     1.5590     0.0540 C.2   1 <1>  -0.1810 
 16 C       14.5250     2.1830    -0.9660 C.2   1 <1>   0.1080 
 17 C       14.4640     0.3980     0.2730 C.2   1 <1>  -0.3320 
 18 N       15.5430     1.4820    -1.3530 N.2   1 <1>  -0.7070 
 19 C       14.2000     3.5240    -1.5850 C.3   1 <1>  -0.0590 
 20 N       15.5040     0.3790    -0.5860 N.pl3 1 <1>   0.3000 
 21 C       14.1770    -0.7270     1.2530 C.3   1 <1>  -0.0600 
 22 H        0.6980     2.6430     1.1200 H     1 <1>   0.1500 
 23 H        2.0110     0.2520    -2.1560 H     1 <1>   0.1500 
 24 H        3.0660     3.0540     1.7630 H     1 <1>   0.1500 
 25 H        4.3550     0.6500    -1.5320 H     1 <1>   0.1500 
 26 H        6.2310     2.0130    -1.0990 H     1 <1>   0.0800 
 27 H        6.1990     0.5780    -0.0660 H     1 <1>   0.0800 
 28 H        7.4730     1.8030     1.6600 H     1 <1>   0.0800 
 29 H        7.5030     3.2240     0.6400 H     1 <1>   0.0800 
 30 H        8.8040     1.9760    -1.0590 H     1 <1>   0.0800 
 31 H        8.7710     0.5560    -0.0460 H     1 <1>   0.0800 
 32 H       10.0030     1.7850     1.7180 H     1 <1>   0.0800 
 33 H       10.0380     3.2040     0.7050 H     1 <1>   0.0800 
 34 H       11.3390     1.9540    -1.0010 H     1 <1>   0.0800 
 35 H       11.3000     0.5360     0.0050 H     1 <1>   0.0800 
 36 H       12.5520     1.7410     1.7660 H     1 <1>   0.0800 
 37 H       12.5970     3.1640     0.7720 H     1 <1>   0.0800 
 38 H       14.5000     4.3100    -0.9180 H     1 <1>   0.0800 
 39 H       13.1460     3.5980    -1.7770 H     1 <1>   0.0800 
 40 H       14.7300     3.6330    -2.5130 H     1 <1>   0.0800 
 41 H       16.2010    -0.3690    -0.6760 H     1 <1>   0.2700 
 42 H       14.0540    -1.6550     0.7240 H     1 <1>   0.0800 
 43 H       13.2760    -0.5290     1.8030 H     1 <1>   0.0800 
 44 H       14.9890    -0.8260     1.9510 H     1 <1>   0.0800 
@<TRIPOS>BOND
  1   1   2  1   
  2   2   3  ar  
  3   2   4  ar  
  4   3   5  ar  
  5   3  22  1   
  6   4   6  ar  
  7   4  23  1   
  8   5   7  ar  
  9   5  24  1   
 10   6   7  ar  
 11   6  25  1   
 12   7   8  1   
 13   8   9  1   
 14   9  10  1   
 15   9  26  1   
 16   9  27  1   
 17  10  11  1   
 18  10  28  1   
 19  10  29  1   
 20  11  12  1   
 21  11  30  1   
 22  11  31  1   
 23  12  13  1   
 24  12  32  1   
 25  12  33  1   
 26  13  14  1   
 27  13  34  1   
 28  13  35  1   
 29  14  15  1   
 30  14  36  1   
 31  14  37  1   
 32  15  16  1   
 33  15  17  2   
 34  16  18  2   
 35  16  19  1   
 36  17  20  1   
 37  17  21  1   
 38  18  20  1   
 39  19  38  1   
 40  19  39  1   
 41  19  40  1   
 42  20  41  1   
 43  21  42  1   
 44  21  43  1   
 45  21  44  1   
@<TRIPOS>SUBSTRUCTURE
  1 ****  11 GROUP 4 **** **** 0

# MOE 2024.06 (io_trps.svl 2023.06)
