@<TRIPOS>MOLECULE
NONAME
48 51 1 0 0 
SMALL
USER_CHARGES


@<TRIPOS>ATOM
  1 O       -0.0490    -1.3900    -2.8190 O.3   1 <1>  -0.0190 
  2 N        1.2050    -1.0710    -2.7330 N.2   1 <1>  -0.4100 
  3 C       -0.2840    -2.0560    -1.7190 C.2   1 <1>   0.2980 
  4 C        1.6580    -1.5390    -1.6240 C.2   1 <1>   0.4620 
  5 N        0.7110    -2.1910    -0.9400 N.2   1 <1>  -0.5650 
  6 C       -1.6910    -2.5950    -1.4760 C.3   1 <1>   0.2900 
  7 C        3.0200    -1.3970    -1.1370 C.ar  1 <1>   0.0540 
  8 N       -2.7030    -1.5290    -1.3020 N.3   1 <1>  -0.8100 
  9 C        3.4320    -1.9630     0.0730 C.ar  1 <1>  -0.1500 
 10 C        3.9770    -0.6830    -1.8600 C.ar  1 <1>  -0.1500 
 11 C       -4.0620    -2.1050    -1.1790 C.3   1 <1>   0.1100 
 12 C       -2.4070    -0.6890    -0.1120 C.3   1 <1>   0.1100 
 13 C        4.7270    -1.8250     0.5390 C.ar  1 <1>  -0.1500 
 14 C        5.2740    -0.5400    -1.4020 C.ar  1 <1>  -0.1500 
 15 C       -5.1400    -1.0210    -0.9890 C.3   1 <1>   0.2090 
 16 C       -3.4610     0.4130     0.1020 C.3   1 <1>   0.2090 
 17 C        5.6610    -1.1080    -0.2000 C.ar  1 <1>   0.0830 
 18 N       -4.8320    -0.1670     0.1930 N.pl3 1 <1>  -0.8380 
 19 O        6.9480    -0.9230     0.1800 O.3   1 <1>  -0.3630 
 20 C       -5.8380     0.7030     0.5950 C.ar  1 <1>   0.1000 
 21 C        7.4430    -1.4620     1.3860 C.3   1 <1>   0.0400 
 22 C       -6.4690     0.5010     1.8150 C.ar  1 <1>  -0.1500 
 23 C       -6.2350     1.7780    -0.1930 C.ar  1 <1>  -0.1500 
 24 C       -7.4740     1.3510     2.2420 C.ar  1 <1>  -0.1500 
 25 C       -7.2390     2.6310     0.2300 C.ar  1 <1>  -0.1500 
 26 C       -7.8600     2.4180     1.4490 C.ar  1 <1>  -0.1500 
 27 H       -1.6740    -3.2220    -0.6010 H     1 <1>   0.0800 
 28 H       -1.9620    -3.2040    -2.3200 H     1 <1>   0.0800 
 29 H        2.7240    -2.5210     0.6600 H     1 <1>   0.1500 
 30 H        3.7020    -0.2310    -2.7980 H     1 <1>   0.1500 
 31 H       -4.1030    -2.7750    -0.3370 H     1 <1>   0.0800 
 32 H       -4.2940    -2.6660    -2.0680 H     1 <1>   0.0800 
 33 H       -1.4470    -0.2170    -0.2310 H     1 <1>   0.0800 
 34 H       -2.3710    -1.3030     0.7710 H     1 <1>   0.0800 
 35 H        4.9890    -2.2810     1.4750 H     1 <1>   0.1500 
 36 H        5.9960     0.0140    -1.9730 H     1 <1>   0.1500 
 37 H       -6.1000    -1.4870    -0.8470 H     1 <1>   0.0800 
 38 H       -5.1900    -0.4110    -1.8740 H     1 <1>   0.0800 
 39 H       -3.4150     1.1090    -0.7170 H     1 <1>   0.0800 
 40 H       -3.2420     0.9480     1.0100 H     1 <1>   0.0800 
 41 H        8.4790    -1.1890     1.4730 H     1 <1>   0.0800 
 42 H        7.3490    -2.5330     1.3530 H     1 <1>   0.0800 
 43 H        6.8850    -1.0500     2.2080 H     1 <1>   0.0800 
 44 H       -6.1600    -0.3290     2.4210 H     1 <1>   0.1500 
 45 H       -5.7520     1.9420    -1.1370 H     1 <1>   0.1500 
 46 H       -7.9530     1.1810     3.1900 H     1 <1>   0.1500 
 47 H       -7.5370     3.4590    -0.3880 H     1 <1>   0.1500 
 48 H       -8.6410     3.0800     1.7790 H     1 <1>   0.1500 
@<TRIPOS>BOND
  1   1   2  1   
  2   1   3  1   
  3   2   4  2   
  4   3   5  2   
  5   3   6  1   
  6   4   5  1   
  7   4   7  1   
  8   6   8  1   
  9   6  27  1   
 10   6  28  1   
 11   7   9  ar  
 12   7  10  ar  
 13   8  11  1   
 14   8  12  1   
 15   9  13  ar  
 16   9  29  1   
 17  10  14  ar  
 18  10  30  1   
 19  11  15  1   
 20  11  31  1   
 21  11  32  1   
 22  12  16  1   
 23  12  33  1   
 24  12  34  1   
 25  13  17  ar  
 26  13  35  1   
 27  14  17  ar  
 28  14  36  1   
 29  15  18  1   
 30  15  37  1   
 31  15  38  1   
 32  16  18  1   
 33  16  39  1   
 34  16  40  1   
 35  17  19  1   
 36  18  20  1   
 37  19  21  1   
 38  20  22  ar  
 39  20  23  ar  
 40  21  41  1   
 41  21  42  1   
 42  21  43  1   
 43  22  24  ar  
 44  22  44  1   
 45  23  25  ar  
 46  23  45  1   
 47  24  26  ar  
 48  24  46  1   
 49  25  26  ar  
 50  25  47  1   
 51  26  48  1   
@<TRIPOS>SUBSTRUCTURE
  1 ****  12 GROUP 4 **** **** 0

# MOE 2024.06 (io_trps.svl 2023.06)
