@<TRIPOS>MOLECULE
NONAME
41 42 1 0 0 
SMALL
USER_CHARGES


@<TRIPOS>ATOM
  1 O        0.1290    -1.0990    -1.3800 O.2   1 <1>  -0.5700 
  2 C       -0.0590    -1.4390    -0.2360 C.2   1 <1>   0.5690 
  3 N       -1.2920    -1.4030     0.3580 N.am  1 <1>  -0.5470 
  4 C        1.1680    -1.9110     0.5620 C.3   1 <1>   0.4040 
  5 C       -2.4960    -1.0190    -0.2440 C.ar  1 <1>   0.1170 
  6 N        2.4780    -1.4340    -0.0270 N.4   1 <1>  -0.9590 
  7 C       -2.8150     0.3170    -0.5090 C.ar  1 <1>  -0.1430 
  8 C       -3.4140    -2.0120    -0.5630 C.ar  1 <1>  -0.1500 
  9 C        3.6530    -2.2030     0.4700 C.3   1 <1>   0.3430 
 10 C        2.6450     0.0420     0.1180 C.3   1 <1>   0.3430 
 11 C       -4.0410     0.6210    -1.0820 C.ar  1 <1>  -0.1500 
 12 C       -1.8700     1.4700    -0.1850 C.3   1 <1>  -0.0170 
 13 C       -4.6310    -1.6980    -1.1360 C.ar  1 <1>  -0.1500 
 14 C        4.9060    -1.7800    -0.2980 C.3   1 <1>  -0.1600 
 15 C        3.8840     0.4960    -0.6540 C.3   1 <1>  -0.1600 
 16 C       -4.9460    -0.3780    -1.3960 C.ar  1 <1>  -0.1500 
 17 C       -1.9620     1.8590     1.2930 C.3   1 <1>  -0.2400 
 18 C        5.1420    -0.2660    -0.2160 C.3   1 <1>  -0.1600 
 19 H       -1.4090    -1.7700     1.3030 H     1 <1>   0.3700 
 20 H        1.1540    -2.9870     0.5680 H     1 <1>   0.0800 
 21 H        1.0810    -1.5670     1.5780 H     1 <1>   0.0800 
 22 H        2.3870    -1.5940    -1.0460 H     1 <1>   0.4500 
 23 H       -3.1770    -3.0410    -0.3680 H     1 <1>   0.1500 
 24 H        3.4910    -3.2610     0.3330 H     1 <1>   0.0800 
 25 H        3.7960    -2.0130     1.5220 H     1 <1>   0.0800 
 26 H        2.7550     0.3000     1.1590 H     1 <1>   0.0800 
 27 H        1.7780     0.5530    -0.2730 H     1 <1>   0.0800 
 28 H       -4.3040     1.6430    -1.2900 H     1 <1>   0.1500 
 29 H       -2.1250     2.3240    -0.7880 H     1 <1>   0.0800 
 30 H       -0.8600     1.2070    -0.4370 H     1 <1>   0.0800 
 31 H       -5.3330    -2.4760    -1.3810 H     1 <1>   0.1500 
 32 H        4.8120    -2.0810    -1.3270 H     1 <1>   0.0800 
 33 H        5.7590    -2.2950     0.1090 H     1 <1>   0.0800 
 34 H        4.0320     1.5500    -0.4940 H     1 <1>   0.0800 
 35 H        3.7160     0.3550    -1.7080 H     1 <1>   0.0800 
 36 H       -5.8920    -0.1260    -1.8420 H     1 <1>   0.1500 
 37 H       -2.9700     2.1500     1.5310 H     1 <1>   0.0800 
 38 H       -1.3090     2.6880     1.5000 H     1 <1>   0.0800 
 39 H       -1.6880     1.0320     1.9210 H     1 <1>   0.0800 
 40 H        5.9730     0.0090    -0.8450 H     1 <1>   0.0800 
 41 H        5.3940     0.0060     0.7950 H     1 <1>   0.0800 
@<TRIPOS>BOND
  1   1   2  2   
  2   2   3  am  
  3   2   4  1   
  4   3   5  1   
  5   3  19  1   
  6   4   6  1   
  7   4  20  1   
  8   4  21  1   
  9   5   7  ar  
 10   5   8  ar  
 11   6   9  1   
 12   6  10  1   
 13   6  22  1   
 14   7  11  ar  
 15   7  12  1   
 16   8  13  ar  
 17   8  23  1   
 18   9  14  1   
 19   9  24  1   
 20   9  25  1   
 21  10  15  1   
 22  10  26  1   
 23  10  27  1   
 24  11  16  ar  
 25  11  28  1   
 26  12  17  1   
 27  12  29  1   
 28  12  30  1   
 29  13  16  ar  
 30  13  31  1   
 31  14  18  1   
 32  14  32  1   
 33  14  33  1   
 34  15  18  1   
 35  15  34  1   
 36  15  35  1   
 37  16  36  1   
 38  17  37  1   
 39  17  38  1   
 40  17  39  1   
 41  18  40  1   
 42  18  41  1   
@<TRIPOS>SUBSTRUCTURE
  1 ****   2 GROUP 4 **** **** 0

# MOE 2024.06 (io_trps.svl 2023.06)
