@<TRIPOS>MOLECULE
NONAME
51 52 1 0 0 
SMALL
USER_CHARGES


@<TRIPOS>ATOM
  1 O       -0.3060    -1.2060     0.4610 O.3   1 <1>  -0.5600 
  2 C       -0.3550    -2.0310     1.5870 C.3   1 <1>   0.4800 
  3 C        0.8470    -0.4370     0.2950 C.3   1 <1>   0.2640 
  4 O        0.4470    -3.1400     1.3480 O.3   1 <1>  -0.5600 
  5 C       -1.8190    -2.5250     1.7420 C.3   1 <1>   0.3430 
  6 C        1.8910    -1.2580    -0.4400 C.ar  1 <1>  -0.1440 
  7 C        1.8280    -2.9550     1.4300 C.3   1 <1>   0.2640 
  8 N       -2.4690    -2.8260     0.4090 N.4   1 <1>  -0.9590 
  9 C        2.3530    -2.4520     0.0960 C.ar  1 <1>  -0.1430 
 10 C        2.3840    -0.8150    -1.6590 C.ar  1 <1>  -0.1500 
 11 C       -3.7010    -2.0280     0.1450 C.3   1 <1>   0.3430 
 12 C       -2.7520    -4.2730     0.1840 C.3   1 <1>   0.3430 
 13 C        3.3040    -3.1910    -0.5930 C.ar  1 <1>  -0.1500 
 14 C        3.3330    -1.5550    -2.3410 C.ar  1 <1>  -0.1500 
 15 C       -3.3980    -0.5810    -0.2630 C.3   1 <1>  -0.1600 
 16 C       -1.4730    -5.1000     0.0540 C.3   1 <1>  -0.1600 
 17 C        3.7930    -2.7440    -1.8080 C.ar  1 <1>  -0.1500 
 18 C       -3.2120     0.3940     0.9120 C.3   1 <1>  -0.1600 
 19 C       -1.7510    -6.5250    -0.4470 C.3   1 <1>  -0.1600 
 20 C       -3.0690     1.8310     0.4040 C.3   1 <1>  -0.2400 
 21 C       -2.3060    -6.5560    -1.8760 C.3   1 <1>  -0.2400 
 22 H       -0.0170    -1.5090     2.4670 H     1 <1>   0.0800 
 23 H        1.2100    -0.1020     1.2520 H     1 <1>   0.0800 
 24 H        0.5750     0.4250    -0.2890 H     1 <1>   0.0800 
 25 H       -2.3790    -1.7600     2.2490 H     1 <1>   0.0800 
 26 H       -1.8240    -3.3970     2.3720 H     1 <1>   0.0800 
 27 H        2.2640    -3.9120     1.6590 H     1 <1>   0.0800 
 28 H        2.0620    -2.2720     2.2280 H     1 <1>   0.0800 
 29 H       -1.7480    -2.5300    -0.2770 H     1 <1>   0.4500 
 30 H        2.0340     0.1080    -2.0880 H     1 <1>   0.1500 
 31 H       -4.3520    -2.0440     1.0040 H     1 <1>   0.0800 
 32 H       -4.2330    -2.4860    -0.6730 H     1 <1>   0.0800 
 33 H       -3.3100    -4.3760    -0.7320 H     1 <1>   0.0800 
 34 H       -3.3570    -4.6630     0.9860 H     1 <1>   0.0800 
 35 H        3.6700    -4.1200    -0.1930 H     1 <1>   0.1500 
 36 H        3.7130    -1.2070    -3.2860 H     1 <1>   0.1500 
 37 H       -4.2430    -0.2370    -0.8330 H     1 <1>   0.0800 
 38 H       -2.5470    -0.5510    -0.9210 H     1 <1>   0.0800 
 39 H       -1.0010    -5.1810     1.0160 H     1 <1>   0.0800 
 40 H       -0.7890    -4.6190    -0.6240 H     1 <1>   0.0800 
 41 H        4.5300    -3.3220    -2.3380 H     1 <1>   0.1500 
 42 H       -2.3320     0.1550     1.4780 H     1 <1>   0.0800 
 43 H       -4.0630     0.3420     1.5710 H     1 <1>   0.0800 
 44 H       -2.4350    -7.0260     0.2180 H     1 <1>   0.0800 
 45 H       -0.8260    -7.0790    -0.4300 H     1 <1>   0.0800 
 46 H       -2.9350     2.5050     1.2320 H     1 <1>   0.0800 
 47 H       -2.2160     1.9190    -0.2460 H     1 <1>   0.0800 
 48 H       -3.9480     2.1330    -0.1370 H     1 <1>   0.0800 
 49 H       -3.2830    -6.1100    -1.9320 H     1 <1>   0.0800 
 50 H       -2.3900    -7.5760    -2.2080 H     1 <1>   0.0800 
 51 H       -1.6440    -6.0400    -2.5500 H     1 <1>   0.0800 
@<TRIPOS>BOND
  1   1   2  1   
  2   1   3  1   
  3   2   4  1   
  4   2   5  1   
  5   2  22  1   
  6   3   6  1   
  7   3  23  1   
  8   3  24  1   
  9   4   7  1   
 10   5   8  1   
 11   5  25  1   
 12   5  26  1   
 13   6   9  ar  
 14   6  10  ar  
 15   7   9  1   
 16   7  27  1   
 17   7  28  1   
 18   8  11  1   
 19   8  12  1   
 20   8  29  1   
 21   9  13  ar  
 22  10  14  ar  
 23  10  30  1   
 24  11  15  1   
 25  11  31  1   
 26  11  32  1   
 27  12  16  1   
 28  12  33  1   
 29  12  34  1   
 30  13  17  ar  
 31  13  35  1   
 32  14  17  ar  
 33  14  36  1   
 34  15  18  1   
 35  15  37  1   
 36  15  38  1   
 37  16  19  1   
 38  16  39  1   
 39  16  40  1   
 40  17  41  1   
 41  18  20  1   
 42  18  42  1   
 43  18  43  1   
 44  19  21  1   
 45  19  44  1   
 46  19  45  1   
 47  20  46  1   
 48  20  47  1   
 49  20  48  1   
 50  21  49  1   
 51  21  50  1   
 52  21  51  1   
@<TRIPOS>SUBSTRUCTURE
  1 ****   1 GROUP 4 **** **** 0

# MOE 2024.06 (io_trps.svl 2023.06)
