@<TRIPOS>MOLECULE
NONAME
45 48 1 0 0 
SMALL
USER_CHARGES


@<TRIPOS>ATOM
  1 O        0.8600    -0.3950     1.8350 O.2   1 <1>  -0.5700 
  2 C        2.0540    -0.2050     1.7170 C.2   1 <1>   0.6900 
  3 N        2.5770     0.8010     0.9170 N.am  1 <1>  -0.4690 
  4 N        2.9030    -1.0060     2.4040 N.am  1 <1>  -0.4900 
  5 C        3.9580     0.9390     0.8060 C.2   1 <1>   0.2090 
  6 C        1.6520     1.7020     0.1690 C.3   1 <1>   0.0600 
  7 C        4.2540    -0.8800     2.3480 C.2   1 <1>   0.6160 
  8 N        4.4670     1.9460     0.0160 N.pl3 1 <1>  -0.6000 
  9 C        4.7910     0.0960     1.4810 C.2   1 <1>  -0.1240 
 10 O        4.9120    -1.5950     3.0840 O.2   1 <1>  -0.5700 
 11 C        5.8180     2.1850    -0.1020 C.2   1 <1>  -0.0380 
 12 C        6.3070     0.1760     1.3140 C.3   1 <1>   0.3400 
 13 C        6.7450     1.4130     0.5220 C.2   1 <1>  -0.1240 
 14 C        6.2210     3.3740    -0.9590 C.3   1 <1>  -0.0220 
 15 C        6.8480    -1.1100     0.6670 C.ar  1 <1>  -0.1440 
 16 C        8.1430     1.6930     0.4980 C.2   1 <1>   0.4950 
 17 C        7.6490     3.1980    -1.4950 C.3   1 <1>  -0.1600 
 18 C        6.4460    -1.5430    -0.5980 C.ar  1 <1>   0.0820 
 19 C        7.7700    -1.8710     1.3740 C.ar  1 <1>  -0.1500 
 20 O        8.9690     1.1180     1.1660 O.2   1 <1>  -0.5700 
 21 C        8.6350     2.8410    -0.3700 C.3   1 <1>  -0.0990 
 22 O        5.5450    -0.7900    -1.2800 O.3   1 <1>  -0.3630 
 23 C        6.9710    -2.7210    -1.1260 C.ar  1 <1>  -0.1500 
 24 C        8.2860    -3.0400     0.8460 C.ar  1 <1>  -0.1500 
 25 C        4.9560    -1.2290    -2.4820 C.3   1 <1>   0.0400 
 26 C        7.8860    -3.4660    -0.4060 C.ar  1 <1>  -0.1500 
 27 H        2.5120    -1.7200     3.0060 H     1 <1>   0.3700 
 28 H        0.6230     1.4620     0.3740 H     1 <1>   0.0800 
 29 H        1.8220     1.5940    -0.8870 H     1 <1>   0.0800 
 30 H        1.8260     2.7220     0.4630 H     1 <1>   0.0800 
 31 H        3.8040     2.5290    -0.4950 H     1 <1>   0.4000 
 32 H        6.7230     0.2710     2.3020 H     1 <1>   0.0800 
 33 H        6.1530     4.2720    -0.3700 H     1 <1>   0.0800 
 34 H        5.5490     3.4670    -1.7950 H     1 <1>   0.0800 
 35 H        7.9690     4.0950    -1.9970 H     1 <1>   0.0800 
 36 H        7.6470     2.3970    -2.2160 H     1 <1>   0.0800 
 37 H        8.0970    -1.5550     2.3500 H     1 <1>   0.1500 
 38 H        9.5840     2.5710    -0.7960 H     1 <1>   0.0800 
 39 H        8.7880     3.6950     0.2650 H     1 <1>   0.0800 
 40 H        6.6830    -3.0750    -2.0960 H     1 <1>   0.1500 
 41 H        8.9990    -3.6140     1.4110 H     1 <1>   0.1500 
 42 H        4.2290    -0.4960    -2.7820 H     1 <1>   0.0800 
 43 H        4.4730    -2.1740    -2.3090 H     1 <1>   0.0800 
 44 H        5.7200    -1.3150    -3.2330 H     1 <1>   0.0800 
 45 H        8.2880    -4.3750    -0.8170 H     1 <1>   0.1500 
@<TRIPOS>BOND
  1   1   2  2   
  2   2   3  am  
  3   2   4  am  
  4   3   5  1   
  5   3   6  1   
  6   4   7  am  
  7   4  27  1   
  8   5   8  1   
  9   5   9  2   
 10   6  28  1   
 11   6  29  1   
 12   6  30  1   
 13   7   9  1   
 14   7  10  2   
 15   8  11  1   
 16   8  31  1   
 17   9  12  1   
 18  11  13  2   
 19  11  14  1   
 20  12  13  1   
 21  12  15  1   
 22  12  32  1   
 23  13  16  1   
 24  14  17  1   
 25  14  33  1   
 26  14  34  1   
 27  15  18  ar  
 28  15  19  ar  
 29  16  20  2   
 30  16  21  1   
 31  17  21  1   
 32  17  35  1   
 33  17  36  1   
 34  18  22  1   
 35  18  23  ar  
 36  19  24  ar  
 37  19  37  1   
 38  21  38  1   
 39  21  39  1   
 40  22  25  1   
 41  23  26  ar  
 42  23  40  1   
 43  24  26  ar  
 44  24  41  1   
 45  25  42  1   
 46  25  43  1   
 47  25  44  1   
 48  26  45  1   
@<TRIPOS>SUBSTRUCTURE
  1 ****  12 GROUP 4 **** **** 0

# MOE 2024.06 (io_trps.svl 2023.06)
