@<TRIPOS>MOLECULE
NONAME
38 39 1 0 0 
SMALL
USER_CHARGES


@<TRIPOS>ATOM
  1 F       -0.5760    -0.9840    -1.8850 F     1 <1>  -0.1900 
  2 C       -1.5740    -1.2630    -1.0790 C.ar  1 <1>   0.1900 
  3 C       -1.4140    -2.2730    -0.1230 C.ar  1 <1>   0.1000 
  4 C       -2.7360    -0.5400    -1.2200 C.ar  1 <1>  -0.1500 
  5 N       -0.2540    -3.0240     0.0480 N.pl3 1 <1>  -0.8380 
  6 C       -2.5060    -2.5190     0.6990 C.ar  1 <1>  -0.1500 
  7 C       -3.8350    -0.7880    -0.3920 C.ar  1 <1>   0.0860 
  8 C        0.9280    -2.2910     0.5960 C.3   1 <1>   0.2090 
  9 C        0.0750    -3.9820    -1.0510 C.3   1 <1>   0.2090 
 10 C       -3.6800    -1.7990     0.5680 C.ar  1 <1>  -0.1500 
 11 C       -5.0500    -0.0200    -0.5510 C.2   1 <1>   0.4230 
 12 C        2.0640    -3.2620     0.9800 C.3   1 <1>   0.3430 
 13 C        1.2210    -4.9320    -0.6430 C.3   1 <1>   0.3430 
 14 O       -5.1730     0.8460    -1.3790 O.2   1 <1>  -0.5700 
 15 C       -6.2510    -0.2780     0.3380 C.3   1 <1>  -0.1790 
 16 N        2.4410    -4.1930    -0.1510 N.4   1 <1>  -0.9590 
 17 C        3.5150    -5.1460     0.2320 C.3   1 <1>   0.3430 
 18 C        4.8400    -4.4030     0.3620 C.3   1 <1>  -0.2400 
 19 H       -2.7980     0.2250    -1.9750 H     1 <1>   0.1500 
 20 H       -2.4240    -3.2870     1.4470 H     1 <1>   0.1500 
 21 H        0.6250    -1.7370     1.4680 H     1 <1>   0.0800 
 22 H        1.2870    -1.5850    -0.1330 H     1 <1>   0.0800 
 23 H        0.3540    -3.4380    -1.9370 H     1 <1>   0.0800 
 24 H       -0.8020    -4.5630    -1.2850 H     1 <1>   0.0800 
 25 H       -4.4920    -2.0350     1.2330 H     1 <1>   0.1500 
 26 H        1.7370    -3.8410     1.8270 H     1 <1>   0.0800 
 27 H        2.9220    -2.6870     1.2850 H     1 <1>   0.0800 
 28 H        1.4810    -5.5470    -1.4890 H     1 <1>   0.0800 
 29 H        0.8540    -5.5800     0.1360 H     1 <1>   0.0800 
 30 H       -6.5930    -1.2890     0.2140 H     1 <1>   0.0800 
 31 H       -7.0520     0.3870     0.0690 H     1 <1>   0.0800 
 32 H       -5.9940    -0.1030     1.3660 H     1 <1>   0.0800 
 33 H        2.7860    -3.6140    -0.9280 H     1 <1>   0.4500 
 34 H        3.6150    -5.9040    -0.5300 H     1 <1>   0.0800 
 35 H        3.2680    -5.6330     1.1620 H     1 <1>   0.0800 
 36 H        5.0870    -3.8960    -0.5540 H     1 <1>   0.0800 
 37 H        5.6210    -5.1140     0.5660 H     1 <1>   0.0800 
 38 H        4.8210    -3.7000     1.1750 H     1 <1>   0.0800 
@<TRIPOS>BOND
  1   1   2  1   
  2   2   3  ar  
  3   2   4  ar  
  4   3   5  1   
  5   3   6  ar  
  6   4   7  ar  
  7   4  19  1   
  8   5   8  1   
  9   5   9  1   
 10   6  10  ar  
 11   6  20  1   
 12   7  10  ar  
 13   7  11  1   
 14   8  12  1   
 15   8  21  1   
 16   8  22  1   
 17   9  13  1   
 18   9  23  1   
 19   9  24  1   
 20  10  25  1   
 21  11  14  2   
 22  11  15  1   
 23  12  16  1   
 24  12  26  1   
 25  12  27  1   
 26  13  16  1   
 27  13  28  1   
 28  13  29  1   
 29  15  30  1   
 30  15  31  1   
 31  15  32  1   
 32  16  17  1   
 33  16  33  1   
 34  17  18  1   
 35  17  34  1   
 36  17  35  1   
 37  18  36  1   
 38  18  37  1   
 39  18  38  1   
@<TRIPOS>SUBSTRUCTURE
  1 ****   3 GROUP 4 **** **** 0

# MOE 2024.06 (io_trps.svl 2023.06)
