@<TRIPOS>MOLECULE
NONAME
46 49 1 0 0 
SMALL
USER_CHARGES


@<TRIPOS>ATOM
  1 CL      -1.2860     1.4060     1.2470 Cl    1 <1>  -0.1770 
  2 C        0.0620     2.4060     0.7190 C.ar  1 <1>   0.1770 
  3 C       -0.1920     3.6960     0.3200 C.ar  1 <1>   0.0830 
  4 C        1.3600     1.8540     0.7190 C.ar  1 <1>   0.0000 
  5 O       -1.4760     4.1430     0.3480 O.3   1 <1>  -0.3620 
  6 C        0.8770     4.5000    -0.0950 C.ar  1 <1>  -0.1500 
  7 C        2.4290     2.6730     0.2810 C.ar  1 <1>   0.0000 
  8 C        1.6450     0.5300     1.1280 C.ar  1 <1>  -0.1500 
  9 C       -1.8460     5.4190    -0.1590 C.3   1 <1>   0.1810 
 10 C        2.1630     4.0160    -0.1160 C.ar  1 <1>   0.1000 
 11 C        3.7250     2.1130     0.2520 C.ar  1 <1>  -0.1500 
 12 C        2.9160     0.0270     1.0960 C.ar  1 <1>  -0.1500 
 13 C       -3.3540     5.6190    -0.0890 C.2   1 <1>   0.5690 
 14 N        3.2060     4.8520    -0.5090 N.pl3 1 <1>  -0.8380 
 15 C        3.9690     0.8280     0.6490 C.ar  1 <1>  -0.1500 
 16 O       -3.8080     6.6710    -0.4740 O.2   1 <1>  -0.5700 
 17 N       -4.1330     4.6160     0.3990 N.am  1 <1>  -0.5790 
 18 C        3.1880     5.5530    -1.8280 C.3   1 <1>   0.2090 
 19 C        3.9990     5.5570     0.5410 C.3   1 <1>   0.2090 
 20 C       -5.5940     4.6340     0.5370 C.3   1 <1>   0.0490 
 21 C        2.9510     7.0680    -1.6680 C.3   1 <1>   0.1200 
 22 C        3.6800     7.0620     0.5620 C.3   1 <1>   0.1200 
 23 C       -6.1950     3.9200     1.7020 C.3   1 <1>  -0.2000 
 24 C       -6.3320     3.3550     0.3190 C.3   1 <1>  -0.2000 
 25 O        3.8130     7.6250    -0.7150 O.3   1 <1>  -0.5600 
 26 H        0.7120     5.5150    -0.3920 H     1 <1>   0.1500 
 27 H        0.8420    -0.0960     1.4710 H     1 <1>   0.1500 
 28 H       -1.5290     5.4860    -1.1830 H     1 <1>   0.0800 
 29 H       -1.3610     6.1740     0.4310 H     1 <1>   0.0800 
 30 H        4.5370     2.7230    -0.0990 H     1 <1>   0.1500 
 31 H        3.1200    -0.9820     1.4080 H     1 <1>   0.1500 
 32 H        4.9640     0.4200     0.6210 H     1 <1>   0.1500 
 33 H       -3.6650     3.7590     0.7040 H     1 <1>   0.3700 
 34 H        2.4220     5.1300    -2.4550 H     1 <1>   0.0800 
 35 H        4.1330     5.3970    -2.3160 H     1 <1>   0.0800 
 36 H        5.0480     5.4200     0.3420 H     1 <1>   0.0800 
 37 H        3.7860     5.1300     1.5050 H     1 <1>   0.0800 
 38 H       -6.0450     5.5560     0.2040 H     1 <1>   0.1000 
 39 H        1.9380     7.2630    -1.3660 H     1 <1>   0.0800 
 40 H        3.1310     7.5680    -2.6030 H     1 <1>   0.0800 
 41 H        4.3610     7.5740     1.2180 H     1 <1>   0.0800 
 42 H        2.6760     7.2270     0.9090 H     1 <1>   0.0800 
 43 H       -7.0690     4.3410     2.1680 H     1 <1>   0.1000 
 44 H       -5.5440     3.4320     2.4050 H     1 <1>   0.1000 
 45 H       -5.7760     2.4720     0.0570 H     1 <1>   0.1000 
 46 H       -7.2980     3.3920    -0.1520 H     1 <1>   0.1000 
@<TRIPOS>BOND
  1   1   2  1   
  2   2   3  ar  
  3   2   4  ar  
  4   3   5  1   
  5   3   6  ar  
  6   4   7  ar  
  7   4   8  ar  
  8   5   9  1   
  9   6  10  ar  
 10   6  26  1   
 11   7  10  ar  
 12   7  11  ar  
 13   8  12  ar  
 14   8  27  1   
 15   9  13  1   
 16   9  28  1   
 17   9  29  1   
 18  10  14  1   
 19  11  15  ar  
 20  11  30  1   
 21  12  15  ar  
 22  12  31  1   
 23  13  16  2   
 24  13  17  am  
 25  14  18  1   
 26  14  19  1   
 27  15  32  1   
 28  17  20  1   
 29  17  33  1   
 30  18  21  1   
 31  18  34  1   
 32  18  35  1   
 33  19  22  1   
 34  19  36  1   
 35  19  37  1   
 36  20  23  1   
 37  20  24  1   
 38  20  38  1   
 39  21  25  1   
 40  21  39  1   
 41  21  40  1   
 42  22  25  1   
 43  22  41  1   
 44  22  42  1   
 45  23  24  1   
 46  23  43  1   
 47  23  44  1   
 48  24  45  1   
 49  24  46  1   
@<TRIPOS>SUBSTRUCTURE
  1 ****   3 GROUP 4 **** **** 0

# MOE 2024.06 (io_trps.svl 2023.06)
