@<TRIPOS>MOLECULE
NONAME
45 46 1 0 0 
SMALL
USER_CHARGES


@<TRIPOS>ATOM
  1 O        0.1550    -0.4890     0.7350 O.2   1 <1>  -0.5700 
  2 C        0.2100    -1.6950     0.6140 C.2   1 <1>   0.7800 
  3 O       -0.8650    -2.3790     0.2250 O.3   1 <1>  -0.4300 
  4 N        1.3640    -2.4000     0.8390 N.am  1 <1>  -0.6600 
  5 C       -2.0910    -1.7230    -0.0110 C.3   1 <1>   0.1200 
  6 C        1.5070    -3.8550     0.5440 C.3   1 <1>   0.1400 
  7 C        2.6240    -1.7150     1.2540 C.3   1 <1>   0.1400 
  8 C       -3.1130    -2.7710    -0.4400 C.3   1 <1>  -0.2400 
  9 C        2.6220    -4.0840    -0.4950 C.3   1 <1>   0.3430 
 10 C        3.7300    -1.9530     0.2110 C.3   1 <1>   0.3430 
 11 N        3.9140    -3.4190    -0.1000 N.4   1 <1>  -0.9590 
 12 C        4.9790    -3.6290    -1.1160 C.3   1 <1>   0.4860 
 13 C        6.2930    -3.1620    -0.5210 C.ar  1 <1>  -0.1440 
 14 C        6.9970    -3.9320     0.4020 C.ar  1 <1>  -0.1440 
 15 C        6.7900    -1.9240    -0.9080 C.ar  1 <1>  -0.1500 
 16 C        8.1730    -3.4320     0.9370 C.ar  1 <1>  -0.1500 
 17 C        6.5370    -5.3160     0.8480 C.3   1 <1>  -0.0970 
 18 C        7.9650    -1.4320    -0.3700 C.ar  1 <1>  -0.1440 
 19 C        8.6530    -2.1930     0.5570 C.ar  1 <1>  -0.1500 
 20 C        8.5070    -0.0780    -0.7940 C.3   1 <1>  -0.0970 
 21 H       -1.9440    -0.9870    -0.7840 H     1 <1>   0.0800 
 22 H       -2.3980    -1.2340     0.8990 H     1 <1>   0.0800 
 23 H        0.5850    -4.2630     0.1650 H     1 <1>   0.0800 
 24 H        1.7410    -4.3800     1.4550 H     1 <1>   0.0800 
 25 H        2.9370    -2.0930     2.2120 H     1 <1>   0.0800 
 26 H        2.4650    -0.6560     1.3630 H     1 <1>   0.0800 
 27 H       -2.7930    -3.2560    -1.3440 H     1 <1>   0.0800 
 28 H       -4.0600    -2.2960    -0.6250 H     1 <1>   0.0800 
 29 H       -3.2450    -3.5020     0.3370 H     1 <1>   0.0800 
 30 H        2.2860    -3.6870    -1.4390 H     1 <1>   0.0800 
 31 H        2.7750    -5.1430    -0.6180 H     1 <1>   0.0800 
 32 H        4.6530    -1.5370     0.5820 H     1 <1>   0.0800 
 33 H        3.4670    -1.4200    -0.6880 H     1 <1>   0.0800 
 34 H        4.2670    -3.8530     0.7620 H     1 <1>   0.4500 
 35 H        4.7600    -3.0710    -2.0120 H     1 <1>   0.0800 
 36 H        5.0540    -4.6720    -1.3730 H     1 <1>   0.0800 
 37 H        6.2680    -1.3280    -1.6370 H     1 <1>   0.1500 
 38 H        8.7360    -4.0060     1.6540 H     1 <1>   0.1500 
 39 H        5.7350    -5.2370     1.5580 H     1 <1>   0.0800 
 40 H        7.3460    -5.8450     1.3210 H     1 <1>   0.0800 
 41 H        6.2200    -5.9060     0.0070 H     1 <1>   0.0800 
 42 H        9.5710    -1.8260     0.9840 H     1 <1>   0.1500 
 43 H        7.7130     0.5650    -1.1300 H     1 <1>   0.0800 
 44 H        9.2130    -0.2050    -1.5950 H     1 <1>   0.0800 
 45 H        9.0030     0.4020     0.0300 H     1 <1>   0.0800 
@<TRIPOS>BOND
  1   1   2  2   
  2   2   3  1   
  3   2   4  am  
  4   3   5  1   
  5   4   6  1   
  6   4   7  1   
  7   5   8  1   
  8   5  21  1   
  9   5  22  1   
 10   6   9  1   
 11   6  23  1   
 12   6  24  1   
 13   7  10  1   
 14   7  25  1   
 15   7  26  1   
 16   8  27  1   
 17   8  28  1   
 18   8  29  1   
 19   9  11  1   
 20   9  30  1   
 21   9  31  1   
 22  10  11  1   
 23  10  32  1   
 24  10  33  1   
 25  11  12  1   
 26  11  34  1   
 27  12  13  1   
 28  12  35  1   
 29  12  36  1   
 30  13  14  ar  
 31  13  15  ar  
 32  14  16  ar  
 33  14  17  1   
 34  15  18  ar  
 35  15  37  1   
 36  16  19  ar  
 37  16  38  1   
 38  17  39  1   
 39  17  40  1   
 40  17  41  1   
 41  18  19  ar  
 42  18  20  1   
 43  19  42  1   
 44  20  43  1   
 45  20  44  1   
 46  20  45  1   
@<TRIPOS>SUBSTRUCTURE
  1 ****  10 GROUP 4 **** **** 0

# MOE 2024.06 (io_trps.svl 2023.06)
