@<TRIPOS>MOLECULE
NONAME
54 56 1 0 0 
SMALL
USER_CHARGES


@<TRIPOS>ATOM
  1 O       -1.0820    -3.2950    -0.7630 O.2   1 <1>  -0.5700 
  2 C       -0.8290    -4.4770    -0.8220 C.2   1 <1>   0.5690 
  3 N        0.4510    -4.9300    -0.7090 N.am  1 <1>  -0.7300 
  4 C       -2.0270    -5.4440    -1.0390 C.3   1 <1>   0.4840 
  5 C        1.6390    -4.0580    -0.4900 C.3   1 <1>   0.1400 
  6 N       -3.3430    -4.7800    -0.7090 N.4   1 <1>  -0.9590 
  7 C       -1.8860    -6.7680    -0.2710 C.3   1 <1>  -0.2400 
  8 C        2.8190    -4.7600     0.2270 C.3   1 <1>   0.1430 
  9 C       -3.5390    -4.5300     0.7500 C.3   1 <1>   0.3430 
 10 C       -4.5200    -5.4270    -1.3550 C.3   1 <1>   0.3430 
 11 C        3.9400    -3.7080     0.3200 C.ar  1 <1>  -0.1440 
 12 C        3.2730    -6.0360    -0.5110 C.3   1 <1>  -0.1600 
 13 C        2.4160    -5.3150     1.6070 C.3   1 <1>  -0.1600 
 14 C       -4.7620    -3.6350     0.9570 C.3   1 <1>  -0.1600 
 15 C       -5.7560    -4.5440    -1.1740 C.3   1 <1>  -0.1600 
 16 C        4.0360    -2.8550     1.4160 C.ar  1 <1>  -0.1500 
 17 C        4.8640    -3.5540    -0.7100 C.ar  1 <1>  -0.1500 
 18 C        2.5040    -7.2260     0.0780 C.3   1 <1>  -0.1600 
 19 C        1.9070    -6.7450     1.4020 C.3   1 <1>  -0.1600 
 20 C       -6.0180    -4.2240     0.3040 C.3   1 <1>  -0.1600 
 21 C        5.0320    -1.8980     1.4910 C.ar  1 <1>  -0.1500 
 22 C        5.8610    -2.5970    -0.6380 C.ar  1 <1>  -0.1500 
 23 C        5.9480    -1.7690     0.4640 C.ar  1 <1>  -0.1500 
 24 H        0.6860    -5.9260    -0.7240 H     1 <1>   0.3700 
 25 H       -2.0300    -5.6740    -2.0910 H     1 <1>   0.0800 
 26 H        1.3450    -3.1960     0.0850 H     1 <1>   0.0800 
 27 H        1.9800    -3.7000    -1.4470 H     1 <1>   0.0800 
 28 H       -3.2410    -3.8330    -1.1120 H     1 <1>   0.4500 
 29 H       -1.7330    -6.5930     0.7790 H     1 <1>   0.0800 
 30 H       -1.0340    -7.3100    -0.6410 H     1 <1>   0.0800 
 31 H       -2.7500    -7.3920    -0.4100 H     1 <1>   0.0800 
 32 H       -2.6680    -4.0430     1.1620 H     1 <1>   0.0800 
 33 H       -3.6870    -5.4640     1.2670 H     1 <1>   0.0800 
 34 H       -4.7000    -6.3900    -0.9040 H     1 <1>   0.0800 
 35 H       -4.3350    -5.5710    -2.4070 H     1 <1>   0.0800 
 36 H        4.3190    -6.1990    -0.3090 H     1 <1>   0.0800 
 37 H        3.1430    -5.9610    -1.5760 H     1 <1>   0.0800 
 38 H        1.6860    -4.6970     2.1000 H     1 <1>   0.0800 
 39 H        3.2940    -5.3690     2.2290 H     1 <1>   0.0800 
 40 H       -4.5590    -2.6590     0.5500 H     1 <1>   0.0800 
 41 H       -4.9320    -3.5110     2.0130 H     1 <1>   0.0800 
 42 H       -6.6130    -5.0490    -1.5860 H     1 <1>   0.0800 
 43 H       -5.6260    -3.6310    -1.7280 H     1 <1>   0.0800 
 44 H        3.3350    -2.9180     2.2280 H     1 <1>   0.1500 
 45 H        4.8200    -4.1740    -1.5870 H     1 <1>   0.1500 
 46 H        3.1750    -8.0520     0.2440 H     1 <1>   0.0800 
 47 H        1.7290    -7.5530    -0.5920 H     1 <1>   0.0800 
 48 H        0.8330    -6.7530     1.3540 H     1 <1>   0.0800 
 49 H        2.2140    -7.3770     2.2180 H     1 <1>   0.0800 
 50 H       -6.8350    -3.5260     0.3870 H     1 <1>   0.0800 
 51 H       -6.3040    -5.1250     0.8220 H     1 <1>   0.0800 
 52 H        5.0930    -1.2510     2.3480 H     1 <1>   0.1500 
 53 H        6.5690    -2.4970    -1.4420 H     1 <1>   0.1500 
 54 H        6.7240    -1.0250     0.5220 H     1 <1>   0.1500 
@<TRIPOS>BOND
  1   1   2  2   
  2   2   3  am  
  3   2   4  1   
  4   3   5  1   
  5   3  24  1   
  6   4   6  1   
  7   4   7  1   
  8   4  25  1   
  9   5   8  1   
 10   5  26  1   
 11   5  27  1   
 12   6   9  1   
 13   6  10  1   
 14   6  28  1   
 15   7  29  1   
 16   7  30  1   
 17   7  31  1   
 18   8  11  1   
 19   8  12  1   
 20   8  13  1   
 21   9  14  1   
 22   9  32  1   
 23   9  33  1   
 24  10  15  1   
 25  10  34  1   
 26  10  35  1   
 27  11  16  ar  
 28  11  17  ar  
 29  12  18  1   
 30  12  36  1   
 31  12  37  1   
 32  13  19  1   
 33  13  38  1   
 34  13  39  1   
 35  14  20  1   
 36  14  40  1   
 37  14  41  1   
 38  15  20  1   
 39  15  42  1   
 40  15  43  1   
 41  16  21  ar  
 42  16  44  1   
 43  17  22  ar  
 44  17  45  1   
 45  18  19  1   
 46  18  46  1   
 47  18  47  1   
 48  19  48  1   
 49  19  49  1   
 50  20  50  1   
 51  20  51  1   
 52  21  23  ar  
 53  21  52  1   
 54  22  23  ar  
 55  22  53  1   
 56  23  54  1   
@<TRIPOS>SUBSTRUCTURE
  1 ****   3 GROUP 4 **** **** 0

# MOE 2024.06 (io_trps.svl 2023.06)
