@<TRIPOS>MOLECULE
NONAME
48 50 1 0 0 
SMALL
USER_CHARGES


@<TRIPOS>ATOM
  1 O        1.1360     0.1570     1.8740 O.2   1 <1>  -0.5700 
  2 C        1.8500    -0.4180     1.0860 C.2   1 <1>   0.4950 
  3 C        2.8400     0.2280     0.2870 C.2   1 <1>   0.0290 
  4 C        1.6580    -1.9260     1.0420 C.3   1 <1>  -0.0990 
  5 C        2.7260     1.5470    -0.1530 C.2   1 <1>   0.0720 
  6 C        4.0080    -0.5660     0.0320 C.2   1 <1>   0.4950 
  7 C        2.4870    -2.6190    -0.0490 C.3   1 <1>   0.0000 
  8 N        3.8730     2.2870    -0.1970 N.pl3 1 <1>  -0.8690 
  9 C        1.4970     2.2270    -0.5810 C.ar  1 <1>   0.0280 
 10 O        5.1210    -0.1350    -0.1880 O.2   1 <1>  -0.5700 
 11 C        3.9240    -2.0850     0.0410 C.3   1 <1>  -0.0990 
 12 C        1.8890    -2.3520    -1.4450 C.3   1 <1>  -0.2400 
 13 C        2.4850    -4.1370     0.1870 C.3   1 <1>  -0.2400 
 14 C        3.9770     3.7410    -0.3030 C.3   1 <1>   0.3690 
 15 C        1.5550     3.5390    -1.0820 C.ar  1 <1>  -0.1430 
 16 C        0.2230     1.6420    -0.5760 C.ar  1 <1>  -0.1500 
 17 C        2.9010     4.2260    -1.2820 C.3   1 <1>  -0.0170 
 18 C        5.4020     4.0520    -0.8050 C.3   1 <1>  -0.1600 
 19 C        3.7430     4.2970     1.1040 C.3   1 <1>  -0.2400 
 20 C        0.4170     4.2310    -1.4610 C.ar  1 <1>  -0.1500 
 21 C       -0.9150     2.3280    -0.9550 C.ar  1 <1>  -0.1500 
 22 C        5.7200     5.5430    -1.0220 C.3   1 <1>  -0.2400 
 23 C       -0.8250     3.6330    -1.3900 C.ar  1 <1>  -0.1500 
 24 H        1.9350    -2.3090     2.0080 H     1 <1>   0.0800 
 25 H        0.6130    -2.1390     0.9020 H     1 <1>   0.0800 
 26 H        4.7740     1.8100    -0.0310 H     1 <1>   0.4000 
 27 H        4.5050    -2.4670    -0.7800 H     1 <1>   0.0800 
 28 H        4.3880    -2.4290     0.9490 H     1 <1>   0.0800 
 29 H        1.8500    -1.3040    -1.6810 H     1 <1>   0.0800 
 30 H        0.8860    -2.7400    -1.5040 H     1 <1>   0.0800 
 31 H        2.4760    -2.8390    -2.2040 H     1 <1>   0.0800 
 32 H        3.0700    -4.6380    -0.5640 H     1 <1>   0.0800 
 33 H        1.4820    -4.5250     0.1470 H     1 <1>   0.0800 
 34 H        2.8990    -4.3780     1.1510 H     1 <1>   0.0800 
 35 H        0.0800     0.6270    -0.2780 H     1 <1>   0.1500 
 36 H        2.7900     5.2910    -1.1900 H     1 <1>   0.0800 
 37 H        3.2270     4.0180    -2.2840 H     1 <1>   0.0800 
 38 H        6.1100     3.6560    -0.0990 H     1 <1>   0.0800 
 39 H        5.5550     3.5360    -1.7380 H     1 <1>   0.0800 
 40 H        2.7820     3.9850     1.4720 H     1 <1>   0.0800 
 41 H        3.7630     5.3700     1.0980 H     1 <1>   0.0800 
 42 H        4.5020     3.9420     1.7770 H     1 <1>   0.0800 
 43 H        0.4900     5.2400    -1.8270 H     1 <1>   0.1500 
 44 H       -1.8740     1.8430    -0.9130 H     1 <1>   0.1500 
 45 H        5.6320     6.0940    -0.1030 H     1 <1>   0.0800 
 46 H        5.0640     5.9760    -1.7550 H     1 <1>   0.0800 
 47 H        6.7310     5.6470    -1.3760 H     1 <1>   0.0800 
 48 H       -1.7090     4.1740    -1.6800 H     1 <1>   0.1500 
@<TRIPOS>BOND
  1   1   2  2   
  2   2   3  1   
  3   2   4  1   
  4   3   5  2   
  5   3   6  1   
  6   4   7  1   
  7   4  24  1   
  8   4  25  1   
  9   5   8  1   
 10   5   9  1   
 11   6  10  2   
 12   6  11  1   
 13   7  11  1   
 14   7  12  1   
 15   7  13  1   
 16   8  14  1   
 17   8  26  1   
 18   9  15  ar  
 19   9  16  ar  
 20  11  27  1   
 21  11  28  1   
 22  12  29  1   
 23  12  30  1   
 24  12  31  1   
 25  13  32  1   
 26  13  33  1   
 27  13  34  1   
 28  14  17  1   
 29  14  18  1   
 30  14  19  1   
 31  15  17  1   
 32  15  20  ar  
 33  16  21  ar  
 34  16  35  1   
 35  17  36  1   
 36  17  37  1   
 37  18  22  1   
 38  18  38  1   
 39  18  39  1   
 40  19  40  1   
 41  19  41  1   
 42  19  42  1   
 43  20  23  ar  
 44  20  43  1   
 45  21  23  ar  
 46  21  44  1   
 47  22  45  1   
 48  22  46  1   
 49  22  47  1   
 50  23  48  1   
@<TRIPOS>SUBSTRUCTURE
  1 ****   5 GROUP 4 **** **** 0

# MOE 2024.06 (io_trps.svl 2023.06)
