@<TRIPOS>MOLECULE
NONAME
53 54 1 0 0 
SMALL
USER_CHARGES


@<TRIPOS>ATOM
  1 O        1.2850     1.5020    -0.8470 O.3   1 <1>  -0.6800 
  2 C        2.4850     0.8240    -0.9840 C.3   1 <1>   0.1200 
  3 C        2.6920    -0.0390     0.2650 C.3   1 <1>   0.1100 
  4 N        3.9580    -0.8040     0.2050 N.3   1 <1>  -0.8100 
  5 C        4.3470    -1.2680     1.5590 C.3   1 <1>   0.1100 
  6 C        3.8690    -1.9610    -0.7230 C.3   1 <1>   0.1100 
  7 C        5.6800    -2.0560     1.5550 C.3   1 <1>   0.3430 
  8 C        5.1520    -2.8300    -0.7190 C.3   1 <1>   0.3430 
  9 N        6.2060    -2.2290     0.1590 N.4   1 <1>  -0.9590 
 10 C        7.5110    -2.9460     0.0670 C.3   1 <1>   0.3430 
 11 C        8.6480    -2.1500     0.7110 C.3   1 <1>  -0.0220 
 12 C        9.9610    -2.8990     0.4740 C.2   1 <1>  -0.2760 
 13 C       10.2670    -4.0160     1.1610 C.2   1 <1>  -0.2760 
 14 C       10.8820    -2.3010    -0.6200 C.3   1 <1>   0.1380 
 15 C       11.5240    -4.8410     0.8990 C.3   1 <1>  -0.0220 
 16 C        9.4530    -4.6500     2.2890 C.3   1 <1>  -0.1020 
 17 C       12.2510    -3.0190    -0.6430 C.3   1 <1>  -0.1600 
 18 C       10.2070    -2.4470    -1.9930 C.3   1 <1>  -0.2400 
 19 C       11.1880    -0.8120    -0.3700 C.3   1 <1>  -0.2400 
 20 C       12.1350    -4.5320    -0.4660 C.3   1 <1>  -0.1600 
 21 H        1.1350     2.1070    -1.6010 H     1 <1>   0.4000 
 22 H        3.2750     1.5490    -1.0750 H     1 <1>   0.0800 
 23 H        2.4250     0.2220    -1.8720 H     1 <1>   0.0800 
 24 H        1.8580    -0.7090     0.3850 H     1 <1>   0.0800 
 25 H        2.7180     0.6260     1.1130 H     1 <1>   0.0800 
 26 H        3.5690    -1.8930     1.9680 H     1 <1>   0.0800 
 27 H        4.4520    -0.4180     2.2120 H     1 <1>   0.0800 
 28 H        3.7030    -1.6060    -1.7250 H     1 <1>   0.0800 
 29 H        3.0270    -2.5800    -0.4590 H     1 <1>   0.0800 
 30 H        5.5250    -3.0180     2.0150 H     1 <1>   0.0800 
 31 H        6.3970    -1.5190     2.1530 H     1 <1>   0.0800 
 32 H        5.5180    -2.9160    -1.7290 H     1 <1>   0.0800 
 33 H        4.9070    -3.8210    -0.3740 H     1 <1>   0.0800 
 34 H        6.3000    -1.2640    -0.1940 H     1 <1>   0.4500 
 35 H        7.7600    -3.1080    -0.9690 H     1 <1>   0.0800 
 36 H        7.4400    -3.9110     0.5410 H     1 <1>   0.0800 
 37 H        8.4890    -2.0450     1.7670 H     1 <1>   0.0800 
 38 H        8.6620    -1.1650     0.2930 H     1 <1>   0.0800 
 39 H       11.2950    -5.8920     0.9310 H     1 <1>   0.0800 
 40 H       12.2430    -4.6370     1.6740 H     1 <1>   0.0800 
 41 H       10.0630    -4.7260     3.1720 H     1 <1>   0.0800 
 42 H        9.1460    -5.6420     2.0070 H     1 <1>   0.0800 
 43 H        8.5770    -4.0920     2.5490 H     1 <1>   0.0800 
 44 H       12.8610    -2.6450     0.1620 H     1 <1>   0.0800 
 45 H       12.7710    -2.8030    -1.5600 H     1 <1>   0.0800 
 46 H       10.8700    -2.1160    -2.7730 H     1 <1>   0.0800 
 47 H        9.9540    -3.4740    -2.1790 H     1 <1>   0.0800 
 48 H        9.3140    -1.8550    -2.0490 H     1 <1>   0.0800 
 49 H       11.5010    -0.6670     0.6490 H     1 <1>   0.0800 
 50 H       10.3430    -0.1800    -0.5640 H     1 <1>   0.0800 
 51 H       11.9820    -0.4820    -1.0160 H     1 <1>   0.0800 
 52 H       11.5190    -4.9490    -1.2420 H     1 <1>   0.0800 
 53 H       13.1090    -4.9850    -0.5340 H     1 <1>   0.0800 
@<TRIPOS>BOND
  1   1   2  1   
  2   1  21  1   
  3   2   3  1   
  4   2  22  1   
  5   2  23  1   
  6   3   4  1   
  7   3  24  1   
  8   3  25  1   
  9   4   5  1   
 10   4   6  1   
 11   5   7  1   
 12   5  26  1   
 13   5  27  1   
 14   6   8  1   
 15   6  28  1   
 16   6  29  1   
 17   7   9  1   
 18   7  30  1   
 19   7  31  1   
 20   8   9  1   
 21   8  32  1   
 22   8  33  1   
 23   9  10  1   
 24   9  34  1   
 25  10  11  1   
 26  10  35  1   
 27  10  36  1   
 28  11  12  1   
 29  11  37  1   
 30  11  38  1   
 31  12  13  2   
 32  12  14  1   
 33  13  15  1   
 34  13  16  1   
 35  14  17  1   
 36  14  18  1   
 37  14  19  1   
 38  15  20  1   
 39  15  39  1   
 40  15  40  1   
 41  16  41  1   
 42  16  42  1   
 43  16  43  1   
 44  17  20  1   
 45  17  44  1   
 46  17  45  1   
 47  18  46  1   
 48  18  47  1   
 49  18  48  1   
 50  19  49  1   
 51  19  50  1   
 52  19  51  1   
 53  20  52  1   
 54  20  53  1   
@<TRIPOS>SUBSTRUCTURE
  1 ****  10 GROUP 4 **** **** 0

# MOE 2024.06 (io_trps.svl 2023.06)
