@<TRIPOS>MOLECULE
NONAME
46 49 1 0 0 
SMALL
USER_CHARGES


@<TRIPOS>ATOM
  1 O       -0.9650     1.7320     3.4180 O.2   1 <1>  -0.5700 
  2 C       -0.3760     1.9130     2.3790 C.2   1 <1>   0.5690 
  3 N       -0.9470     1.8890     1.1400 N.am  1 <1>  -0.5470 
  4 C        1.1300     2.1870     2.4030 C.3   1 <1>   0.1710 
  5 C       -2.2360     1.6360     0.6480 C.ar  1 <1>   0.1170 
  6 N        1.8030     1.9070     1.0950 N.3   1 <1>  -0.8100 
  7 C       -2.4160     1.5080    -0.7600 C.ar  1 <1>   0.0000 
  8 C       -3.3200     1.5110     1.4870 C.ar  1 <1>  -0.1500 
  9 C        3.1030     2.5920     1.0260 C.3   1 <1>   0.1100 
 10 C        1.9680     0.4540     0.8980 C.3   1 <1>   0.1100 
 11 C       -3.7130     1.2440    -1.2600 C.ar  1 <1>   0.0000 
 12 C       -1.3650     1.6270    -1.7020 C.ar  1 <1>  -0.1500 
 13 C       -4.5960     1.2530     0.9880 C.ar  1 <1>  -0.1500 
 14 C        3.7030     2.4110    -0.3680 C.3   1 <1>  -0.1600 
 15 C        2.5200     0.1830    -0.5010 C.3   1 <1>  -0.1600 
 16 C       -4.7860     1.1220    -0.3580 C.ar  1 <1>  -0.1500 
 17 C       -3.9040     1.1090    -2.6500 C.ar  1 <1>  -0.1500 
 18 C       -1.5790     1.4920    -3.0460 C.ar  1 <1>  -0.1500 
 19 C        3.8370     0.9320    -0.7030 C.3   1 <1>   0.5600 
 20 C       -2.8640     1.2290    -3.5270 C.ar  1 <1>  -0.1500 
 21 O        4.8370     0.3740     0.0890 O.3   1 <1>  -0.5600 
 22 O        4.2820     0.7980    -2.0090 O.3   1 <1>  -0.5600 
 23 C        5.5530    -0.5430    -0.6580 C.3   1 <1>   0.1200 
 24 C        5.1110    -0.3030    -2.0890 C.3   1 <1>   0.1200 
 25 H       -0.2220     2.0150     0.4290 H     1 <1>   0.3700 
 26 H        1.5810     1.6030     3.1860 H     1 <1>   0.0800 
 27 H        1.2510     3.2250     2.6540 H     1 <1>   0.0800 
 28 H       -3.2070     1.6100     2.5500 H     1 <1>   0.1500 
 29 H        3.7740     2.1910     1.7690 H     1 <1>   0.0800 
 30 H        2.9720     3.6440     1.2160 H     1 <1>   0.0800 
 31 H        1.0200    -0.0480     1.0040 H     1 <1>   0.0800 
 32 H        2.6440     0.0560     1.6390 H     1 <1>   0.0800 
 33 H       -0.3670     1.8310    -1.3620 H     1 <1>   0.1500 
 34 H       -5.4180     1.1600     1.6760 H     1 <1>   0.1500 
 35 H        4.6690     2.8780    -0.4180 H     1 <1>   0.0800 
 36 H        3.0580     2.8810    -1.0860 H     1 <1>   0.0800 
 37 H        1.8060     0.5230    -1.2270 H     1 <1>   0.0800 
 38 H        2.6660    -0.8720    -0.6350 H     1 <1>   0.0800 
 39 H       -5.7680     0.9220    -0.7490 H     1 <1>   0.1500 
 40 H       -4.8960     0.9070    -3.0130 H     1 <1>   0.1500 
 41 H       -0.7670     1.5860    -3.7470 H     1 <1>   0.1500 
 42 H       -3.0160     1.1240    -4.5870 H     1 <1>   0.1500 
 43 H        5.3090    -1.5370    -0.3270 H     1 <1>   0.0800 
 44 H        6.6030    -0.3530    -0.5260 H     1 <1>   0.0800 
 45 H        5.9380    -0.0770    -2.7380 H     1 <1>   0.0800 
 46 H        4.5500    -1.1360    -2.4740 H     1 <1>   0.0800 
@<TRIPOS>BOND
  1   1   2  2   
  2   2   3  am  
  3   2   4  1   
  4   3   5  1   
  5   3  25  1   
  6   4   6  1   
  7   4  26  1   
  8   4  27  1   
  9   5   7  ar  
 10   5   8  ar  
 11   6   9  1   
 12   6  10  1   
 13   7  11  ar  
 14   7  12  ar  
 15   8  13  ar  
 16   8  28  1   
 17   9  14  1   
 18   9  29  1   
 19   9  30  1   
 20  10  15  1   
 21  10  31  1   
 22  10  32  1   
 23  11  16  ar  
 24  11  17  ar  
 25  12  18  ar  
 26  12  33  1   
 27  13  16  ar  
 28  13  34  1   
 29  14  19  1   
 30  14  35  1   
 31  14  36  1   
 32  15  19  1   
 33  15  37  1   
 34  15  38  1   
 35  16  39  1   
 36  17  20  ar  
 37  17  40  1   
 38  18  20  ar  
 39  18  41  1   
 40  19  21  1   
 41  19  22  1   
 42  20  42  1   
 43  21  23  1   
 44  22  24  1   
 45  23  24  1   
 46  23  43  1   
 47  23  44  1   
 48  24  45  1   
 49  24  46  1   
@<TRIPOS>SUBSTRUCTURE
  1 ****   3 GROUP 4 **** **** 0

# MOE 2024.06 (io_trps.svl 2023.06)
