@<TRIPOS>MOLECULE
NONAME
32 33 1 0 0 
SMALL
USER_CHARGES


@<TRIPOS>ATOM
  1 S       -0.0500    -0.9000     0.8050 S.o2  1 <1>   1.3330 
  2 O        0.0000    -1.9490    -0.1820 O.2   1 <1>  -0.6500 
  3 O        0.6870    -1.0150     2.0380 O.2   1 <1>  -0.6500 
  4 N       -1.6820    -0.7700     1.3110 N.am  1 <1>  -0.7570 
  5 C        0.2560     0.7030     0.0600 C.3   1 <1>  -0.0550 
  6 C       -2.7600    -0.7360     0.4410 C.ar  1 <1>   0.1990 
  7 C        1.6930     0.8780    -0.4580 C.3   1 <1>  -0.1600 
  8 C       -3.5140     0.4290     0.3370 C.ar  1 <1>  -0.1500 
  9 C       -3.1020    -1.8530    -0.3260 C.ar  1 <1>  -0.1500 
 10 C        1.8950     2.2620    -1.0840 C.3   1 <1>  -0.1600 
 11 C       -4.5840     0.4410    -0.5340 C.ar  1 <1>   0.0820 
 12 C       -4.1830    -1.8250    -1.1970 C.ar  1 <1>  -0.1500 
 13 C        3.3290     2.4280    -1.5960 C.3   1 <1>  -0.2400 
 14 O       -5.4320     1.4420    -0.7900 O.3   1 <1>  -0.3630 
 15 C       -4.9100    -0.6540    -1.2800 C.ar  1 <1>   0.0820 
 16 C       -6.3600     0.9540    -1.7580 C.3   1 <1>   0.4000 
 17 O       -5.9820    -0.3920    -2.0410 O.3   1 <1>  -0.3630 
 18 H       -1.7960    -1.3500     2.1380 H     1 <1>   0.4200 
 19 H        0.0540     1.4670     0.7850 H     1 <1>   0.0800 
 20 H       -0.4250     0.8400    -0.7580 H     1 <1>   0.0800 
 21 H        1.9000     0.1150    -1.1910 H     1 <1>   0.0800 
 22 H        2.3820     0.7470     0.3610 H     1 <1>   0.0800 
 23 H       -3.2760     1.2980     0.9200 H     1 <1>   0.1500 
 24 H       -2.5120    -2.7500    -0.2430 H     1 <1>   0.1500 
 25 H        1.6920     3.0270    -0.3530 H     1 <1>   0.0800 
 26 H        1.2110     2.3940    -1.9060 H     1 <1>   0.0800 
 27 H       -4.4540    -2.6770    -1.7930 H     1 <1>   0.1500 
 28 H        4.0320     2.3230    -0.7880 H     1 <1>   0.0800 
 29 H        3.4540     3.4030    -2.0320 H     1 <1>   0.0800 
 30 H        3.5490     1.6880    -2.3460 H     1 <1>   0.0800 
 31 H       -6.2910     1.5440    -2.6540 H     1 <1>   0.0800 
 32 H       -7.3540     0.9700    -1.3460 H     1 <1>   0.0800 
@<TRIPOS>BOND
  1   1   2  2   
  2   1   3  2   
  3   1   4  am  
  4   1   5  1   
  5   4   6  1   
  6   4  18  1   
  7   5   7  1   
  8   5  19  1   
  9   5  20  1   
 10   6   8  ar  
 11   6   9  ar  
 12   7  10  1   
 13   7  21  1   
 14   7  22  1   
 15   8  11  ar  
 16   8  23  1   
 17   9  12  ar  
 18   9  24  1   
 19  10  13  1   
 20  10  25  1   
 21  10  26  1   
 22  11  14  1   
 23  11  15  ar  
 24  12  15  ar  
 25  12  27  1   
 26  13  28  1   
 27  13  29  1   
 28  13  30  1   
 29  14  16  1   
 30  15  17  1   
 31  16  17  1   
 32  16  31  1   
 33  16  32  1   
@<TRIPOS>SUBSTRUCTURE
  1 ****   6 GROUP 4 **** **** 0

# MOE 2024.06 (io_trps.svl 2023.06)
