@<TRIPOS>MOLECULE
NONAME
35 35 1 0 0 
SMALL
USER_CHARGES


@<TRIPOS>ATOM
  1 S       -0.2340    -0.0410    -0.4430 S.o2  1 <1>   1.4470 
  2 O       -0.7070    -0.3490    -1.7740 O.2   1 <1>  -0.6500 
  3 O       -0.7550    -0.7790     0.6860 O.2   1 <1>  -0.6500 
  4 N       -0.6090     1.5910    -0.2870 N.am  1 <1>  -0.9140 
  5 C        1.5880    -0.0890    -0.3950 C.ar  1 <1>  -0.0090 
  6 C       -1.8710     1.9990     0.2700 C.3   1 <1>   0.3560 
  7 C        2.3220    -1.1570    -0.9200 C.ar  1 <1>  -0.1440 
  8 C        2.2980     0.9480     0.2060 C.ar  1 <1>  -0.1500 
  9 C       -2.0020     3.4750    -0.1020 C.3   1 <1>  -0.2400 
 10 C       -3.0530     1.2370    -0.3360 C.3   1 <1>  -0.2400 
 11 C       -1.8410     1.8880     1.7950 C.3   1 <1>  -0.2400 
 12 C        3.7070    -1.1500    -0.8620 C.ar  1 <1>  -0.1500 
 13 C        1.6340    -2.3540    -1.5650 C.3   1 <1>  -0.0970 
 14 C        3.6800     0.9560     0.2690 C.ar  1 <1>  -0.1430 
 15 C        4.3850    -0.1000    -0.2740 C.ar  1 <1>  -0.1500 
 16 C        4.4110     2.1130     0.9270 C.3   1 <1>  -0.0970 
 17 H       -0.6380     1.8910    -1.2570 H     1 <1>   0.4200 
 18 H        1.7590     1.7730     0.6390 H     1 <1>   0.1500 
 19 H       -1.1770     4.0380     0.2970 H     1 <1>   0.0800 
 20 H       -2.9100     3.8820     0.3050 H     1 <1>   0.0800 
 21 H       -2.0310     3.6010    -1.1690 H     1 <1>   0.0800 
 22 H       -3.0260     1.2770    -1.4100 H     1 <1>   0.0800 
 23 H       -3.9770     1.6740    -0.0060 H     1 <1>   0.0800 
 24 H       -3.0580     0.2090    -0.0220 H     1 <1>   0.0800 
 25 H       -0.9650     2.3700     2.1890 H     1 <1>   0.0800 
 26 H       -1.8530     0.8650     2.1180 H     1 <1>   0.0800 
 27 H       -2.7080     2.3640     2.2160 H     1 <1>   0.0800 
 28 H        4.2720    -1.9680    -1.2750 H     1 <1>   0.1500 
 29 H        1.1970    -2.0680    -2.5050 H     1 <1>   0.0800 
 30 H        0.8620    -2.7380    -0.9220 H     1 <1>   0.0800 
 31 H        2.3350    -3.1490    -1.7490 H     1 <1>   0.0800 
 32 H        5.4600    -0.1120    -0.2400 H     1 <1>   0.1500 
 33 H        3.8400     2.4960     1.7530 H     1 <1>   0.0800 
 34 H        4.5620     2.9010     0.2120 H     1 <1>   0.0800 
 35 H        5.3680     1.7920     1.2980 H     1 <1>   0.0800 
@<TRIPOS>BOND
  1   1   2  2   
  2   1   3  2   
  3   1   4  am  
  4   1   5  1   
  5   4   6  1   
  6   4  17  1   
  7   5   7  ar  
  8   5   8  ar  
  9   6   9  1   
 10   6  10  1   
 11   6  11  1   
 12   7  12  ar  
 13   7  13  1   
 14   8  14  ar  
 15   8  18  1   
 16   9  19  1   
 17   9  20  1   
 18   9  21  1   
 19  10  22  1   
 20  10  23  1   
 21  10  24  1   
 22  11  25  1   
 23  11  26  1   
 24  11  27  1   
 25  12  15  ar  
 26  12  28  1   
 27  13  29  1   
 28  13  30  1   
 29  13  31  1   
 30  14  15  ar  
 31  14  16  1   
 32  15  32  1   
 33  16  33  1   
 34  16  34  1   
 35  16  35  1   
@<TRIPOS>SUBSTRUCTURE
  1 ****   5 GROUP 4 **** **** 0

# MOE 2024.06 (io_trps.svl 2023.06)
