@<TRIPOS>MOLECULE
NONAME
32 33 1 0 0 
SMALL
USER_CHARGES


@<TRIPOS>ATOM
  1 CL       0.2570    -0.1920    -1.0610 Cl    1 <1>  -0.1770 
  2 C        1.5720     0.7990    -0.4720 C.ar  1 <1>   0.1770 
  3 C        1.3240     2.0340     0.1040 C.ar  1 <1>   0.1770 
  4 C        2.8660     0.3290    -0.5910 C.ar  1 <1>  -0.1500 
  5 CL      -0.3090     2.6400     0.2620 Cl    1 <1>  -0.1770 
  6 C        2.3720     2.8110     0.5670 C.ar  1 <1>  -0.1500 
  7 C        3.9240     1.1010    -0.1310 C.ar  1 <1>   0.0830 
  8 C        3.6730     2.3450     0.4500 C.ar  1 <1>  -0.1500 
  9 O        5.1650     0.5750    -0.2810 O.3   1 <1>  -0.3630 
 10 C        6.3190     1.2650     0.1380 C.3   1 <1>   0.1200 
 11 C        7.5240     0.3720    -0.1760 C.3   1 <1>   0.3430 
 12 N        8.8290     0.9900     0.2320 N.4   1 <1>  -0.9590 
 13 C        9.2010     2.2040    -0.5400 C.3   1 <1>   0.3430 
 14 C        9.9670     0.0510     0.0670 C.3   1 <1>   0.3430 
 15 C       10.7030     2.3390    -0.3330 C.3   1 <1>  -0.1600 
 16 C       11.1990     0.9460     0.0650 C.3   1 <1>  -0.1600 
 17 H        3.0480    -0.6300    -1.0400 H     1 <1>   0.1500 
 18 H        2.1640     3.7680     1.0130 H     1 <1>   0.1500 
 19 H        4.4670     2.9670     0.8180 H     1 <1>   0.1500 
 20 H        6.2370     1.4400     1.1970 H     1 <1>   0.0800 
 21 H        6.3670     2.1910    -0.4060 H     1 <1>   0.0800 
 22 H        7.5390     0.1680    -1.2350 H     1 <1>   0.0800 
 23 H        7.3950    -0.5630     0.3460 H     1 <1>   0.0800 
 24 H        8.7980     1.2460     1.2290 H     1 <1>   0.4500 
 25 H        8.6720     3.0790    -0.1980 H     1 <1>   0.0800 
 26 H        8.9980     2.0470    -1.5880 H     1 <1>   0.0800 
 27 H        9.8910    -0.4550    -0.8820 H     1 <1>   0.0800 
 28 H       10.0050    -0.6790     0.8600 H     1 <1>   0.0800 
 29 H       10.9020     3.0480     0.4530 H     1 <1>   0.0800 
 30 H       11.1760     2.6890    -1.2350 H     1 <1>   0.0800 
 31 H       11.9350     0.5710    -0.6240 H     1 <1>   0.0800 
 32 H       11.6350     0.9690     1.0490 H     1 <1>   0.0800 
@<TRIPOS>BOND
  1   1   2  1   
  2   2   3  ar  
  3   2   4  ar  
  4   3   5  1   
  5   3   6  ar  
  6   4   7  ar  
  7   4  17  1   
  8   6   8  ar  
  9   6  18  1   
 10   7   8  ar  
 11   7   9  1   
 12   8  19  1   
 13   9  10  1   
 14  10  11  1   
 15  10  20  1   
 16  10  21  1   
 17  11  12  1   
 18  11  22  1   
 19  11  23  1   
 20  12  13  1   
 21  12  14  1   
 22  12  24  1   
 23  13  15  1   
 24  13  25  1   
 25  13  26  1   
 26  14  16  1   
 27  14  27  1   
 28  14  28  1   
 29  15  16  1   
 30  15  29  1   
 31  15  30  1   
 32  16  31  1   
 33  16  32  1   
@<TRIPOS>SUBSTRUCTURE
  1 ****   9 GROUP 4 **** **** 0

# MOE 2024.06 (io_trps.svl 2023.06)
