@<TRIPOS>MOLECULE
NONAME
34 35 1 0 0 
SMALL
USER_CHARGES


@<TRIPOS>ATOM
  1 F       -1.7040     1.4460     1.7030 F     1 <1>  -0.1900 
  2 C       -0.9760     2.2420     0.9640 C.ar  1 <1>   0.1900 
  3 C       -1.3170     2.4170    -0.3680 C.ar  1 <1>  -0.1440 
  4 C        0.0970     2.8840     1.5510 C.ar  1 <1>  -0.1500 
  5 C       -0.5370     3.2730    -1.1340 C.ar  1 <1>  -0.1500 
  6 C       -2.5060     1.6890    -0.9620 C.3   1 <1>   0.4870 
  7 C        0.8620     3.7370     0.7740 C.ar  1 <1>  -0.1500 
  8 C        0.5440     3.9280    -0.5620 C.ar  1 <1>  -0.1500 
  9 N       -3.7520     2.1420    -0.2860 N.4   1 <1>  -0.9590 
 10 C       -4.8850     1.2400    -0.6220 C.3   1 <1>   0.3430 
 11 C       -4.0170     3.5900    -0.5320 C.3   1 <1>   0.3430 
 12 C       -6.1060     1.4900     0.2660 C.3   1 <1>  -0.1600 
 13 C       -4.7440     4.1900     0.6710 C.3   1 <1>  -0.1600 
 14 C       -6.8360     2.8010    -0.0600 C.3   1 <1>  -0.1600 
 15 C       -6.2740     4.0360     0.6580 C.3   1 <1>  -0.1600 
 16 H        0.3300     2.7210     2.5890 H     1 <1>   0.1500 
 17 H       -0.7530     3.4400    -2.1760 H     1 <1>   0.1500 
 18 H       -2.3730     0.6290    -0.8140 H     1 <1>   0.0800 
 19 H       -2.5660     1.8810    -2.0210 H     1 <1>   0.0800 
 20 H        1.7050     4.2500     1.2060 H     1 <1>   0.1500 
 21 H        1.1470     4.5910    -1.1600 H     1 <1>   0.1500 
 22 H       -3.5640     2.0430     0.7220 H     1 <1>   0.4500 
 23 H       -4.5740     0.2160    -0.4850 H     1 <1>   0.0800 
 24 H       -5.1630     1.3660    -1.6560 H     1 <1>   0.0800 
 25 H       -4.5900     3.7320    -1.4340 H     1 <1>   0.0800 
 26 H       -3.0800     4.1120    -0.6430 H     1 <1>   0.0800 
 27 H       -5.8420     1.4400     1.3090 H     1 <1>   0.0800 
 28 H       -6.7950     0.6840     0.0810 H     1 <1>   0.0800 
 29 H       -4.5270     5.2440     0.6970 H     1 <1>   0.0800 
 30 H       -4.3410     3.7760     1.5790 H     1 <1>   0.0800 
 31 H       -7.8680     2.6990     0.2330 H     1 <1>   0.0800 
 32 H       -6.8360     2.9640    -1.1250 H     1 <1>   0.0800 
 33 H       -6.7060     4.9070     0.1930 H     1 <1>   0.0800 
 34 H       -6.6200     4.0330     1.6780 H     1 <1>   0.0800 
@<TRIPOS>BOND
  1   1   2  1   
  2   2   3  ar  
  3   2   4  ar  
  4   3   5  ar  
  5   3   6  1   
  6   4   7  ar  
  7   4  16  1   
  8   5   8  ar  
  9   5  17  1   
 10   6   9  1   
 11   6  18  1   
 12   6  19  1   
 13   7   8  ar  
 14   7  20  1   
 15   8  21  1   
 16   9  10  1   
 17   9  11  1   
 18   9  22  1   
 19  10  12  1   
 20  10  23  1   
 21  10  24  1   
 22  11  13  1   
 23  11  25  1   
 24  11  26  1   
 25  12  14  1   
 26  12  27  1   
 27  12  28  1   
 28  13  15  1   
 29  13  29  1   
 30  13  30  1   
 31  14  15  1   
 32  14  31  1   
 33  14  32  1   
 34  15  33  1   
 35  15  34  1   
@<TRIPOS>SUBSTRUCTURE
  1 ****   9 GROUP 4 **** **** 0

# MOE 2024.06 (io_trps.svl 2023.06)
