@<TRIPOS>MOLECULE
NONAME
31 31 1 0 0 
SMALL
USER_CHARGES


@<TRIPOS>ATOM
  1 S       -0.2350     0.1410     0.4530 S.o2  1 <1>   1.4470 
  2 O       -0.8730     0.6450     1.6490 O.2   1 <1>  -0.6500 
  3 O       -0.0760    -1.2810     0.2630 O.2   1 <1>  -0.6500 
  4 N       -1.1250     0.6200    -0.8870 N.am  1 <1>  -0.9140 
  5 C        1.3490     0.9860     0.2100 C.ar  1 <1>  -0.0090 
  6 C       -2.6010     0.6500    -0.8080 C.3   1 <1>   0.3370 
  7 C        1.3970     2.3490    -0.0640 C.ar  1 <1>  -0.1500 
  8 C        2.5560     0.3000     0.3020 C.ar  1 <1>  -0.1500 
  9 C       -3.2380     1.9200    -0.1790 C.2   1 <1>   0.5690 
 10 C       -3.1650    -0.6510    -0.2220 C.3   1 <1>  -0.2400 
 11 C        2.6030     3.0020    -0.2450 C.ar  1 <1>  -0.1500 
 12 C        3.7690     0.9440     0.1220 C.ar  1 <1>  -0.1500 
 13 O       -4.0310     2.5560    -0.8280 O.2   1 <1>  -0.5700 
 14 N       -2.9480     2.3270     1.0730 N.am  1 <1>  -0.8000 
 15 C        3.7970     2.3070    -0.1540 C.ar  1 <1>   0.0830 
 16 O        4.9340     3.0170    -0.3440 O.3   1 <1>  -0.3630 
 17 C        6.2040     2.4090    -0.2680 C.3   1 <1>   0.0400 
 18 H       -0.8910    -0.0940    -1.5740 H     1 <1>   0.4200 
 19 H       -2.9370     0.6750    -1.8310 H     1 <1>   0.0800 
 20 H        0.4770     2.9060    -0.1380 H     1 <1>   0.1500 
 21 H        2.5470    -0.7560     0.5160 H     1 <1>   0.1500 
 22 H       -2.9840    -0.7150     0.8360 H     1 <1>   0.0800 
 23 H       -2.7410    -1.5090    -0.7140 H     1 <1>   0.0800 
 24 H       -4.2300    -0.6710    -0.3700 H     1 <1>   0.0800 
 25 H        2.6270     4.0560    -0.4580 H     1 <1>   0.1500 
 26 H        4.6750     0.3730     0.2020 H     1 <1>   0.1500 
 27 H       -3.3740     3.1680     1.4600 H     1 <1>   0.3700 
 28 H       -2.2530     1.8390     1.6570 H     1 <1>   0.3700 
 29 H        6.9470     3.1650    -0.4500 H     1 <1>   0.0800 
 30 H        6.2700     1.6430    -1.0210 H     1 <1>   0.0800 
 31 H        6.3350     1.9970     0.7160 H     1 <1>   0.0800 
@<TRIPOS>BOND
  1   1   2  2   
  2   1   3  2   
  3   1   4  am  
  4   1   5  1   
  5   4   6  1   
  6   4  18  1   
  7   5   7  ar  
  8   5   8  ar  
  9   6   9  1   
 10   6  10  1   
 11   6  19  1   
 12   7  11  ar  
 13   7  20  1   
 14   8  12  ar  
 15   8  21  1   
 16   9  13  2   
 17   9  14  am  
 18  10  22  1   
 19  10  23  1   
 20  10  24  1   
 21  11  15  ar  
 22  11  25  1   
 23  12  15  ar  
 24  12  26  1   
 25  14  27  1   
 26  14  28  1   
 27  15  16  1   
 28  16  17  1   
 29  17  29  1   
 30  17  30  1   
 31  17  31  1   
@<TRIPOS>SUBSTRUCTURE
  1 ****   5 GROUP 4 **** **** 0

# MOE 2024.06 (io_trps.svl 2023.06)
