@<TRIPOS>MOLECULE
NONAME
38 40 1 0 0 
SMALL
USER_CHARGES


@<TRIPOS>ATOM
  1 F        0.5660    -1.0710     0.5360 F     1 <1>  -0.1900 
  2 C        1.8230    -0.8690     0.2350 C.ar  1 <1>   0.1900 
  3 C        2.7820    -1.6970     0.7860 C.ar  1 <1>  -0.1500 
  4 C        2.1450     0.1650    -0.6240 C.ar  1 <1>  -0.1500 
  5 C        4.1090    -1.4760     0.4610 C.ar  1 <1>  -0.1500 
  6 C        3.4780     0.3720    -0.9400 C.ar  1 <1>  -0.1500 
  7 C        4.4710    -0.4440    -0.4010 C.ar  1 <1>   0.1170 
  8 N        5.8290    -0.2890    -0.6930 N.am  1 <1>  -0.5470 
  9 C        6.5820     0.8180    -0.9600 C.2   1 <1>   0.5690 
 10 O        6.0600     1.8970    -1.1350 O.2   1 <1>  -0.5700 
 11 C        8.1130     0.6810    -1.1630 C.3   1 <1>  -0.0190 
 12 C        8.9570    -0.2330    -0.1970 C.3   1 <1>  -0.1860 
 13 C        8.8210     2.0670    -1.2640 C.3   1 <1>  -0.0800 
 14 C        8.1850    -1.1830     0.7100 C.2   1 <1>   0.9060 
 15 C       10.0460     0.5980     0.5330 C.3   1 <1>  -0.0800 
 16 C       10.3030     1.8580    -1.6470 C.3   1 <1>  -0.1600 
 17 C        8.7920     2.7600     0.1160 C.3   1 <1>  -0.1600 
 18 O        8.0970    -0.9960     1.9240 O.co2 1 <1>  -0.9000 
 19 O        7.6190    -2.1390     0.1640 O.co2 1 <1>  -0.9000 
 20 C       11.0480     1.0960    -0.5280 C.3   1 <1>  -0.1600 
 21 C        9.3970     1.8330     1.1900 C.3   1 <1>  -0.1600 
 22 H        2.5010    -2.4910     1.4530 H     1 <1>   0.1500 
 23 H        1.3740     0.7910    -1.0330 H     1 <1>   0.1500 
 24 H        4.8860    -2.0980     0.8780 H     1 <1>   0.1500 
 25 H        3.7530     1.1680    -1.6060 H     1 <1>   0.1500 
 26 H        6.3940    -1.1260    -0.4520 H     1 <1>   0.3700 
 27 H        8.1930     0.2290    -2.1340 H     1 <1>   0.0800 
 28 H        9.4950    -0.9130    -0.8310 H     1 <1>   0.0800 
 29 H        8.3390     2.6850    -2.0030 H     1 <1>   0.0800 
 30 H       10.5450    -0.0040     1.2750 H     1 <1>   0.0800 
 31 H       10.7750     2.8110    -1.8100 H     1 <1>   0.0800 
 32 H       10.3600     1.3020    -2.5660 H     1 <1>   0.0800 
 33 H        7.7840     3.0170     0.3920 H     1 <1>   0.0800 
 34 H        9.3550     3.6760     0.0690 H     1 <1>   0.0800 
 35 H       11.5840     0.2630    -0.9470 H     1 <1>   0.0800 
 36 H       11.7670     1.7460    -0.0590 H     1 <1>   0.0800 
 37 H       10.1280     2.3690     1.7680 H     1 <1>   0.0800 
 38 H        8.6230     1.5110     1.8660 H     1 <1>   0.0800 
@<TRIPOS>BOND
  1   1   2  1   
  2   2   3  ar  
  3   2   4  ar  
  4   3   5  ar  
  5   3  22  1   
  6   4   6  ar  
  7   4  23  1   
  8   5   7  ar  
  9   5  24  1   
 10   6   7  ar  
 11   6  25  1   
 12   7   8  1   
 13   8   9  am  
 14   8  26  1   
 15   9  10  2   
 16   9  11  1   
 17  11  12  1   
 18  11  13  1   
 19  11  27  1   
 20  12  14  1   
 21  12  15  1   
 22  12  28  1   
 23  13  16  1   
 24  13  17  1   
 25  13  29  1   
 26  14  18  ar  
 27  14  19  ar  
 28  15  20  1   
 29  15  21  1   
 30  15  30  1   
 31  16  20  1   
 32  16  31  1   
 33  16  32  1   
 34  17  21  1   
 35  17  33  1   
 36  17  34  1   
 37  20  35  1   
 38  20  36  1   
 39  21  37  1   
 40  21  38  1   
@<TRIPOS>SUBSTRUCTURE
  1 ****   8 GROUP 4 **** **** 0

# MOE 2024.06 (io_trps.svl 2023.06)
