@<TRIPOS>MOLECULE
NONAME
54 56 1 0 0 
SMALL
USER_CHARGES


@<TRIPOS>ATOM
  1 S        1.1930     0.2240    -0.9280 S.o2  1 <1>   1.4470 
  2 O        1.0230     0.4670    -2.3450 O.2   1 <1>  -0.6500 
  3 O        1.1390     1.3340    -0.0030 O.2   1 <1>  -0.6500 
  4 N        2.7210    -0.4950    -0.7470 N.am  1 <1>  -0.8490 
  5 C        0.0510    -1.0720    -0.3660 C.ar  1 <1>  -0.0090 
  6 C        3.7820     0.5130    -0.8190 C.3   1 <1>   0.1960 
  7 C        2.9440    -1.5570    -1.7320 C.3   1 <1>   0.1960 
  8 C        0.0450    -1.4810     0.9660 C.ar  1 <1>  -0.1500 
  9 C       -0.8290    -1.6920    -1.2530 C.ar  1 <1>  -0.1500 
 10 C        5.1310    -0.1230    -0.4730 C.3   1 <1>  -0.1600 
 11 C        4.2500    -2.2890    -1.4160 C.3   1 <1>  -0.1600 
 12 C       -0.8090    -2.4780     1.4100 C.ar  1 <1>  -0.1500 
 13 C       -1.6900    -2.6920    -0.8290 C.ar  1 <1>  -0.1500 
 14 C        5.4430    -1.3160    -1.3960 C.3   1 <1>  -0.0190 
 15 C       -1.6630    -3.0670     0.4990 C.ar  1 <1>   0.1900 
 16 C        6.7410    -2.0240    -1.0170 C.2   1 <1>   0.5690 
 17 F       -2.4690    -4.0090     0.9060 F     1 <1>  -0.1900 
 18 O        7.6310    -2.0970    -1.8280 O.2   1 <1>  -0.5700 
 19 N        6.8800    -2.5530     0.2290 N.am  1 <1>  -0.7300 
 20 C        7.8770    -3.5930     0.6380 C.3   1 <1>   0.1400 
 21 C        9.3280    -3.3910     0.1350 C.3   1 <1>   0.3430 
 22 N       10.0220    -2.1860     0.7020 N.4   1 <1>  -0.9590 
 23 C        9.5680    -0.8980     0.0720 C.3   1 <1>   0.3430 
 24 C       11.5150    -2.2920     0.6030 C.3   1 <1>   0.3430 
 25 C       10.4100     0.3080     0.5450 C.3   1 <1>   0.1200 
 26 C       12.2140    -1.0490     1.2050 C.3   1 <1>   0.1200 
 27 O       11.2860    -0.0630     1.5740 O.3   1 <1>  -0.5600 
 28 H        3.5860     1.3040    -0.1130 H     1 <1>   0.0800 
 29 H        3.8110     0.9470    -1.8070 H     1 <1>   0.0800 
 30 H        2.9850    -1.1390    -2.7270 H     1 <1>   0.0800 
 31 H        2.1320    -2.2640    -1.7000 H     1 <1>   0.0800 
 32 H        0.7180    -1.0070     1.6620 H     1 <1>   0.1500 
 33 H       -0.8410    -1.3880    -2.2870 H     1 <1>   0.1500 
 34 H        5.0980    -0.4380     0.5550 H     1 <1>   0.0800 
 35 H        5.9030     0.6200    -0.5670 H     1 <1>   0.0800 
 36 H        4.4180    -3.0480    -2.1600 H     1 <1>   0.0800 
 37 H        4.1440    -2.7780    -0.4640 H     1 <1>   0.0800 
 38 H       -0.8160    -2.7920     2.4380 H     1 <1>   0.1500 
 39 H       -2.3710    -3.1700    -1.5110 H     1 <1>   0.1500 
 40 H        5.5670    -0.9330    -2.3950 H     1 <1>   0.0800 
 41 H        6.0650    -2.4810     0.8490 H     1 <1>   0.3700 
 42 H        7.5290    -4.5410     0.2640 H     1 <1>   0.0800 
 43 H        7.8890    -3.6630     1.7120 H     1 <1>   0.0800 
 44 H        9.3300    -3.3440    -0.9420 H     1 <1>   0.0800 
 45 H        9.8860    -4.2690     0.4140 H     1 <1>   0.0800 
 46 H        9.8110    -2.0830     1.7050 H     1 <1>   0.4500 
 47 H        8.5360    -0.7160     0.3200 H     1 <1>   0.0800 
 48 H        9.6270    -0.9700    -1.0020 H     1 <1>   0.0800 
 49 H       11.8040    -2.3840    -0.4310 H     1 <1>   0.0800 
 50 H       11.8620    -3.1730     1.1170 H     1 <1>   0.0800 
 51 H        9.7670     1.0850     0.9220 H     1 <1>   0.0800 
 52 H       10.9850     0.7140    -0.2690 H     1 <1>   0.0800 
 53 H       12.9070    -0.6240     0.5000 H     1 <1>   0.0800 
 54 H       12.7630    -1.3250     2.0890 H     1 <1>   0.0800 
@<TRIPOS>BOND
  1   1   2  2   
  2   1   3  2   
  3   1   4  am  
  4   1   5  1   
  5   4   6  1   
  6   4   7  1   
  7   5   8  ar  
  8   5   9  ar  
  9   6  10  1   
 10   6  28  1   
 11   6  29  1   
 12   7  11  1   
 13   7  30  1   
 14   7  31  1   
 15   8  12  ar  
 16   8  32  1   
 17   9  13  ar  
 18   9  33  1   
 19  10  14  1   
 20  10  34  1   
 21  10  35  1   
 22  11  14  1   
 23  11  36  1   
 24  11  37  1   
 25  12  15  ar  
 26  12  38  1   
 27  13  15  ar  
 28  13  39  1   
 29  14  16  1   
 30  14  40  1   
 31  15  17  1   
 32  16  18  2   
 33  16  19  am  
 34  19  20  1   
 35  19  41  1   
 36  20  21  1   
 37  20  42  1   
 38  20  43  1   
 39  21  22  1   
 40  21  44  1   
 41  21  45  1   
 42  22  23  1   
 43  22  24  1   
 44  22  46  1   
 45  23  25  1   
 46  23  47  1   
 47  23  48  1   
 48  24  26  1   
 49  24  49  1   
 50  24  50  1   
 51  25  27  1   
 52  25  51  1   
 53  25  52  1   
 54  26  27  1   
 55  26  53  1   
 56  26  54  1   
@<TRIPOS>SUBSTRUCTURE
  1 ****  14 GROUP 4 **** **** 0

# MOE 2024.06 (io_trps.svl 2023.06)
