@<TRIPOS>MOLECULE
NONAME
44 45 1 0 0 
SMALL
USER_CHARGES


@<TRIPOS>ATOM
  1 S        0.3590     0.3610    -1.6570 S.o2  1 <1>   1.4470 
  2 O        0.0100    -0.9520    -1.1520 O.2   1 <1>  -0.6500 
  3 O        0.5300     0.4970    -3.0890 O.2   1 <1>  -0.6500 
  4 N        1.8590     0.7330    -0.9540 N.am  1 <1>  -0.8490 
  5 C       -0.7900     1.5620    -0.9230 C.ar  1 <1>  -0.0090 
  6 C        2.7900    -0.3970    -1.0870 C.3   1 <1>   0.1960 
  7 C        2.4460     1.9610    -1.4910 C.3   1 <1>   0.1960 
  8 C       -1.0770     2.7930    -1.5110 C.ar  1 <1>   0.0830 
  9 C       -1.4020     1.2630     0.2900 C.ar  1 <1>  -0.1500 
 10 C        4.2340    -0.0290    -0.7050 C.3   1 <1>  -0.1600 
 11 C        3.6280     2.4100    -0.6190 C.3   1 <1>  -0.1600 
 12 O       -0.4660     3.1050    -2.6810 O.3   1 <1>  -0.3620 
 13 C       -1.9650     3.6760    -0.9000 C.ar  1 <1>  -0.1500 
 14 C       -2.2830     2.1360     0.9050 C.ar  1 <1>  -0.1430 
 15 C        4.3030     1.2500     0.1440 C.3   1 <1>  -0.0190 
 16 C       -0.9490     4.1190    -3.5330 C.3   1 <1>   0.0400 
 17 C       -2.5640     3.3470     0.3000 C.ar  1 <1>  -0.1500 
 18 C       -2.9320     1.7590     2.2250 C.3   1 <1>  -0.0970 
 19 C        5.7320     1.5940     0.5570 C.2   1 <1>   0.5690 
 20 O        6.5790     1.7240    -0.2940 O.2   1 <1>  -0.5700 
 21 N        6.0110     1.7460     1.8790 N.am  1 <1>  -0.7300 
 22 C        7.3470     2.0760     2.4390 C.3   1 <1>   0.0600 
 23 H        2.7770    -0.7680    -2.1000 H     1 <1>   0.0800 
 24 H        2.4500    -1.1930    -0.4450 H     1 <1>   0.0800 
 25 H        1.7170     2.7510    -1.5130 H     1 <1>   0.0800 
 26 H        2.7760     1.7860    -2.5030 H     1 <1>   0.0800 
 27 H       -1.1840     0.3190     0.7610 H     1 <1>   0.1500 
 28 H        4.8040     0.1170    -1.6070 H     1 <1>   0.0800 
 29 H        4.6840    -0.8520    -0.1780 H     1 <1>   0.0800 
 30 H        3.2880     3.1430     0.0890 H     1 <1>   0.0800 
 31 H        4.3450     2.8950    -1.2590 H     1 <1>   0.0800 
 32 H       -2.1980     4.6280    -1.3390 H     1 <1>   0.1500 
 33 H        3.7300     1.0680     1.0370 H     1 <1>   0.0800 
 34 H       -0.4030     4.0640    -4.4580 H     1 <1>   0.0800 
 35 H       -0.7860     5.0760    -3.0700 H     1 <1>   0.0800 
 36 H       -1.9960     3.9520    -3.7190 H     1 <1>   0.0800 
 37 H       -3.2500     4.0370     0.7620 H     1 <1>   0.1500 
 38 H       -2.2210     1.2630     2.8610 H     1 <1>   0.0800 
 39 H       -3.7590     1.0960     2.0460 H     1 <1>   0.0800 
 40 H       -3.2930     2.6330     2.7360 H     1 <1>   0.0800 
 41 H        5.2580     1.6340     2.5610 H     1 <1>   0.3700 
 42 H        8.0710     2.1750     1.6480 H     1 <1>   0.0800 
 43 H        7.6670     1.2940     3.1050 H     1 <1>   0.0800 
 44 H        7.2960     3.0060     2.9790 H     1 <1>   0.0800 
@<TRIPOS>BOND
  1   1   2  2   
  2   1   3  2   
  3   1   4  am  
  4   1   5  1   
  5   4   6  1   
  6   4   7  1   
  7   5   8  ar  
  8   5   9  ar  
  9   6  10  1   
 10   6  23  1   
 11   6  24  1   
 12   7  11  1   
 13   7  25  1   
 14   7  26  1   
 15   8  12  1   
 16   8  13  ar  
 17   9  14  ar  
 18   9  27  1   
 19  10  15  1   
 20  10  28  1   
 21  10  29  1   
 22  11  15  1   
 23  11  30  1   
 24  11  31  1   
 25  12  16  1   
 26  13  17  ar  
 27  13  32  1   
 28  14  17  ar  
 29  14  18  1   
 30  15  19  1   
 31  15  33  1   
 32  16  34  1   
 33  16  35  1   
 34  16  36  1   
 35  17  37  1   
 36  18  38  1   
 37  18  39  1   
 38  18  40  1   
 39  19  20  2   
 40  19  21  am  
 41  21  22  1   
 42  21  41  1   
 43  22  42  1   
 44  22  43  1   
 45  22  44  1   
@<TRIPOS>SUBSTRUCTURE
  1 ****   4 GROUP 4 **** **** 0

# MOE 2024.06 (io_trps.svl 2023.06)
