@<TRIPOS>MOLECULE
NONAME
43 43 1 0 0 
SMALL
USER_CHARGES


@<TRIPOS>ATOM
  1 N       -0.1330     0.2370    -0.3290 N.4   1 <1>  -0.9590 
  2 C        1.1660    -0.5120    -0.2330 C.3   1 <1>   0.3430 
  3 C       -1.2870    -0.7020    -0.0600 C.3   1 <1>   0.3430 
  4 C       -0.2220     0.9450    -1.6430 C.3   1 <1>   0.3430 
  5 C        2.3630     0.4320    -0.0280 C.3   1 <1>  -0.0800 
  6 C       -2.6790    -0.0150     0.0770 C.3   1 <1>   0.3430 
  7 C       -0.6960     2.3710    -1.4000 C.3   1 <1>  -0.2400 
  8 C        3.6630    -0.3980    -0.0230 C.3   1 <1>  -0.0220 
  9 C        2.2560     1.2700     1.2680 C.3   1 <1>  -0.1600 
 10 N       -3.8060    -0.9440     0.4690 N.4   1 <1>  -0.9590 
 11 C        4.8500     0.4440     0.4030 C.2   1 <1>  -0.2880 
 12 C        3.4190     2.2690     1.3880 C.3   1 <1>  -0.0220 
 13 C       -4.1210    -1.9860    -0.5680 C.3   1 <1>   0.2630 
 14 C       -5.0540    -0.1550     0.7520 C.3   1 <1>   0.2630 
 15 C        4.7410     1.6240     1.0170 C.2   1 <1>  -0.2880 
 16 H       -0.0760     0.9600     0.4030 H     1 <1>   0.4500 
 17 H        1.3210    -1.0970    -1.1250 H     1 <1>   0.0800 
 18 H        1.1330    -1.1910     0.6050 H     1 <1>   0.0800 
 19 H       -1.0870    -1.2300     0.8580 H     1 <1>   0.0800 
 20 H       -1.3360    -1.4280    -0.8550 H     1 <1>   0.0800 
 21 H       -0.8930     0.4310    -2.3120 H     1 <1>   0.0800 
 22 H        0.7480     0.9820    -2.1150 H     1 <1>   0.0800 
 23 H        2.4330     1.1090    -0.8620 H     1 <1>   0.0800 
 24 H       -2.9280     0.4550    -0.8600 H     1 <1>   0.0800 
 25 H       -2.5990     0.7570     0.8240 H     1 <1>   0.0800 
 26 H       -1.6750     2.4050    -0.9600 H     1 <1>   0.0800 
 27 H       -0.7430     2.8880    -2.3430 H     1 <1>   0.0800 
 28 H        0.0010     2.9030    -0.7760 H     1 <1>   0.0800 
 29 H        3.8480    -0.7830    -1.0120 H     1 <1>   0.0800 
 30 H        3.5850    -1.2320     0.6530 H     1 <1>   0.0800 
 31 H        2.2900     0.6100     2.1190 H     1 <1>   0.0800 
 32 H        1.3390     1.8260     1.3120 H     1 <1>   0.0800 
 33 H       -3.5720    -1.4330     1.3510 H     1 <1>   0.4500 
 34 H        5.8030    -0.0040     0.1670 H     1 <1>   0.1500 
 35 H        3.4710     2.6340     2.4000 H     1 <1>   0.0800 
 36 H        3.2550     3.1130     0.7400 H     1 <1>   0.0800 
 37 H       -4.4060    -1.5210    -1.4990 H     1 <1>   0.0800 
 38 H       -4.9410    -2.6050    -0.2360 H     1 <1>   0.0800 
 39 H       -3.2700    -2.6240    -0.7440 H     1 <1>   0.0800 
 40 H       -5.3790     0.3710    -0.1310 H     1 <1>   0.0800 
 41 H       -4.8780     0.5650     1.5360 H     1 <1>   0.0800 
 42 H       -5.8490    -0.8110     1.0690 H     1 <1>   0.0800 
 43 H        5.5970     2.2160     1.2990 H     1 <1>   0.1500 
@<TRIPOS>BOND
  1   1   2  1   
  2   1   3  1   
  3   1   4  1   
  4   1  16  1   
  5   2   5  1   
  6   2  17  1   
  7   2  18  1   
  8   3   6  1   
  9   3  19  1   
 10   3  20  1   
 11   4   7  1   
 12   4  21  1   
 13   4  22  1   
 14   5   8  1   
 15   5   9  1   
 16   5  23  1   
 17   6  10  1   
 18   6  24  1   
 19   6  25  1   
 20   7  26  1   
 21   7  27  1   
 22   7  28  1   
 23   8  11  1   
 24   8  29  1   
 25   8  30  1   
 26   9  12  1   
 27   9  31  1   
 28   9  32  1   
 29  10  13  1   
 30  10  14  1   
 31  10  33  1   
 32  11  15  2   
 33  11  34  1   
 34  12  15  1   
 35  12  35  1   
 36  12  36  1   
 37  13  37  1   
 38  13  38  1   
 39  13  39  1   
 40  14  40  1   
 41  14  41  1   
 42  14  42  1   
 43  15  43  1   
@<TRIPOS>SUBSTRUCTURE
  1 ****   1 GROUP 4 **** **** 0

# MOE 2024.06 (io_trps.svl 2023.06)
