@<TRIPOS>MOLECULE
NONAME
40 41 1 0 0 
SMALL
USER_CHARGES


@<TRIPOS>ATOM
  1 CL      -0.1890     0.7110    -0.3800 Cl    1 <1>  -0.1770 
  2 C        0.6780     2.2260    -0.4940 C.ar  1 <1>   0.1770 
  3 C       -0.0110     3.4280    -0.4200 C.ar  1 <1>   0.0830 
  4 C        2.0530     2.1850    -0.6410 C.ar  1 <1>  -0.1500 
  5 O       -1.3590     3.3970    -0.2450 O.3   1 <1>  -0.3630 
  6 C        0.7180     4.6160    -0.5270 C.ar  1 <1>   0.0830 
  7 C        2.7750     3.3690    -0.7170 C.ar  1 <1>  -0.1440 
  8 C       -1.9050     4.1030     0.8650 C.3   1 <1>   0.1810 
  9 O        0.1320     5.8340    -0.4960 O.3   1 <1>  -0.3630 
 10 C        2.0960     4.5790    -0.6630 C.ar  1 <1>  -0.1500 
 11 C        4.2830     3.3470    -0.8540 C.3   1 <1>   0.4870 
 12 C       -3.1980     3.4550     1.3490 C.2   1 <1>   0.5690 
 13 C       -0.6240     6.1980    -1.6310 C.3   1 <1>   0.1200 
 14 N        4.8430     3.4820     0.5050 N.4   1 <1>  -0.7990 
 15 O       -3.9140     4.0600     2.1060 O.2   1 <1>  -0.5700 
 16 N       -3.5370     2.2130     0.9460 N.am  1 <1>  -0.8000 
 17 C       -1.2180     7.5790    -1.3780 C.3   1 <1>  -0.2400 
 18 C        6.3090     3.5040     0.5210 C.3   1 <1>   0.2960 
 19 C        7.0290     2.2000     0.5580 C.3   1 <1>  -0.2000 
 20 C        6.9910     3.0790     1.7750 C.3   1 <1>  -0.2000 
 21 H        2.5320     1.2210    -0.6930 H     1 <1>   0.1500 
 22 H       -2.1050     5.1140     0.5640 H     1 <1>   0.0800 
 23 H       -1.1910     4.1020     1.6670 H     1 <1>   0.0800 
 24 H        2.6170     5.5200    -0.7330 H     1 <1>   0.1500 
 25 H        4.6080     4.1650    -1.4780 H     1 <1>   0.0800 
 26 H        4.6040     2.4200    -1.3020 H     1 <1>   0.0800 
 27 H       -1.4030     5.4710    -1.7840 H     1 <1>   0.0800 
 28 H        0.0300     6.2120    -2.4860 H     1 <1>   0.0800 
 29 H        4.5050     2.7020     1.0780 H     1 <1>   0.4500 
 30 H        4.4680     4.3360     0.9330 H     1 <1>   0.4500 
 31 H       -4.4050     1.7850     1.2670 H     1 <1>   0.3700 
 32 H       -2.9650     1.6820     0.2860 H     1 <1>   0.3700 
 33 H       -1.8630     7.5550    -0.5180 H     1 <1>   0.0800 
 34 H       -1.7980     7.8860    -2.2300 H     1 <1>   0.0800 
 35 H       -0.4350     8.2990    -1.2210 H     1 <1>   0.0800 
 36 H        6.7430     4.3200    -0.0400 H     1 <1>   0.1000 
 37 H        7.9720     2.1060     0.0460 H     1 <1>   0.1000 
 38 H        6.4860     1.2710     0.5870 H     1 <1>   0.1000 
 39 H        6.4180     2.7510     2.6250 H     1 <1>   0.1000 
 40 H        7.9060     3.5670     2.0640 H     1 <1>   0.1000 
@<TRIPOS>BOND
  1   1   2  1   
  2   2   3  ar  
  3   2   4  ar  
  4   3   5  1   
  5   3   6  ar  
  6   4   7  ar  
  7   4  21  1   
  8   5   8  1   
  9   6   9  1   
 10   6  10  ar  
 11   7  10  ar  
 12   7  11  1   
 13   8  12  1   
 14   8  22  1   
 15   8  23  1   
 16   9  13  1   
 17  10  24  1   
 18  11  14  1   
 19  11  25  1   
 20  11  26  1   
 21  12  15  2   
 22  12  16  am  
 23  13  17  1   
 24  13  27  1   
 25  13  28  1   
 26  14  18  1   
 27  14  29  1   
 28  14  30  1   
 29  16  31  1   
 30  16  32  1   
 31  17  33  1   
 32  17  34  1   
 33  17  35  1   
 34  18  19  1   
 35  18  20  1   
 36  18  36  1   
 37  19  20  1   
 38  19  37  1   
 39  19  38  1   
 40  20  39  1   
 41  20  40  1   
@<TRIPOS>SUBSTRUCTURE
  1 ****   6 GROUP 4 **** **** 0

# MOE 2024.06 (io_trps.svl 2023.06)
