@<TRIPOS>MOLECULE
NONAME
44 44 1 0 0 
SMALL
USER_CHARGES


@<TRIPOS>ATOM
  1 O      -12.1140     1.0330     0.0000 O.3   1 <1>  -0.3630 
  2 C      -13.3500     0.4720     0.0190 C.ar  1 <1>   0.0830 
  3 C      -10.9530     0.2470     0.1510 C.3   1 <1>   0.1200 
  4 C      -14.4250     1.3320    -0.1330 C.ar  1 <1>  -0.1500 
  5 C      -13.5810    -0.8910     0.1810 C.ar  1 <1>  -0.1500 
  6 C       -9.7450     1.1780     0.0870 C.3   1 <1>   0.1200 
  7 C      -15.7230     0.8490    -0.1250 C.ar  1 <1>  -0.1440 
  8 C      -14.8750    -1.3830     0.1890 C.ar  1 <1>  -0.1440 
  9 O       -8.5800     0.4200     0.2380 O.3   1 <1>  -0.5600 
 10 C      -15.9410    -0.5090     0.0380 C.ar  1 <1>  -0.1500 
 11 C      -16.9000     1.7930    -0.2890 C.3   1 <1>  -0.0970 
 12 C      -15.1300    -2.8690     0.3670 C.3   1 <1>  -0.0970 
 13 C       -7.4090     1.1630     0.1990 C.3   1 <1>   0.1200 
 14 C       -6.2450     0.1830     0.3760 C.3   1 <1>   0.3430 
 15 N       -4.9220     0.8810     0.3620 N.4   1 <1>  -0.9060 
 16 C       -3.7840    -0.0270     0.5580 C.3   1 <1>   0.4230 
 17 C       -2.5670     0.8320     0.8730 C.3   1 <1>  -0.2400 
 18 C       -3.5590    -0.8390    -0.7140 C.3   1 <1>  -0.2400 
 19 H      -10.9220    -0.4680    -0.6520 H     1 <1>   0.0800 
 20 H      -11.0000    -0.2450     1.1060 H     1 <1>   0.0800 
 21 H      -14.2340     2.3820    -0.2550 H     1 <1>   0.1500 
 22 H      -12.7680    -1.5800     0.3020 H     1 <1>   0.1500 
 23 H       -9.7980     1.8990     0.8850 H     1 <1>   0.0800 
 24 H       -9.7180     1.6740    -0.8680 H     1 <1>   0.0800 
 25 H      -16.9470    -0.8880     0.0480 H     1 <1>   0.1500 
 26 H      -16.5780     2.7370    -0.6890 H     1 <1>   0.0800 
 27 H      -17.3660     1.9610     0.6650 H     1 <1>   0.0800 
 28 H      -17.6240     1.3680    -0.9620 H     1 <1>   0.0800 
 29 H      -14.3090    -3.4430    -0.0240 H     1 <1>   0.0800 
 30 H      -16.0250    -3.1610    -0.1530 H     1 <1>   0.0800 
 31 H      -15.2460    -3.0940     1.4120 H     1 <1>   0.0800 
 32 H       -7.4370     1.8800     1.0020 H     1 <1>   0.0800 
 33 H       -7.3540     1.6590    -0.7550 H     1 <1>   0.0800 
 34 H       -6.2850    -0.5410    -0.4210 H     1 <1>   0.0800 
 35 H       -6.3720    -0.3340     1.3130 H     1 <1>   0.0800 
 36 H       -4.8960     1.5880     1.1060 H     1 <1>   0.4500 
 37 H       -4.7870     1.3720    -0.5290 H     1 <1>   0.4500 
 38 H       -3.9760    -0.6900     1.3880 H     1 <1>   0.0800 
 39 H       -2.3420     1.5070     0.0650 H     1 <1>   0.0800 
 40 H       -1.7100     0.1990     1.0220 H     1 <1>   0.0800 
 41 H       -2.7170     1.3910     1.7790 H     1 <1>   0.0800 
 42 H       -3.3850    -0.2000    -1.5620 H     1 <1>   0.0800 
 43 H       -4.3920    -1.4870    -0.9170 H     1 <1>   0.0800 
 44 H       -2.6920    -1.4640    -0.5900 H     1 <1>   0.0800 
@<TRIPOS>BOND
  1   1   2  1   
  2   1   3  1   
  3   2   4  ar  
  4   2   5  ar  
  5   3   6  1   
  6   3  19  1   
  7   3  20  1   
  8   4   7  ar  
  9   4  21  1   
 10   5   8  ar  
 11   5  22  1   
 12   6   9  1   
 13   6  23  1   
 14   6  24  1   
 15   7  10  ar  
 16   7  11  1   
 17   8  10  ar  
 18   8  12  1   
 19   9  13  1   
 20  10  25  1   
 21  11  26  1   
 22  11  27  1   
 23  11  28  1   
 24  12  29  1   
 25  12  30  1   
 26  12  31  1   
 27  13  14  1   
 28  13  32  1   
 29  13  33  1   
 30  14  15  1   
 31  14  34  1   
 32  14  35  1   
 33  15  16  1   
 34  15  36  1   
 35  15  37  1   
 36  16  17  1   
 37  16  18  1   
 38  16  38  1   
 39  17  39  1   
 40  17  40  1   
 41  17  41  1   
 42  18  42  1   
 43  18  43  1   
 44  18  44  1   
@<TRIPOS>SUBSTRUCTURE
  1 ****   3 GROUP 4 **** **** 0

# MOE 2024.06 (io_trps.svl 2023.06)
