@<TRIPOS>MOLECULE
NONAME
39 40 1 0 0 
SMALL
USER_CHARGES


@<TRIPOS>ATOM
  1 O       -4.6230    -1.4420     0.7420 O.3   1 <1>  -0.3630 
  2 C       -4.4410    -2.6630     0.1620 C.ar  1 <1>   0.0830 
  3 C       -5.8960    -0.9180     1.0500 C.3   1 <1>   0.0400 
  4 C       -5.4150    -3.6460    -0.0830 C.ar  1 <1>   0.0830 
  5 C       -3.1310    -2.9180    -0.2090 C.ar  1 <1>  -0.1500 
  6 O       -6.7160    -3.5010     0.2460 O.3   1 <1>  -0.5330 
  7 C       -5.0520    -4.8400    -0.6870 C.ar  1 <1>  -0.1500 
  8 C       -2.7670    -4.1170    -0.8040 C.ar  1 <1>  -0.1440 
  9 C       -3.7370    -5.0770    -1.0460 C.ar  1 <1>  -0.1500 
 10 C       -1.3220    -4.3640    -1.1670 C.3   1 <1>   0.4860 
 11 N       -0.6490    -4.7840     0.0780 N.4   1 <1>  -0.9060 
 12 C        0.7880    -5.0770    -0.0590 C.3   1 <1>   0.4230 
 13 C        1.2560    -5.7720     1.2240 C.3   1 <1>  -0.1600 
 14 C        1.5720    -3.7790    -0.3020 C.3   1 <1>  -0.1600 
 15 C        2.7660    -6.0450     1.1870 C.3   1 <1>  -0.1600 
 16 C        3.0840    -4.0450    -0.3390 C.3   1 <1>  -0.1600 
 17 C        3.5560    -4.7540     0.9370 C.3   1 <1>  -0.1600 
 18 H       -5.7670     0.0860     1.4120 H     1 <1>   0.0800 
 19 H       -6.3490    -1.5250     1.8120 H     1 <1>   0.0800 
 20 H       -6.4970    -0.9110     0.1570 H     1 <1>   0.0800 
 21 H       -2.4050    -2.1470    -0.0200 H     1 <1>   0.1500 
 22 H       -7.2670    -4.2640    -0.0020 H     1 <1>   0.4500 
 23 H       -5.7950    -5.5930    -0.8820 H     1 <1>   0.1500 
 24 H       -3.4880    -6.0150    -1.5160 H     1 <1>   0.1500 
 25 H       -0.8830    -3.4580    -1.5530 H     1 <1>   0.0800 
 26 H       -1.2530    -5.1350    -1.9170 H     1 <1>   0.0800 
 27 H       -1.1410    -5.6080     0.4370 H     1 <1>   0.4500 
 28 H       -0.7870    -4.0500     0.7810 H     1 <1>   0.4500 
 29 H        0.9490    -5.7480    -0.8890 H     1 <1>   0.0800 
 30 H        0.7420    -6.7090     1.3440 H     1 <1>   0.0800 
 31 H        1.0440    -5.1510     2.0780 H     1 <1>   0.0800 
 32 H        1.3690    -3.0750     0.4870 H     1 <1>   0.0800 
 33 H        1.2880    -3.3360    -1.2400 H     1 <1>   0.0800 
 34 H        2.9910    -6.7560     0.4090 H     1 <1>   0.0800 
 35 H        3.0800    -6.4790     2.1220 H     1 <1>   0.0800 
 36 H        3.6140    -3.1130    -0.4450 H     1 <1>   0.0800 
 37 H        3.3270    -4.6540    -1.1940 H     1 <1>   0.0800 
 38 H        4.6050    -4.9860     0.8510 H     1 <1>   0.0800 
 39 H        3.4400    -4.0930     1.7800 H     1 <1>   0.0800 
@<TRIPOS>BOND
  1   1   2  1   
  2   1   3  1   
  3   2   4  ar  
  4   2   5  ar  
  5   3  18  1   
  6   3  19  1   
  7   3  20  1   
  8   4   6  1   
  9   4   7  ar  
 10   5   8  ar  
 11   5  21  1   
 12   6  22  1   
 13   7   9  ar  
 14   7  23  1   
 15   8   9  ar  
 16   8  10  1   
 17   9  24  1   
 18  10  11  1   
 19  10  25  1   
 20  10  26  1   
 21  11  12  1   
 22  11  27  1   
 23  11  28  1   
 24  12  13  1   
 25  12  14  1   
 26  12  29  1   
 27  13  15  1   
 28  13  30  1   
 29  13  31  1   
 30  14  16  1   
 31  14  32  1   
 32  14  33  1   
 33  15  17  1   
 34  15  34  1   
 35  15  35  1   
 36  16  17  1   
 37  16  36  1   
 38  16  37  1   
 39  17  38  1   
 40  17  39  1   
@<TRIPOS>SUBSTRUCTURE
  1 ****   8 GROUP 4 **** **** 0

# MOE 2024.06 (io_trps.svl 2023.06)
