@<TRIPOS>MOLECULE
NONAME
42 42 1 0 0 
SMALL
USER_CHARGES


@<TRIPOS>ATOM
  1 S        0.8100    -0.2180     1.2730 S.o2  1 <1>   1.3330 
  2 O        2.0330     0.4390     1.6700 O.2   1 <1>  -0.6500 
  3 O        0.8260    -1.6390     1.0270 O.2   1 <1>  -0.6500 
  4 N        0.2930     0.4960    -0.2170 N.am  1 <1>  -0.6930 
  5 C       -0.5050     0.1220     2.4270 C.3   1 <1>  -0.1350 
  6 C       -0.6280     1.5510    -0.3130 C.ar  1 <1>   0.1990 
  7 C        0.9850     0.0090    -1.4550 C.3   1 <1>   0.2570 
  8 C       -0.4870     2.7670     0.3720 C.ar  1 <1>   0.0820 
  9 C       -1.7440     1.3940    -1.1250 C.ar  1 <1>  -0.1500 
 10 C        2.2960     0.7240    -1.8040 C.2   1 <1>   0.5690 
 11 O        0.5650     2.9770     1.2000 O.3   1 <1>  -0.3630 
 12 C       -1.4310     3.7720     0.2420 C.ar  1 <1>  -0.1500 
 13 C       -2.6880     2.3960    -1.2670 C.ar  1 <1>   0.0820 
 14 O        2.5550     0.9010    -2.9720 O.2   1 <1>  -0.5700 
 15 N        3.1560     1.1210    -0.8310 N.am  1 <1>  -0.7300 
 16 C        1.5820     3.8110     0.6930 C.3   1 <1>   0.0400 
 17 C       -2.5310     3.5940    -0.5790 C.ar  1 <1>  -0.1500 
 18 O       -3.7350     2.1290    -2.0900 O.3   1 <1>  -0.3620 
 19 C        4.4660     1.7380    -1.0600 C.3   1 <1>   0.2780 
 20 C       -4.7300     3.0980    -2.3410 C.3   1 <1>   0.0400 
 21 C        4.7770     2.6360     0.1180 C.2   1 <1>  -0.2880 
 22 C        5.0220     3.9490     0.0470 C.2   1 <1>  -0.3000 
 23 H       -0.3110    -0.3760     3.3560 H     1 <1>   0.0800 
 24 H       -1.4400    -0.2290     2.0370 H     1 <1>   0.0800 
 25 H       -0.5800     1.1740     2.6170 H     1 <1>   0.0800 
 26 H        0.3250     0.1210    -2.2950 H     1 <1>   0.0800 
 27 H        1.1950    -1.0410    -1.3590 H     1 <1>   0.0800 
 28 H       -1.8920     0.4730    -1.6560 H     1 <1>   0.1500 
 29 H       -1.3050     4.6910     0.7860 H     1 <1>   0.1500 
 30 H        2.8970     0.9980     0.1600 H     1 <1>   0.3700 
 31 H        1.2080     4.8160     0.6150 H     1 <1>   0.0800 
 32 H        1.8850     3.4480    -0.2730 H     1 <1>   0.0800 
 33 H        2.4120     3.7770     1.3740 H     1 <1>   0.0800 
 34 H       -3.2460     4.3900    -0.6640 H     1 <1>   0.1500 
 35 H        4.4510     2.3040    -1.9770 H     1 <1>   0.0800 
 36 H        5.2130     0.9670    -1.1430 H     1 <1>   0.0800 
 37 H       -5.4400     2.6760    -3.0290 H     1 <1>   0.0800 
 38 H       -4.2700     3.9670    -2.7780 H     1 <1>   0.0800 
 39 H       -5.2200     3.3430    -1.4150 H     1 <1>   0.0800 
 40 H        4.7830     2.0950     1.0500 H     1 <1>   0.1500 
 41 H        5.2440     4.5650     0.9020 H     1 <1>   0.1500 
 42 H        5.0230     4.5170    -0.8680 H     1 <1>   0.1500 
@<TRIPOS>BOND
  1   1   2  2   
  2   1   3  2   
  3   1   4  am  
  4   1   5  1   
  5   4   6  1   
  6   4   7  1   
  7   5  23  1   
  8   5  24  1   
  9   5  25  1   
 10   6   8  ar  
 11   6   9  ar  
 12   7  10  1   
 13   7  26  1   
 14   7  27  1   
 15   8  11  1   
 16   8  12  ar  
 17   9  13  ar  
 18   9  28  1   
 19  10  14  2   
 20  10  15  am  
 21  11  16  1   
 22  12  17  ar  
 23  12  29  1   
 24  13  17  ar  
 25  13  18  1   
 26  15  19  1   
 27  15  30  1   
 28  16  31  1   
 29  16  32  1   
 30  16  33  1   
 31  17  34  1   
 32  18  20  1   
 33  19  21  1   
 34  19  35  1   
 35  19  36  1   
 36  20  37  1   
 37  20  38  1   
 38  20  39  1   
 39  21  22  2   
 40  21  40  1   
 41  22  41  1   
 42  22  42  1   
@<TRIPOS>SUBSTRUCTURE
  1 ****   6 GROUP 4 **** **** 0

# MOE 2024.06 (io_trps.svl 2023.06)
