@<TRIPOS>MOLECULE
NONAME
47 49 1 0 0 
SMALL
USER_CHARGES


@<TRIPOS>ATOM
  1 CL       2.4720     1.1340     1.0510 Cl    1 <1>  -0.1770 
  2 C        3.5740     0.8180    -0.2660 C.ar  1 <1>   0.1770 
  3 C        3.7660    -0.4870    -0.7180 C.ar  1 <1>   0.0540 
  4 C        4.2230     1.9040    -0.8290 C.ar  1 <1>  -0.1500 
  5 C        4.6510    -0.6220    -1.7870 C.ar  1 <1>   0.1900 
  6 C        3.0770    -1.6120    -0.1270 C.2   1 <1>   0.2350 
  7 C        5.0960     1.7190    -1.8880 C.ar  1 <1>  -0.1500 
  8 F        4.8990    -1.8150    -2.2570 F     1 <1>  -0.1900 
  9 C        5.3110     0.4410    -2.3750 C.ar  1 <1>  -0.1500 
 10 N        2.2470    -2.3700    -0.7610 N.2   1 <1>  -0.4100 
 11 C        3.1430    -2.0330     1.1980 C.2   1 <1>  -0.0860 
 12 O        1.6620    -3.2010     0.0680 O.3   1 <1>  -0.0190 
 13 C        2.1810    -2.9740     1.2460 C.2   1 <1>  -0.0400 
 14 C        4.0440    -1.5670     2.2110 C.2   1 <1>   0.7160 
 15 C        1.6420    -3.7620     2.4280 C.3   1 <1>  -0.0600 
 16 O        3.6800    -1.3730     3.3460 O.2   1 <1>  -0.5700 
 17 N        5.3720    -1.4160     1.9730 N.am  1 <1>  -0.7300 
 18 C        6.2750    -2.2370     1.1130 C.3   1 <1>   0.1400 
 19 C        6.1030    -3.7600     1.3180 C.3   1 <1>   0.3430 
 20 N        5.0750    -4.3940     0.4230 N.4   1 <1>  -0.9590 
 21 C        4.6300    -5.7020     0.9920 C.3   1 <1>   0.3430 
 22 C        5.5930    -4.5660    -0.9700 C.3   1 <1>   0.3430 
 23 C        3.5320    -6.3200     0.1220 C.3   1 <1>  -0.1600 
 24 C        4.5010    -5.1400    -1.8730 C.3   1 <1>  -0.1600 
 25 C        3.9740    -6.4750    -1.3370 C.3   1 <1>  -0.1600 
 26 H        4.0400     2.8920    -0.4410 H     1 <1>   0.1500 
 27 H        5.6000     2.5630    -2.3310 H     1 <1>   0.1500 
 28 H        5.9810     0.2750    -3.2010 H     1 <1>   0.1500 
 29 H        2.1640    -3.5100     3.3340 H     1 <1>   0.0800 
 30 H        1.7320    -4.8180     2.2550 H     1 <1>   0.0800 
 31 H        0.6010    -3.5270     2.5660 H     1 <1>   0.0800 
 32 H        5.8420    -0.9290     2.7450 H     1 <1>   0.3700 
 33 H        7.2870    -1.9840     1.3840 H     1 <1>   0.0800 
 34 H        6.1510    -1.9720     0.0800 H     1 <1>   0.0800 
 35 H        5.8480    -3.9320     2.3510 H     1 <1>   0.0800 
 36 H        7.0520    -4.2380     1.1370 H     1 <1>   0.0800 
 37 H        4.2340    -3.7990     0.3550 H     1 <1>   0.4500 
 38 H        4.2530    -5.5590     1.9920 H     1 <1>   0.0800 
 39 H        5.4670    -6.3800     1.0390 H     1 <1>   0.0800 
 40 H        6.4350    -5.2400    -0.9650 H     1 <1>   0.0800 
 41 H        5.9230    -3.6210    -1.3660 H     1 <1>   0.0800 
 42 H        2.6490    -5.7090     0.1650 H     1 <1>   0.0800 
 43 H        3.2720    -7.2860     0.5180 H     1 <1>   0.0800 
 44 H        4.9010    -5.2860    -2.8610 H     1 <1>   0.0800 
 45 H        3.6940    -4.4320    -1.9580 H     1 <1>   0.0800 
 46 H        3.1420    -6.8060    -1.9380 H     1 <1>   0.0800 
 47 H        4.7470    -7.2230    -1.4050 H     1 <1>   0.0800 
@<TRIPOS>BOND
  1   1   2  1   
  2   2   3  ar  
  3   2   4  ar  
  4   3   5  ar  
  5   3   6  1   
  6   4   7  ar  
  7   4  26  1   
  8   5   8  1   
  9   5   9  ar  
 10   6  10  2   
 11   6  11  1   
 12   7   9  ar  
 13   7  27  1   
 14   9  28  1   
 15  10  12  1   
 16  11  13  2   
 17  11  14  1   
 18  12  13  1   
 19  13  15  1   
 20  14  16  2   
 21  14  17  am  
 22  15  29  1   
 23  15  30  1   
 24  15  31  1   
 25  17  18  1   
 26  17  32  1   
 27  18  19  1   
 28  18  33  1   
 29  18  34  1   
 30  19  20  1   
 31  19  35  1   
 32  19  36  1   
 33  20  21  1   
 34  20  22  1   
 35  20  37  1   
 36  21  23  1   
 37  21  38  1   
 38  21  39  1   
 39  22  24  1   
 40  22  40  1   
 41  22  41  1   
 42  23  25  1   
 43  23  42  1   
 44  23  43  1   
 45  24  25  1   
 46  24  44  1   
 47  24  45  1   
 48  25  46  1   
 49  25  47  1   
@<TRIPOS>SUBSTRUCTURE
  1 ****   6 GROUP 4 **** **** 0

# MOE 2024.06 (io_trps.svl 2023.06)
