@<TRIPOS>MOLECULE
NONAME
35 36 1 0 0 
SMALL
USER_CHARGES


@<TRIPOS>ATOM
  1 O        0.4740     0.0150    -0.2690 O.2   1 <1>  -0.5700 
  2 C        1.2510    -0.8890    -0.0790 C.2   1 <1>   0.4950 
  3 C        2.6370    -0.8430     0.2110 C.2   1 <1>   0.0290 
  4 C        0.7720    -2.3220    -0.1390 C.3   1 <1>  -0.0990 
  5 C        3.1180    -2.1190     0.3480 C.2   1 <1>  -0.0380 
  6 C        3.4010     0.3640     0.3340 C.2   1 <1>   0.4950 
  7 C        2.0290    -3.1550     0.1510 C.3   1 <1>  -0.0220 
  8 N        4.3900    -2.4860     0.6220 N.pl3 1 <1>  -0.8690 
  9 O        4.5920     0.3740     0.5600 O.2   1 <1>  -0.5700 
 10 C        2.7650     1.7330     0.1890 C.3   1 <1>  -0.1790 
 11 C        4.9620    -3.8460     0.7750 C.3   1 <1>   0.2090 
 12 C        5.9090    -4.1350    -0.3870 C.3   1 <1>  -0.0170 
 13 C        6.4800    -5.5390    -0.2640 C.ar  1 <1>  -0.1430 
 14 C        5.8470    -6.6090    -0.8780 C.ar  1 <1>  -0.1500 
 15 C        7.6340    -5.7620     0.4700 C.ar  1 <1>  -0.1500 
 16 C        6.3620    -7.8880    -0.7580 C.ar  1 <1>  -0.1500 
 17 C        8.1500    -7.0410     0.5910 C.ar  1 <1>  -0.1500 
 18 C        7.5140    -8.1050    -0.0230 C.ar  1 <1>  -0.1500 
 19 H        0.3790    -2.5350    -1.1160 H     1 <1>   0.0800 
 20 H        0.0150    -2.4860     0.6050 H     1 <1>   0.0800 
 21 H        2.2670    -3.7970    -0.6790 H     1 <1>   0.0800 
 22 H        1.9030    -3.7420     1.0440 H     1 <1>   0.0800 
 23 H        5.0820    -1.7220     0.7450 H     1 <1>   0.4000 
 24 H        1.9890     1.8580     0.9210 H     1 <1>   0.0800 
 25 H        2.3480     1.8420    -0.7950 H     1 <1>   0.0800 
 26 H        3.5010     2.5020     0.3360 H     1 <1>   0.0800 
 27 H        4.1800    -4.5840     0.7940 H     1 <1>   0.0800 
 28 H        5.4990    -3.9030     1.7070 H     1 <1>   0.0800 
 29 H        6.7090    -3.4170    -0.3870 H     1 <1>   0.0800 
 30 H        5.3730    -4.0410    -1.3150 H     1 <1>   0.0800 
 31 H        4.9510    -6.4520    -1.4530 H     1 <1>   0.1500 
 32 H        8.1380    -4.9420     0.9520 H     1 <1>   0.1500 
 33 H        5.8670    -8.7140    -1.2380 H     1 <1>   0.1500 
 34 H        9.0470    -7.2070     1.1620 H     1 <1>   0.1500 
 35 H        7.9140    -9.0990     0.0700 H     1 <1>   0.1500 
@<TRIPOS>BOND
  1   1   2  2   
  2   2   3  1   
  3   2   4  1   
  4   3   5  2   
  5   3   6  1   
  6   4   7  1   
  7   4  19  1   
  8   4  20  1   
  9   5   7  1   
 10   5   8  1   
 11   6   9  2   
 12   6  10  1   
 13   7  21  1   
 14   7  22  1   
 15   8  11  1   
 16   8  23  1   
 17  10  24  1   
 18  10  25  1   
 19  10  26  1   
 20  11  12  1   
 21  11  27  1   
 22  11  28  1   
 23  12  13  1   
 24  12  29  1   
 25  12  30  1   
 26  13  14  ar  
 27  13  15  ar  
 28  14  16  ar  
 29  14  31  1   
 30  15  17  ar  
 31  15  32  1   
 32  16  18  ar  
 33  16  33  1   
 34  17  18  ar  
 35  17  34  1   
 36  18  35  1   
@<TRIPOS>SUBSTRUCTURE
  1 ****   8 GROUP 4 **** **** 0

# MOE 2024.06 (io_trps.svl 2023.06)
