@<TRIPOS>MOLECULE
NONAME
40 42 1 0 0 
SMALL
USER_CHARGES


@<TRIPOS>ATOM
  1 CL       0.9120     0.1530     0.9680 Cl    1 <1>  -0.1770 
  2 C        1.4210    -1.4390     0.4520 C.ar  1 <1>   0.1770 
  3 C        0.4770    -2.4230     0.1940 C.ar  1 <1>  -0.1440 
  4 C        2.7740    -1.6760     0.3110 C.ar  1 <1>  -0.1500 
  5 C        0.9260    -3.6690    -0.2160 C.ar  1 <1>  -0.1500 
  6 C       -1.0120    -2.1540     0.3530 C.3   1 <1>  -0.0960 
  7 C        3.2260    -2.9240    -0.0960 C.ar  1 <1>   0.1170 
  8 C        2.2810    -3.9130    -0.3590 C.ar  1 <1>  -0.1500 
  9 N        4.6040    -3.1300    -0.2440 N.am  1 <1>  -0.5470 
 10 C        5.3560    -4.2690    -0.1930 C.2   1 <1>   0.6900 
 11 O        4.8680    -5.3270     0.1560 O.2   1 <1>  -0.5700 
 12 N        6.6900    -4.1900    -0.5090 N.am  1 <1>  -0.6600 
 13 C        7.6300    -5.2930    -0.1650 C.3   1 <1>   0.1400 
 14 C        7.3020    -3.1240    -1.3500 C.3   1 <1>   0.1400 
 15 C        8.8220    -4.7180     0.6020 C.3   1 <1>  -0.1600 
 16 C        8.4740    -2.5030    -0.5910 C.3   1 <1>  -0.1600 
 17 C        9.4760    -3.5790    -0.1860 C.3   1 <1>   0.5600 
 18 O       10.0930    -4.0730    -1.3290 O.3   1 <1>  -0.5600 
 19 O       10.4900    -2.9930     0.5540 O.3   1 <1>  -0.5600 
 20 C       11.4220    -4.3330    -1.0520 C.3   1 <1>   0.1200 
 21 C       11.6830    -3.6250     0.2640 C.3   1 <1>   0.1200 
 22 H        3.4680    -0.8870     0.5240 H     1 <1>   0.1500 
 23 H        0.2260    -4.4590    -0.4250 H     1 <1>   0.1500 
 24 H       -1.2260    -1.8710     1.3680 H     1 <1>   0.0800 
 25 H       -1.5900    -3.0280     0.1120 H     1 <1>   0.0800 
 26 H       -1.3120    -1.3550    -0.3010 H     1 <1>   0.0800 
 27 H        2.6070    -4.8850    -0.6820 H     1 <1>   0.1500 
 28 H        5.1750    -2.2950    -0.2740 H     1 <1>   0.3700 
 29 H        7.9670    -5.7650    -1.0730 H     1 <1>   0.0800 
 30 H        7.1410    -6.0390     0.4390 H     1 <1>   0.0800 
 31 H        6.5850    -2.3670    -1.6110 H     1 <1>   0.0800 
 32 H        7.6600    -3.5660    -2.2650 H     1 <1>   0.0800 
 33 H        9.5350    -5.4960     0.7970 H     1 <1>   0.0800 
 34 H        8.4700    -4.3380     1.5430 H     1 <1>   0.0800 
 35 H        8.1020    -2.0150     0.2910 H     1 <1>   0.0800 
 36 H        8.9660    -1.7730    -1.2060 H     1 <1>   0.0800 
 37 H       12.0280    -3.9370    -1.8480 H     1 <1>   0.0800 
 38 H       11.5650    -5.3950    -0.9680 H     1 <1>   0.0800 
 39 H       11.9110    -4.3240     1.0500 H     1 <1>   0.0800 
 40 H       12.4620    -2.8880     0.1820 H     1 <1>   0.0800 
@<TRIPOS>BOND
  1   1   2  1   
  2   2   3  ar  
  3   2   4  ar  
  4   3   5  ar  
  5   3   6  1   
  6   4   7  ar  
  7   4  22  1   
  8   5   8  ar  
  9   5  23  1   
 10   6  24  1   
 11   6  25  1   
 12   6  26  1   
 13   7   8  ar  
 14   7   9  1   
 15   8  27  1   
 16   9  10  am  
 17   9  28  1   
 18  10  11  2   
 19  10  12  am  
 20  12  13  1   
 21  12  14  1   
 22  13  15  1   
 23  13  29  1   
 24  13  30  1   
 25  14  16  1   
 26  14  31  1   
 27  14  32  1   
 28  15  17  1   
 29  15  33  1   
 30  15  34  1   
 31  16  17  1   
 32  16  35  1   
 33  16  36  1   
 34  17  18  1   
 35  17  19  1   
 36  18  20  1   
 37  19  21  1   
 38  20  21  1   
 39  20  37  1   
 40  20  38  1   
 41  21  39  1   
 42  21  40  1   
@<TRIPOS>SUBSTRUCTURE
  1 ****  10 GROUP 4 **** **** 0

# MOE 2024.06 (io_trps.svl 2023.06)
