@<TRIPOS>MOLECULE
NONAME
41 42 1 0 0 
SMALL
USER_CHARGES


@<TRIPOS>ATOM
  1 S        0.1820     0.2900    -0.3880 S.o2  1 <1>   1.3330 
  2 O       -0.6230    -0.6830    -1.0890 O.2   1 <1>  -0.6500 
  3 O        1.4030     0.7590    -0.9950 O.2   1 <1>  -0.6500 
  4 N       -0.8130     1.6290    -0.0750 N.am  1 <1>  -0.8490 
  5 C        0.5590    -0.4150     1.2070 C.3   1 <1>  -0.1350 
  6 C       -2.2260     1.2670     0.0760 C.3   1 <1>   0.3390 
  7 C       -0.3350     2.5640     0.9850 C.3   1 <1>   0.2570 
  8 C       -3.1020     2.5120     0.1420 C.ar  1 <1>  -0.1440 
  9 C        1.1370     3.0060     0.9370 C.2   1 <1>   0.5690 
 10 C       -3.2050     3.3340    -0.9740 C.ar  1 <1>  -0.1500 
 11 C       -3.7920     2.8330     1.3060 C.ar  1 <1>  -0.1500 
 12 O        1.8280     2.6770     1.8760 O.2   1 <1>  -0.5700 
 13 N        1.6330     3.7590    -0.0970 N.am  1 <1>  -0.6600 
 14 C       -3.9890     4.4750    -0.9340 C.ar  1 <1>  -0.1500 
 15 C       -4.5790     3.9720     1.3580 C.ar  1 <1>  -0.1500 
 16 C        3.0790     4.1110    -0.1810 C.3   1 <1>   0.1400 
 17 C        0.8920     4.0570    -1.3580 C.3   1 <1>   0.1400 
 18 C       -4.6620     4.7720     0.2350 C.ar  1 <1>   0.1900 
 19 C        3.2590     5.5390    -0.7220 C.3   1 <1>   0.1200 
 20 C        1.1930     5.4860    -1.8410 C.3   1 <1>   0.1200 
 21 F       -5.4000     5.8480     0.2810 F     1 <1>  -0.1900 
 22 O        2.5720     5.7060    -1.9320 O.3   1 <1>  -0.5600 
 23 H        1.1220    -1.3180     1.0730 H     1 <1>   0.0800 
 24 H       -0.3400    -0.6520     1.7370 H     1 <1>   0.0800 
 25 H        1.1510     0.2570     1.7950 H     1 <1>   0.0800 
 26 H       -2.3620     0.6630     0.9570 H     1 <1>   0.0800 
 27 H       -2.5490     0.6900    -0.7750 H     1 <1>   0.0800 
 28 H       -0.5060     2.1180     1.9490 H     1 <1>   0.0800 
 29 H       -0.9160     3.4660     0.9520 H     1 <1>   0.0800 
 30 H       -2.6710     3.0830    -1.8760 H     1 <1>   0.1500 
 31 H       -3.7240     2.2020     2.1760 H     1 <1>   0.1500 
 32 H       -4.0810     5.1210    -1.7880 H     1 <1>   0.1500 
 33 H       -5.1210     4.2380     2.2480 H     1 <1>   0.1500 
 34 H        3.5710     3.4150    -0.8380 H     1 <1>   0.0800 
 35 H        3.5410     4.0370     0.7880 H     1 <1>   0.0800 
 36 H       -0.1680     3.9530    -1.2170 H     1 <1>   0.0800 
 37 H        1.1950     3.3540    -2.1150 H     1 <1>   0.0800 
 38 H        4.3000     5.7360    -0.9050 H     1 <1>   0.0800 
 39 H        2.8890     6.2590    -0.0130 H     1 <1>   0.0800 
 40 H        0.7740     6.2100    -1.1630 H     1 <1>   0.0800 
 41 H        0.7720     5.6420    -2.8180 H     1 <1>   0.0800 
@<TRIPOS>BOND
  1   1   2  2   
  2   1   3  2   
  3   1   4  am  
  4   1   5  1   
  5   4   6  1   
  6   4   7  1   
  7   5  23  1   
  8   5  24  1   
  9   5  25  1   
 10   6   8  1   
 11   6  26  1   
 12   6  27  1   
 13   7   9  1   
 14   7  28  1   
 15   7  29  1   
 16   8  10  ar  
 17   8  11  ar  
 18   9  12  2   
 19   9  13  am  
 20  10  14  ar  
 21  10  30  1   
 22  11  15  ar  
 23  11  31  1   
 24  13  16  1   
 25  13  17  1   
 26  14  18  ar  
 27  14  32  1   
 28  15  18  ar  
 29  15  33  1   
 30  16  19  1   
 31  16  34  1   
 32  16  35  1   
 33  17  20  1   
 34  17  36  1   
 35  17  37  1   
 36  18  21  1   
 37  19  22  1   
 38  19  38  1   
 39  19  39  1   
 40  20  22  1   
 41  20  40  1   
 42  20  41  1   
@<TRIPOS>SUBSTRUCTURE
  1 ****   7 GROUP 4 **** **** 0

# MOE 2024.06 (io_trps.svl 2023.06)
