@<TRIPOS>MOLECULE
NONAME
48 49 1 0 0 
SMALL
USER_CHARGES


@<TRIPOS>ATOM
  1 O       -0.3190     1.3110     2.1170 O.2   1 <1>  -0.5700 
  2 C       -0.1130     2.2620     1.4070 C.2   1 <1>   0.5700 
  3 N       -1.1260     3.0400     0.9660 N.am  1 <1>  -0.7300 
  4 C       -1.0350     4.1790     0.0330 C.3   1 <1>   0.3640 
  5 C        0.3150     4.8820     0.1540 C.ar  1 <1>  -0.1440 
  6 C       -2.1850     5.1620     0.2870 C.3   1 <1>  -0.0160 
  7 C        1.1190     5.0290    -0.9680 C.ar  1 <1>  -0.1500 
  8 C        0.7590     5.3860     1.3710 C.ar  1 <1>  -0.1500 
  9 C       -3.5470     4.4970     0.1320 C.ar  1 <1>  -0.1430 
 10 C        2.3440     5.6690    -0.8860 C.ar  1 <1>   0.0830 
 11 C        1.9890     6.0140     1.4670 C.ar  1 <1>  -0.1500 
 12 C       -4.2450     4.0640     1.2470 C.ar  1 <1>  -0.1500 
 13 C       -4.1020     4.3160    -1.1220 C.ar  1 <1>  -0.1500 
 14 O        3.0510     5.8020    -2.0360 O.3   1 <1>  -0.3630 
 15 C        2.7950     6.1450     0.3500 C.ar  1 <1>   0.0830 
 16 C       -5.4820     3.4510     1.1320 C.ar  1 <1>   0.0830 
 17 C       -5.3330     3.6990    -1.2590 C.ar  1 <1>  -0.1500 
 18 C        3.2920     7.1200    -2.4820 C.3   1 <1>   0.0400 
 19 O        4.0050     6.7330     0.5180 O.3   1 <1>  -0.3630 
 20 O       -6.0430     3.0910     2.3230 O.3   1 <1>  -0.3620 
 21 C       -6.0380     3.2500    -0.1440 C.ar  1 <1>   0.0830 
 22 C        5.1310     5.9010     0.3420 C.3   1 <1>   0.0400 
 23 C       -7.4370     2.9570     2.4840 C.3   1 <1>   0.0400 
 24 O       -7.2380     2.6130    -0.2780 O.3   1 <1>  -0.3630 
 25 C       -7.7590     2.2420    -1.5360 C.3   1 <1>   0.0400 
 26 H        0.8990     2.4910     1.1170 H     1 <1>   0.0600 
 27 H       -2.0760     2.7450     1.2050 H     1 <1>   0.3700 
 28 H       -1.1420     3.7910    -0.9660 H     1 <1>   0.0800 
 29 H       -2.1080     5.9750    -0.4130 H     1 <1>   0.0800 
 30 H       -2.0920     5.5830     1.2720 H     1 <1>   0.0800 
 31 H        0.8050     4.6520    -1.9250 H     1 <1>   0.1500 
 32 H        0.1510     5.2850     2.2550 H     1 <1>   0.1500 
 33 H        2.3330     6.3980     2.4100 H     1 <1>   0.1500 
 34 H       -3.8360     4.2000     2.2320 H     1 <1>   0.1500 
 35 H       -3.5810     4.6530    -2.0010 H     1 <1>   0.1500 
 36 H       -5.7230     3.5800    -2.2510 H     1 <1>   0.1500 
 37 H        3.7240     7.0680    -3.4650 H     1 <1>   0.0800 
 38 H        3.9750     7.6070    -1.8100 H     1 <1>   0.0800 
 39 H        2.3580     7.6520    -2.5170 H     1 <1>   0.0800 
 40 H        6.0100     6.4700     0.5840 H     1 <1>   0.0800 
 41 H        5.1760     5.5720    -0.6800 H     1 <1>   0.0800 
 42 H        5.0440     5.0560     1.0030 H     1 <1>   0.0800 
 43 H       -7.6550     2.9700     3.5360 H     1 <1>   0.0800 
 44 H       -7.7460     2.0190     2.0600 H     1 <1>   0.0800 
 45 H       -7.9280     3.7800     1.9950 H     1 <1>   0.0800 
 46 H       -8.6710     1.6960    -1.3710 H     1 <1>   0.0800 
 47 H       -7.0450     1.6140    -2.0390 H     1 <1>   0.0800 
 48 H       -7.9650     3.1300    -2.1050 H     1 <1>   0.0800 
@<TRIPOS>BOND
  1   1   2  2   
  2   2   3  am  
  3   2  26  1   
  4   3   4  1   
  5   3  27  1   
  6   4   5  1   
  7   4   6  1   
  8   4  28  1   
  9   5   7  ar  
 10   5   8  ar  
 11   6   9  1   
 12   6  29  1   
 13   6  30  1   
 14   7  10  ar  
 15   7  31  1   
 16   8  11  ar  
 17   8  32  1   
 18   9  12  ar  
 19   9  13  ar  
 20  10  14  1   
 21  10  15  ar  
 22  11  15  ar  
 23  11  33  1   
 24  12  16  ar  
 25  12  34  1   
 26  13  17  ar  
 27  13  35  1   
 28  14  18  1   
 29  15  19  1   
 30  16  20  1   
 31  16  21  ar  
 32  17  21  ar  
 33  17  36  1   
 34  18  37  1   
 35  18  38  1   
 36  18  39  1   
 37  19  22  1   
 38  20  23  1   
 39  21  24  1   
 40  22  40  1   
 41  22  41  1   
 42  22  42  1   
 43  23  43  1   
 44  23  44  1   
 45  23  45  1   
 46  24  25  1   
 47  25  46  1   
 48  25  47  1   
 49  25  48  1   
@<TRIPOS>SUBSTRUCTURE
  1 ****   4 GROUP 4 **** **** 0

# MOE 2024.06 (io_trps.svl 2023.06)
