@<TRIPOS>MOLECULE
NONAME
38 39 1 0 0 
SMALL
USER_CHARGES


@<TRIPOS>ATOM
  1 O        0.1410    -1.5310    -0.3070 O.3   1 <1>  -0.3630 
  2 C       -1.1240    -1.4270     0.1840 C.ar  1 <1>   0.0830 
  3 C        1.2510    -0.9870     0.3650 C.3   1 <1>   0.1200 
  4 C       -2.1630    -2.0100    -0.5450 C.ar  1 <1>  -0.1440 
  5 C       -1.4010    -0.7680     1.3790 C.ar  1 <1>  -0.1500 
  6 C        2.5000    -1.2990    -0.4590 C.3   1 <1>  -0.1600 
  7 C       -3.4670    -1.9420    -0.0570 C.ar  1 <1>  -0.1440 
  8 C       -1.8650    -2.7260    -1.8640 C.3   1 <1>  -0.0960 
  9 C       -2.6960    -0.6960     1.8500 C.ar  1 <1>  -0.1500 
 10 C        3.7620    -0.7370     0.2090 C.3   1 <1>  -0.1600 
 11 C       -3.7220    -1.2820     1.1340 C.ar  1 <1>  -0.1500 
 12 C       -4.6400    -2.5790    -0.7920 C.3   1 <1>  -0.0970 
 13 C        5.0140    -1.0530    -0.6180 C.3   1 <1>   0.0960 
 14 N        6.2140    -0.5080     0.0440 N.pl3 1 <1>   0.0480 
 15 C        7.0360    -1.1320     0.9170 C.2   1 <1>   0.0360 
 16 C        6.7270     0.7290    -0.0810 C.2   1 <1>  -0.3020 
 17 N        8.0090    -0.3950     1.3440 N.2   1 <1>  -0.5650 
 18 C        7.8170     0.7790     0.7150 C.2   1 <1>   0.0770 
 19 H        1.3120    -1.4410     1.3400 H     1 <1>   0.0800 
 20 H        1.1050     0.0760     0.4540 H     1 <1>   0.0800 
 21 H       -0.6260    -0.3060     1.9590 H     1 <1>   0.1500 
 22 H        2.3850    -0.8650    -1.4380 H     1 <1>   0.0800 
 23 H        2.5890    -2.3670    -0.5620 H     1 <1>   0.0800 
 24 H       -2.6540    -2.5700    -2.5760 H     1 <1>   0.0800 
 25 H       -0.9600    -2.3610    -2.3150 H     1 <1>   0.0800 
 26 H       -1.7570    -3.7790    -1.6850 H     1 <1>   0.0800 
 27 H       -2.9090    -0.1860     2.7730 H     1 <1>   0.1500 
 28 H        3.8670    -1.1680     1.1910 H     1 <1>   0.0800 
 29 H        3.6660     0.3300     0.3130 H     1 <1>   0.0800 
 30 H       -4.7260    -1.2200     1.5160 H     1 <1>   0.1500 
 31 H       -4.4130    -3.5990    -1.0410 H     1 <1>   0.0800 
 32 H       -4.8460    -2.0320    -1.6950 H     1 <1>   0.0800 
 33 H       -5.5260    -2.5740    -0.1830 H     1 <1>   0.0800 
 34 H        4.9330    -0.6170    -1.5980 H     1 <1>   0.0800 
 35 H        5.1320    -2.1170    -0.7250 H     1 <1>   0.0800 
 36 H        6.8770    -2.1520     1.2200 H     1 <1>   0.1500 
 37 H        6.3030     1.4890    -0.7110 H     1 <1>   0.1500 
 38 H        8.4840     1.6110     0.8730 H     1 <1>   0.1500 
@<TRIPOS>BOND
  1   1   2  1   
  2   1   3  1   
  3   2   4  ar  
  4   2   5  ar  
  5   3   6  1   
  6   3  19  1   
  7   3  20  1   
  8   4   7  ar  
  9   4   8  1   
 10   5   9  ar  
 11   5  21  1   
 12   6  10  1   
 13   6  22  1   
 14   6  23  1   
 15   7  11  ar  
 16   7  12  1   
 17   8  24  1   
 18   8  25  1   
 19   8  26  1   
 20   9  11  ar  
 21   9  27  1   
 22  10  13  1   
 23  10  28  1   
 24  10  29  1   
 25  11  30  1   
 26  12  31  1   
 27  12  32  1   
 28  12  33  1   
 29  13  14  1   
 30  13  34  1   
 31  13  35  1   
 32  14  15  1   
 33  14  16  1   
 34  15  17  2   
 35  15  36  1   
 36  16  18  2   
 37  16  37  1   
 38  17  18  1   
 39  18  38  1   
@<TRIPOS>SUBSTRUCTURE
  1 ****   3 GROUP 4 **** **** 0

# MOE 2024.06 (io_trps.svl 2023.06)
