@<TRIPOS>MOLECULE
NONAME
29 31 1 0 0 
SMALL
USER_CHARGES


@<TRIPOS>ATOM
  1 S       -0.0620     0.0150    -0.5500 S.3   1 <1>  -0.0800 
  2 C       -1.0170     1.3420     0.0820 C.2   1 <1>   0.1040 
  3 C        1.3720     1.0370    -0.5460 C.2   1 <1>  -0.1400 
  4 N       -2.3600     1.2680     0.3500 N.am  1 <1>  -0.4940 
  5 C       -0.2770     2.4650     0.2780 C.2   1 <1>  -0.0860 
  6 C        1.0990     2.2640    -0.0850 C.2   1 <1>  -0.1810 
  7 C        2.7220     0.5330    -1.0130 C.3   1 <1>   0.3000 
  8 C       -3.0110     2.3650     0.8370 C.2   1 <1>   0.6900 
  9 C       -0.9580     3.6190     0.7920 C.2   1 <1>   0.7160 
 10 C        2.2170     3.2870    -0.0070 C.3   1 <1>   0.0210 
 11 O        3.6130     1.6200    -1.1170 O.3   1 <1>  -0.5600 
 12 O       -4.1950     2.3270     1.0800 O.2   1 <1>  -0.5700 
 13 N       -2.2980     3.5080     1.0450 N.am  1 <1>  -0.4900 
 14 O       -0.4200     4.6850     1.0190 O.2   1 <1>  -0.5700 
 15 C        3.6080     2.5990    -0.1060 C.3   1 <1>   0.2800 
 16 C        4.0280     1.9480     1.2210 C.3   1 <1>  -0.2400 
 17 C        4.6720     3.6170    -0.5190 C.3   1 <1>  -0.2400 
 18 H       -2.9100     0.4230     0.1980 H     1 <1>   0.3700 
 19 H        2.6430     0.0820    -1.9860 H     1 <1>   0.0800 
 20 H        3.1270    -0.1830    -0.3200 H     1 <1>   0.0800 
 21 H        2.1550     3.8350     0.9160 H     1 <1>   0.0800 
 22 H        2.0960     3.9890    -0.8110 H     1 <1>   0.0800 
 23 H       -2.7850     4.3190     1.4060 H     1 <1>   0.3700 
 24 H        3.2710     1.2780     1.5850 H     1 <1>   0.0800 
 25 H        4.1760     2.7050     1.9690 H     1 <1>   0.0800 
 26 H        4.9510     1.4100     1.0970 H     1 <1>   0.0800 
 27 H        4.4280     4.0420    -1.4760 H     1 <1>   0.0800 
 28 H        5.6340     3.1420    -0.5860 H     1 <1>   0.0800 
 29 H        4.7330     4.4110     0.2030 H     1 <1>   0.0800 
@<TRIPOS>BOND
  1   1   2  1   
  2   1   3  1   
  3   2   4  1   
  4   2   5  2   
  5   3   6  2   
  6   3   7  1   
  7   4   8  am  
  8   4  18  1   
  9   5   6  1   
 10   5   9  1   
 11   6  10  1   
 12   7  11  1   
 13   7  19  1   
 14   7  20  1   
 15   8  12  2   
 16   8  13  am  
 17   9  13  am  
 18   9  14  2   
 19  10  15  1   
 20  10  21  1   
 21  10  22  1   
 22  11  15  1   
 23  13  23  1   
 24  15  16  1   
 25  15  17  1   
 26  16  24  1   
 27  16  25  1   
 28  16  26  1   
 29  17  27  1   
 30  17  28  1   
 31  17  29  1   
@<TRIPOS>SUBSTRUCTURE
  1 ****   6 GROUP 4 **** **** 0

# MOE 2024.06 (io_trps.svl 2023.06)
