@<TRIPOS>MOLECULE
NONAME
50 52 1 0 0 
SMALL
USER_CHARGES


@<TRIPOS>ATOM
  1 O       -0.6260    -0.4110    -1.2510 O.2   1 <1>  -0.5700 
  2 C       -0.9270    -1.4680    -0.7550 C.2   1 <1>   0.5690 
  3 N       -0.0780    -2.3810    -0.2350 N.am  1 <1>  -0.6600 
  4 C       -2.3510    -1.9340    -0.6440 C.3   1 <1>  -0.0990 
  5 C        1.3990    -2.2540    -0.2350 C.3   1 <1>   0.2200 
  6 C       -0.7900    -3.5670     0.2840 C.3   1 <1>   0.1400 
  7 C       -2.2580    -3.1150     0.3410 C.3   1 <1>  -0.0190 
  8 C        2.0460    -3.4410    -0.9620 C.3   1 <1>  -0.1600 
  9 C        1.9230    -2.1260     1.2010 C.3   1 <1>  -0.1600 
 10 C       -3.2500    -4.2380     0.0750 C.2   1 <1>   0.5690 
 11 C        3.5770    -3.3240    -0.9480 C.3   1 <1>  -0.1600 
 12 C        3.4550    -2.0090     1.2180 C.3   1 <1>  -0.1600 
 13 O       -2.8880    -5.3870     0.1500 O.2   1 <1>  -0.5700 
 14 N       -4.5350    -3.9260    -0.2190 N.am  1 <1>  -0.7300 
 15 C        4.1100    -3.1880     0.4850 C.3   1 <1>  -0.1600 
 16 C       -5.5940    -4.9180    -0.4560 C.3   1 <1>   0.2840 
 17 C       -6.9310    -4.2060    -0.3590 C.ar  1 <1>  -0.1440 
 18 C       -7.5650    -4.0730     0.8680 C.ar  1 <1>  -0.1500 
 19 C       -7.5270    -3.6770    -1.4940 C.ar  1 <1>  -0.1500 
 20 C       -8.7830    -3.4210     0.9620 C.ar  1 <1>  -0.1500 
 21 C       -8.7440    -3.0260    -1.4010 C.ar  1 <1>  -0.1500 
 22 C       -9.3800    -2.8920    -0.1780 C.ar  1 <1>   0.0820 
 23 O      -10.5690    -2.2390    -0.1750 O.3   1 <1>  -0.3630 
 24 C      -11.3100    -2.0690     1.0120 C.3   1 <1>   0.0400 
 25 H       -2.6770    -2.2530    -1.6170 H     1 <1>   0.0800 
 26 H       -2.9830    -1.1470    -0.2770 H     1 <1>   0.0800 
 27 H        1.6620    -1.3540    -0.7680 H     1 <1>   0.0800 
 28 H       -0.4320    -3.8510     1.2590 H     1 <1>   0.0800 
 29 H       -0.6590    -4.3850    -0.4040 H     1 <1>   0.0800 
 30 H       -2.4410    -2.7470     1.3340 H     1 <1>   0.0800 
 31 H        1.6980    -3.4660    -1.9790 H     1 <1>   0.0800 
 32 H        1.7680    -4.3610    -0.4800 H     1 <1>   0.0800 
 33 H        1.6370    -2.9890     1.7740 H     1 <1>   0.0800 
 34 H        1.4940    -1.2510     1.6570 H     1 <1>   0.0800 
 35 H        3.8720    -2.4620    -1.5220 H     1 <1>   0.0800 
 36 H        4.0090    -4.1930    -1.4140 H     1 <1>   0.0800 
 37 H        3.8030    -1.9770     2.2360 H     1 <1>   0.0800 
 38 H        3.7460    -1.0880     0.7410 H     1 <1>   0.0800 
 39 H       -4.8580    -2.9580    -0.2490 H     1 <1>   0.3700 
 40 H        5.1770    -3.0480     0.4600 H     1 <1>   0.0800 
 41 H        3.9110    -4.0980     1.0260 H     1 <1>   0.0800 
 42 H       -5.5290    -5.7040     0.2780 H     1 <1>   0.0800 
 43 H       -5.4670    -5.3530    -1.4330 H     1 <1>   0.0800 
 44 H       -7.1090    -4.4770     1.7550 H     1 <1>   0.1500 
 45 H       -7.0490    -3.7700    -2.4540 H     1 <1>   0.1500 
 46 H       -9.2490    -3.3360     1.9250 H     1 <1>   0.1500 
 47 H       -9.2120    -2.6150    -2.2780 H     1 <1>   0.1500 
 48 H      -12.2110    -1.5340     0.7700 H     1 <1>   0.0800 
 49 H      -10.7240    -1.4990     1.7110 H     1 <1>   0.0800 
 50 H      -11.5560    -3.0370     1.4120 H     1 <1>   0.0800 
@<TRIPOS>BOND
  1   1   2  2   
  2   2   3  am  
  3   2   4  1   
  4   3   5  1   
  5   3   6  1   
  6   4   7  1   
  7   4  25  1   
  8   4  26  1   
  9   5   8  1   
 10   5   9  1   
 11   5  27  1   
 12   6   7  1   
 13   6  28  1   
 14   6  29  1   
 15   7  10  1   
 16   7  30  1   
 17   8  11  1   
 18   8  31  1   
 19   8  32  1   
 20   9  12  1   
 21   9  33  1   
 22   9  34  1   
 23  10  13  2   
 24  10  14  am  
 25  11  15  1   
 26  11  35  1   
 27  11  36  1   
 28  12  15  1   
 29  12  37  1   
 30  12  38  1   
 31  14  16  1   
 32  14  39  1   
 33  15  40  1   
 34  15  41  1   
 35  16  17  1   
 36  16  42  1   
 37  16  43  1   
 38  17  18  ar  
 39  17  19  ar  
 40  18  20  ar  
 41  18  44  1   
 42  19  21  ar  
 43  19  45  1   
 44  20  22  ar  
 45  20  46  1   
 46  21  22  ar  
 47  21  47  1   
 48  22  23  1   
 49  23  24  1   
 50  24  48  1   
 51  24  49  1   
 52  24  50  1   
@<TRIPOS>SUBSTRUCTURE
  1 ****   7 GROUP 4 **** **** 0

# MOE 2024.06 (io_trps.svl 2023.06)
