@<TRIPOS>MOLECULE
NONAME
31 31 1 0 0 
SMALL
USER_CHARGES


@<TRIPOS>ATOM
  1 CL       0.3730     0.1570     0.6620 Cl    1 <1>  -0.1770 
  2 C        2.0900     0.0150     0.3830 C.ar  1 <1>   0.1770 
  3 C        2.6920    -1.2240     0.4800 C.ar  1 <1>  -0.1500 
  4 C        2.8230     1.1400     0.0700 C.ar  1 <1>  -0.1500 
  5 C        4.0620    -1.3580     0.2620 C.ar  1 <1>  -0.1440 
  6 C        4.1810     1.0140    -0.1480 C.ar  1 <1>  -0.1500 
  7 C        4.8190    -0.2230    -0.0580 C.ar  1 <1>   0.1170 
  8 C        4.7300    -2.7350     0.3570 C.3   1 <1>   1.1640 
  9 N        6.2070    -0.3040    -0.2720 N.am  1 <1>  -0.5470 
 10 F        3.9290    -3.6770     0.8400 F     1 <1>  -0.3400 
 11 F        5.1500    -3.1750    -0.8210 F     1 <1>  -0.3400 
 12 F        5.7980    -2.7230     1.1500 F     1 <1>  -0.3400 
 13 C        6.9900     0.3680    -1.1700 C.2   1 <1>   0.5690 
 14 O        6.5550     1.1600    -1.9670 O.2   1 <1>  -0.5700 
 15 C        8.4790     0.0740    -1.1650 C.3   1 <1>  -0.0990 
 16 C        9.1810     0.4410     0.1580 C.3   1 <1>  -0.0800 
 17 C        9.0560     1.9400     0.4610 C.3   1 <1>  -0.2400 
 18 C       10.6620     0.0500     0.0940 C.3   1 <1>  -0.2400 
 19 H        2.0720    -2.0700     0.7240 H     1 <1>   0.1500 
 20 H        2.3370     2.0970    -0.0040 H     1 <1>   0.1500 
 21 H        4.7540     1.8920    -0.3920 H     1 <1>   0.1500 
 22 H        6.7140    -0.9690     0.3130 H     1 <1>   0.3700 
 23 H        8.9340     0.6200    -1.9730 H     1 <1>   0.0800 
 24 H        8.6130    -0.9720    -1.3700 H     1 <1>   0.0800 
 25 H        8.7260    -0.1080     0.9660 H     1 <1>   0.0800 
 26 H        9.4850     2.5250    -0.3330 H     1 <1>   0.0800 
 27 H        9.5670     2.1810     1.3770 H     1 <1>   0.0800 
 28 H        8.0240     2.2250     0.5720 H     1 <1>   0.0800 
 29 H       11.1620     0.5850    -0.6940 H     1 <1>   0.0800 
 30 H       10.7660    -1.0050    -0.0870 H     1 <1>   0.0800 
 31 H       11.1490     0.2800     1.0250 H     1 <1>   0.0800 
@<TRIPOS>BOND
  1   1   2  1   
  2   2   3  ar  
  3   2   4  ar  
  4   3   5  ar  
  5   3  19  1   
  6   4   6  ar  
  7   4  20  1   
  8   5   7  ar  
  9   5   8  1   
 10   6   7  ar  
 11   6  21  1   
 12   7   9  1   
 13   8  10  1   
 14   8  11  1   
 15   8  12  1   
 16   9  13  am  
 17   9  22  1   
 18  13  14  2   
 19  13  15  1   
 20  15  16  1   
 21  15  23  1   
 22  15  24  1   
 23  16  17  1   
 24  16  18  1   
 25  16  25  1   
 26  17  26  1   
 27  17  27  1   
 28  17  28  1   
 29  18  29  1   
 30  18  30  1   
 31  18  31  1   
@<TRIPOS>SUBSTRUCTURE
  1 ****   7 GROUP 4 **** **** 0

# MOE 2024.06 (io_trps.svl 2023.06)
