@<TRIPOS>MOLECULE
NONAME
30 31 1 0 0 
SMALL
USER_CHARGES


@<TRIPOS>ATOM
  1 O       -0.2300     0.3100     0.5010 O.3   1 <1>  -0.2170 
  2 N       -1.5120     0.3440     0.8170 N.2   1 <1>  -0.5130 
  3 C        0.1020     1.2540    -0.5050 C.3   1 <1>   0.3440 
  4 C       -2.1100     1.2500     0.1830 C.2   1 <1>   0.3280 
  5 C        1.2390     2.1640    -0.0470 C.ar  1 <1>  -0.1440 
  6 C       -1.2000     2.0120    -0.7370 C.3   1 <1>  -0.0990 
  7 C       -3.6090     1.6160     0.2530 C.3   1 <1>   0.3410 
  8 C        2.1680     2.6230    -0.9700 C.ar  1 <1>  -0.1500 
  9 C        1.3570     2.5540     1.2800 C.ar  1 <1>  -0.1500 
 10 O       -4.1630     1.4990    -1.0060 O.3   1 <1>  -0.6800 
 11 C       -3.8280     3.0670     0.6890 C.3   1 <1>  -0.2400 
 12 C       -4.4080     0.6700     1.1550 C.3   1 <1>  -0.2400 
 13 C        3.1970     3.4610    -0.5740 C.ar  1 <1>  -0.1500 
 14 C        2.3860     3.3910     1.6780 C.ar  1 <1>  -0.1500 
 15 C        3.3060     3.8450     0.7500 C.ar  1 <1>  -0.1500 
 16 H        0.3820     0.6940    -1.3800 H     1 <1>   0.0800 
 17 H       -1.5140     1.9410    -1.7610 H     1 <1>   0.0800 
 18 H       -1.1130     3.0410    -0.4430 H     1 <1>   0.0800 
 19 H        2.0970     2.3330    -2.0040 H     1 <1>   0.1500 
 20 H        0.6480     2.2040     2.0110 H     1 <1>   0.1500 
 21 H       -4.2040     0.5540    -1.2460 H     1 <1>   0.4000 
 22 H       -3.3740     3.7480    -0.0070 H     1 <1>   0.0800 
 23 H       -3.3920     3.2270     1.6580 H     1 <1>   0.0800 
 24 H       -4.8800     3.2850     0.7480 H     1 <1>   0.0800 
 25 H       -4.2800    -0.3500     0.8410 H     1 <1>   0.0800 
 26 H       -5.4530     0.9220     1.1420 H     1 <1>   0.0800 
 27 H       -4.0520     0.7500     2.1670 H     1 <1>   0.0800 
 28 H        3.9130     3.8120    -1.2960 H     1 <1>   0.1500 
 29 H        2.4690     3.6860     2.7090 H     1 <1>   0.1500 
 30 H        4.1060     4.4950     1.0590 H     1 <1>   0.1500 
@<TRIPOS>BOND
  1   1   2  1   
  2   1   3  1   
  3   2   4  2   
  4   3   5  1   
  5   3   6  1   
  6   3  16  1   
  7   4   6  1   
  8   4   7  1   
  9   5   8  ar  
 10   5   9  ar  
 11   6  17  1   
 12   6  18  1   
 13   7  10  1   
 14   7  11  1   
 15   7  12  1   
 16   8  13  ar  
 17   8  19  1   
 18   9  14  ar  
 19   9  20  1   
 20  10  21  1   
 21  11  22  1   
 22  11  23  1   
 23  11  24  1   
 24  12  25  1   
 25  12  26  1   
 26  12  27  1   
 27  13  15  ar  
 28  13  28  1   
 29  14  15  ar  
 30  14  29  1   
 31  15  30  1   
@<TRIPOS>SUBSTRUCTURE
  1 ****   6 GROUP 4 **** **** 0

# MOE 2024.06 (io_trps.svl 2023.06)
