@<TRIPOS>MOLECULE
12212
36 36 1 0 0 
SMALL
USER_CHARGES


@<TRIPOS>ATOM
  1 O        0.1110    -0.7940    -0.4430 O.2   1 <1>  -0.5700 
  2 C        0.0260    -1.9850    -0.3010 C.2   1 <1>   0.6590 
  3 O        1.1050    -2.6890     0.0390 O.3   1 <1>  -0.4300 
  4 C       -1.3030    -2.6930    -0.5580 C.3   1 <1>   0.1810 
  5 C        1.1150    -4.0730     0.3040 C.3   1 <1>   0.1200 
  6 O       -1.8070    -3.3040     0.6200 O.3   1 <1>  -0.3630 
  7 C        2.5490    -4.4780     0.6270 C.3   1 <1>  -0.2400 
  8 C       -2.8830    -4.1080     0.4720 C.ar  1 <1>   0.0830 
  9 C       -2.8010    -5.3520    -0.1590 C.ar  1 <1>   0.0830 
 10 C       -4.0890    -3.6720     0.9880 C.ar  1 <1>  -0.1500 
 11 O       -1.5860    -5.7650    -0.6250 O.3   1 <1>  -0.3630 
 12 C       -3.9540    -6.1220    -0.2800 C.ar  1 <1>  -0.1500 
 13 C       -5.2220    -4.4530     0.8630 C.ar  1 <1>  -0.1500 
 14 C       -1.3910    -7.0780    -1.1040 C.3   1 <1>   0.0400 
 15 C       -5.1800    -5.6890     0.2220 C.ar  1 <1>   0.0280 
 16 C       -6.3550    -6.5210     0.0720 C.2   1 <1>  -0.1780 
 17 C       -7.6400    -6.1940     0.2940 C.2   1 <1>  -0.2880 
 18 C       -8.8120    -7.1400     0.1110 C.3   1 <1>  -0.1020 
 19 H       -1.1710    -3.4360    -1.3200 H     1 <1>   0.0800 
 20 H       -2.0290    -1.9750    -0.8910 H     1 <1>   0.0800 
 21 H        0.4680    -4.2710     1.1420 H     1 <1>   0.0800 
 22 H        0.7610    -4.5960    -0.5670 H     1 <1>   0.0800 
 23 H        2.8970    -3.9420     1.4920 H     1 <1>   0.0800 
 24 H        3.1910    -4.2670    -0.2090 H     1 <1>   0.0800 
 25 H        2.5910    -5.5310     0.8370 H     1 <1>   0.0800 
 26 H       -4.1360    -2.7210     1.4890 H     1 <1>   0.1500 
 27 H       -3.9260    -7.0750    -0.7690 H     1 <1>   0.1500 
 28 H       -6.1470    -4.0960     1.2740 H     1 <1>   0.1500 
 29 H       -0.3490    -7.1970    -1.3410 H     1 <1>   0.0800 
 30 H       -1.9840    -7.2190    -1.9900 H     1 <1>   0.0800 
 31 H       -1.6710    -7.7760    -0.3350 H     1 <1>   0.0800 
 32 H       -6.1310    -7.5180    -0.2620 H     1 <1>   0.1500 
 33 H       -7.9510    -5.2180     0.6220 H     1 <1>   0.1500 
 34 H       -9.4920    -6.7440    -0.6230 H     1 <1>   0.0800 
 35 H       -9.3380    -7.2570     1.0420 H     1 <1>   0.0800 
 36 H       -8.4770    -8.1080    -0.2180 H     1 <1>   0.0800 
@<TRIPOS>BOND
  1   1   2  2   
  2   2   3  1   
  3   2   4  1   
  4   3   5  1   
  5   4   6  1   
  6   4  19  1   
  7   4  20  1   
  8   5   7  1   
  9   5  21  1   
 10   5  22  1   
 11   6   8  1   
 12   7  23  1   
 13   7  24  1   
 14   7  25  1   
 15   8   9  ar  
 16   8  10  ar  
 17   9  11  1   
 18   9  12  ar  
 19  10  13  ar  
 20  10  26  1   
 21  11  14  1   
 22  12  15  ar  
 23  12  27  1   
 24  13  15  ar  
 25  13  28  1   
 26  14  29  1   
 27  14  30  1   
 28  14  31  1   
 29  15  16  1   
 30  16  17  2   
 31  16  32  1   
 32  17  18  1   
 33  17  33  1   
 34  18  34  1   
 35  18  35  1   
 36  18  36  1   
@<TRIPOS>SUBSTRUCTURE
  1 ****   8 GROUP 4 **** **** 0

# MOE 2024.06 (io_trps.svl 2023.06)
