@<TRIPOS>MOLECULE
NONAME
47 49 1 0 0 
SMALL
USER_CHARGES


@<TRIPOS>ATOM
  1 CL       1.2120    -1.5470     3.1670 Cl    1 <1>  -0.1770 
  2 C        0.8270    -2.2850     1.6290 C.ar  1 <1>   0.1770 
  3 C        1.7170    -2.1870     0.5690 C.ar  1 <1>  -0.1440 
  4 C       -0.3780    -2.9540     1.5110 C.ar  1 <1>  -0.1500 
  5 C        1.3640    -2.7800    -0.6380 C.ar  1 <1>  -0.1500 
  6 C        3.0290    -1.4330     0.7640 C.3   1 <1>   0.2640 
  7 C       -0.7130    -3.5420     0.3040 C.ar  1 <1>  -0.1500 
  8 C        0.1590    -3.4520    -0.7680 C.ar  1 <1>  -0.1500 
  9 O        3.9140    -1.6680    -0.3120 O.3   1 <1>  -0.3620 
 10 C        5.1340    -1.0920    -0.3660 C.ar  1 <1>   0.0830 
 11 C        5.6450    -0.2580     0.6260 C.ar  1 <1>  -0.1500 
 12 C        5.9050    -1.3580    -1.4860 C.ar  1 <1>  -0.1500 
 13 C        6.9080     0.2870     0.4860 C.ar  1 <1>  -0.1500 
 14 C        7.1660    -0.8090    -1.6160 C.ar  1 <1>  -0.1500 
 15 C        7.7010     0.0200    -0.6290 C.ar  1 <1>   0.0860 
 16 C        9.0260     0.5930    -0.7530 C.2   1 <1>   0.5440 
 17 O        9.1460     1.8030    -0.7060 O.2   1 <1>  -0.5700 
 18 N       10.1540    -0.1900    -0.9160 N.am  1 <1>  -0.6600 
 19 C       11.4840     0.4140    -1.2150 C.3   1 <1>   0.1400 
 20 C       10.1820    -1.6590    -0.6680 C.3   1 <1>   0.1400 
 21 C       12.4590     0.1130    -0.0740 C.3   1 <1>  -0.1600 
 22 C       11.1580    -1.9740     0.4690 C.3   1 <1>  -0.1600 
 23 C       12.5610    -1.3980     0.1990 C.3   1 <1>  -0.0190 
 24 C       13.5310    -1.6850     1.3440 C.2   1 <1>   0.5690 
 25 O       13.1900    -1.5520     2.4900 O.2   1 <1>  -0.5700 
 26 N       14.7860    -2.0860     1.0660 N.am  1 <1>  -0.8000 
 27 H       -1.0420    -3.0110     2.3540 H     1 <1>   0.1500 
 28 H        2.0240    -2.7240    -1.4880 H     1 <1>   0.1500 
 29 H        3.5140    -1.7650     1.6650 H     1 <1>   0.0800 
 30 H        2.8380    -0.3760     0.8170 H     1 <1>   0.0800 
 31 H       -1.6470    -4.0660     0.1980 H     1 <1>   0.1500 
 32 H       -0.0990    -3.9080    -1.7080 H     1 <1>   0.1500 
 33 H        5.0790    -0.0200     1.5070 H     1 <1>   0.1500 
 34 H        5.5050    -1.9970    -2.2530 H     1 <1>   0.1500 
 35 H        7.3010     0.9380     1.2490 H     1 <1>   0.1500 
 36 H        7.7520    -1.0150    -2.4950 H     1 <1>   0.1500 
 37 H       11.4010     1.4800    -1.3450 H     1 <1>   0.0800 
 38 H       11.8550     0.0000    -2.1360 H     1 <1>   0.0800 
 39 H       10.4920    -2.1600    -1.5690 H     1 <1>   0.0800 
 40 H        9.2070    -2.0260    -0.3990 H     1 <1>   0.0800 
 41 H       12.1210     0.6220     0.8130 H     1 <1>   0.0800 
 42 H       13.4290     0.5060    -0.3250 H     1 <1>   0.0800 
 43 H       11.2240    -3.0400     0.5980 H     1 <1>   0.0800 
 44 H       10.7660    -1.5610     1.3830 H     1 <1>   0.0800 
 45 H       12.9460    -1.8730    -0.6860 H     1 <1>   0.0800 
 46 H       15.4260    -2.2670     1.8410 H     1 <1>   0.3700 
 47 H       15.1590    -2.2090     0.1270 H     1 <1>   0.3700 
@<TRIPOS>BOND
  1   1   2  1   
  2   2   3  ar  
  3   2   4  ar  
  4   3   5  ar  
  5   3   6  1   
  6   4   7  ar  
  7   4  27  1   
  8   5   8  ar  
  9   5  28  1   
 10   6   9  1   
 11   6  29  1   
 12   6  30  1   
 13   7   8  ar  
 14   7  31  1   
 15   8  32  1   
 16   9  10  1   
 17  10  11  ar  
 18  10  12  ar  
 19  11  13  ar  
 20  11  33  1   
 21  12  14  ar  
 22  12  34  1   
 23  13  15  ar  
 24  13  35  1   
 25  14  15  ar  
 26  14  36  1   
 27  15  16  1   
 28  16  17  2   
 29  16  18  am  
 30  18  19  1   
 31  18  20  1   
 32  19  21  1   
 33  19  37  1   
 34  19  38  1   
 35  20  22  1   
 36  20  39  1   
 37  20  40  1   
 38  21  23  1   
 39  21  41  1   
 40  21  42  1   
 41  22  23  1   
 42  22  43  1   
 43  22  44  1   
 44  23  24  1   
 45  23  45  1   
 46  24  25  2   
 47  24  26  am  
 48  26  46  1   
 49  26  47  1   
@<TRIPOS>SUBSTRUCTURE
  1 ****  13 GROUP 4 **** **** 0

# MOE 2024.06 (io_trps.svl 2023.06)
