@<TRIPOS>MOLECULE
NONAME
45 47 1 0 0 
SMALL
USER_CHARGES


@<TRIPOS>ATOM
  1 S        0.0920    -0.1280    -0.3880 S.o2  1 <1>   1.4970 
  2 O        0.4750    -1.1520     0.5690 O.2   1 <1>  -0.6500 
  3 O        0.3080    -0.3940    -1.7950 O.2   1 <1>  -0.6500 
  4 N        0.9060     1.2830    -0.0090 N.2   1 <1>  -0.6380 
  5 C       -1.6450     0.3300    -0.1210 C.ar  1 <1>  -0.0090 
  6 C        2.1740     1.2610     0.1600 C.2   1 <1>   0.4860 
  7 C       -2.2420     0.1920     1.1270 C.ar  1 <1>  -0.1500 
  8 C       -2.4170     0.8570    -1.1480 C.ar  1 <1>  -0.1500 
  9 N        2.9230     0.0920     0.2090 N.pl3 1 <1>  -0.5500 
 10 C        2.9270     2.4830     0.3230 C.2   1 <1>  -0.1240 
 11 C       -3.5600     0.5580     1.3390 C.ar  1 <1>  -0.1500 
 12 C       -3.7360     1.2240    -0.9430 C.ar  1 <1>  -0.1500 
 13 C        4.2940     0.0720     0.3540 C.2   1 <1>  -0.0500 
 14 C        4.2800     2.4660     0.4730 C.2   1 <1>  -0.1500 
 15 C        2.1780     3.8110     0.3170 C.3   1 <1>  -0.1020 
 16 C       -4.3220     1.0780     0.3050 C.ar  1 <1>  -0.1430 
 17 C        4.9800     1.2330     0.4810 C.2   1 <1>  -0.1500 
 18 C       -5.7760     1.4780     0.5540 C.3   1 <1>   0.0630 
 19 C       -6.7390     0.6460    -0.3100 C.3   1 <1>  -0.1600 
 20 C       -5.9870     2.9840     0.3190 C.3   1 <1>  -0.1600 
 21 C       -8.2010     1.0520    -0.0700 C.3   1 <1>  -0.1600 
 22 C       -7.4490     3.3890     0.5590 C.3   1 <1>  -0.1600 
 23 C       -8.4040     2.5550    -0.3040 C.3   1 <1>  -0.1600 
 24 H       -1.6680    -0.2090     1.9460 H     1 <1>   0.1500 
 25 H       -1.9810     0.9810    -2.1260 H     1 <1>   0.1500 
 26 H        2.3930    -0.7900     0.2360 H     1 <1>   0.4000 
 27 H       -3.9880     0.4340     2.3190 H     1 <1>   0.1500 
 28 H       -4.3030     1.6270    -1.7640 H     1 <1>   0.1500 
 29 H        4.7800    -0.8900     0.3660 H     1 <1>   0.1500 
 30 H        4.8550     3.3680     0.5890 H     1 <1>   0.1500 
 31 H        1.6640     3.9380    -0.6190 H     1 <1>   0.0800 
 32 H        2.8520     4.6380     0.4510 H     1 <1>   0.0800 
 33 H        1.4550     3.8280     1.1130 H     1 <1>   0.0800 
 34 H        6.0500     1.2500     0.5940 H     1 <1>   0.1500 
 35 H       -6.0130     1.2770     1.5850 H     1 <1>   0.0800 
 36 H       -6.6130    -0.3970    -0.0800 H     1 <1>   0.0800 
 37 H       -6.5050     0.7840    -1.3510 H     1 <1>   0.0800 
 38 H       -5.7170     3.2350    -0.6910 H     1 <1>   0.0800 
 39 H       -5.3450     3.5400     0.9800 H     1 <1>   0.0800 
 40 H       -8.4790     0.8080     0.9410 H     1 <1>   0.0800 
 41 H       -8.8430     0.4950    -0.7310 H     1 <1>   0.0800 
 42 H       -7.5750     4.4340     0.3300 H     1 <1>   0.0800 
 43 H       -7.6930     3.2490     1.5980 H     1 <1>   0.0800 
 44 H       -9.4220     2.8200    -0.0740 H     1 <1>   0.0800 
 45 H       -8.2330     2.7800    -1.3430 H     1 <1>   0.0800 
@<TRIPOS>BOND
  1   1   2  2   
  2   1   3  2   
  3   1   4  1   
  4   1   5  1   
  5   4   6  2   
  6   5   7  ar  
  7   5   8  ar  
  8   6   9  1   
  9   6  10  1   
 10   7  11  ar  
 11   7  24  1   
 12   8  12  ar  
 13   8  25  1   
 14   9  13  1   
 15   9  26  1   
 16  10  14  2   
 17  10  15  1   
 18  11  16  ar  
 19  11  27  1   
 20  12  16  ar  
 21  12  28  1   
 22  13  17  2   
 23  13  29  1   
 24  14  17  1   
 25  14  30  1   
 26  15  31  1   
 27  15  32  1   
 28  15  33  1   
 29  16  18  1   
 30  17  34  1   
 31  18  19  1   
 32  18  20  1   
 33  18  35  1   
 34  19  21  1   
 35  19  36  1   
 36  19  37  1   
 37  20  22  1   
 38  20  38  1   
 39  20  39  1   
 40  21  23  1   
 41  21  40  1   
 42  21  41  1   
 43  22  23  1   
 44  22  42  1   
 45  22  43  1   
 46  23  44  1   
 47  23  45  1   
@<TRIPOS>SUBSTRUCTURE
  1 ****   5 GROUP 4 **** **** 0

# MOE 2024.06 (io_trps.svl 2023.06)
