@<TRIPOS>MOLECULE
NONAME
39 40 1 0 0 
SMALL
USER_CHARGES


@<TRIPOS>ATOM
  1 O       -1.6910    -0.1340     1.5270 O.3   1 <1>  -0.3630 
  2 C       -2.1030     0.6380     0.4810 C.ar  1 <1>   0.0830 
  3 C       -0.4110    -0.0240     2.1090 C.3   1 <1>   0.0400 
  4 C       -1.4290     1.7320    -0.0900 C.ar  1 <1>   0.0830 
  5 C       -3.3300     0.2670    -0.0410 C.ar  1 <1>  -0.1500 
  6 O       -0.2330     2.1800     0.3480 O.3   1 <1>  -0.5330 
  7 C       -1.9980     2.4090    -1.1570 C.ar  1 <1>  -0.1500 
  8 C       -3.9060     0.9540    -1.0990 C.ar  1 <1>  -0.1440 
  9 C       -3.2280     2.0260    -1.6610 C.ar  1 <1>  -0.1500 
 10 C       -5.2670     0.5370    -1.6210 C.3   1 <1>   0.4860 
 11 N       -6.2780     0.7940    -0.5600 N.4   1 <1>  -0.9590 
 12 C       -7.5540     0.0980    -0.8700 C.3   1 <1>   0.3430 
 13 C       -6.4200     2.2560    -0.2920 C.3   1 <1>   0.3430 
 14 C       -8.5160     0.1000     0.3200 C.3   1 <1>  -0.1600 
 15 C       -6.7870     2.4750     1.1740 C.3   1 <1>  -0.1600 
 16 C       -9.1360     1.4760     0.5990 C.3   1 <1>  -0.1600 
 17 C       -8.2880     2.3840     1.5000 C.3   1 <1>  -0.1600 
 18 H       -0.3120    -0.7950     2.8510 H     1 <1>   0.0800 
 19 H       -0.3210     0.9420     2.5740 H     1 <1>   0.0800 
 20 H        0.3340    -0.1520     1.3440 H     1 <1>   0.0800 
 21 H       -3.8200    -0.5810     0.4040 H     1 <1>   0.1500 
 22 H        0.1100     2.9330    -0.1640 H     1 <1>   0.4500 
 23 H       -1.4830     3.2420    -1.6030 H     1 <1>   0.1500 
 24 H       -3.6440     2.5720    -2.4920 H     1 <1>   0.1500 
 25 H       -5.2410    -0.5140    -1.8630 H     1 <1>   0.0800 
 26 H       -5.5110     1.0880    -2.5140 H     1 <1>   0.0800 
 27 H       -5.8910     0.3860     0.3000 H     1 <1>   0.4500 
 28 H       -7.3440    -0.9270    -1.1310 H     1 <1>   0.0800 
 29 H       -8.0320     0.5640    -1.7170 H     1 <1>   0.0800 
 30 H       -7.1580     2.6990    -0.9410 H     1 <1>   0.0800 
 31 H       -5.4760     2.7460    -0.4710 H     1 <1>   0.0800 
 32 H       -8.0420    -0.2990     1.2010 H     1 <1>   0.0800 
 33 H       -9.3210    -0.5710     0.0700 H     1 <1>   0.0800 
 34 H       -6.4570     3.4600     1.4540 H     1 <1>   0.0800 
 35 H       -6.2340     1.7870     1.7910 H     1 <1>   0.0800 
 36 H      -10.0850     1.3300     1.0900 H     1 <1>   0.0800 
 37 H       -9.3480     1.9770    -0.3310 H     1 <1>   0.0800 
 38 H       -8.7120     3.3740     1.4560 H     1 <1>   0.0800 
 39 H       -8.3900     2.0550     2.5220 H     1 <1>   0.0800 
@<TRIPOS>BOND
  1   1   2  1   
  2   1   3  1   
  3   2   4  ar  
  4   2   5  ar  
  5   3  18  1   
  6   3  19  1   
  7   3  20  1   
  8   4   6  1   
  9   4   7  ar  
 10   5   8  ar  
 11   5  21  1   
 12   6  22  1   
 13   7   9  ar  
 14   7  23  1   
 15   8   9  ar  
 16   8  10  1   
 17   9  24  1   
 18  10  11  1   
 19  10  25  1   
 20  10  26  1   
 21  11  12  1   
 22  11  13  1   
 23  11  27  1   
 24  12  14  1   
 25  12  28  1   
 26  12  29  1   
 27  13  15  1   
 28  13  30  1   
 29  13  31  1   
 30  14  16  1   
 31  14  32  1   
 32  14  33  1   
 33  15  17  1   
 34  15  34  1   
 35  15  35  1   
 36  16  17  1   
 37  16  36  1   
 38  16  37  1   
 39  17  38  1   
 40  17  39  1   
@<TRIPOS>SUBSTRUCTURE
  1 ****   8 GROUP 4 **** **** 0

# MOE 2024.06 (io_trps.svl 2023.06)
