@<TRIPOS>MOLECULE
NONAME
42 43 1 0 0 
SMALL
USER_CHARGES


@<TRIPOS>ATOM
  1 S        0.4540     1.2570    -0.0080 S.o2  1 <1>   1.3330 
  2 O       -0.9110     1.6870    -0.1910 O.2   1 <1>  -0.6500 
  3 O        1.2770     1.8600     1.0120 O.2   1 <1>  -0.6500 
  4 N        0.4070    -0.4360     0.3140 N.am  1 <1>  -0.6930 
  5 C        1.2810     1.3340    -1.5830 C.3   1 <1>  -0.1350 
  6 C        1.5610    -1.2070     0.2180 C.ar  1 <1>   0.1990 
  7 C       -0.5960    -0.8430     1.3200 C.3   1 <1>   0.3390 
  8 C        1.7100    -2.1760    -0.7780 C.ar  1 <1>  -0.1440 
  9 C        2.5970    -1.0140     1.1250 C.ar  1 <1>  -0.1500 
 10 C       -1.5510    -1.8720     0.7230 C.ar  1 <1>  -0.1440 
 11 C        2.8740    -2.9240    -0.8390 C.ar  1 <1>  -0.1500 
 12 C        0.6180    -2.4550    -1.8070 C.3   1 <1>  -0.0970 
 13 C        3.7550    -1.7630     1.0540 C.ar  1 <1>  -0.1500 
 14 C       -1.4680    -3.2350     1.0050 C.ar  1 <1>  -0.1430 
 15 C       -2.5400    -1.4130    -0.1360 C.ar  1 <1>  -0.1500 
 16 C        3.9000    -2.7260     0.0710 C.ar  1 <1>  -0.1430 
 17 C       -2.3770    -4.1070     0.4240 C.ar  1 <1>  -0.1500 
 18 C       -0.4000    -3.8060     1.9290 C.3   1 <1>  -0.0970 
 19 C       -3.4400    -2.2900    -0.7120 C.ar  1 <1>  -0.1500 
 20 C        5.1690    -3.5540    -0.0150 C.3   1 <1>  -0.0970 
 21 C       -3.3590    -3.6400    -0.4300 C.ar  1 <1>  -0.1500 
 22 H        0.7280     0.7820    -2.3170 H     1 <1>   0.0800 
 23 H        2.2660     0.9180    -1.5060 H     1 <1>   0.0800 
 24 H        1.3620     2.3530    -1.9060 H     1 <1>   0.0800 
 25 H       -1.1640     0.0100     1.6480 H     1 <1>   0.0800 
 26 H       -0.0940    -1.2370     2.1840 H     1 <1>   0.0800 
 27 H        2.4940    -0.2680     1.8920 H     1 <1>   0.1500 
 28 H        2.9860    -3.6730    -1.6040 H     1 <1>   0.1500 
 29 H        1.0480    -2.7780    -2.7370 H     1 <1>   0.0800 
 30 H       -0.0310    -3.2300    -1.4430 H     1 <1>   0.0800 
 31 H        0.0240    -1.5810    -1.9990 H     1 <1>   0.0800 
 32 H        4.5430    -1.5930     1.7670 H     1 <1>   0.1500 
 33 H       -2.6090    -0.3620    -0.3630 H     1 <1>   0.1500 
 34 H       -2.3260    -5.1610     0.6330 H     1 <1>   0.1500 
 35 H       -0.4480    -4.8790     1.9570 H     1 <1>   0.0800 
 36 H       -0.5390    -3.4360     2.9280 H     1 <1>   0.0800 
 37 H        0.5790    -3.5280     1.5820 H     1 <1>   0.0800 
 38 H       -4.2010    -1.9200    -1.3760 H     1 <1>   0.1500 
 39 H        4.9430    -4.5510    -0.3490 H     1 <1>   0.0800 
 40 H        5.6440    -3.6190     0.9470 H     1 <1>   0.0800 
 41 H        5.8530    -3.1010    -0.7100 H     1 <1>   0.0800 
 42 H       -4.0580    -4.3260    -0.8750 H     1 <1>   0.1500 
@<TRIPOS>BOND
  1   1   2  2   
  2   1   3  2   
  3   1   4  am  
  4   1   5  1   
  5   4   6  1   
  6   4   7  1   
  7   5  22  1   
  8   5  23  1   
  9   5  24  1   
 10   6   8  ar  
 11   6   9  ar  
 12   7  10  1   
 13   7  25  1   
 14   7  26  1   
 15   8  11  ar  
 16   8  12  1   
 17   9  13  ar  
 18   9  27  1   
 19  10  14  ar  
 20  10  15  ar  
 21  11  16  ar  
 22  11  28  1   
 23  12  29  1   
 24  12  30  1   
 25  12  31  1   
 26  13  16  ar  
 27  13  32  1   
 28  14  17  ar  
 29  14  18  1   
 30  15  19  ar  
 31  15  33  1   
 32  16  20  1   
 33  17  21  ar  
 34  17  34  1   
 35  18  35  1   
 36  18  36  1   
 37  18  37  1   
 38  19  21  ar  
 39  19  38  1   
 40  20  39  1   
 41  20  40  1   
 42  20  41  1   
 43  21  42  1   
@<TRIPOS>SUBSTRUCTURE
  1 ****   4 GROUP 4 **** **** 0

# MOE 2024.06 (io_trps.svl 2023.06)
