@<TRIPOS>MOLECULE
NONAME
37 41 1 0 0 
SMALL
USER_CHARGES


@<TRIPOS>ATOM
  1 CL      -0.2640     0.1380     1.0900 Cl    1 <1>  -0.1770 
  2 C       -1.6700     1.1200     0.7410 C.ar  1 <1>   0.1770 
  3 C       -1.5560     2.4670     0.4080 C.ar  1 <1>  -0.1790 
  4 C       -2.9010     0.4990     0.8390 C.ar  1 <1>  -0.1500 
  5 C       -0.2860     3.1470     0.2950 C.2   1 <1>   0.9790 
  6 C       -2.7420     3.1700     0.1920 C.ar  1 <1>  -0.1500 
  7 C       -4.0600     1.2210     0.6170 C.ar  1 <1>  -0.1500 
  8 O       -0.1310     4.2430     0.8610 O.co2 1 <1>  -0.9000 
  9 O        0.6310     2.6920    -0.4050 O.co2 1 <1>  -0.9000 
 10 C       -3.9930     2.5720     0.2940 C.ar  1 <1>   0.1170 
 11 N       -5.1700     3.3240     0.0940 N.am  1 <1>  -0.2370 
 12 C       -6.2840     3.3080     0.9200 C.2   1 <1>   0.5690 
 13 C       -5.3550     4.2950    -0.8780 C.2   1 <1>   0.5690 
 14 O       -6.4310     2.7430     1.9740 O.2   1 <1>  -0.5700 
 15 C       -7.3590     4.1030     0.2360 C.3   1 <1>  -0.0190 
 16 O       -4.7630     4.4500    -1.9150 O.2   1 <1>  -0.5700 
 17 C       -6.4690     5.1770    -0.4000 C.3   1 <1>  -0.0190 
 18 C       -8.6470     4.8940     0.5770 C.3   1 <1>   0.1530 
 19 C       -7.4790     6.2280    -0.8910 C.3   1 <1>   0.1530 
 20 C       -9.3730     4.8840    -0.7630 C.2   1 <1>  -0.2880 
 21 C       -8.1880     6.3480     0.4660 C.3   1 <1>  -0.1900 
 22 C       -8.6620     5.6130    -1.6300 C.2   1 <1>  -0.2880 
 23 C       -9.0360     7.5090     0.8670 C.3   1 <1>  -0.2000 
 24 C       -7.7590     7.1990     1.6180 C.3   1 <1>  -0.2000 
 25 H       -2.9450    -0.5430     1.0960 H     1 <1>   0.1500 
 26 H       -2.6600     4.2150    -0.0590 H     1 <1>   0.1500 
 27 H       -5.0150     0.7360     0.7050 H     1 <1>   0.1500 
 28 H       -7.6610     3.3960    -0.5210 H     1 <1>   0.0800 
 29 H       -5.9400     5.7100     0.3770 H     1 <1>   0.0800 
 30 H       -9.2210     4.6100     1.4420 H     1 <1>   0.0800 
 31 H       -7.0880     7.1570    -1.2700 H     1 <1>   0.0800 
 32 H      -10.2790     4.3160    -0.8920 H     1 <1>   0.1500 
 33 H       -8.8110     5.8130    -2.6770 H     1 <1>   0.1500 
 34 H       -9.9810     7.3180     1.3450 H     1 <1>   0.1000 
 35 H       -9.0660     8.3730     0.2260 H     1 <1>   0.1000 
 36 H       -6.9310     7.8770     1.5030 H     1 <1>   0.1000 
 37 H       -7.8390     6.8090     2.6190 H     1 <1>   0.1000 
@<TRIPOS>BOND
  1   1   2  1   
  2   2   3  ar  
  3   2   4  ar  
  4   3   5  1   
  5   3   6  ar  
  6   4   7  ar  
  7   4  25  1   
  8   5   8  ar  
  9   5   9  ar  
 10   6  10  ar  
 11   6  26  1   
 12   7  10  ar  
 13   7  27  1   
 14  10  11  1   
 15  11  12  am  
 16  11  13  am  
 17  12  14  2   
 18  12  15  1   
 19  13  16  2   
 20  13  17  1   
 21  15  17  1   
 22  15  18  1   
 23  15  28  1   
 24  17  19  1   
 25  17  29  1   
 26  18  20  1   
 27  18  21  1   
 28  18  30  1   
 29  19  21  1   
 30  19  22  1   
 31  19  31  1   
 32  20  22  2   
 33  20  32  1   
 34  21  23  1   
 35  21  24  1   
 36  22  33  1   
 37  23  24  1   
 38  23  34  1   
 39  23  35  1   
 40  24  36  1   
 41  24  37  1   
@<TRIPOS>SUBSTRUCTURE
  1 ****  11 GROUP 4 **** **** 0

# MOE 2024.06 (io_trps.svl 2023.06)
