@<TRIPOS>MOLECULE
NONAME
46 47 1 0 0 
SMALL
USER_CHARGES


@<TRIPOS>ATOM
  1 O        0.1500    -0.6860    -0.3510 O.2   1 <1>  -0.5700 
  2 C        0.2200    -1.7320     0.2480 C.2   1 <1>   0.5690 
  3 N        1.3950    -2.1890     0.7520 N.am  1 <1>  -0.7300 
  4 C       -1.0280    -2.5940     0.4420 C.3   1 <1>  -0.0190 
  5 C        2.6950    -1.4880     0.6250 C.3   1 <1>   0.1400 
  6 C       -1.1090    -3.6900    -0.6370 C.3   1 <1>  -0.1600 
  7 C       -2.3300    -1.7670     0.4490 C.3   1 <1>  -0.1600 
  8 C        3.4560    -2.0220    -0.5870 C.3   1 <1>  -0.0170 
  9 C       -2.3570    -4.5620    -0.4660 C.3   1 <1>   0.1400 
 10 C       -3.5640    -2.6580     0.6130 C.3   1 <1>   0.1400 
 11 C        4.8300    -1.3690    -0.6760 C.ar  1 <1>  -0.1440 
 12 N       -3.5700    -3.6990    -0.4520 N.am  1 <1>  -0.6600 
 13 C        5.8890    -1.8110     0.1140 C.ar  1 <1>   0.0820 
 14 C        5.0230    -0.3150    -1.5560 C.ar  1 <1>  -0.1500 
 15 C       -4.5670    -3.8750    -1.3780 C.2   1 <1>   0.5690 
 16 O        5.6540    -2.8400     0.9720 O.3   1 <1>  -0.3630 
 17 C        7.1330    -1.1910     0.0040 C.ar  1 <1>  -0.1500 
 18 C        6.2600     0.2970    -1.6590 C.ar  1 <1>  -0.1500 
 19 O       -4.5360    -4.7590    -2.2010 O.2   1 <1>  -0.5700 
 20 C       -5.7660    -2.9550    -1.4060 C.3   1 <1>  -0.1790 
 21 C        6.6780    -3.3810     1.7780 C.3   1 <1>   0.0400 
 22 C        7.3140    -0.1420    -0.8790 C.ar  1 <1>  -0.1500 
 23 H        1.4350    -3.0980     1.2120 H     1 <1>   0.3700 
 24 H       -0.9410    -3.0720     1.4010 H     1 <1>   0.0800 
 25 H        3.2740    -1.6420     1.5200 H     1 <1>   0.0800 
 26 H        2.5310    -0.4300     0.5080 H     1 <1>   0.0800 
 27 H       -0.2350    -4.3140    -0.5930 H     1 <1>   0.0800 
 28 H       -1.1360    -3.2360    -1.6130 H     1 <1>   0.0800 
 29 H       -2.4200    -1.2190    -0.4730 H     1 <1>   0.0800 
 30 H       -2.2970    -1.0500     1.2500 H     1 <1>   0.0800 
 31 H        2.8910    -1.8110    -1.4780 H     1 <1>   0.0800 
 32 H        3.5700    -3.0880    -0.5080 H     1 <1>   0.0800 
 33 H       -2.3050    -5.1080     0.4600 H     1 <1>   0.0800 
 34 H       -2.4050    -5.2770    -1.2700 H     1 <1>   0.0800 
 35 H       -4.4500    -2.0500     0.5740 H     1 <1>   0.0800 
 36 H       -3.5400    -3.1430     1.5740 H     1 <1>   0.0800 
 37 H        4.2090     0.0360    -2.1660 H     1 <1>   0.1500 
 38 H        7.9690    -1.5060     0.5970 H     1 <1>   0.1500 
 39 H        6.4000     1.1140    -2.3450 H     1 <1>   0.1500 
 40 H       -5.4440    -1.9430    -1.5570 H     1 <1>   0.0800 
 41 H       -6.3090    -3.0360    -0.4850 H     1 <1>   0.0800 
 42 H       -6.4160    -3.2330    -2.2150 H     1 <1>   0.0800 
 43 H        6.2610    -4.1890     2.3510 H     1 <1>   0.0800 
 44 H        7.0430    -2.6150     2.4380 H     1 <1>   0.0800 
 45 H        7.4630    -3.7510     1.1420 H     1 <1>   0.0800 
 46 H        8.2760     0.3340    -0.9610 H     1 <1>   0.1500 
@<TRIPOS>BOND
  1   1   2  2   
  2   2   3  am  
  3   2   4  1   
  4   3   5  1   
  5   3  23  1   
  6   4   6  1   
  7   4   7  1   
  8   4  24  1   
  9   5   8  1   
 10   5  25  1   
 11   5  26  1   
 12   6   9  1   
 13   6  27  1   
 14   6  28  1   
 15   7  10  1   
 16   7  29  1   
 17   7  30  1   
 18   8  11  1   
 19   8  31  1   
 20   8  32  1   
 21   9  12  1   
 22   9  33  1   
 23   9  34  1   
 24  10  12  1   
 25  10  35  1   
 26  10  36  1   
 27  11  13  ar  
 28  11  14  ar  
 29  12  15  am  
 30  13  16  1   
 31  13  17  ar  
 32  14  18  ar  
 33  14  37  1   
 34  15  19  2   
 35  15  20  1   
 36  16  21  1   
 37  17  22  ar  
 38  17  38  1   
 39  18  22  ar  
 40  18  39  1   
 41  20  40  1   
 42  20  41  1   
 43  20  42  1   
 44  21  43  1   
 45  21  44  1   
 46  21  45  1   
 47  22  46  1   
@<TRIPOS>SUBSTRUCTURE
  1 ****   3 GROUP 4 **** **** 0

# MOE 2024.06 (io_trps.svl 2023.06)
