@<TRIPOS>MOLECULE
NONAME
33 34 1 0 0 
SMALL
USER_CHARGES


@<TRIPOS>ATOM
  1 F        1.1910     0.0720     1.7530 F     1 <1>  -0.1900 
  2 C        2.0050    -0.6500     1.0310 C.ar  1 <1>   0.1900 
  3 C        3.0830    -0.0330     0.4310 C.ar  1 <1>  -0.1500 
  4 C        1.7520    -2.0020     0.8970 C.ar  1 <1>  -0.1500 
  5 C        3.9610    -0.7950    -0.3310 C.ar  1 <1>   0.1000 
  6 C        2.6190    -2.7590     0.1260 C.ar  1 <1>  -0.1500 
  7 N        5.0690    -0.2270    -0.9480 N.pl3 1 <1>  -0.8690 
  8 C        3.7090    -2.1570    -0.4820 C.ar  1 <1>  -0.1500 
  9 C        6.0000     0.5800    -0.1520 C.3   1 <1>   0.2890 
 10 C        6.0480     1.9820    -0.7510 C.3   1 <1>  -0.1600 
 11 C        7.3760    -0.0760    -0.1820 C.3   1 <1>  -0.1600 
 12 C        7.0930     2.8350    -0.0400 C.3   1 <1>   0.3430 
 13 C        8.4010     0.8060     0.5260 C.3   1 <1>   0.3430 
 14 N        8.4250     2.1600    -0.1020 N.4   1 <1>  -0.9590 
 15 C        9.4820     3.0170     0.5180 C.3   1 <1>   0.2630 
 16 H        3.2280     1.0220     0.5490 H     1 <1>   0.1500 
 17 H        0.9000    -2.4440     1.3800 H     1 <1>   0.1500 
 18 H        2.4440    -3.8140     0.0000 H     1 <1>   0.1500 
 19 H        5.5400    -0.8560    -1.6060 H     1 <1>   0.4000 
 20 H        4.3730    -2.7530    -1.0800 H     1 <1>   0.1500 
 21 H        5.6540     0.6340     0.8690 H     1 <1>   0.0800 
 22 H        5.0840     2.4440    -0.6420 H     1 <1>   0.0800 
 23 H        6.2750     1.9310    -1.8010 H     1 <1>   0.0800 
 24 H        7.6920    -0.2460    -1.1960 H     1 <1>   0.0800 
 25 H        7.3250    -1.0260     0.3210 H     1 <1>   0.0800 
 26 H        6.8030     2.9770     0.9890 H     1 <1>   0.0800 
 27 H        7.1460     3.8030    -0.5130 H     1 <1>   0.0800 
 28 H        9.3760     0.3490     0.4570 H     1 <1>   0.0800 
 29 H        8.1420     0.8920     1.5700 H     1 <1>   0.0800 
 30 H        8.6570     2.0350    -1.1000 H     1 <1>   0.4500 
 31 H        9.2730     3.1740     1.5640 H     1 <1>   0.0800 
 32 H        9.5230     3.9760     0.0270 H     1 <1>   0.0800 
 33 H       10.4480     2.5450     0.4260 H     1 <1>   0.0800 
@<TRIPOS>BOND
  1   1   2  1   
  2   2   3  ar  
  3   2   4  ar  
  4   3   5  ar  
  5   3  16  1   
  6   4   6  ar  
  7   4  17  1   
  8   5   7  1   
  9   5   8  ar  
 10   6   8  ar  
 11   6  18  1   
 12   7   9  1   
 13   7  19  1   
 14   8  20  1   
 15   9  10  1   
 16   9  11  1   
 17   9  21  1   
 18  10  12  1   
 19  10  22  1   
 20  10  23  1   
 21  11  13  1   
 22  11  24  1   
 23  11  25  1   
 24  12  14  1   
 25  12  26  1   
 26  12  27  1   
 27  13  14  1   
 28  13  28  1   
 29  13  29  1   
 30  14  15  1   
 31  14  30  1   
 32  15  31  1   
 33  15  32  1   
 34  15  33  1   
@<TRIPOS>SUBSTRUCTURE
  1 ****   9 GROUP 4 **** **** 0

# MOE 2024.06 (io_trps.svl 2023.06)
