@<TRIPOS>MOLECULE
NONAME
45 46 1 0 0 
SMALL
USER_CHARGES


@<TRIPOS>ATOM
  1 O       -0.0970     0.1480    -1.1630 O.2   1 <1>  -0.5700 
  2 C       -0.0860     0.9540    -0.2550 C.2   1 <1>   0.6900 
  3 N       -1.2330     1.4290     0.3070 N.am  1 <1>  -0.5470 
  4 N        1.0860     1.4250     0.2350 N.am  1 <1>  -0.7300 
  5 C       -2.5720     1.0640     0.0960 C.ar  1 <1>   0.1170 
  6 C        2.4230     1.0420    -0.2520 C.3   1 <1>   0.2200 
  7 C       -3.5690     2.0040     0.3240 C.ar  1 <1>  -0.1500 
  8 C       -2.9420    -0.2120    -0.3110 C.ar  1 <1>  -0.1500 
  9 C        3.1070     0.2150     0.8450 C.3   1 <1>  -0.1600 
 10 C        3.1580     2.3280    -0.6450 C.3   1 <1>  -0.1600 
 11 C       -4.9120     1.6860     0.1470 C.ar  1 <1>   0.0830 
 12 C       -4.2720    -0.5450    -0.4910 C.ar  1 <1>  -0.1500 
 13 C        4.3610    -0.5110     0.3340 C.3   1 <1>  -0.1600 
 14 C        4.6130     2.1320    -1.1040 C.3   1 <1>  -0.1600 
 15 O       -5.9120     2.5910     0.3590 O.3   1 <1>  -0.3630 
 16 C       -5.2690     0.3990    -0.2650 C.ar  1 <1>   0.0830 
 17 C        5.6600     0.3070     0.4060 C.3   1 <1>  -0.1600 
 18 C        5.5560     1.8010     0.0610 C.3   1 <1>  -0.1600 
 19 C       -5.6440     3.9520     0.6090 C.3   1 <1>   0.0400 
 20 O       -6.5980     0.1210    -0.4290 O.3   1 <1>  -0.3630 
 21 C       -7.0290    -1.1270    -0.9230 C.3   1 <1>   0.0400 
 22 H       -1.0930     2.2430     0.8930 H     1 <1>   0.3700 
 23 H        1.0890     1.9740     1.0890 H     1 <1>   0.3700 
 24 H        2.3140     0.4270    -1.1310 H     1 <1>   0.0800 
 25 H       -3.2760     2.9840     0.6400 H     1 <1>   0.1500 
 26 H       -2.1870    -0.9560    -0.4870 H     1 <1>   0.1500 
 27 H        2.4100    -0.5410     1.1630 H     1 <1>   0.0800 
 28 H        3.3470     0.8270     1.6960 H     1 <1>   0.0800 
 29 H        3.1410     3.0210     0.1780 H     1 <1>   0.0800 
 30 H        2.6140     2.7750    -1.4590 H     1 <1>   0.0800 
 31 H       -4.5060    -1.5430    -0.8070 H     1 <1>   0.1500 
 32 H        4.1970    -0.8340    -0.6800 H     1 <1>   0.0800 
 33 H        4.5040    -1.4040     0.9190 H     1 <1>   0.0800 
 34 H        4.9410     3.0600    -1.5410 H     1 <1>   0.0800 
 35 H        4.6740     1.3800    -1.8730 H     1 <1>   0.0800 
 36 H        6.3740    -0.1510    -0.2580 H     1 <1>   0.0800 
 37 H        6.0650     0.2260     1.4000 H     1 <1>   0.0800 
 38 H        5.2530     2.3500     0.9360 H     1 <1>   0.0800 
 39 H        6.5450     2.1470    -0.1900 H     1 <1>   0.0800 
 40 H       -6.5850     4.4690     0.6680 H     1 <1>   0.0800 
 41 H       -5.0600     4.3480    -0.2030 H     1 <1>   0.0800 
 42 H       -5.1220     4.0390     1.5450 H     1 <1>   0.0800 
 43 H       -8.1010    -1.1020    -1.0000 H     1 <1>   0.0800 
 44 H       -6.7300    -1.8970    -0.2340 H     1 <1>   0.0800 
 45 H       -6.5960    -1.2850    -1.8950 H     1 <1>   0.0800 
@<TRIPOS>BOND
  1   1   2  2   
  2   2   3  am  
  3   2   4  am  
  4   3   5  1   
  5   3  22  1   
  6   4   6  1   
  7   4  23  1   
  8   5   7  ar  
  9   5   8  ar  
 10   6   9  1   
 11   6  10  1   
 12   6  24  1   
 13   7  11  ar  
 14   7  25  1   
 15   8  12  ar  
 16   8  26  1   
 17   9  13  1   
 18   9  27  1   
 19   9  28  1   
 20  10  14  1   
 21  10  29  1   
 22  10  30  1   
 23  11  15  1   
 24  11  16  ar  
 25  12  16  ar  
 26  12  31  1   
 27  13  17  1   
 28  13  32  1   
 29  13  33  1   
 30  14  18  1   
 31  14  34  1   
 32  14  35  1   
 33  15  19  1   
 34  16  20  1   
 35  17  18  1   
 36  17  36  1   
 37  17  37  1   
 38  18  38  1   
 39  18  39  1   
 40  19  40  1   
 41  19  41  1   
 42  19  42  1   
 43  20  21  1   
 44  21  43  1   
 45  21  44  1   
 46  21  45  1   
@<TRIPOS>SUBSTRUCTURE
  1 ****   3 GROUP 4 **** **** 0

# MOE 2024.06 (io_trps.svl 2023.06)
