@<TRIPOS>MOLECULE
NONAME
35 36 1 0 0 
SMALL
USER_CHARGES


@<TRIPOS>ATOM
  1 O       -0.3630    -0.0200    -0.1440 O.2   1 <1>  -0.5700 
  2 C       -0.7570    -1.1690    -0.0810 C.2   1 <1>   0.6900 
  3 N       -2.1010    -1.4270    -0.0530 N.am  1 <1>  -0.6600 
  4 N        0.1040    -2.2270    -0.0450 N.am  1 <1>  -0.5470 
  5 C       -3.1090    -0.3490    -0.1150 C.3   1 <1>   0.1400 
  6 C       -2.7360    -2.7420     0.1770 C.3   1 <1>   0.1400 
  7 C        1.5030    -2.3670    -0.0250 C.ar  1 <1>   0.1170 
  8 C       -4.4490    -1.0740    -0.1700 C.3   1 <1>  -0.1600 
  9 C       -4.1890    -2.4170     0.5060 C.3   1 <1>  -0.1600 
 10 C        2.0330    -3.6610    -0.0920 C.ar  1 <1>   0.0830 
 11 C        2.3780    -1.2900     0.0610 C.ar  1 <1>  -0.1500 
 12 O        1.1430    -4.6990    -0.1710 O.3   1 <1>  -0.3630 
 13 C        3.4110    -3.8490    -0.0760 C.ar  1 <1>  -0.1500 
 14 C        3.7500    -1.4780     0.0800 C.ar  1 <1>  -0.1430 
 15 C        1.5880    -6.0340    -0.2750 C.3   1 <1>   0.0400 
 16 C        4.2630    -2.7620     0.0090 C.ar  1 <1>  -0.1500 
 17 C        4.6830    -0.2840     0.1710 C.3   1 <1>  -0.0970 
 18 H       -0.3650    -3.1260    -0.0900 H     1 <1>   0.3700 
 19 H       -2.9510     0.2710    -0.9820 H     1 <1>   0.0800 
 20 H       -3.0340     0.2510     0.7760 H     1 <1>   0.0800 
 21 H       -2.2600    -3.2690     0.9870 H     1 <1>   0.0800 
 22 H       -2.6780    -3.3240    -0.7280 H     1 <1>   0.0800 
 23 H       -4.7190    -1.2280    -1.2000 H     1 <1>   0.0800 
 24 H       -5.2270    -0.5110     0.3160 H     1 <1>   0.0800 
 25 H       -4.2900    -2.3130     1.5730 H     1 <1>   0.0800 
 26 H       -4.8600    -3.1860     0.1650 H     1 <1>   0.0800 
 27 H        1.9880    -0.2910     0.1160 H     1 <1>   0.1500 
 28 H        3.8450    -4.8290    -0.1270 H     1 <1>   0.1500 
 29 H        0.7240    -6.6710    -0.3370 H     1 <1>   0.0800 
 30 H        2.1610    -6.2810     0.6010 H     1 <1>   0.0800 
 31 H        2.1810    -6.1360    -1.1660 H     1 <1>   0.0800 
 32 H        5.3270    -2.9180     0.0190 H     1 <1>   0.1500 
 33 H        4.1930     0.5390     0.6580 H     1 <1>   0.0800 
 34 H        4.9780     0.0230    -0.8160 H     1 <1>   0.0800 
 35 H        5.5630    -0.5370     0.7360 H     1 <1>   0.0800 
@<TRIPOS>BOND
  1   1   2  2   
  2   2   3  am  
  3   2   4  am  
  4   3   5  1   
  5   3   6  1   
  6   4   7  1   
  7   4  18  1   
  8   5   8  1   
  9   5  19  1   
 10   5  20  1   
 11   6   9  1   
 12   6  21  1   
 13   6  22  1   
 14   7  10  ar  
 15   7  11  ar  
 16   8   9  1   
 17   8  23  1   
 18   8  24  1   
 19   9  25  1   
 20   9  26  1   
 21  10  12  1   
 22  10  13  ar  
 23  11  14  ar  
 24  11  27  1   
 25  12  15  1   
 26  13  16  ar  
 27  13  28  1   
 28  14  16  ar  
 29  14  17  1   
 30  15  29  1   
 31  15  30  1   
 32  15  31  1   
 33  16  32  1   
 34  17  33  1   
 35  17  34  1   
 36  17  35  1   
@<TRIPOS>SUBSTRUCTURE
  1 ****   4 GROUP 4 **** **** 0

# MOE 2024.06 (io_trps.svl 2023.06)
