@<TRIPOS>MOLECULE
NONAME
48 52 1 0 0 
SMALL
USER_CHARGES


@<TRIPOS>ATOM
  1 S        2.4370     0.9900    -2.1010 S.3   1 <1>  -0.2420 
  2 C        3.0420     0.1740    -0.6560 C.2   1 <1>   0.6510 
  3 C        2.0380     2.4520    -1.1790 C.2   1 <1>  -0.0490 
  4 N        3.5180    -1.0270    -0.6700 N.2   1 <1>  -0.6210 
  5 N        2.9230     1.0150     0.4190 N.am  1 <1>  -0.2290 
  6 C        2.3620     2.2740     0.1090 C.2   1 <1>  -0.0410 
  7 C        3.9460    -1.5080     0.5380 C.2   1 <1>   0.0330 
  8 C        3.3550     0.5530     1.6370 C.2   1 <1>   0.6160 
  9 C        3.8770    -0.7620     1.6710 C.2   1 <1>  -0.1360 
 10 C        4.5060    -2.9280     0.5450 C.3   1 <1>   0.2480 
 11 O        3.2880     1.2580     2.6330 O.2   1 <1>  -0.5700 
 12 N        5.9790    -2.9380     0.3780 N.3   1 <1>  -0.8100 
 13 C        6.5260    -4.3080     0.5110 C.3   1 <1>   0.1100 
 14 C        6.3850    -2.3410    -0.9260 C.3   1 <1>   0.1100 
 15 C        8.0740    -4.3280     0.4230 C.3   1 <1>   0.3430 
 16 C        7.8980    -2.4850    -1.2110 C.3   1 <1>   0.3430 
 17 N        8.6120    -2.9930     0.0060 N.4   1 <1>  -0.9590 
 18 C       10.0910    -2.9160    -0.0750 C.3   1 <1>   0.4860 
 19 C       10.4830    -1.4670    -0.2890 C.ar  1 <1>  -0.1440 
 20 C       10.3070    -0.5440     0.7390 C.ar  1 <1>  -0.1500 
 21 C       11.0050    -1.0540    -1.5170 C.ar  1 <1>  -0.1500 
 22 C       10.6450     0.7720     0.4970 C.ar  1 <1>   0.0820 
 23 C       11.3420     0.2760    -1.7370 C.ar  1 <1>  -0.1500 
 24 O       10.5500     1.8130     1.3280 O.3   1 <1>  -0.3620 
 25 C       11.1470     1.1720    -0.7060 C.ar  1 <1>   0.0820 
 26 C       11.0310     2.9510     0.6120 C.3   1 <1>   0.4000 
 27 O       11.3900     2.4850    -0.6880 O.3   1 <1>  -0.3620 
 28 H        1.6040     3.2740    -1.7220 H     1 <1>   0.1500 
 29 H        2.2380     2.9850     0.9110 H     1 <1>   0.1500 
 30 H        4.2120    -1.1220     2.6250 H     1 <1>   0.1500 
 31 H        4.0360    -3.5020    -0.2370 H     1 <1>   0.0800 
 32 H        4.2580    -3.3870     1.4870 H     1 <1>   0.0800 
 33 H        6.1200    -4.9370    -0.2640 H     1 <1>   0.0800 
 34 H        6.2280    -4.7280     1.4570 H     1 <1>   0.0800 
 35 H        6.1480    -1.2910    -0.9240 H     1 <1>   0.0800 
 36 H        5.8280    -2.7900    -1.7310 H     1 <1>   0.0800 
 37 H        8.3780    -5.0890    -0.2770 H     1 <1>   0.0800 
 38 H        8.4710    -4.5920     1.3890 H     1 <1>   0.0800 
 39 H        8.2870    -1.5220    -1.5020 H     1 <1>   0.0800 
 40 H        8.0440    -3.1630    -2.0350 H     1 <1>   0.0800 
 41 H        8.2920    -2.3440     0.7410 H     1 <1>   0.4500 
 42 H       10.4530    -3.5210    -0.8900 H     1 <1>   0.0800 
 43 H       10.5330    -3.2720     0.8410 H     1 <1>   0.0800 
 44 H        9.9200    -0.8120     1.7060 H     1 <1>   0.1500 
 45 H       11.1580    -1.7600    -2.3170 H     1 <1>   0.1500 
 46 H       11.7450     0.6150    -2.6750 H     1 <1>   0.1500 
 47 H       11.9000     3.3490     1.1060 H     1 <1>   0.0800 
 48 H       10.2490     3.6850     0.5300 H     1 <1>   0.0800 
@<TRIPOS>BOND
  1   1   2  1   
  2   1   3  1   
  3   2   4  2   
  4   2   5  1   
  5   3   6  2   
  6   3  28  1   
  7   4   7  1   
  8   5   6  1   
  9   5   8  am  
 10   6  29  1   
 11   7   9  2   
 12   7  10  1   
 13   8   9  1   
 14   8  11  2   
 15   9  30  1   
 16  10  12  1   
 17  10  31  1   
 18  10  32  1   
 19  12  13  1   
 20  12  14  1   
 21  13  15  1   
 22  13  33  1   
 23  13  34  1   
 24  14  16  1   
 25  14  35  1   
 26  14  36  1   
 27  15  17  1   
 28  15  37  1   
 29  15  38  1   
 30  16  17  1   
 31  16  39  1   
 32  16  40  1   
 33  17  18  1   
 34  17  41  1   
 35  18  19  1   
 36  18  42  1   
 37  18  43  1   
 38  19  20  ar  
 39  19  21  ar  
 40  20  22  ar  
 41  20  44  1   
 42  21  23  ar  
 43  21  45  1   
 44  22  24  1   
 45  22  25  ar  
 46  23  25  ar  
 47  23  46  1   
 48  24  26  1   
 49  25  27  1   
 50  26  27  1   
 51  26  47  1   
 52  26  48  1   
@<TRIPOS>SUBSTRUCTURE
  1 ****  14 GROUP 4 **** **** 0

# MOE 2024.06 (io_trps.svl 2023.06)
