@<TRIPOS>MOLECULE
NONAME
41 42 1 0 0 
SMALL
USER_CHARGES


@<TRIPOS>ATOM
  1 O       -4.5940    -4.8020    -1.0460 O.3   1 <1>  -0.5600 
  2 C       -4.5090    -6.1830    -1.2240 C.3   1 <1>   0.1200 
  3 C       -4.1470    -4.3400     0.2010 C.3   1 <1>   0.1200 
  4 C       -3.0410    -6.6640    -1.1370 C.3   1 <1>   0.1100 
  5 C       -2.9610    -5.1570     0.7690 C.3   1 <1>   0.1100 
  6 N       -2.1720    -5.7880    -0.3100 N.3   1 <1>  -0.8100 
  7 C       -0.9500    -6.4550     0.1330 C.3   1 <1>   0.1100 
  8 C        0.1540    -5.4040     0.3100 C.3   1 <1>   0.3430 
  9 N        1.4790    -6.0370     0.5600 N.4   1 <1>  -0.9060 
 10 C        2.5670    -5.0540     0.6630 C.3   1 <1>   0.4810 
 11 C        3.8320    -5.8640     0.7480 C.2   1 <1>  -0.2880 
 12 C        4.7340    -5.9790    -0.2420 C.2   1 <1>  -0.1780 
 13 C        5.9620    -6.7440    -0.2370 C.ar  1 <1>   0.0280 
 14 C        6.5320    -7.2400     0.9350 C.ar  1 <1>  -0.1500 
 15 C        6.6190    -7.0100    -1.4360 C.ar  1 <1>  -0.1500 
 16 C        7.7020    -7.9760     0.9090 C.ar  1 <1>  -0.1500 
 17 C        7.7900    -7.7450    -1.4680 C.ar  1 <1>  -0.1500 
 18 C        8.3340    -8.2320    -0.2940 C.ar  1 <1>  -0.1500 
 19 H       -5.1090    -6.6570    -0.4670 H     1 <1>   0.0800 
 20 H       -4.9250    -6.4220    -2.1860 H     1 <1>   0.0800 
 21 H       -3.8510    -3.3150     0.0650 H     1 <1>   0.0800 
 22 H       -4.9770    -4.3620     0.8850 H     1 <1>   0.0800 
 23 H       -2.6380    -6.7040    -2.1340 H     1 <1>   0.0800 
 24 H       -3.0420    -7.6670    -0.7470 H     1 <1>   0.0800 
 25 H       -3.3490    -5.9200     1.4230 H     1 <1>   0.0800 
 26 H       -2.3450    -4.5020     1.3590 H     1 <1>   0.0800 
 27 H       -1.1330    -6.9920     1.0490 H     1 <1>   0.0800 
 28 H       -0.6410    -7.1520    -0.6290 H     1 <1>   0.0800 
 29 H       -0.1080    -4.7570     1.1310 H     1 <1>   0.0800 
 30 H        0.1980    -4.8120    -0.5900 H     1 <1>   0.0800 
 31 H        1.4630    -6.6060     1.4130 H     1 <1>   0.4500 
 32 H        1.7220    -6.6700    -0.2130 H     1 <1>   0.4500 
 33 H        2.5900    -4.4290    -0.2170 H     1 <1>   0.0800 
 34 H        2.4520    -4.4300     1.5360 H     1 <1>   0.0800 
 35 H        3.9490    -6.3580     1.6970 H     1 <1>   0.1500 
 36 H        4.5730    -5.4640    -1.1760 H     1 <1>   0.1500 
 37 H        6.0690    -7.0490     1.8840 H     1 <1>   0.1500 
 38 H        6.2140    -6.6410    -2.3610 H     1 <1>   0.1500 
 39 H        8.1260    -8.3510     1.8250 H     1 <1>   0.1500 
 40 H        8.2810    -7.9400    -2.4060 H     1 <1>   0.1500 
 41 H        9.2450    -8.8050    -0.3160 H     1 <1>   0.1500 
@<TRIPOS>BOND
  1   1   2  1   
  2   1   3  1   
  3   2   4  1   
  4   2  19  1   
  5   2  20  1   
  6   3   5  1   
  7   3  21  1   
  8   3  22  1   
  9   4   6  1   
 10   4  23  1   
 11   4  24  1   
 12   5   6  1   
 13   5  25  1   
 14   5  26  1   
 15   6   7  1   
 16   7   8  1   
 17   7  27  1   
 18   7  28  1   
 19   8   9  1   
 20   8  29  1   
 21   8  30  1   
 22   9  10  1   
 23   9  31  1   
 24   9  32  1   
 25  10  11  1   
 26  10  33  1   
 27  10  34  1   
 28  11  12  2   
 29  11  35  1   
 30  12  13  1   
 31  12  36  1   
 32  13  14  ar  
 33  13  15  ar  
 34  14  16  ar  
 35  14  37  1   
 36  15  17  ar  
 37  15  38  1   
 38  16  18  ar  
 39  16  39  1   
 40  17  18  ar  
 41  17  40  1   
 42  18  41  1   
@<TRIPOS>SUBSTRUCTURE
  1 ****   9 GROUP 4 **** **** 0

# MOE 2024.06 (io_trps.svl 2023.06)
