@<TRIPOS>MOLECULE
NONAME
42 42 1 0 0 
SMALL
USER_CHARGES


@<TRIPOS>ATOM
  1 S       -0.5930    -0.3030     0.4250 S.o2  1 <1>   1.4470 
  2 O       -0.0660    -1.1710     1.4470 O.2   1 <1>  -0.6500 
  3 O        0.0650     0.9400     0.1070 O.2   1 <1>  -0.6500 
  4 N       -0.3850    -1.1810    -0.9630 N.am  1 <1>  -0.9780 
  5 C       -2.3880    -0.0980     0.5800 C.ar  1 <1>  -0.0090 
  6 C       -2.9680     1.1640     0.6560 C.ar  1 <1>  -0.1500 
  7 C       -3.2350    -1.1990     0.6420 C.ar  1 <1>  -0.1500 
  8 C       -4.3360     1.3220     0.7830 C.ar  1 <1>  -0.1500 
  9 C       -4.6040    -1.0470     0.7690 C.ar  1 <1>  -0.1500 
 10 C       -5.1740     0.2160     0.8280 C.ar  1 <1>   0.1000 
 11 N       -6.5460     0.3730     0.9610 N.pl3 1 <1>  -0.8690 
 12 C       -7.4720     0.4060    -0.2610 C.3   1 <1>   0.6690 
 13 N       -8.6490    -0.1660     0.4560 N.am  1 <1>  -0.7300 
 14 C       -7.0240    -0.4570    -1.5170 C.3   1 <1>   1.0200 
 15 C       -7.6500     1.8770    -0.8300 C.3   1 <1>   1.0200 
 16 C       -9.9120    -0.2630     0.0200 C.2   1 <1>   0.7800 
 17 F       -5.8980    -0.0400    -2.0910 F     1 <1>  -0.3400 
 18 F       -7.9130    -0.5210    -2.5010 F     1 <1>  -0.3400 
 19 F       -6.8020    -1.7310    -1.1950 F     1 <1>  -0.3400 
 20 F       -6.4900     2.4640    -1.1140 F     1 <1>  -0.3400 
 21 F       -8.2080     2.6770     0.0790 F     1 <1>  -0.3400 
 22 F       -8.3810     2.0240    -1.9280 F     1 <1>  -0.3400 
 23 O      -10.2810     0.2510    -1.0070 O.2   1 <1>  -0.5700 
 24 O      -10.7350    -0.9650     0.7860 O.3   1 <1>  -0.4300 
 25 C      -12.0950    -1.1340     0.4590 C.3   1 <1>   0.2000 
 26 C      -12.8730     0.0780     0.9730 C.3   1 <1>  -0.2400 
 27 C      -12.5630    -2.4220     1.1310 C.3   1 <1>  -0.2400 
 28 H        0.4120    -1.7740    -0.7470 H     1 <1>   0.4200 
 29 H       -0.0490    -0.4910    -1.6310 H     1 <1>   0.4200 
 30 H       -2.3370     2.0370     0.6160 H     1 <1>   0.1500 
 31 H       -2.8130    -2.1890     0.5930 H     1 <1>   0.1500 
 32 H       -4.7470     2.3130     0.8470 H     1 <1>   0.1500 
 33 H       -5.2330    -1.9170     0.8320 H     1 <1>   0.1500 
 34 H       -6.7900     1.1670     1.5680 H     1 <1>   0.4000 
 35 H       -8.3800    -0.6990     1.2810 H     1 <1>   0.3700 
 36 H      -12.1920    -1.2270    -0.6110 H     1 <1>   0.0800 
 37 H      -12.7440     0.1870     2.0350 H     1 <1>   0.0800 
 38 H      -13.9200    -0.0470     0.7660 H     1 <1>   0.0800 
 39 H      -12.5390     0.9710     0.4770 H     1 <1>   0.0800 
 40 H      -12.4480    -2.3540     2.1980 H     1 <1>   0.0800 
 41 H      -11.9940    -3.2560     0.7620 H     1 <1>   0.0800 
 42 H      -13.6000    -2.5960     0.9080 H     1 <1>   0.0800 
@<TRIPOS>BOND
  1   1   2  2   
  2   1   3  2   
  3   1   4  am  
  4   1   5  1   
  5   4  28  1   
  6   4  29  1   
  7   5   6  ar  
  8   5   7  ar  
  9   6   8  ar  
 10   6  30  1   
 11   7   9  ar  
 12   7  31  1   
 13   8  10  ar  
 14   8  32  1   
 15   9  10  ar  
 16   9  33  1   
 17  10  11  1   
 18  11  12  1   
 19  11  34  1   
 20  12  13  1   
 21  12  14  1   
 22  12  15  1   
 23  13  16  am  
 24  13  35  1   
 25  14  17  1   
 26  14  18  1   
 27  14  19  1   
 28  15  20  1   
 29  15  21  1   
 30  15  22  1   
 31  16  23  2   
 32  16  24  1   
 33  24  25  1   
 34  25  26  1   
 35  25  27  1   
 36  25  36  1   
 37  26  37  1   
 38  26  38  1   
 39  26  39  1   
 40  27  40  1   
 41  27  41  1   
 42  27  42  1   
@<TRIPOS>SUBSTRUCTURE
  1 ****  11 GROUP 4 **** **** 0

# MOE 2024.06 (io_trps.svl 2023.06)
