@<TRIPOS>MOLECULE
NONAME
32 33 1 0 0 
SMALL
USER_CHARGES


@<TRIPOS>ATOM
  1 S       -0.5520     0.6990    -1.4180 S.o2  1 <1>   1.4470 
  2 O       -0.2890     1.5590    -2.5520 O.2   1 <1>  -0.6500 
  3 O       -0.5200    -0.7340    -1.6260 O.2   1 <1>  -0.6500 
  4 N        0.6290     1.0740    -0.2620 N.am  1 <1>  -0.8490 
  5 C       -2.1290     1.1800    -0.6640 C.ar  1 <1>  -0.0090 
  6 C        0.8070     2.5210    -0.0680 C.3   1 <1>   0.1960 
  7 C        1.9220     0.4590    -0.5910 C.3   1 <1>   0.1960 
  8 C       -2.5540     0.6280     0.5450 C.ar  1 <1>   0.0830 
  9 C       -2.9600     2.1100    -1.2880 C.ar  1 <1>  -0.1500 
 10 C        1.8890     2.8020     0.9910 C.3   1 <1>   0.1200 
 11 C        2.9840     0.8000     0.4700 C.3   1 <1>   0.1200 
 12 O       -1.7810    -0.2640     1.1930 O.3   1 <1>  -0.3630 
 13 C       -3.7600     0.9950     1.1240 C.ar  1 <1>  -0.1500 
 14 C       -4.1710     2.4860    -0.7290 C.ar  1 <1>  -0.1500 
 15 O        3.0950     2.1870     0.6350 O.3   1 <1>  -0.5600 
 16 C       -2.1590    -1.6190     1.1010 C.3   1 <1>   0.0400 
 17 C       -4.5470     1.9180     0.4710 C.ar  1 <1>   0.1900 
 18 F       -5.6850     2.2690     1.0050 F     1 <1>  -0.1900 
 19 H       -0.1210     2.9590     0.2550 H     1 <1>   0.0800 
 20 H        1.0980     2.9900    -0.9940 H     1 <1>   0.0800 
 21 H        2.2600     0.8020    -1.5550 H     1 <1>   0.0800 
 22 H        1.8100    -0.6110    -0.6380 H     1 <1>   0.0800 
 23 H       -2.6570     2.5460    -2.2270 H     1 <1>   0.1500 
 24 H        1.5810     2.4290     1.9520 H     1 <1>   0.0800 
 25 H        2.0700     3.8590     1.0680 H     1 <1>   0.0800 
 26 H        3.9460     0.4260     0.1690 H     1 <1>   0.0800 
 27 H        2.7210     0.3610     1.4170 H     1 <1>   0.0800 
 28 H       -4.0730     0.5750     2.0610 H     1 <1>   0.1500 
 29 H       -4.8110     3.2030    -1.2120 H     1 <1>   0.1500 
 30 H       -1.4230    -2.2090     1.6170 H     1 <1>   0.0800 
 31 H       -2.1910    -1.9040     0.0640 H     1 <1>   0.0800 
 32 H       -3.1230    -1.7490     1.5580 H     1 <1>   0.0800 
@<TRIPOS>BOND
  1   1   2  2   
  2   1   3  2   
  3   1   4  am  
  4   1   5  1   
  5   4   6  1   
  6   4   7  1   
  7   5   8  ar  
  8   5   9  ar  
  9   6  10  1   
 10   6  19  1   
 11   6  20  1   
 12   7  11  1   
 13   7  21  1   
 14   7  22  1   
 15   8  12  1   
 16   8  13  ar  
 17   9  14  ar  
 18   9  23  1   
 19  10  15  1   
 20  10  24  1   
 21  10  25  1   
 22  11  15  1   
 23  11  26  1   
 24  11  27  1   
 25  12  16  1   
 26  13  17  ar  
 27  13  28  1   
 28  14  17  ar  
 29  14  29  1   
 30  16  30  1   
 31  16  31  1   
 32  16  32  1   
 33  17  18  1   
@<TRIPOS>SUBSTRUCTURE
  1 ****   5 GROUP 4 **** **** 0

# MOE 2024.06 (io_trps.svl 2023.06)
