@<TRIPOS>MOLECULE
NONAME
37 38 1 0 0 
SMALL
USER_CHARGES


@<TRIPOS>ATOM
  1 F        0.7060     0.1950    -1.1100 F     1 <1>  -0.1900 
  2 C        1.7300    -0.5470    -0.7900 C.ar  1 <1>   0.1900 
  3 C        2.5710    -0.9930    -1.7910 C.ar  1 <1>  -0.1500 
  4 C        1.9370    -0.8600     0.5390 C.ar  1 <1>  -0.1500 
  5 C        3.6590    -1.7770    -1.4450 C.ar  1 <1>  -0.1500 
  6 C        3.0270    -1.6450     0.8760 C.ar  1 <1>  -0.1500 
  7 C        3.8930    -2.1020    -0.1130 C.ar  1 <1>  -0.1430 
  8 C        5.0950    -2.9500     0.2650 C.3   1 <1>   0.4870 
  9 N        6.3260    -2.1310     0.1260 N.4   1 <1>  -0.9590 
 10 C        7.5990    -2.9060     0.3020 C.3   1 <1>   0.3430 
 11 C        6.3360    -0.8860     0.9620 C.3   1 <1>   0.3430 
 12 C        8.8450    -1.9990     0.1360 C.3   1 <1>   0.1100 
 13 C        7.5420     0.0110     0.5950 C.3   1 <1>   0.1100 
 14 N        8.4930    -0.6440    -0.3460 N.3   1 <1>  -0.8100 
 15 C        9.7150     0.1980    -0.5320 C.3   1 <1>   0.1710 
 16 C        9.4400     1.6210    -1.0370 C.2   1 <1>   0.5690 
 17 O        9.3320     2.5190    -0.2420 O.2   1 <1>  -0.5700 
 18 N        9.2990     1.8660    -2.3550 N.am  1 <1>  -0.8000 
 19 H        2.3700    -0.7290    -2.8150 H     1 <1>   0.1500 
 20 H        1.2540    -0.4960     1.2870 H     1 <1>   0.1500 
 21 H        4.3100    -2.1300    -2.2270 H     1 <1>   0.1500 
 22 H        3.1850    -1.8940     1.9120 H     1 <1>   0.1500 
 23 H        5.1440    -3.8070    -0.3870 H     1 <1>   0.0800 
 24 H        4.9930    -3.2980     1.2800 H     1 <1>   0.0800 
 25 H        6.3730    -1.7640    -0.8360 H     1 <1>   0.4500 
 26 H        7.6470    -3.6950    -0.4310 H     1 <1>   0.0800 
 27 H        7.6250    -3.3630     1.2770 H     1 <1>   0.0800 
 28 H        6.3900    -1.1430     2.0070 H     1 <1>   0.0800 
 29 H        5.4290    -0.3230     0.8080 H     1 <1>   0.0800 
 30 H        9.5240    -2.4660    -0.5590 H     1 <1>   0.0800 
 31 H        9.3540    -1.9260     1.0830 H     1 <1>   0.0800 
 32 H        8.0530     0.2980     1.5000 H     1 <1>   0.0800 
 33 H        7.1640     0.9150     0.1470 H     1 <1>   0.0800 
 34 H       10.3720    -0.2820    -1.2350 H     1 <1>   0.0800 
 35 H       10.2420     0.2800     0.4030 H     1 <1>   0.0800 
 36 H        9.1130     2.8200    -2.6690 H     1 <1>   0.3700 
 37 H        9.3230     1.1460    -3.0760 H     1 <1>   0.3700 
@<TRIPOS>BOND
  1   1   2  1   
  2   2   3  ar  
  3   2   4  ar  
  4   3   5  ar  
  5   3  19  1   
  6   4   6  ar  
  7   4  20  1   
  8   5   7  ar  
  9   5  21  1   
 10   6   7  ar  
 11   6  22  1   
 12   7   8  1   
 13   8   9  1   
 14   8  23  1   
 15   8  24  1   
 16   9  10  1   
 17   9  11  1   
 18   9  25  1   
 19  10  12  1   
 20  10  26  1   
 21  10  27  1   
 22  11  13  1   
 23  11  28  1   
 24  11  29  1   
 25  12  14  1   
 26  12  30  1   
 27  12  31  1   
 28  13  14  1   
 29  13  32  1   
 30  13  33  1   
 31  14  15  1   
 32  15  16  1   
 33  15  34  1   
 34  15  35  1   
 35  16  17  2   
 36  16  18  am  
 37  18  36  1   
 38  18  37  1   
@<TRIPOS>SUBSTRUCTURE
  1 ****  11 GROUP 4 **** **** 0

# MOE 2024.06 (io_trps.svl 2023.06)
