@<TRIPOS>MOLECULE
NONAME
52 54 1 0 0 
SMALL
USER_CHARGES


@<TRIPOS>ATOM
  1 O        0.4870     3.2810    -1.7250 O.2   1 <1>  -0.5700 
  2 C        0.3400     3.1900    -0.5270 C.2   1 <1>   0.5690 
  3 N        0.9190     2.1380     0.1340 N.am  1 <1>  -0.6600 
  4 C       -0.5040     4.2380     0.1750 C.3   1 <1>  -0.0990 
  5 C        2.2070     1.6080    -0.4340 C.3   1 <1>   0.1400 
  6 C        0.0540     0.9910     0.5580 C.3   1 <1>   0.1400 
  7 C       -1.8760     3.7450     0.6650 C.3   1 <1>   0.2070 
  8 C        1.9540     0.4970    -1.4900 C.3   1 <1>   0.3430 
  9 C       -0.4010     0.1820    -0.6860 C.3   1 <1>   0.3430 
 10 C       -2.6040     2.7900    -0.3030 C.ar  1 <1>  -0.1440 
 11 C       -2.7580     4.9330     1.0570 C.ar  1 <1>  -0.1440 
 12 N        0.5020     0.4280    -1.8660 N.4   1 <1>  -0.9060 
 13 C       -3.3180     1.6910     0.1710 C.ar  1 <1>   0.0820 
 14 C       -2.5770     3.0020    -1.6730 C.ar  1 <1>  -0.1500 
 15 C       -3.0080     5.1950     2.3980 C.ar  1 <1>  -0.1500 
 16 C       -3.3180     5.7690     0.0990 C.ar  1 <1>  -0.1500 
 17 O       -3.3780     1.4690     1.4960 O.3   1 <1>  -0.5330 
 18 C       -3.9780     0.8110    -0.6880 C.ar  1 <1>  -0.1440 
 19 C       -3.2270     2.1420    -2.5370 C.ar  1 <1>  -0.1500 
 20 C       -3.7950     6.2700     2.7730 C.ar  1 <1>  -0.1500 
 21 C       -4.1050     6.8440     0.4720 C.ar  1 <1>  -0.1500 
 22 C       -3.9290     1.0480    -2.0590 C.ar  1 <1>  -0.1440 
 23 C       -4.7510    -0.3840    -0.1200 C.3   1 <1>  -0.0970 
 24 C       -4.3440     7.0960     1.8100 C.ar  1 <1>  -0.1500 
 25 C       -4.6470     0.1640    -3.0730 C.3   1 <1>  -0.0970 
 26 H       -0.6480     5.0550    -0.5080 H     1 <1>   0.0800 
 27 H        0.0500     4.6240     1.0110 H     1 <1>   0.0800 
 28 H        2.8240     1.2240     0.3610 H     1 <1>   0.0800 
 29 H        2.7540     2.4140    -0.8950 H     1 <1>   0.0800 
 30 H       -0.7950     1.3200     1.1220 H     1 <1>   0.0800 
 31 H        0.6200     0.3480     1.2100 H     1 <1>   0.0800 
 32 H       -1.6700     3.2090     1.5720 H     1 <1>   0.0800 
 33 H        2.2720    -0.4520    -1.0890 H     1 <1>   0.0800 
 34 H        2.5540     0.7020    -2.3620 H     1 <1>   0.0800 
 35 H       -1.4050     0.4740    -0.9450 H     1 <1>   0.0800 
 36 H       -0.4210    -0.8660    -0.4370 H     1 <1>   0.0800 
 37 H        0.3090    -0.2020    -2.6520 H     1 <1>   0.4500 
 38 H        0.2750     1.3960    -2.1780 H     1 <1>   0.4500 
 39 H       -2.0560     3.8470    -2.0900 H     1 <1>   0.1500 
 40 H       -2.5940     4.5640     3.1640 H     1 <1>   0.1500 
 41 H       -3.1500     5.5920    -0.9470 H     1 <1>   0.1500 
 42 H       -4.1630     0.9460     1.7430 H     1 <1>   0.4500 
 43 H       -3.1910     2.3450    -3.5930 H     1 <1>   0.1500 
 44 H       -3.9810     6.4630     3.8150 H     1 <1>   0.1500 
 45 H       -4.5330     7.4820    -0.2810 H     1 <1>   0.1500 
 46 H       -4.2300    -0.8250     0.7090 H     1 <1>   0.0800 
 47 H       -4.8870    -1.1610    -0.8480 H     1 <1>   0.0800 
 48 H       -5.7230    -0.0600     0.2090 H     1 <1>   0.0800 
 49 H       -4.9570     7.9320     2.1000 H     1 <1>   0.1500 
 50 H       -4.1940    -0.8100    -3.1070 H     1 <1>   0.0800 
 51 H       -4.6050     0.5900    -4.0590 H     1 <1>   0.0800 
 52 H       -5.6830     0.0620    -2.8050 H     1 <1>   0.0800 
@<TRIPOS>BOND
  1   1   2  2   
  2   2   3  am  
  3   2   4  1   
  4   3   5  1   
  5   3   6  1   
  6   4   7  1   
  7   4  26  1   
  8   4  27  1   
  9   5   8  1   
 10   5  28  1   
 11   5  29  1   
 12   6   9  1   
 13   6  30  1   
 14   6  31  1   
 15   7  10  1   
 16   7  11  1   
 17   7  32  1   
 18   8  12  1   
 19   8  33  1   
 20   8  34  1   
 21   9  12  1   
 22   9  35  1   
 23   9  36  1   
 24  10  13  ar  
 25  10  14  ar  
 26  11  15  ar  
 27  11  16  ar  
 28  12  37  1   
 29  12  38  1   
 30  13  17  1   
 31  13  18  ar  
 32  14  19  ar  
 33  14  39  1   
 34  15  20  ar  
 35  15  40  1   
 36  16  21  ar  
 37  16  41  1   
 38  17  42  1   
 39  18  22  ar  
 40  18  23  1   
 41  19  22  ar  
 42  19  43  1   
 43  20  24  ar  
 44  20  44  1   
 45  21  24  ar  
 46  21  45  1   
 47  22  25  1   
 48  23  46  1   
 49  23  47  1   
 50  23  48  1   
 51  24  49  1   
 52  25  50  1   
 53  25  51  1   
 54  25  52  1   
@<TRIPOS>SUBSTRUCTURE
  1 ****  10 GROUP 4 **** **** 0

# MOE 2024.06 (io_trps.svl 2023.06)
