@<TRIPOS>MOLECULE
NONAME
48 50 1 0 0 
SMALL
USER_CHARGES


@<TRIPOS>ATOM
  1 O       -2.0140     1.0640     1.5310 O.3   1 <1>  -0.3630 
  2 C       -1.2400     1.9060     0.7940 C.ar  1 <1>   0.0830 
  3 C       -1.5660     0.5150     2.7530 C.3   1 <1>   0.0400 
  4 C       -1.7360     2.3240    -0.4490 C.ar  1 <1>   0.0280 
  5 C       -0.0010     2.3600     1.2410 C.ar  1 <1>  -0.1500 
  6 C       -0.9580     3.1940    -1.2100 C.ar  1 <1>  -0.1500 
  7 C       -3.0190     1.8660    -0.9350 C.2   1 <1>  -0.1780 
  8 C        0.7480     3.2260     0.4670 C.ar  1 <1>  -0.1500 
  9 C        0.2690     3.6430    -0.7600 C.ar  1 <1>  -0.1500 
 10 C       -3.8820     2.5390    -1.7140 C.2   1 <1>  -0.2880 
 11 C       -5.2200     2.0040    -2.1510 C.3   1 <1>   0.4810 
 12 N       -6.1980     2.4700    -1.1470 N.4   1 <1>  -0.9590 
 13 C       -7.4900     1.6950    -1.2230 C.3   1 <1>   0.3430 
 14 C       -6.4450     3.9580    -1.2340 C.3   1 <1>   0.3430 
 15 C       -8.5320     2.1740    -0.1900 C.3   1 <1>   0.2090 
 16 C       -7.4810     4.4490    -0.2010 C.3   1 <1>   0.2090 
 17 N       -8.7350     3.6460    -0.2940 N.pl3 1 <1>  -0.8380 
 18 C       -9.8420     4.1590     0.3720 C.ar  1 <1>   0.1000 
 19 C       -9.8960     4.2140     1.7610 C.ar  1 <1>  -0.1500 
 20 C      -10.9240     4.6290    -0.3590 C.ar  1 <1>  -0.1500 
 21 C      -11.0080     4.7280     2.4030 C.ar  1 <1>  -0.1500 
 22 C      -12.0380     5.1430     0.2790 C.ar  1 <1>  -0.1500 
 23 C      -12.0820     5.1930     1.6620 C.ar  1 <1>  -0.1500 
 24 H       -1.4040     1.3120     3.4570 H     1 <1>   0.0800 
 25 H       -0.6580    -0.0350     2.5770 H     1 <1>   0.0800 
 26 H       -2.3280    -0.1480     3.1220 H     1 <1>   0.0800 
 27 H        0.3990     2.0560     2.1890 H     1 <1>   0.1500 
 28 H       -1.3080     3.5210    -2.1720 H     1 <1>   0.1500 
 29 H       -3.2620     0.8740    -0.5910 H     1 <1>   0.1500 
 30 H        1.7050     3.5740     0.8170 H     1 <1>   0.1500 
 31 H        0.8560     4.3140    -1.3650 H     1 <1>   0.1500 
 32 H       -3.6810     3.5330    -2.0740 H     1 <1>   0.1500 
 33 H       -5.1850     0.9260    -2.1510 H     1 <1>   0.0800 
 34 H       -5.4740     2.3460    -3.1420 H     1 <1>   0.0800 
 35 H       -5.7640     2.2900    -0.2320 H     1 <1>   0.4500 
 36 H       -7.9220     1.8110    -2.2040 H     1 <1>   0.0800 
 37 H       -7.3010     0.6460    -1.0670 H     1 <1>   0.0800 
 38 H       -5.5230     4.4940    -1.0810 H     1 <1>   0.0800 
 39 H       -6.8130     4.2060    -2.2150 H     1 <1>   0.0800 
 40 H       -8.2070     1.9210     0.8050 H     1 <1>   0.0800 
 41 H       -9.4700     1.6750    -0.3680 H     1 <1>   0.0800 
 42 H       -7.7100     5.4850    -0.3870 H     1 <1>   0.0800 
 43 H       -7.0730     4.3740     0.7920 H     1 <1>   0.0800 
 44 H       -9.0680     3.8560     2.3410 H     1 <1>   0.1500 
 45 H      -10.8870     4.5890    -1.4310 H     1 <1>   0.1500 
 46 H      -11.0430     4.7680     3.4780 H     1 <1>   0.1500 
 47 H      -12.8720     5.5040    -0.2980 H     1 <1>   0.1500 
 48 H      -12.9480     5.5930     2.1600 H     1 <1>   0.1500 
@<TRIPOS>BOND
  1   1   2  1   
  2   1   3  1   
  3   2   4  ar  
  4   2   5  ar  
  5   3  24  1   
  6   3  25  1   
  7   3  26  1   
  8   4   6  ar  
  9   4   7  1   
 10   5   8  ar  
 11   5  27  1   
 12   6   9  ar  
 13   6  28  1   
 14   7  10  2   
 15   7  29  1   
 16   8   9  ar  
 17   8  30  1   
 18   9  31  1   
 19  10  11  1   
 20  10  32  1   
 21  11  12  1   
 22  11  33  1   
 23  11  34  1   
 24  12  13  1   
 25  12  14  1   
 26  12  35  1   
 27  13  15  1   
 28  13  36  1   
 29  13  37  1   
 30  14  16  1   
 31  14  38  1   
 32  14  39  1   
 33  15  17  1   
 34  15  40  1   
 35  15  41  1   
 36  16  17  1   
 37  16  42  1   
 38  16  43  1   
 39  17  18  1   
 40  18  19  ar  
 41  18  20  ar  
 42  19  21  ar  
 43  19  44  1   
 44  20  22  ar  
 45  20  45  1   
 46  21  23  ar  
 47  21  46  1   
 48  22  23  ar  
 49  22  47  1   
 50  23  48  1   
@<TRIPOS>SUBSTRUCTURE
  1 ****  12 GROUP 4 **** **** 0

# MOE 2024.06 (io_trps.svl 2023.06)
