@<TRIPOS>MOLECULE
NONAME
27 27 1 0 0 
SMALL
USER_CHARGES


@<TRIPOS>ATOM
  1 I        0.5310     0.5090     0.2400 I     1 <1>  -0.0810 
  2 C        0.2560    -1.6050     0.0290 C.ar  1 <1>   0.0810 
  3 C        1.3520    -2.4660     0.1130 C.ar  1 <1>   0.1170 
  4 C       -1.0380    -2.0420    -0.1880 C.ar  1 <1>  -0.1500 
  5 N        2.6510    -1.9740     0.3460 N.am  1 <1>  -0.5470 
  6 C        1.0840    -3.8260    -0.0250 C.ar  1 <1>  -0.1500 
  7 C       -1.2670    -3.3990    -0.3270 C.ar  1 <1>  -0.1500 
  8 C        3.8780    -2.4980     0.0700 C.2   1 <1>   0.6900 
  9 C       -0.2050    -4.2860    -0.2440 C.ar  1 <1>  -0.1500 
 10 O        4.0170    -3.5360    -0.5450 O.2   1 <1>  -0.5700 
 11 N        4.9590    -1.8060     0.5040 N.am  1 <1>  -0.7300 
 12 C        6.3620    -2.2020     0.2630 C.3   1 <1>   0.1400 
 13 C        7.1860    -0.9520    -0.0500 C.3   1 <1>  -0.1600 
 14 C        8.6550    -1.3050    -0.3080 C.3   1 <1>  -0.2400 
 15 H       -1.8530    -1.3420    -0.2480 H     1 <1>   0.1500 
 16 H        2.6850    -1.0040     0.6410 H     1 <1>   0.3700 
 17 H        1.8850    -4.5390     0.0390 H     1 <1>   0.1500 
 18 H       -2.2640    -3.7660    -0.4980 H     1 <1>   0.1500 
 19 H       -0.3810    -5.3430    -0.3510 H     1 <1>   0.1500 
 20 H        4.8280    -1.0340     1.1520 H     1 <1>   0.3700 
 21 H        6.4130    -2.8910    -0.5640 H     1 <1>   0.0800 
 22 H        6.7470    -2.6940     1.1400 H     1 <1>   0.0800 
 23 H        7.1310    -0.2660     0.7770 H     1 <1>   0.0800 
 24 H        6.7810    -0.4730    -0.9250 H     1 <1>   0.0800 
 25 H        9.0890    -1.7740     0.5580 H     1 <1>   0.0800 
 26 H        9.2140    -0.4130    -0.5310 H     1 <1>   0.0800 
 27 H        8.7380    -1.9770    -1.1450 H     1 <1>   0.0800 
@<TRIPOS>BOND
  1   1   2  1   
  2   2   3  ar  
  3   2   4  ar  
  4   3   5  1   
  5   3   6  ar  
  6   4   7  ar  
  7   4  15  1   
  8   5   8  am  
  9   5  16  1   
 10   6   9  ar  
 11   6  17  1   
 12   7   9  ar  
 13   7  18  1   
 14   8  10  2   
 15   8  11  am  
 16   9  19  1   
 17  11  12  1   
 18  11  20  1   
 19  12  13  1   
 20  12  21  1   
 21  12  22  1   
 22  13  14  1   
 23  13  23  1   
 24  13  24  1   
 25  14  25  1   
 26  14  26  1   
 27  14  27  1   
@<TRIPOS>SUBSTRUCTURE
  1 ****   5 GROUP 4 **** **** 0

# MOE 2024.06 (io_trps.svl 2023.06)
