@<TRIPOS>MOLECULE
NONAME
31 31 1 0 0 
SMALL
USER_CHARGES


@<TRIPOS>ATOM
  1 CL       0.0260    -1.1070    -2.1450 Cl    1 <1>  -0.1770 
  2 C       -1.4060    -1.4900    -1.2100 C.ar  1 <1>   0.1770 
  3 C       -2.4850    -0.6250    -1.2760 C.ar  1 <1>   0.1770 
  4 C       -1.4470    -2.6350    -0.4250 C.ar  1 <1>  -0.0090 
  5 CL      -2.3860     0.8120    -2.2790 Cl    1 <1>  -0.1770 
  6 C       -3.6460    -0.8770    -0.5560 C.ar  1 <1>   0.0830 
  7 S       -0.0450    -3.7690    -0.3240 S.o2  1 <1>   1.4470 
  8 C       -2.6160    -2.8800     0.2920 C.ar  1 <1>  -0.1500 
  9 O       -4.6740     0.0060    -0.6560 O.3   1 <1>  -0.3630 
 10 C       -3.7020    -2.0220     0.2330 C.ar  1 <1>  -0.1500 
 11 O        0.3690    -4.2020    -1.6370 O.2   1 <1>  -0.6500 
 12 O       -0.3030    -4.7570     0.6970 O.2   1 <1>  -0.6500 
 13 N        1.1810    -2.8580     0.3670 N.am  1 <1>  -0.9140 
 14 C       -5.8870    -0.1740     0.0410 C.3   1 <1>   0.0400 
 15 C        2.4580    -2.9400    -0.3440 C.3   1 <1>   0.1960 
 16 C        3.4970    -2.0500     0.3390 C.3   1 <1>   0.1200 
 17 O        4.7260    -2.2450    -0.2840 O.3   1 <1>  -0.5600 
 18 C        5.7480    -1.4440     0.2170 C.3   1 <1>   0.0400 
 19 H       -2.6800    -3.7620     0.9100 H     1 <1>   0.1500 
 20 H       -4.5790    -2.2620     0.8070 H     1 <1>   0.1500 
 21 H        1.3030    -3.3080     1.2740 H     1 <1>   0.4200 
 22 H       -6.5340     0.6500    -0.2000 H     1 <1>   0.0800 
 23 H       -5.6880    -0.1830     1.0980 H     1 <1>   0.0800 
 24 H       -6.3400    -1.0970    -0.2760 H     1 <1>   0.0800 
 25 H        2.3340    -2.6050    -1.3610 H     1 <1>   0.0800 
 26 H        2.8050    -3.9600    -0.3530 H     1 <1>   0.0800 
 27 H        3.5970    -2.3140     1.3770 H     1 <1>   0.0800 
 28 H        3.2170    -1.0150     0.2380 H     1 <1>   0.0800 
 29 H        6.6480    -1.6740    -0.3250 H     1 <1>   0.0800 
 30 H        5.8890    -1.6580     1.2620 H     1 <1>   0.0800 
 31 H        5.4920    -0.4090     0.0710 H     1 <1>   0.0800 
@<TRIPOS>BOND
  1   1   2  1   
  2   2   3  ar  
  3   2   4  ar  
  4   3   5  1   
  5   3   6  ar  
  6   4   7  1   
  7   4   8  ar  
  8   6   9  1   
  9   6  10  ar  
 10   7  11  2   
 11   7  12  2   
 12   7  13  am  
 13   8  10  ar  
 14   8  19  1   
 15   9  14  1   
 16  10  20  1   
 17  13  15  1   
 18  13  21  1   
 19  14  22  1   
 20  14  23  1   
 21  14  24  1   
 22  15  16  1   
 23  15  25  1   
 24  15  26  1   
 25  16  17  1   
 26  16  27  1   
 27  16  28  1   
 28  17  18  1   
 29  18  29  1   
 30  18  30  1   
 31  18  31  1   
@<TRIPOS>SUBSTRUCTURE
  1 ****   4 GROUP 4 **** **** 0

# MOE 2024.06 (io_trps.svl 2023.06)
