@<TRIPOS>MOLECULE
NONAME
50 52 1 0 0 
SMALL
USER_CHARGES


@<TRIPOS>ATOM
  1 S        0.6620    -0.6240    -1.1420 S.o2  1 <1>   1.4470 
  2 O        1.4910    -1.0640    -2.2450 O.2   1 <1>  -0.6500 
  3 O       -0.1570     0.5560    -1.3210 O.2   1 <1>  -0.6500 
  4 N        1.7260    -0.2870     0.1330 N.am  1 <1>  -0.8490 
  5 C       -0.3370    -2.0130    -0.5140 C.ar  1 <1>  -0.0090 
  6 C        2.4860     0.9510    -0.1270 C.3   1 <1>   0.1960 
  7 C        2.6470    -1.4100     0.4050 C.3   1 <1>   0.1960 
  8 C       -1.1960    -1.9090     0.5840 C.ar  1 <1>  -0.1440 
  9 C       -0.2280    -3.2540    -1.1360 C.ar  1 <1>  -0.1500 
 10 C        3.4370     1.3060     1.0320 C.3   1 <1>   0.1400 
 11 C        3.5490    -1.0990     1.6080 C.3   1 <1>   0.1400 
 12 C       -1.9010    -3.0180     1.0260 C.ar  1 <1>  -0.1500 
 13 C       -1.3920    -0.5920     1.3280 C.3   1 <1>  -0.0960 
 14 C       -0.9310    -4.3620    -0.6980 C.ar  1 <1>  -0.1430 
 15 N        4.3230     0.1470     1.3460 N.am  1 <1>  -0.6600 
 16 C       -1.7690    -4.2380     0.3920 C.ar  1 <1>  -0.1500 
 17 C       -0.7840    -5.6990    -1.4030 C.3   1 <1>  -0.0970 
 18 C        5.6820     0.1830     1.0800 C.2   1 <1>   0.7160 
 19 O        6.2310     1.2720     1.1450 O.2   1 <1>  -0.5700 
 20 C        6.4710    -0.9950     0.7190 C.2   1 <1>   0.2030 
 21 N        6.0370    -2.1340     0.1980 N.2   1 <1>  -0.7070 
 22 C        7.8640    -1.0490     0.8660 C.2   1 <1>  -0.1500 
 23 N        7.1250    -2.8940     0.0190 N.pl3 1 <1>   0.3140 
 24 C        8.2410    -2.2600     0.4180 C.2   1 <1>  -0.3020 
 25 C        7.0520    -4.2510    -0.5600 C.3   1 <1>   0.0960 
 26 C        7.0350    -5.3210     0.5380 C.3   1 <1>  -0.2400 
 27 H        1.8020     1.7700    -0.2710 H     1 <1>   0.0800 
 28 H        3.0620     0.8410    -1.0320 H     1 <1>   0.0800 
 29 H        3.2660    -1.6070    -0.4560 H     1 <1>   0.0800 
 30 H        2.0830    -2.3000     0.6220 H     1 <1>   0.0800 
 31 H        0.4270    -3.3550    -1.9850 H     1 <1>   0.1500 
 32 H        2.8610     1.5590     1.9040 H     1 <1>   0.0800 
 33 H        4.0210     2.1680     0.7590 H     1 <1>   0.0800 
 34 H        4.2000    -1.9280     1.8130 H     1 <1>   0.0800 
 35 H        2.9330    -0.9540     2.4790 H     1 <1>   0.0800 
 36 H       -2.5630    -2.9420     1.8720 H     1 <1>   0.1500 
 37 H       -1.8070     0.1490     0.6680 H     1 <1>   0.0800 
 38 H       -0.4560    -0.2320     1.7130 H     1 <1>   0.0800 
 39 H       -2.0670    -0.7120     2.1560 H     1 <1>   0.0800 
 40 H       -2.3230    -5.0880     0.7510 H     1 <1>   0.1500 
 41 H       -0.4880    -5.5570    -2.4270 H     1 <1>   0.0800 
 42 H       -1.7180    -6.2310    -1.3930 H     1 <1>   0.0800 
 43 H       -0.0390    -6.2940    -0.9060 H     1 <1>   0.0800 
 44 H        8.4710    -0.2530     1.2610 H     1 <1>   0.1500 
 45 H        9.2210    -2.6970     0.3580 H     1 <1>   0.1500 
 46 H        7.8980    -4.3920    -1.2070 H     1 <1>   0.0800 
 47 H        6.1560    -4.3150    -1.1510 H     1 <1>   0.0800 
 48 H        7.9330    -5.2690     1.1270 H     1 <1>   0.0800 
 49 H        6.9730    -6.2990     0.0940 H     1 <1>   0.0800 
 50 H        6.1800    -5.1800     1.1770 H     1 <1>   0.0800 
@<TRIPOS>BOND
  1   1   2  2   
  2   1   3  2   
  3   1   4  am  
  4   1   5  1   
  5   4   6  1   
  6   4   7  1   
  7   5   8  ar  
  8   5   9  ar  
  9   6  10  1   
 10   6  27  1   
 11   6  28  1   
 12   7  11  1   
 13   7  29  1   
 14   7  30  1   
 15   8  12  ar  
 16   8  13  1   
 17   9  14  ar  
 18   9  31  1   
 19  10  15  1   
 20  10  32  1   
 21  10  33  1   
 22  11  15  1   
 23  11  34  1   
 24  11  35  1   
 25  12  16  ar  
 26  12  36  1   
 27  13  37  1   
 28  13  38  1   
 29  13  39  1   
 30  14  16  ar  
 31  14  17  1   
 32  15  18  am  
 33  16  40  1   
 34  17  41  1   
 35  17  42  1   
 36  17  43  1   
 37  18  19  2   
 38  18  20  1   
 39  20  21  2   
 40  20  22  1   
 41  21  23  1   
 42  22  24  2   
 43  22  44  1   
 44  23  24  1   
 45  23  25  1   
 46  24  45  1   
 47  25  26  1   
 48  25  46  1   
 49  25  47  1   
 50  26  48  1   
 51  26  49  1   
 52  26  50  1   
@<TRIPOS>SUBSTRUCTURE
  1 ****   7 GROUP 4 **** **** 0

# MOE 2024.06 (io_trps.svl 2023.06)
