@<TRIPOS>MOLECULE
NONAME
47 49 1 0 0 
SMALL
USER_CHARGES


@<TRIPOS>ATOM
  1 F        3.3120    -2.5330     2.2430 F     1 <1>  -0.1900 
  2 C        2.1780    -2.7070     1.6060 C.ar  1 <1>   0.1900 
  3 C        2.1660    -2.5970     0.2160 C.ar  1 <1>   0.1170 
  4 C        1.0510    -2.9960     2.3510 C.ar  1 <1>  -0.1500 
  5 N        3.3530    -2.2900    -0.4750 N.am  1 <1>  -0.5470 
  6 C        0.9440    -2.7940    -0.4210 C.ar  1 <1>  -0.1500 
  7 C       -0.1510    -3.1880     1.6900 C.ar  1 <1>  -0.1500 
  8 C        3.7390    -2.4780    -1.7710 C.2   1 <1>   0.5690 
  9 C       -0.1990    -3.0860     0.3070 C.ar  1 <1>  -0.1500 
 10 O        3.0370    -2.9560    -2.6270 O.2   1 <1>  -0.5700 
 11 C        5.1770    -2.0890    -2.1210 C.3   1 <1>   0.1710 
 12 N        6.1600    -2.3380    -1.0170 N.3   1 <1>  -0.8100 
 13 C        7.4600    -1.7030    -1.3120 C.3   1 <1>   0.1100 
 14 C        6.3210    -3.7900    -0.7610 C.3   1 <1>   0.1100 
 15 C        8.4740    -1.9360    -0.1730 C.3   1 <1>   0.3430 
 16 C        7.3150    -4.0560     0.3890 C.3   1 <1>   0.3430 
 17 N        8.6420    -3.4000     0.1350 N.4   1 <1>  -0.9590 
 18 C        9.5940    -3.6190     1.2560 C.3   1 <1>   0.4860 
 19 C       10.9540    -3.1020     0.8290 C.ar  1 <1>  -0.1430 
 20 C       11.4420    -1.9110     1.3480 C.ar  1 <1>  -0.1500 
 21 C       11.7160    -3.8100    -0.0900 C.ar  1 <1>  -0.1500 
 22 C       12.6720    -1.4260     0.9400 C.ar  1 <1>  -0.1500 
 23 C       12.9450    -3.3230    -0.4970 C.ar  1 <1>  -0.1500 
 24 C       13.4220    -2.1300     0.0150 C.ar  1 <1>  -0.1500 
 25 H        1.1120    -3.0700     3.4210 H     1 <1>   0.1500 
 26 H        4.1170    -1.9610     0.1200 H     1 <1>   0.3700 
 27 H        0.8770    -2.7160    -1.4910 H     1 <1>   0.1500 
 28 H       -1.0440    -3.4150     2.2460 H     1 <1>   0.1500 
 29 H       -1.1330    -3.2360    -0.2070 H     1 <1>   0.1500 
 30 H        5.1690    -1.0410    -2.3630 H     1 <1>   0.0800 
 31 H        5.4720    -2.6270    -3.0060 H     1 <1>   0.0800 
 32 H        7.3180    -0.6420    -1.4330 H     1 <1>   0.0800 
 33 H        7.8610    -2.0890    -2.2350 H     1 <1>   0.0800 
 34 H        6.6620    -4.2860    -1.6550 H     1 <1>   0.0800 
 35 H        5.3710    -4.2200    -0.4930 H     1 <1>   0.0800 
 36 H        8.1240    -1.4170     0.7040 H     1 <1>   0.0800 
 37 H        9.4230    -1.5080    -0.4540 H     1 <1>   0.0800 
 38 H        7.4440    -5.1200     0.5040 H     1 <1>   0.0800 
 39 H        6.8870    -3.6710     1.3000 H     1 <1>   0.0800 
 40 H        9.0640    -3.8260    -0.6980 H     1 <1>   0.4500 
 41 H        9.6690    -4.6690     1.4830 H     1 <1>   0.0800 
 42 H        9.2610    -3.0980     2.1390 H     1 <1>   0.0800 
 43 H       10.8800    -1.3470     2.0740 H     1 <1>   0.1500 
 44 H       11.3720    -4.7460    -0.4970 H     1 <1>   0.1500 
 45 H       13.0520    -0.5010     1.3420 H     1 <1>   0.1500 
 46 H       13.5380    -3.8710    -1.2100 H     1 <1>   0.1500 
 47 H       14.3800    -1.7520    -0.3010 H     1 <1>   0.1500 
@<TRIPOS>BOND
  1   1   2  1   
  2   2   3  ar  
  3   2   4  ar  
  4   3   5  1   
  5   3   6  ar  
  6   4   7  ar  
  7   4  25  1   
  8   5   8  am  
  9   5  26  1   
 10   6   9  ar  
 11   6  27  1   
 12   7   9  ar  
 13   7  28  1   
 14   8  10  2   
 15   8  11  1   
 16   9  29  1   
 17  11  12  1   
 18  11  30  1   
 19  11  31  1   
 20  12  13  1   
 21  12  14  1   
 22  13  15  1   
 23  13  32  1   
 24  13  33  1   
 25  14  16  1   
 26  14  34  1   
 27  14  35  1   
 28  15  17  1   
 29  15  36  1   
 30  15  37  1   
 31  16  17  1   
 32  16  38  1   
 33  16  39  1   
 34  17  18  1   
 35  17  40  1   
 36  18  19  1   
 37  18  41  1   
 38  18  42  1   
 39  19  20  ar  
 40  19  21  ar  
 41  20  22  ar  
 42  20  43  1   
 43  21  23  ar  
 44  21  44  1   
 45  22  24  ar  
 46  22  45  1   
 47  23  24  ar  
 48  23  46  1   
 49  24  47  1   
@<TRIPOS>SUBSTRUCTURE
  1 ****  12 GROUP 4 **** **** 0

# MOE 2024.06 (io_trps.svl 2023.06)
