@<TRIPOS>MOLECULE
NONAME
46 47 1 0 0 
SMALL
USER_CHARGES


@<TRIPOS>ATOM
  1 N       -9.7720     4.1880     0.0030 N.4   1 <1>  -0.9590 
  2 C       -9.0640     3.5030     1.1130 C.3   1 <1>   0.4230 
  3 C       -8.8290     4.9560    -0.8580 C.3   1 <1>   0.3430 
  4 C      -10.8400     5.1200     0.4910 C.3   1 <1>   0.2630 
  5 C       -7.8990     2.6440     0.5750 C.3   1 <1>  -0.1600 
  6 C      -10.0430     2.6150     1.8820 C.3   1 <1>  -0.2400 
  7 C       -7.7770     4.0240    -1.4680 C.3   1 <1>  -0.0800 
  8 C       -6.8930     3.4090    -0.3320 C.3   1 <1>   0.1430 
  9 C       -7.0980     4.7780    -2.6310 C.3   1 <1>  -0.2400 
 10 C       -6.0680     4.4670     0.4540 C.ar  1 <1>  -0.1430 
 11 C       -5.8820     2.3770    -0.9090 C.3   1 <1>  -0.1600 
 12 C       -6.1860     4.6710     1.8310 C.ar  1 <1>  -0.1500 
 13 C       -5.1080     5.2270    -0.2120 C.ar  1 <1>  -0.1500 
 14 C       -4.8920     1.8580     0.1440 C.3   1 <1>   0.3430 
 15 C       -5.4210     5.6160     2.4910 C.ar  1 <1>  -0.1500 
 16 C       -4.3420     6.1740     0.4440 C.ar  1 <1>  -0.1500 
 17 N       -3.8800     0.9840    -0.4980 N.4   1 <1>  -0.8530 
 18 C       -4.5010     6.3750     1.7980 C.ar  1 <1>  -0.1500 
 19 H      -10.2220     3.4650    -0.5760 H     1 <1>   0.4500 
 20 H       -8.6780     4.2530     1.7840 H     1 <1>   0.0800 
 21 H       -8.3370     5.7230    -0.2800 H     1 <1>   0.0800 
 22 H       -9.3780     5.4360    -1.6530 H     1 <1>   0.0800 
 23 H      -10.4170     5.8660     1.1460 H     1 <1>   0.0800 
 24 H      -11.6000     4.5790     1.0300 H     1 <1>   0.0800 
 25 H      -11.3090     5.6210    -0.3410 H     1 <1>   0.0800 
 26 H       -8.3250     1.8250     0.0220 H     1 <1>   0.0800 
 27 H       -7.3850     2.2040     1.4100 H     1 <1>   0.0800 
 28 H      -10.5300     1.9130     1.2290 H     1 <1>   0.0800 
 29 H      -10.7840     3.2000     2.3950 H     1 <1>   0.0800 
 30 H       -9.5140     2.0580     2.6350 H     1 <1>   0.0800 
 31 H       -8.3060     3.2150    -1.9420 H     1 <1>   0.0800 
 32 H       -6.7120     5.7320    -2.3170 H     1 <1>   0.0800 
 33 H       -7.8210     4.9750    -3.4040 H     1 <1>   0.0800 
 34 H       -6.3090     4.2060    -3.0840 H     1 <1>   0.0800 
 35 H       -5.3090     2.8420    -1.6880 H     1 <1>   0.0800 
 36 H       -6.4180     1.5520    -1.3460 H     1 <1>   0.0800 
 37 H       -6.8530     4.1090     2.4540 H     1 <1>   0.1500 
 38 H       -4.9150     5.1020    -1.2600 H     1 <1>   0.1500 
 39 H       -5.4210     1.3080     0.9070 H     1 <1>   0.0800 
 40 H       -4.3950     2.6920     0.6180 H     1 <1>   0.0800 
 41 H       -5.5360     5.7650     3.5520 H     1 <1>   0.1500 
 42 H       -3.6170     6.7580    -0.0990 H     1 <1>   0.1500 
 43 H       -4.3090     0.1720    -0.9560 H     1 <1>   0.4500 
 44 H       -3.2100     0.6320     0.1980 H     1 <1>   0.4500 
 45 H       -3.3400     1.5010    -1.2020 H     1 <1>   0.4500 
 46 H       -3.9090     7.1150     2.3120 H     1 <1>   0.1500 
@<TRIPOS>BOND
  1   1   2  1   
  2   1   3  1   
  3   1   4  1   
  4   1  19  1   
  5   2   5  1   
  6   2   6  1   
  7   2  20  1   
  8   3   7  1   
  9   3  21  1   
 10   3  22  1   
 11   4  23  1   
 12   4  24  1   
 13   4  25  1   
 14   5   8  1   
 15   5  26  1   
 16   5  27  1   
 17   6  28  1   
 18   6  29  1   
 19   6  30  1   
 20   7   8  1   
 21   7   9  1   
 22   7  31  1   
 23   8  10  1   
 24   8  11  1   
 25   9  32  1   
 26   9  33  1   
 27   9  34  1   
 28  10  12  ar  
 29  10  13  ar  
 30  11  14  1   
 31  11  35  1   
 32  11  36  1   
 33  12  15  ar  
 34  12  37  1   
 35  13  16  ar  
 36  13  38  1   
 37  14  17  1   
 38  14  39  1   
 39  14  40  1   
 40  15  18  ar  
 41  15  41  1   
 42  16  18  ar  
 43  16  42  1   
 44  17  43  1   
 45  17  44  1   
 46  17  45  1   
 47  18  46  1   
@<TRIPOS>SUBSTRUCTURE
  1 ****   8 GROUP 4 **** **** 0

# MOE 2024.06 (io_trps.svl 2023.06)
