@<TRIPOS>MOLECULE
NONAME
32 32 1 0 0 
SMALL
USER_CHARGES


@<TRIPOS>ATOM
  1 BR      -1.7540    -1.0130     3.4140 Br    1 <1>  -0.1110 
  2 C       -2.8360    -0.4240     1.9330 C.ar  1 <1>   0.1110 
  3 C       -3.5550    -1.3630     1.2180 C.ar  1 <1>  -0.1500 
  4 C       -2.8660     0.9210     1.6230 C.ar  1 <1>  -0.1500 
  5 C       -4.3360    -0.9450     0.1510 C.ar  1 <1>  -0.1440 
  6 C       -3.6480     1.3320     0.5590 C.ar  1 <1>  -0.1500 
  7 C       -4.3910     0.4140    -0.1800 C.ar  1 <1>   0.1990 
  8 C       -5.1200    -1.9820    -0.6450 C.3   1 <1>  -0.0960 
  9 N       -5.1730     0.8480    -1.2410 N.am  1 <1>  -0.7570 
 10 S       -6.5200     1.8950    -1.0850 S.o2  1 <1>   1.3330 
 11 O       -6.0880     3.0240    -0.2990 O.2   1 <1>  -0.6500 
 12 O       -6.9810     2.0760    -2.4380 O.2   1 <1>  -0.6500 
 13 C       -7.6940     0.8900    -0.1740 C.3   1 <1>  -0.0550 
 14 C       -9.0300     1.5990     0.1030 C.3   1 <1>  -0.1600 
 15 C       -9.9880     0.6930     0.8850 C.3   1 <1>  -0.1600 
 16 C      -11.3150     1.4060     1.1590 C.3   1 <1>  -0.2400 
 17 H       -3.4940    -2.3990     1.4980 H     1 <1>   0.1500 
 18 H       -2.2930     1.6260     2.1990 H     1 <1>   0.1500 
 19 H       -3.6850     2.3760     0.3010 H     1 <1>   0.1500 
 20 H       -4.8720    -2.9800    -0.3310 H     1 <1>   0.0800 
 21 H       -4.8930    -1.8920    -1.6920 H     1 <1>   0.0800 
 22 H       -6.1750    -1.8330    -0.5050 H     1 <1>   0.0800 
 23 H       -4.6710     1.1090    -2.0840 H     1 <1>   0.4200 
 24 H       -7.2530     0.6060     0.7620 H     1 <1>   0.0800 
 25 H       -7.8880    -0.0060    -0.7310 H     1 <1>   0.0800 
 26 H       -9.4820     1.8820    -0.8340 H     1 <1>   0.0800 
 27 H       -8.8420     2.4990     0.6650 H     1 <1>   0.0800 
 28 H       -9.5390     0.4120     1.8230 H     1 <1>   0.0800 
 29 H      -10.1810    -0.2060     0.3230 H     1 <1>   0.0800 
 30 H      -11.1510     2.2970     1.7390 H     1 <1>   0.0800 
 31 H      -11.9750     0.7580     1.7080 H     1 <1>   0.0800 
 32 H      -11.7940     1.6780     0.2350 H     1 <1>   0.0800 
@<TRIPOS>BOND
  1   1   2  1   
  2   2   3  ar  
  3   2   4  ar  
  4   3   5  ar  
  5   3  17  1   
  6   4   6  ar  
  7   4  18  1   
  8   5   7  ar  
  9   5   8  1   
 10   6   7  ar  
 11   6  19  1   
 12   7   9  1   
 13   8  20  1   
 14   8  21  1   
 15   8  22  1   
 16   9  10  am  
 17   9  23  1   
 18  10  11  2   
 19  10  12  2   
 20  10  13  1   
 21  13  14  1   
 22  13  24  1   
 23  13  25  1   
 24  14  15  1   
 25  14  26  1   
 26  14  27  1   
 27  15  16  1   
 28  15  28  1   
 29  15  29  1   
 30  16  30  1   
 31  16  31  1   
 32  16  32  1   
@<TRIPOS>SUBSTRUCTURE
  1 ****   7 GROUP 4 **** **** 0

# MOE 2024.06 (io_trps.svl 2023.06)
