@<TRIPOS>MOLECULE
NONAME
30 30 1 0 0 
SMALL
USER_CHARGES


@<TRIPOS>ATOM
  1 CL      -0.7150    -0.1440    -0.2750 Cl    1 <1>  -0.1770 
  2 C       -0.3590     1.5690    -0.3940 C.ar  1 <1>   0.1770 
  3 C       -1.3900     2.4930    -0.2350 C.ar  1 <1>   0.1170 
  4 C        0.9460     1.9520    -0.6400 C.ar  1 <1>  -0.1500 
  5 N       -2.6970     2.0350     0.0190 N.am  1 <1>  -0.5470 
  6 C       -1.0560     3.8430    -0.3230 C.ar  1 <1>  -0.1500 
  7 C        1.2520     3.2990    -0.7300 C.ar  1 <1>  -0.1500 
  8 C       -3.9150     2.6350    -0.1070 C.2   1 <1>   0.6900 
  9 C        0.2480     4.2400    -0.5700 C.ar  1 <1>  -0.1500 
 10 O       -4.0320     3.7450    -0.5850 O.2   1 <1>  -0.5700 
 11 N       -4.9910     1.9230     0.3170 N.am  1 <1>  -0.7300 
 12 C       -6.4100     2.2910     0.2810 C.3   1 <1>   0.3000 
 13 C       -7.1770     1.1070     0.8660 C.3   1 <1>  -0.2400 
 14 C       -6.6480     3.5300     1.1450 C.3   1 <1>  -0.2400 
 15 C       -6.8540     2.5210    -1.1640 C.3   1 <1>  -0.2400 
 16 H        1.7110     1.2060    -0.7590 H     1 <1>   0.1500 
 17 H       -2.7540     1.0370     0.1990 H     1 <1>   0.3700 
 18 H       -1.8130     4.5950    -0.1970 H     1 <1>   0.1500 
 19 H        2.2630     3.6140    -0.9230 H     1 <1>   0.1500 
 20 H        0.4810     5.2890    -0.6380 H     1 <1>   0.1500 
 21 H       -4.8200     1.0640     0.8290 H     1 <1>   0.3700 
 22 H       -6.8760     0.9230     1.8820 H     1 <1>   0.0800 
 23 H       -7.0100     0.2210     0.2790 H     1 <1>   0.0800 
 24 H       -8.2320     1.3140     0.8630 H     1 <1>   0.0800 
 25 H       -6.2910     3.3680     2.1450 H     1 <1>   0.0800 
 26 H       -7.6980     3.7550     1.1880 H     1 <1>   0.0800 
 27 H       -6.1460     4.3840     0.7290 H     1 <1>   0.0800 
 28 H       -6.6330     1.6600    -1.7680 H     1 <1>   0.0800 
 29 H       -6.3570     3.3770    -1.5840 H     1 <1>   0.0800 
 30 H       -7.9120     2.7040    -1.2020 H     1 <1>   0.0800 
@<TRIPOS>BOND
  1   1   2  1   
  2   2   3  ar  
  3   2   4  ar  
  4   3   5  1   
  5   3   6  ar  
  6   4   7  ar  
  7   4  16  1   
  8   5   8  am  
  9   5  17  1   
 10   6   9  ar  
 11   6  18  1   
 12   7   9  ar  
 13   7  19  1   
 14   8  10  2   
 15   8  11  am  
 16   9  20  1   
 17  11  12  1   
 18  11  21  1   
 19  12  13  1   
 20  12  14  1   
 21  12  15  1   
 22  13  22  1   
 23  13  23  1   
 24  13  24  1   
 25  14  25  1   
 26  14  26  1   
 27  14  27  1   
 28  15  28  1   
 29  15  29  1   
 30  15  30  1   
@<TRIPOS>SUBSTRUCTURE
  1 ****   5 GROUP 4 **** **** 0

# MOE 2024.06 (io_trps.svl 2023.06)
