@<TRIPOS>MOLECULE
NONAME
32 33 1 0 0 
SMALL
USER_CHARGES


@<TRIPOS>ATOM
  1 O        0.0200     0.3360    -0.1670 O.3   1 <1>  -0.5320 
  2 C        0.0910     1.6850    -0.1130 C.ar  1 <1>   0.0830 
  3 C        1.3520     2.3410    -0.0510 C.ar  1 <1>   0.3100 
  4 C       -1.0870     2.3910    -0.1180 C.ar  1 <1>  -0.1500 
  5 N        2.5080     1.6230    -0.0470 N.ar  1 <1>  -0.6200 
  6 C        1.3460     3.7550     0.0060 C.ar  1 <1>   0.0000 
  7 C       -1.0710     3.7850    -0.0620 C.ar  1 <1>  -0.1500 
  8 C        3.6370     2.2690     0.0110 C.ar  1 <1>   0.4100 
  9 C        2.5820     4.4210     0.0670 C.ar  1 <1>  -0.1500 
 10 C        0.1230     4.4510    -0.0010 C.ar  1 <1>  -0.1500 
 11 N        4.8050     1.5480     0.0240 N.pl3 1 <1>  -0.8690 
 12 C        3.7150     3.6720     0.0690 C.ar  1 <1>  -0.1500 
 13 C        4.8110     0.0740     0.1250 C.3   1 <1>   0.2090 
 14 C        6.2480    -0.4290     0.0000 C.3   1 <1>  -0.1600 
 15 C        6.3100    -1.9600     0.0840 C.3   1 <1>  -0.1600 
 16 C        7.7510    -2.4610    -0.0440 C.3   1 <1>  -0.2400 
 17 H       -0.8860    -0.0110    -0.2150 H     1 <1>   0.4500 
 18 H       -2.0360     1.8880    -0.1650 H     1 <1>   0.1500 
 19 H       -2.0030     4.3250    -0.0670 H     1 <1>   0.1500 
 20 H        2.6100     5.4950     0.1090 H     1 <1>   0.1500 
 21 H        0.1420     5.5260     0.0430 H     1 <1>   0.1500 
 22 H        5.6300     2.0080     0.4060 H     1 <1>   0.4000 
 23 H        4.6860     4.1240     0.1090 H     1 <1>   0.1500 
 24 H        4.2010    -0.3380    -0.6620 H     1 <1>   0.0800 
 25 H        4.3880    -0.2190     1.0720 H     1 <1>   0.0800 
 26 H        6.8410    -0.0050     0.7910 H     1 <1>   0.0800 
 27 H        6.6470    -0.1070    -0.9460 H     1 <1>   0.0800 
 28 H        5.7140    -2.3880    -0.7050 H     1 <1>   0.0800 
 29 H        5.9020    -2.2880     1.0250 H     1 <1>   0.0800 
 30 H        8.1710    -2.1630    -0.9880 H     1 <1>   0.0800 
 31 H        7.7720    -3.5350     0.0150 H     1 <1>   0.0800 
 32 H        8.3600    -2.0630     0.7490 H     1 <1>   0.0800 
@<TRIPOS>BOND
  1   1   2  1   
  2   1  17  1   
  3   2   3  ar  
  4   2   4  ar  
  5   3   5  ar  
  6   3   6  ar  
  7   4   7  ar  
  8   4  18  1   
  9   5   8  ar  
 10   6   9  ar  
 11   6  10  ar  
 12   7  10  ar  
 13   7  19  1   
 14   8  11  1   
 15   8  12  ar  
 16   9  12  ar  
 17   9  20  1   
 18  10  21  1   
 19  11  13  1   
 20  11  22  1   
 21  12  23  1   
 22  13  14  1   
 23  13  24  1   
 24  13  25  1   
 25  14  15  1   
 26  14  26  1   
 27  14  27  1   
 28  15  16  1   
 29  15  28  1   
 30  15  29  1   
 31  16  30  1   
 32  16  31  1   
 33  16  32  1   
@<TRIPOS>SUBSTRUCTURE
  1 ****   5 GROUP 4 **** **** 0

# MOE 2024.06 (io_trps.svl 2023.06)
