@<TRIPOS>MOLECULE
NONAME
48 49 1 0 0 
SMALL
USER_CHARGES


@<TRIPOS>ATOM
  1 O        0.8520    -2.1230    -2.0910 O.2   1 <1>  -0.5700 
  2 C        0.5250    -2.1310    -0.9330 C.2   1 <1>   0.6590 
  3 O       -0.7280    -1.9460    -0.5450 O.3   1 <1>  -0.4300 
  4 C        1.5290    -2.3780     0.1900 C.3   1 <1>  -0.0190 
  5 C       -1.7590    -1.7190    -1.4790 C.3   1 <1>   0.1200 
  6 C        2.9420    -1.8710    -0.1630 C.3   1 <1>  -0.1600 
  7 C        1.5810    -3.8750     0.5500 C.3   1 <1>  -0.1600 
  8 C       -3.0660    -1.5520    -0.7090 C.3   1 <1>  -0.2400 
  9 C        3.9540    -2.1900     0.9340 C.3   1 <1>   0.3430 
 10 C        2.6160    -4.1680     1.6340 C.3   1 <1>   0.3430 
 11 N        3.9410    -3.6540     1.2030 N.4   1 <1>  -0.9590 
 12 C        5.0370    -4.0740     2.1130 C.3   1 <1>   0.4860 
 13 C        6.3610    -3.7850     1.4310 C.ar  1 <1>  -0.1440 
 14 C        6.6580    -4.3720     0.2040 C.ar  1 <1>   0.0820 
 15 C        7.2670    -2.9260     2.0340 C.ar  1 <1>  -0.1500 
 16 O        5.7120    -5.2250    -0.2960 O.3   1 <1>  -0.3620 
 17 C        7.8640    -4.0540    -0.4450 C.ar  1 <1>   0.0820 
 18 C        8.4660    -2.6370     1.4120 C.ar  1 <1>  -0.1500 
 19 C        6.0870    -6.3770    -1.0290 C.3   1 <1>   0.0400 
 20 O        8.1210    -4.5710    -1.6810 O.3   1 <1>  -0.3630 
 21 C        8.7620    -3.1930     0.1810 C.ar  1 <1>  -0.1500 
 22 C        9.2750    -4.2280    -2.4190 C.3   1 <1>   0.0400 
 23 H        1.1820    -1.8310     1.0490 H     1 <1>   0.0800 
 24 H       -1.8090    -2.5630    -2.1470 H     1 <1>   0.0800 
 25 H       -1.5240    -0.8290    -2.0390 H     1 <1>   0.0800 
 26 H        2.9120    -0.8060    -0.3170 H     1 <1>   0.0800 
 27 H        3.2770    -2.3150    -1.0860 H     1 <1>   0.0800 
 28 H        1.8130    -4.4530    -0.3280 H     1 <1>   0.0800 
 29 H        0.6120    -4.1920     0.8960 H     1 <1>   0.0800 
 30 H       -3.2850    -2.4440    -0.1500 H     1 <1>   0.0800 
 31 H       -3.8710    -1.3760    -1.3990 H     1 <1>   0.0800 
 32 H       -3.0000    -0.7130    -0.0410 H     1 <1>   0.0800 
 33 H        3.7030    -1.6480     1.8310 H     1 <1>   0.0800 
 34 H        4.9360    -1.8800     0.6110 H     1 <1>   0.0800 
 35 H        2.6680    -5.2320     1.8010 H     1 <1>   0.0800 
 36 H        2.3210    -3.6920     2.5560 H     1 <1>   0.0800 
 37 H        4.1960    -4.1180     0.3110 H     1 <1>   0.4500 
 38 H        4.9710    -5.1330     2.3050 H     1 <1>   0.0800 
 39 H        4.9730    -3.5460     3.0500 H     1 <1>   0.0800 
 40 H        7.0570    -2.4760     2.9900 H     1 <1>   0.1500 
 41 H        9.1740    -1.9750     1.8830 H     1 <1>   0.1500 
 42 H        6.2410    -6.1010    -2.0570 H     1 <1>   0.0800 
 43 H        5.2900    -7.0960    -0.9650 H     1 <1>   0.0800 
 44 H        6.9880    -6.7890    -0.6090 H     1 <1>   0.0800 
 45 H        9.7010    -2.9370    -0.2720 H     1 <1>   0.1500 
 46 H        9.2300    -4.7380    -3.3650 H     1 <1>   0.0800 
 47 H       10.1470    -4.5470    -1.8760 H     1 <1>   0.0800 
 48 H        9.2860    -3.1640    -2.5800 H     1 <1>   0.0800 
@<TRIPOS>BOND
  1   1   2  2   
  2   2   3  1   
  3   2   4  1   
  4   3   5  1   
  5   4   6  1   
  6   4   7  1   
  7   4  23  1   
  8   5   8  1   
  9   5  24  1   
 10   5  25  1   
 11   6   9  1   
 12   6  26  1   
 13   6  27  1   
 14   7  10  1   
 15   7  28  1   
 16   7  29  1   
 17   8  30  1   
 18   8  31  1   
 19   8  32  1   
 20   9  11  1   
 21   9  33  1   
 22   9  34  1   
 23  10  11  1   
 24  10  35  1   
 25  10  36  1   
 26  11  12  1   
 27  11  37  1   
 28  12  13  1   
 29  12  38  1   
 30  12  39  1   
 31  13  14  ar  
 32  13  15  ar  
 33  14  16  1   
 34  14  17  ar  
 35  15  18  ar  
 36  15  40  1   
 37  16  19  1   
 38  17  20  1   
 39  17  21  ar  
 40  18  21  ar  
 41  18  41  1   
 42  19  42  1   
 43  19  43  1   
 44  19  44  1   
 45  20  22  1   
 46  21  45  1   
 47  22  46  1   
 48  22  47  1   
 49  22  48  1   
@<TRIPOS>SUBSTRUCTURE
  1 ****  11 GROUP 4 **** **** 0

# MOE 2024.06 (io_trps.svl 2023.06)
