@<TRIPOS>MOLECULE
NONAME
43 44 1 0 0 
SMALL
USER_CHARGES


@<TRIPOS>ATOM
  1 S       -0.2120    -0.2470     0.1310 S.o2  1 <1>   1.4470 
  2 O       -0.4120    -0.1980     1.5600 O.2   1 <1>  -0.6500 
  3 O       -0.4200    -1.4590    -0.6240 O.2   1 <1>  -0.6500 
  4 N       -1.1880     0.9990    -0.5490 N.am  1 <1>  -0.7570 
  5 C        1.4340     0.4030    -0.2560 C.ar  1 <1>  -0.0090 
  6 C       -2.5130     1.2250    -0.1940 C.ar  1 <1>   0.1990 
  7 C        1.8380     0.5630    -1.5780 C.ar  1 <1>  -0.1500 
  8 C        2.3220     0.7780     0.7490 C.ar  1 <1>  -0.1500 
  9 C       -2.8460     2.4090     0.4870 C.ar  1 <1>  -0.1440 
 10 C       -3.5270     0.3130    -0.5180 C.ar  1 <1>  -0.1430 
 11 C        3.0820     1.0860    -1.8900 C.ar  1 <1>  -0.1500 
 12 C        3.5700     1.3010     0.4520 C.ar  1 <1>  -0.1500 
 13 C       -4.1620     2.6140     0.8770 C.ar  1 <1>  -0.1500 
 14 C       -1.8520     3.5330     0.8350 C.3   1 <1>   0.0630 
 15 C       -4.8270     0.5470    -0.1110 C.ar  1 <1>  -0.1500 
 16 C       -3.2790    -0.9490    -1.3360 C.3   1 <1>  -0.0970 
 17 C        3.9410     1.4540    -0.8730 C.ar  1 <1>   0.1010 
 18 C       -5.1470     1.6910     0.5900 C.ar  1 <1>  -0.1500 
 19 C       -1.2830     4.2190    -0.4150 C.3   1 <1>  -0.2400 
 20 C       -0.7390     3.0970     1.7940 C.3   1 <1>  -0.2400 
 21 S        5.5370     2.1320    -1.3540 S.3   1 <1>  -0.3320 
 22 C        6.4670     2.4720     0.2060 C.3   1 <1>  -0.0100 
 23 H       -0.6680     1.8610    -0.4620 H     1 <1>   0.4200 
 24 H        1.1720     0.2710    -2.3740 H     1 <1>   0.1500 
 25 H        2.0340     0.6580     1.7810 H     1 <1>   0.1500 
 26 H        3.3870     1.2060    -2.9150 H     1 <1>   0.1500 
 27 H        4.2280     1.5800     1.2510 H     1 <1>   0.1500 
 28 H       -4.4440     3.5040     1.4120 H     1 <1>   0.1500 
 29 H       -2.4010     4.2960     1.3620 H     1 <1>   0.0800 
 30 H       -5.6050    -0.1590    -0.3420 H     1 <1>   0.1500 
 31 H       -2.5130    -0.7830    -2.0720 H     1 <1>   0.0800 
 32 H       -4.1710    -1.2470    -1.8560 H     1 <1>   0.0800 
 33 H       -2.9810    -1.7520    -0.6880 H     1 <1>   0.0800 
 34 H       -6.1610     1.8640     0.9070 H     1 <1>   0.1500 
 35 H       -0.6360     3.5740    -0.9770 H     1 <1>   0.0800 
 36 H       -0.7250     5.0930    -0.1310 H     1 <1>   0.0800 
 37 H       -2.0910     4.5290    -1.0550 H     1 <1>   0.0800 
 38 H        0.0180     2.5260     1.2980 H     1 <1>   0.0800 
 39 H       -1.1540     2.5020     2.5900 H     1 <1>   0.0800 
 40 H       -0.2690     3.9620     2.2270 H     1 <1>   0.0800 
 41 H        7.4310     2.8610    -0.0700 H     1 <1>   0.0800 
 42 H        6.5700     1.5450     0.7410 H     1 <1>   0.0800 
 43 H        5.9120     3.1970     0.7730 H     1 <1>   0.0800 
@<TRIPOS>BOND
  1   1   2  2   
  2   1   3  2   
  3   1   4  am  
  4   1   5  1   
  5   4   6  1   
  6   4  23  1   
  7   5   7  ar  
  8   5   8  ar  
  9   6   9  ar  
 10   6  10  ar  
 11   7  11  ar  
 12   7  24  1   
 13   8  12  ar  
 14   8  25  1   
 15   9  13  ar  
 16   9  14  1   
 17  10  15  ar  
 18  10  16  1   
 19  11  17  ar  
 20  11  26  1   
 21  12  17  ar  
 22  12  27  1   
 23  13  18  ar  
 24  13  28  1   
 25  14  19  1   
 26  14  20  1   
 27  14  29  1   
 28  15  18  ar  
 29  15  30  1   
 30  16  31  1   
 31  16  32  1   
 32  16  33  1   
 33  17  21  1   
 34  18  34  1   
 35  19  35  1   
 36  19  36  1   
 37  19  37  1   
 38  20  38  1   
 39  20  39  1   
 40  20  40  1   
 41  21  22  1   
 42  22  41  1   
 43  22  42  1   
 44  22  43  1   
@<TRIPOS>SUBSTRUCTURE
  1 ****   4 GROUP 4 **** **** 0

# MOE 2024.06 (io_trps.svl 2023.06)
