@<TRIPOS>MOLECULE
NONAME
34 35 1 0 0 
SMALL
USER_CHARGES


@<TRIPOS>ATOM
  1 S       -0.3630     0.2570     0.6670 S.3   1 <1>   0.1810 
  2 N        0.3140     1.8080     0.9230 N.2   1 <1>  -0.5100 
  3 C       -1.4840     0.8060    -0.5600 C.2   1 <1>   0.0960 
  4 C       -0.2980     2.6080     0.1370 C.2   1 <1>   0.3440 
  5 S       -2.5340    -0.4190    -1.3690 S.3   1 <1>  -0.2860 
  6 C       -1.3410     2.1330    -0.7290 C.2   1 <1>   0.0630 
  7 S        0.1350     4.3510     0.0880 S.3   1 <1>  -0.2850 
  8 C       -2.2800    -1.9970    -0.4430 C.3   1 <1>  -0.0100 
  9 N       -2.0480     2.9980    -1.6040 N.am  1 <1>  -0.4930 
 10 C        1.4690     4.5140     1.3560 C.3   1 <1>  -0.0100 
 11 C       -3.3830     3.0960    -1.8130 C.2   1 <1>   0.7800 
 12 O       -3.8300     3.9290    -2.5730 O.2   1 <1>  -0.5700 
 13 O       -4.1910     2.2880    -1.1320 O.3   1 <1>  -0.4300 
 14 C       -5.5940     2.3610    -1.2490 C.3   1 <1>   0.2000 
 15 C       -6.1180     3.4060    -0.2690 C.3   1 <1>  -0.1600 
 16 C       -6.1690     1.0550    -0.7140 C.3   1 <1>  -0.1600 
 17 C       -6.1350     2.7100     1.0970 C.3   1 <1>  -0.1600 
 18 C       -6.1580     1.2020     0.8110 C.3   1 <1>  -0.1600 
 19 H       -2.9330    -2.7340    -0.8740 H     1 <1>   0.0800 
 20 H       -2.5300    -1.8220     0.5880 H     1 <1>   0.0800 
 21 H       -1.2510    -2.2890    -0.5550 H     1 <1>   0.0800 
 22 H       -1.5380     3.8010    -1.9670 H     1 <1>   0.3700 
 23 H        1.7760     5.5440     1.3820 H     1 <1>   0.0800 
 24 H        2.2820     3.8740     1.0630 H     1 <1>   0.0800 
 25 H        1.0620     4.2070     2.3030 H     1 <1>   0.0800 
 26 H       -5.8660     2.5470    -2.2750 H     1 <1>   0.0800 
 27 H       -7.1260     3.6580    -0.5460 H     1 <1>   0.0800 
 28 H       -5.5260     4.3040    -0.2720 H     1 <1>   0.0800 
 29 H       -5.6110     0.2010    -1.0540 H     1 <1>   0.0800 
 30 H       -7.1860     0.9640    -1.0520 H     1 <1>   0.0800 
 31 H       -6.9880     3.0180     1.6760 H     1 <1>   0.0800 
 32 H       -5.2370     2.9570     1.6390 H     1 <1>   0.0800 
 33 H       -5.2650     0.7510     1.2080 H     1 <1>   0.0800 
 34 H       -7.0170     0.7270     1.2530 H     1 <1>   0.0800 
@<TRIPOS>BOND
  1   1   2  1   
  2   1   3  1   
  3   2   4  2   
  4   3   5  1   
  5   3   6  2   
  6   4   6  1   
  7   4   7  1   
  8   5   8  1   
  9   6   9  1   
 10   7  10  1   
 11   8  19  1   
 12   8  20  1   
 13   8  21  1   
 14   9  11  am  
 15   9  22  1   
 16  10  23  1   
 17  10  24  1   
 18  10  25  1   
 19  11  12  2   
 20  11  13  1   
 21  13  14  1   
 22  14  15  1   
 23  14  16  1   
 24  14  26  1   
 25  15  17  1   
 26  15  27  1   
 27  15  28  1   
 28  16  18  1   
 29  16  29  1   
 30  16  30  1   
 31  17  18  1   
 32  17  31  1   
 33  17  32  1   
 34  18  33  1   
 35  18  34  1   
@<TRIPOS>SUBSTRUCTURE
  1 ****   6 GROUP 4 **** **** 0

# MOE 2024.06 (io_trps.svl 2023.06)
