@<TRIPOS>MOLECULE
NONAME
41 42 1 0 0 
SMALL
USER_CHARGES


@<TRIPOS>ATOM
  1 CL      -0.3750    -0.0450     1.1700 Cl    1 <1>  -0.1770 
  2 C       -0.0630     1.5490     0.5320 C.ar  1 <1>   0.1770 
  3 C        1.2440     1.9740     0.3910 C.ar  1 <1>  -0.1500 
  4 C       -1.1310     2.3540     0.1790 C.ar  1 <1>  -0.1500 
  5 C        1.4900     3.2450    -0.1190 C.ar  1 <1>   0.0830 
  6 C       -0.8840     3.6190    -0.3280 C.ar  1 <1>  -0.1500 
  7 O        2.7320     3.7580    -0.2970 O.3   1 <1>  -0.3630 
  8 C        0.4220     4.0570    -0.4740 C.ar  1 <1>  -0.1500 
  9 C        3.8850     3.0190     0.0320 C.3   1 <1>   0.1200 
 10 C        5.1040     3.8840    -0.2900 C.3   1 <1>  -0.1600 
 11 C        6.4160     3.1590     0.0400 C.3   1 <1>  -0.1600 
 12 C        7.6270     4.0420    -0.2900 C.3   1 <1>  -0.1600 
 13 C        8.9360     3.3230     0.0370 C.3   1 <1>   0.3430 
 14 N       10.0990     4.1590    -0.3660 N.4   1 <1>  -0.9590 
 15 C       11.3850     3.4250    -0.2900 C.3   1 <1>   0.3430 
 16 C       10.2850     5.3840     0.4520 C.3   1 <1>   0.3430 
 17 C       12.4430     4.5190    -0.2800 C.3   1 <1>  -0.1600 
 18 C       11.7350     5.7830     0.2160 C.3   1 <1>  -0.1600 
 19 H        2.0330     1.3080     0.6800 H     1 <1>   0.1500 
 20 H       -2.1360     1.9930     0.3010 H     1 <1>   0.1500 
 21 H       -1.7030     4.2590    -0.6080 H     1 <1>   0.1500 
 22 H        0.6220     5.0380    -0.8670 H     1 <1>   0.1500 
 23 H        3.8880     2.1170    -0.5570 H     1 <1>   0.0800 
 24 H        3.8480     2.7820     1.0810 H     1 <1>   0.0800 
 25 H        5.0390     4.7940     0.2810 H     1 <1>   0.0800 
 26 H        5.0810     4.1340    -1.3370 H     1 <1>   0.0800 
 27 H        6.4660     2.2440    -0.5280 H     1 <1>   0.0800 
 28 H        6.4250     2.9040     1.0880 H     1 <1>   0.0800 
 29 H        7.5530     4.9520     0.2790 H     1 <1>   0.0800 
 30 H        7.6030     4.2860    -1.3390 H     1 <1>   0.0800 
 31 H        8.9630     2.3870    -0.4980 H     1 <1>   0.0800 
 32 H        8.9830     3.1080     1.0930 H     1 <1>   0.0800 
 33 H        9.9740     4.4560    -1.3430 H     1 <1>   0.4500 
 34 H       11.5140     2.7510    -1.1220 H     1 <1>   0.0800 
 35 H       11.4340     2.8700     0.6340 H     1 <1>   0.0800 
 36 H       10.1410     5.1510     1.4960 H     1 <1>   0.0800 
 37 H        9.6020     6.1670     0.1620 H     1 <1>   0.0800 
 38 H       12.8230     4.6680    -1.2760 H     1 <1>   0.0800 
 39 H       13.2640     4.2430     0.3590 H     1 <1>   0.0800 
 40 H       12.1730     6.1560     1.1260 H     1 <1>   0.0800 
 41 H       11.7840     6.5590    -0.5290 H     1 <1>   0.0800 
@<TRIPOS>BOND
  1   1   2  1   
  2   2   3  ar  
  3   2   4  ar  
  4   3   5  ar  
  5   3  19  1   
  6   4   6  ar  
  7   4  20  1   
  8   5   7  1   
  9   5   8  ar  
 10   6   8  ar  
 11   6  21  1   
 12   7   9  1   
 13   8  22  1   
 14   9  10  1   
 15   9  23  1   
 16   9  24  1   
 17  10  11  1   
 18  10  25  1   
 19  10  26  1   
 20  11  12  1   
 21  11  27  1   
 22  11  28  1   
 23  12  13  1   
 24  12  29  1   
 25  12  30  1   
 26  13  14  1   
 27  13  31  1   
 28  13  32  1   
 29  14  15  1   
 30  14  16  1   
 31  14  33  1   
 32  15  17  1   
 33  15  34  1   
 34  15  35  1   
 35  16  18  1   
 36  16  36  1   
 37  16  37  1   
 38  17  18  1   
 39  17  38  1   
 40  17  39  1   
 41  18  40  1   
 42  18  41  1   
@<TRIPOS>SUBSTRUCTURE
  1 ****  10 GROUP 4 **** **** 0

# MOE 2024.06 (io_trps.svl 2023.06)
