@<TRIPOS>MOLECULE
NONAME
34 35 1 0 0 
SMALL
USER_CHARGES


@<TRIPOS>ATOM
  1 S       -0.5170     0.2860     1.0960 S.o2  1 <1>   1.3330 
  2 O       -1.1970    -0.2870     2.2330 O.2   1 <1>  -0.6500 
  3 O       -0.4410     1.7200     0.9510 O.2   1 <1>  -0.6500 
  4 N       -1.2150    -0.3490    -0.3020 N.am  1 <1>  -0.8490 
  5 C        1.1350    -0.3710     1.0170 C.3   1 <1>  -0.1350 
  6 C       -1.9880    -1.5550     0.0000 C.3   1 <1>   0.5560 
  7 C       -2.0360     0.6120    -1.0590 C.3   1 <1>   0.1960 
  8 O       -1.9180    -2.3270    -1.1720 O.3   1 <1>  -0.5600 
  9 C       -3.4640    -1.3020     0.5360 C.3   1 <1>   0.5560 
 10 C       -3.3670     0.9460    -0.3510 C.3   1 <1>   0.1960 
 11 C       -3.1240    -2.5520    -1.8370 C.3   1 <1>   0.1200 
 12 O       -4.2170    -2.4720     0.3880 O.3   1 <1>  -0.5600 
 13 N       -4.2250    -0.2390    -0.1500 N.am  1 <1>  -0.8490 
 14 C       -4.2040    -3.0910    -0.8770 C.3   1 <1>   0.1200 
 15 S       -5.5920     0.2050     0.7390 S.o2  1 <1>   1.3330 
 16 O       -5.2220     0.2610     2.1320 O.2   1 <1>  -0.6500 
 17 O       -6.1130     1.3970     0.1090 O.2   1 <1>  -0.6500 
 18 C       -6.8140    -1.0680     0.4860 C.3   1 <1>  -0.1350 
 19 H        1.1100    -1.4430     1.0180 H     1 <1>   0.0800 
 20 H        1.7040    -0.0370     1.8620 H     1 <1>   0.0800 
 21 H        1.6200    -0.0380     0.1200 H     1 <1>   0.0800 
 22 H       -1.4700    -2.1340     0.7460 H     1 <1>   0.0800 
 23 H       -2.2510     0.2080    -2.0320 H     1 <1>   0.0800 
 24 H       -1.4800     1.5200    -1.2220 H     1 <1>   0.0800 
 25 H       -3.3990    -1.0910     1.5900 H     1 <1>   0.0800 
 26 H       -3.8940     1.6620    -0.9590 H     1 <1>   0.0800 
 27 H       -3.1610     1.4210     0.5950 H     1 <1>   0.0800 
 28 H       -2.9410    -3.2590    -2.6260 H     1 <1>   0.0800 
 29 H       -3.4490    -1.6300    -2.2860 H     1 <1>   0.0800 
 30 H       -4.0490    -4.1440    -0.7170 H     1 <1>   0.0800 
 31 H       -5.1760    -2.9610    -1.3190 H     1 <1>   0.0800 
 32 H       -6.5250    -1.9760     0.9740 H     1 <1>   0.0800 
 33 H       -6.9430    -1.2530    -0.5610 H     1 <1>   0.0800 
 34 H       -7.7530    -0.7520     0.8970 H     1 <1>   0.0800 
@<TRIPOS>BOND
  1   1   2  2   
  2   1   3  2   
  3   1   4  am  
  4   1   5  1   
  5   4   6  1   
  6   4   7  1   
  7   5  19  1   
  8   5  20  1   
  9   5  21  1   
 10   6   8  1   
 11   6   9  1   
 12   6  22  1   
 13   7  10  1   
 14   7  23  1   
 15   7  24  1   
 16   8  11  1   
 17   9  12  1   
 18   9  13  1   
 19   9  25  1   
 20  10  13  1   
 21  10  26  1   
 22  10  27  1   
 23  11  14  1   
 24  11  28  1   
 25  11  29  1   
 26  12  14  1   
 27  13  15  am  
 28  14  30  1   
 29  14  31  1   
 30  15  16  2   
 31  15  17  2   
 32  15  18  1   
 33  18  32  1   
 34  18  33  1   
 35  18  34  1   
@<TRIPOS>SUBSTRUCTURE
  1 ****   9 GROUP 4 **** **** 0

# MOE 2024.06 (io_trps.svl 2023.06)
