@<TRIPOS>MOLECULE
NONAME
27 28 1 0 0 
SMALL
USER_CHARGES


@<TRIPOS>ATOM
  1 O        1.7270    -1.7350    -0.0640 O.3   1 <1>  -0.3630 
  2 C        0.5440    -2.4010    -0.0510 C.ar  1 <1>   0.0830 
  3 C        2.8990    -2.5090    -0.2700 C.3   1 <1>   0.2000 
  4 C        0.5030    -3.7930     0.0620 C.ar  1 <1>   0.0830 
  5 C       -0.6340    -1.6820    -0.1570 C.ar  1 <1>  -0.1500 
  6 C        2.8180    -3.8180     0.5340 C.3   1 <1>   0.1200 
  7 C        4.1360    -1.6710     0.1110 C.3   1 <1>   0.3430 
  8 O        1.6430    -4.5190     0.1890 O.3   1 <1>  -0.3630 
  9 C       -0.7130    -4.4530     0.0490 C.ar  1 <1>  -0.1500 
 10 C       -1.8500    -2.3470    -0.1630 C.ar  1 <1>  -0.1500 
 11 N        3.9870    -0.2160    -0.2330 N.4   1 <1>  -0.9060 
 12 C       -1.8890    -3.7290    -0.0630 C.ar  1 <1>  -0.1500 
 13 C        3.4180     0.5840     0.8960 C.3   1 <1>   0.2630 
 14 H        2.9420    -2.7510    -1.3180 H     1 <1>   0.0800 
 15 H       -0.6070    -0.6110    -0.2380 H     1 <1>   0.1500 
 16 H        2.7840    -3.6200     1.5920 H     1 <1>   0.0800 
 17 H        3.6530    -4.4610     0.3210 H     1 <1>   0.0800 
 18 H        4.9900    -2.0810    -0.4040 H     1 <1>   0.0800 
 19 H        4.3210    -1.7740     1.1680 H     1 <1>   0.0800 
 20 H       -0.7360    -5.5250     0.1300 H     1 <1>   0.1500 
 21 H       -2.7680    -1.7910    -0.2470 H     1 <1>   0.1500 
 22 H        3.3400    -0.1430    -1.0330 H     1 <1>   0.4500 
 23 H        4.8880     0.1850    -0.5270 H     1 <1>   0.4500 
 24 H       -2.8350    -4.2430    -0.0710 H     1 <1>   0.1500 
 25 H        2.4530     0.1950     1.1820 H     1 <1>   0.0800 
 26 H        3.2970     1.6140     0.6020 H     1 <1>   0.0800 
 27 H        4.0720     0.5460     1.7530 H     1 <1>   0.0800 
@<TRIPOS>BOND
  1   1   2  1   
  2   1   3  1   
  3   2   4  ar  
  4   2   5  ar  
  5   3   6  1   
  6   3   7  1   
  7   3  14  1   
  8   4   8  1   
  9   4   9  ar  
 10   5  10  ar  
 11   5  15  1   
 12   6   8  1   
 13   6  16  1   
 14   6  17  1   
 15   7  11  1   
 16   7  18  1   
 17   7  19  1   
 18   9  12  ar  
 19   9  20  1   
 20  10  12  ar  
 21  10  21  1   
 22  11  13  1   
 23  11  22  1   
 24  11  23  1   
 25  12  24  1   
 26  13  25  1   
 27  13  26  1   
 28  13  27  1   
@<TRIPOS>SUBSTRUCTURE
  1 ****   2 GROUP 4 **** **** 0

# MOE 2024.06 (io_trps.svl 2023.06)
