@<TRIPOS>MOLECULE
NONAME
41 43 1 0 0 
SMALL
USER_CHARGES


@<TRIPOS>ATOM
  1 S        1.2540    -1.3390    -0.3650 S.3   1 <1>  -0.0800 
  2 C       -0.1610    -1.8210     0.5670 C.2   1 <1>   0.1040 
  3 C        2.0290    -0.6550     1.0540 C.2   1 <1>  -0.1100 
  4 N       -1.2150    -2.4890    -0.0610 N.am  1 <1>  -0.4940 
  5 C       -0.0070    -1.4590     1.8670 C.2   1 <1>   0.0190 
  6 C        1.2390    -0.8000     2.1330 C.2   1 <1>  -0.1500 
  7 C       -1.6110    -2.5830    -1.3650 C.2   1 <1>   0.5690 
  8 C       -0.9820    -1.6840     2.8880 C.1   1 <1>   0.5380 
  9 O       -1.0630    -2.0390    -2.2920 O.2   1 <1>  -0.5700 
 10 C       -2.8580    -3.4310    -1.6180 C.3   1 <1>   0.1710 
 11 N       -1.7870    -1.8700     3.6740 N.1   1 <1>  -0.5570 
 12 N       -3.6590    -3.6810    -0.3800 N.3   1 <1>  -0.8100 
 13 C       -4.5630    -4.8410    -0.5610 C.3   1 <1>   0.1100 
 14 C       -4.4700    -2.4910    -0.0100 C.3   1 <1>   0.1100 
 15 C       -5.4060    -5.1400     0.6970 C.3   1 <1>   0.2090 
 16 C       -5.2730    -2.7130     1.2870 C.3   1 <1>   0.2090 
 17 N       -6.1310    -3.9290     1.1860 N.pl3 1 <1>  -0.8380 
 18 C       -7.4970    -3.7600     0.9650 C.ar  1 <1>   0.1000 
 19 C       -8.1110    -4.1350    -0.2260 C.ar  1 <1>  -0.1500 
 20 C       -8.2820    -3.1910     1.9610 C.ar  1 <1>  -0.1500 
 21 C       -9.4690    -3.9460    -0.4160 C.ar  1 <1>  -0.1500 
 22 C       -9.6390    -2.9970     1.7770 C.ar  1 <1>  -0.1500 
 23 C      -10.2350    -3.3750     0.5860 C.ar  1 <1>  -0.1500 
 24 H        3.0020    -0.2140     0.9200 H     1 <1>   0.1500 
 25 H       -1.8970    -2.9700     0.5400 H     1 <1>   0.3700 
 26 H        1.4850    -0.4640     3.1260 H     1 <1>   0.1500 
 27 H       -2.5200    -4.3690    -2.0210 H     1 <1>   0.0800 
 28 H       -3.4660    -2.9500    -2.3640 H     1 <1>   0.0800 
 29 H       -3.9810    -5.7150    -0.7940 H     1 <1>   0.0800 
 30 H       -5.2280    -4.6560    -1.3870 H     1 <1>   0.0800 
 31 H       -5.1640    -2.2590    -0.8010 H     1 <1>   0.0800 
 32 H       -3.8310    -1.6370     0.1280 H     1 <1>   0.0800 
 33 H       -4.7550    -5.4890     1.4790 H     1 <1>   0.0800 
 34 H       -6.1110    -5.9240     0.4870 H     1 <1>   0.0800 
 35 H       -5.8870    -1.8500     1.4770 H     1 <1>   0.0800 
 36 H       -4.5950    -2.8260     2.1150 H     1 <1>   0.0800 
 37 H       -7.5250    -4.5710    -1.0100 H     1 <1>   0.1500 
 38 H       -7.8160    -2.9080     2.8850 H     1 <1>   0.1500 
 39 H       -9.9310    -4.2410    -1.3410 H     1 <1>   0.1500 
 40 H      -10.2300    -2.5560     2.5590 H     1 <1>   0.1500 
 41 H      -11.2910    -3.2270     0.4400 H     1 <1>   0.1500 
@<TRIPOS>BOND
  1   1   2  1   
  2   1   3  1   
  3   2   4  1   
  4   2   5  2   
  5   3   6  2   
  6   3  24  1   
  7   4   7  am  
  8   4  25  1   
  9   5   6  1   
 10   5   8  1   
 11   6  26  1   
 12   7   9  2   
 13   7  10  1   
 14   8  11  3   
 15  10  12  1   
 16  10  27  1   
 17  10  28  1   
 18  12  13  1   
 19  12  14  1   
 20  13  15  1   
 21  13  29  1   
 22  13  30  1   
 23  14  16  1   
 24  14  31  1   
 25  14  32  1   
 26  15  17  1   
 27  15  33  1   
 28  15  34  1   
 29  16  17  1   
 30  16  35  1   
 31  16  36  1   
 32  17  18  1   
 33  18  19  ar  
 34  18  20  ar  
 35  19  21  ar  
 36  19  37  1   
 37  20  22  ar  
 38  20  38  1   
 39  21  23  ar  
 40  21  39  1   
 41  22  23  ar  
 42  22  40  1   
 43  23  41  1   
@<TRIPOS>SUBSTRUCTURE
  1 ****  14 GROUP 4 **** **** 0

# MOE 2024.06 (io_trps.svl 2023.06)
