@<TRIPOS>MOLECULE
NONAME
39 40 1 0 0 
SMALL
USER_CHARGES


@<TRIPOS>ATOM
  1 O       -1.8820     0.3900     0.4680 O.3   1 <1>  -0.3630 
  2 C       -1.0000     1.4290     0.4980 C.ar  1 <1>   0.0830 
  3 C       -1.6020    -0.8420    -0.1690 C.3   1 <1>   0.1200 
  4 C       -1.3860     2.5740     1.1920 C.ar  1 <1>  -0.1440 
  5 C        0.2420     1.3980    -0.1310 C.ar  1 <1>  -0.1500 
  6 C       -1.9210    -0.7210    -1.6590 C.3   1 <1>  -0.2400 
  7 C       -0.5340     3.6670     1.2550 C.ar  1 <1>  -0.1500 
  8 C       -2.7370     2.6340     1.8760 C.3   1 <1>   0.4860 
  9 C        1.0840     2.4930    -0.0650 C.ar  1 <1>  -0.1500 
 10 C        0.6980     3.6260     0.6270 C.ar  1 <1>  -0.1500 
 11 N       -3.7920     2.4210     0.8510 N.4   1 <1>  -0.9590 
 12 C       -3.8090     3.5090    -0.1700 C.3   1 <1>   0.3430 
 13 C       -5.1210     2.1470     1.4610 C.3   1 <1>   0.3430 
 14 C       -4.7920     3.1530    -1.2820 C.3   1 <1>  -0.1600 
 15 C       -6.1190     1.7750     0.3670 C.3   1 <1>  -0.1600 
 16 C       -6.1720     2.8720    -0.6930 C.3   1 <1>   0.2000 
 17 O       -7.0070     2.4650    -1.7040 O.3   1 <1>  -0.6800 
 18 H       -2.2360    -1.5870     0.2800 H     1 <1>   0.0800 
 19 H       -0.5780    -1.1210     0.0140 H     1 <1>   0.0800 
 20 H        0.5790     0.5380    -0.6780 H     1 <1>   0.1500 
 21 H       -2.9590    -0.4830    -1.8020 H     1 <1>   0.0800 
 22 H       -1.7210    -1.6590    -2.1450 H     1 <1>   0.0800 
 23 H       -1.3120     0.0330    -2.1250 H     1 <1>   0.0800 
 24 H       -0.8110     4.5590     1.7920 H     1 <1>   0.1500 
 25 H       -2.8710     3.5850     2.3630 H     1 <1>   0.0800 
 26 H       -2.7830     1.8540     2.6190 H     1 <1>   0.0800 
 27 H        2.0450     2.4640    -0.5510 H     1 <1>   0.1500 
 28 H        1.3610     4.4740     0.6770 H     1 <1>   0.1500 
 29 H       -3.4650     1.5630     0.3710 H     1 <1>   0.4500 
 30 H       -2.8240     3.6380    -0.5920 H     1 <1>   0.0800 
 31 H       -4.1050     4.4380     0.2900 H     1 <1>   0.0800 
 32 H       -5.4710     3.0230     1.9830 H     1 <1>   0.0800 
 33 H       -5.0450     1.3360     2.1670 H     1 <1>   0.0800 
 34 H       -4.4230     2.2960    -1.8170 H     1 <1>   0.0800 
 35 H       -4.8580     3.9800    -1.9670 H     1 <1>   0.0800 
 36 H       -7.0940     1.6590     0.8080 H     1 <1>   0.0800 
 37 H       -5.8310     0.8360    -0.0710 H     1 <1>   0.0800 
 38 H       -6.5920     3.7740    -0.2770 H     1 <1>   0.0800 
 39 H       -6.6800     1.6570    -2.1450 H     1 <1>   0.4000 
@<TRIPOS>BOND
  1   1   2  1   
  2   1   3  1   
  3   2   4  ar  
  4   2   5  ar  
  5   3   6  1   
  6   3  18  1   
  7   3  19  1   
  8   4   7  ar  
  9   4   8  1   
 10   5   9  ar  
 11   5  20  1   
 12   6  21  1   
 13   6  22  1   
 14   6  23  1   
 15   7  10  ar  
 16   7  24  1   
 17   8  11  1   
 18   8  25  1   
 19   8  26  1   
 20   9  10  ar  
 21   9  27  1   
 22  10  28  1   
 23  11  12  1   
 24  11  13  1   
 25  11  29  1   
 26  12  14  1   
 27  12  30  1   
 28  12  31  1   
 29  13  15  1   
 30  13  32  1   
 31  13  33  1   
 32  14  16  1   
 33  14  34  1   
 34  14  35  1   
 35  15  16  1   
 36  15  36  1   
 37  15  37  1   
 38  16  17  1   
 39  16  38  1   
 40  17  39  1   
@<TRIPOS>SUBSTRUCTURE
  1 ****  11 GROUP 4 **** **** 0

# MOE 2024.06 (io_trps.svl 2023.06)
