@<TRIPOS>MOLECULE
NONAME
43 44 1 0 0 
SMALL
USER_CHARGES


@<TRIPOS>ATOM
  1 O       -1.0560     0.5290    -0.3180 O.2   1 <1>  -0.5700 
  2 C       -1.2520     1.5760    -0.9050 C.2   1 <1>   0.5440 
  3 N       -2.5210     1.8000    -1.3920 N.am  1 <1>  -0.6600 
  4 C       -0.2140     2.5850    -1.0010 C.ar  1 <1>   0.0860 
  5 C       -3.4340     0.6370    -1.5890 C.3   1 <1>   0.1400 
  6 C       -3.2440     3.0370    -0.9870 C.3   1 <1>   0.1400 
  7 C        0.6620     2.8110     0.0580 C.ar  1 <1>  -0.1500 
  8 C       -0.0670     3.3770    -2.1410 C.ar  1 <1>  -0.1500 
  9 C       -4.1770     0.3460    -0.2720 C.3   1 <1>   0.3430 
 10 C       -4.0170     2.7760     0.3240 C.3   1 <1>   0.3430 
 11 C        1.6290     3.7980     0.0040 C.ar  1 <1>   0.0830 
 12 C        0.9010     4.3620    -2.2120 C.ar  1 <1>  -0.1500 
 13 N       -4.9120     1.5610     0.2420 N.4   1 <1>  -0.9590 
 14 O        2.4110     3.9400     1.1010 O.3   1 <1>  -0.3620 
 15 C        1.7490     4.5800    -1.1410 C.ar  1 <1>  -0.1500 
 16 C       -5.5540     1.2650     1.5400 C.3   1 <1>   0.4810 
 17 C        3.4780     4.8580     1.1300 C.3   1 <1>   0.1200 
 18 C       -6.5980     2.3320     1.7750 C.2   1 <1>  -0.2880 
 19 C        4.1700     4.7340     2.4840 C.3   1 <1>  -0.2400 
 20 C       -7.9170     2.1650     1.6250 C.2   1 <1>  -0.3000 
 21 H       -2.8630    -0.2290    -1.8780 H     1 <1>   0.0800 
 22 H       -4.1330     0.8490    -2.3790 H     1 <1>   0.0800 
 23 H       -3.9240     3.3320    -1.7680 H     1 <1>   0.0800 
 24 H       -2.5490     3.8460    -0.8350 H     1 <1>   0.0800 
 25 H        0.5910     2.2060     0.9440 H     1 <1>   0.1500 
 26 H       -0.7170     3.2130    -2.9830 H     1 <1>   0.1500 
 27 H       -3.4460     0.0270     0.4540 H     1 <1>   0.0800 
 28 H       -4.8670    -0.4660    -0.4280 H     1 <1>   0.0800 
 29 H       -4.6030     3.6480     0.5650 H     1 <1>   0.0800 
 30 H       -3.2960     2.6360     1.1130 H     1 <1>   0.0800 
 31 H        0.9980     4.9610    -3.1020 H     1 <1>   0.1500 
 32 H       -5.6780     1.7780    -0.4080 H     1 <1>   0.4500 
 33 H        2.4910     5.3530    -1.2160 H     1 <1>   0.1500 
 34 H       -4.8300     1.2490     2.3400 H     1 <1>   0.0800 
 35 H       -6.0410     0.3040     1.4950 H     1 <1>   0.0800 
 36 H        3.0810     5.8500     0.9950 H     1 <1>   0.0800 
 37 H        4.1590     4.6150     0.3320 H     1 <1>   0.0800 
 38 H       -6.1790     3.2710     2.0940 H     1 <1>   0.1500 
 39 H        3.4780     4.9640     3.2750 H     1 <1>   0.0800 
 40 H        4.9930     5.4230     2.5380 H     1 <1>   0.0800 
 41 H        4.5470     3.7360     2.6160 H     1 <1>   0.0800 
 42 H       -8.6430     2.9430     1.8060 H     1 <1>   0.1500 
 43 H       -8.3970     1.2500     1.3190 H     1 <1>   0.1500 
@<TRIPOS>BOND
  1   1   2  2   
  2   2   3  am  
  3   2   4  1   
  4   3   5  1   
  5   3   6  1   
  6   4   7  ar  
  7   4   8  ar  
  8   5   9  1   
  9   5  21  1   
 10   5  22  1   
 11   6  10  1   
 12   6  23  1   
 13   6  24  1   
 14   7  11  ar  
 15   7  25  1   
 16   8  12  ar  
 17   8  26  1   
 18   9  13  1   
 19   9  27  1   
 20   9  28  1   
 21  10  13  1   
 22  10  29  1   
 23  10  30  1   
 24  11  14  1   
 25  11  15  ar  
 26  12  15  ar  
 27  12  31  1   
 28  13  16  1   
 29  13  32  1   
 30  14  17  1   
 31  15  33  1   
 32  16  18  1   
 33  16  34  1   
 34  16  35  1   
 35  17  19  1   
 36  17  36  1   
 37  17  37  1   
 38  18  20  2   
 39  18  38  1   
 40  19  39  1   
 41  19  40  1   
 42  19  41  1   
 43  20  42  1   
 44  20  43  1   
@<TRIPOS>SUBSTRUCTURE
  1 ****   2 GROUP 4 **** **** 0

# MOE 2024.06 (io_trps.svl 2023.06)
