@<TRIPOS>MOLECULE
NONAME
38 39 1 0 0 
SMALL
USER_CHARGES


@<TRIPOS>ATOM
  1 S        0.4020     0.1620     0.3890 S.3   1 <1>  -0.3710 
  2 C       -1.1430     1.0400     0.4180 C.2   1 <1>   0.6410 
  3 C        1.4980     1.0680    -0.8090 C.3   1 <1>   0.1310 
  4 N       -1.3930     1.8660    -0.6370 N.pl3 1 <1>  -0.5500 
  5 N       -1.9210     0.8490     1.4160 N.2   1 <1>  -0.6610 
  6 C        2.8440     0.3730    -0.9670 C.2   1 <1>   0.5690 
  7 C       -2.5490     2.5920    -0.6890 C.2   1 <1>  -0.0380 
  8 C       -3.0910     1.5520     1.4100 C.2   1 <1>   0.7670 
  9 O        3.0250    -0.2200    -2.0060 O.2   1 <1>  -0.5700 
 10 N        3.8180     0.4610    -0.0030 N.am  1 <1>  -0.6600 
 11 C       -3.4080     2.4370     0.3440 C.2   1 <1>  -0.1360 
 12 C       -2.7770     3.4950    -1.8840 C.3   1 <1>  -0.1020 
 13 O       -3.8650     1.4110     2.3430 O.2   1 <1>  -0.5700 
 14 C        3.6670     1.1220     1.3220 C.3   1 <1>   0.1400 
 15 C        5.1480    -0.1650    -0.2130 C.3   1 <1>   0.1400 
 16 C        4.3100     2.5130     1.3310 C.3   1 <1>  -0.1600 
 17 C        6.1030     0.7840    -0.9470 C.3   1 <1>  -0.1600 
 18 C        5.7980     2.5500     0.9320 C.3   1 <1>  -0.1600 
 19 C        6.0210     2.2750    -0.5650 C.3   1 <1>  -0.1600 
 20 H        1.6290     2.0680    -0.4410 H     1 <1>   0.0800 
 21 H        0.9960     1.0820    -1.7570 H     1 <1>   0.0800 
 22 H       -0.7310     1.8780    -1.4100 H     1 <1>   0.4000 
 23 H       -4.3450     2.9530     0.4140 H     1 <1>   0.1500 
 24 H       -1.9970     4.2320    -1.9470 H     1 <1>   0.0800 
 25 H       -3.7200     4.0040    -1.7960 H     1 <1>   0.0800 
 26 H       -2.7870     2.9150    -2.7900 H     1 <1>   0.0800 
 27 H        4.1270     0.5080     2.0780 H     1 <1>   0.0800 
 28 H        2.6290     1.2100     1.5850 H     1 <1>   0.0800 
 29 H        5.0380    -1.0730    -0.7830 H     1 <1>   0.0800 
 30 H        5.5730    -0.4360     0.7380 H     1 <1>   0.0800 
 31 H        4.2200     2.9050     2.3280 H     1 <1>   0.0800 
 32 H        3.7470     3.1650     0.6880 H     1 <1>   0.0800 
 33 H        5.9190     0.6940    -2.0040 H     1 <1>   0.0800 
 34 H        7.1050     0.4340    -0.7760 H     1 <1>   0.0800 
 35 H        6.3700     1.8640     1.5320 H     1 <1>   0.0800 
 36 H        6.1650     3.5400     1.1420 H     1 <1>   0.0800 
 37 H        5.2320     2.7380    -1.1310 H     1 <1>   0.0800 
 38 H        6.9400     2.7450    -0.8720 H     1 <1>   0.0800 
@<TRIPOS>BOND
  1   1   2  1   
  2   1   3  1   
  3   2   4  1   
  4   2   5  2   
  5   3   6  1   
  6   3  20  1   
  7   3  21  1   
  8   4   7  1   
  9   4  22  1   
 10   5   8  1   
 11   6   9  2   
 12   6  10  am  
 13   7  11  2   
 14   7  12  1   
 15   8  11  1   
 16   8  13  2   
 17  10  14  1   
 18  10  15  1   
 19  11  23  1   
 20  12  24  1   
 21  12  25  1   
 22  12  26  1   
 23  14  16  1   
 24  14  27  1   
 25  14  28  1   
 26  15  17  1   
 27  15  29  1   
 28  15  30  1   
 29  16  18  1   
 30  16  31  1   
 31  16  32  1   
 32  17  19  1   
 33  17  33  1   
 34  17  34  1   
 35  18  19  1   
 36  18  35  1   
 37  18  36  1   
 38  19  37  1   
 39  19  38  1   
@<TRIPOS>SUBSTRUCTURE
  1 ****   3 GROUP 4 **** **** 0

# MOE 2024.06 (io_trps.svl 2023.06)
