@<TRIPOS>MOLECULE
NONAME
54 56 1 0 0 
SMALL
USER_CHARGES


@<TRIPOS>ATOM
  1 O        0.1720     1.0510    -1.6440 O.2   1 <1>  -0.5700 
  2 C        0.1200     1.7830    -0.6730 C.2   1 <1>   0.5440 
  3 N        1.2820     2.0530     0.0280 N.am  1 <1>  -0.6600 
  4 C       -1.1570     2.3520    -0.2930 C.ar  1 <1>   0.0860 
  5 C        2.5510     1.3270    -0.2600 C.3   1 <1>   0.1400 
  6 C        1.4180     3.1800     0.9930 C.3   1 <1>   0.1400 
  7 C       -1.6920     2.1650     0.9820 C.ar  1 <1>  -0.1500 
  8 C       -1.9020     3.1070    -1.2000 C.ar  1 <1>  -0.1500 
  9 C        3.6010     2.3090    -0.7840 C.3   1 <1>  -0.1600 
 10 C        2.4670     4.1700     0.4820 C.3   1 <1>  -0.1600 
 11 C       -2.9050     2.7230     1.3400 C.ar  1 <1>  -0.1500 
 12 C       -3.1160     3.6690    -0.8500 C.ar  1 <1>  -0.1500 
 13 C        3.8160     3.4810     0.1910 C.3   1 <1>  -0.0190 
 14 C       -3.6260     3.4810     0.4320 C.ar  1 <1>   0.0820 
 15 C        4.8790     4.4470    -0.3380 C.2   1 <1>   0.5690 
 16 O       -4.8010     3.9960     0.8590 O.3   1 <1>  -0.3630 
 17 O        4.5390     5.4570    -0.9050 O.2   1 <1>  -0.5700 
 18 N        6.1840     4.0950    -0.1350 N.am  1 <1>  -0.5470 
 19 C       -5.6310     4.7550     0.0080 C.3   1 <1>   0.0400 
 20 C        7.4150     4.6920    -0.4660 C.ar  1 <1>   0.1170 
 21 C        8.5840     4.0020    -0.1250 C.ar  1 <1>   0.0820 
 22 C        7.5250     5.9210    -1.1060 C.ar  1 <1>  -0.1500 
 23 O        8.4330     2.7960     0.5040 O.3   1 <1>  -0.3630 
 24 C        9.8290     4.5460    -0.4270 C.ar  1 <1>  -0.1500 
 25 C        8.7650     6.4570    -1.4040 C.ar  1 <1>  -0.1500 
 26 C        9.5480     2.0170     0.8700 C.3   1 <1>   0.1200 
 27 C        9.9170     5.7700    -1.0660 C.ar  1 <1>  -0.1500 
 28 C        9.0340     0.7420     1.5320 C.3   1 <1>  -0.2400 
 29 H        2.3910     0.5490    -0.9880 H     1 <1>   0.0800 
 30 H        2.8990     0.8620     0.6450 H     1 <1>   0.0800 
 31 H        1.7170     2.7880     1.9500 H     1 <1>   0.0800 
 32 H        0.4840     3.6990     1.1190 H     1 <1>   0.0800 
 33 H       -1.1460     1.5710     1.6930 H     1 <1>   0.1500 
 34 H       -1.5110     3.2470    -2.1930 H     1 <1>   0.1500 
 35 H        3.2760     2.6860    -1.7390 H     1 <1>   0.0800 
 36 H        4.5260     1.7840    -0.9400 H     1 <1>   0.0800 
 37 H        2.6090     4.9490     1.2110 H     1 <1>   0.0800 
 38 H        2.0930     4.6330    -0.4170 H     1 <1>   0.0800 
 39 H       -3.3060     2.5730     2.3270 H     1 <1>   0.1500 
 40 H       -3.6500     4.2430    -1.5820 H     1 <1>   0.1500 
 41 H        4.1810     3.0820     1.1210 H     1 <1>   0.0800 
 42 H        6.3330     3.2040     0.3380 H     1 <1>   0.3700 
 43 H       -6.5050     5.0420     0.5650 H     1 <1>   0.0800 
 44 H       -5.9160     4.1480    -0.8330 H     1 <1>   0.0800 
 45 H       -5.0960     5.6320    -0.3110 H     1 <1>   0.0800 
 46 H        6.6450     6.4730    -1.3780 H     1 <1>   0.1500 
 47 H       10.7410     4.0390    -0.1780 H     1 <1>   0.1500 
 48 H        8.8310     7.4100    -1.9010 H     1 <1>   0.1500 
 49 H       10.1510     2.5850     1.5570 H     1 <1>   0.0800 
 50 H       10.1090     1.7840    -0.0190 H     1 <1>   0.0800 
 51 H       10.8800     6.1900    -1.2990 H     1 <1>   0.1500 
 52 H        8.4650     0.9840     2.4110 H     1 <1>   0.0800 
 53 H        9.8640     0.1240     1.8220 H     1 <1>   0.0800 
 54 H        8.4200     0.1880     0.8440 H     1 <1>   0.0800 
@<TRIPOS>BOND
  1   1   2  2   
  2   2   3  am  
  3   2   4  1   
  4   3   5  1   
  5   3   6  1   
  6   4   7  ar  
  7   4   8  ar  
  8   5   9  1   
  9   5  29  1   
 10   5  30  1   
 11   6  10  1   
 12   6  31  1   
 13   6  32  1   
 14   7  11  ar  
 15   7  33  1   
 16   8  12  ar  
 17   8  34  1   
 18   9  13  1   
 19   9  35  1   
 20   9  36  1   
 21  10  13  1   
 22  10  37  1   
 23  10  38  1   
 24  11  14  ar  
 25  11  39  1   
 26  12  14  ar  
 27  12  40  1   
 28  13  15  1   
 29  13  41  1   
 30  14  16  1   
 31  15  17  2   
 32  15  18  am  
 33  16  19  1   
 34  18  20  1   
 35  18  42  1   
 36  19  43  1   
 37  19  44  1   
 38  19  45  1   
 39  20  21  ar  
 40  20  22  ar  
 41  21  23  1   
 42  21  24  ar  
 43  22  25  ar  
 44  22  46  1   
 45  23  26  1   
 46  24  27  ar  
 47  24  47  1   
 48  25  27  ar  
 49  25  48  1   
 50  26  28  1   
 51  26  49  1   
 52  26  50  1   
 53  27  51  1   
 54  28  52  1   
 55  28  53  1   
 56  28  54  1   
@<TRIPOS>SUBSTRUCTURE
  1 ****  13 GROUP 4 **** **** 0

# MOE 2024.06 (io_trps.svl 2023.06)
