@<TRIPOS>MOLECULE
NONAME
39 41 1 0 0 
SMALL
USER_CHARGES


@<TRIPOS>ATOM
  1 O       -8.0400     0.6350     0.1950 O.3   1 <1>  -0.3630 
  2 C       -6.8190     1.2090     0.0450 C.ar  1 <1>   0.0830 
  3 C       -9.2220     1.3650    -0.0300 C.3   1 <1>   0.1200 
  4 C       -5.7180     0.4010     0.2910 C.ar  1 <1>  -0.1500 
  5 C       -6.6290     2.5400    -0.3350 C.ar  1 <1>  -0.1500 
  6 C      -10.4060     0.4310     0.2220 C.3   1 <1>  -0.1600 
  7 C       -4.4470     0.9240     0.1550 C.ar  1 <1>  -0.1440 
  8 C       -5.3490     3.0540    -0.4670 C.ar  1 <1>  -0.1500 
  9 C      -11.7410     1.1540    -0.0060 C.3   1 <1>  -0.1600 
 10 C       -4.2650     2.2320    -0.2180 C.ar  1 <1>  -0.1430 
 11 C       -3.1280     0.2260     0.3720 C.3   1 <1>  -0.0170 
 12 C      -12.9280     0.2160     0.2450 C.3   1 <1>   0.0960 
 13 C       -2.7990     2.5790    -0.2990 C.3   1 <1>  -0.0170 
 14 C       -2.1030     1.2090    -0.2190 C.3   1 <1>  -0.1600 
 15 N      -14.1990     0.9280     0.0150 N.pl3 1 <1>   0.0480 
 16 C      -14.9160     0.9970    -1.1290 C.2   1 <1>   0.0360 
 17 C      -14.8970     1.6630     0.8980 C.2   1 <1>  -0.3020 
 18 N      -15.9920     1.7080    -1.0350 N.2   1 <1>  -0.5650 
 19 C      -15.9830     2.1290     0.2430 C.2   1 <1>   0.0770 
 20 H       -9.2170     1.7120    -1.0480 H     1 <1>   0.0800 
 21 H       -9.2390     2.1980     0.6510 H     1 <1>   0.0800 
 22 H       -5.8650    -0.6220     0.5830 H     1 <1>   0.1500 
 23 H       -7.4610     3.1880    -0.5310 H     1 <1>   0.1500 
 24 H      -10.3560     0.0740     1.2360 H     1 <1>   0.0800 
 25 H      -10.3310    -0.4100    -0.4460 H     1 <1>   0.0800 
 26 H       -5.1970     4.0770    -0.7590 H     1 <1>   0.1500 
 27 H      -11.7830     1.5150    -1.0200 H     1 <1>   0.0800 
 28 H      -11.8090     1.9970     0.6610 H     1 <1>   0.0800 
 29 H       -3.0990    -0.7260    -0.1270 H     1 <1>   0.0800 
 30 H       -2.9640     0.0930     1.4270 H     1 <1>   0.0800 
 31 H      -12.9130    -0.1420     1.2590 H     1 <1>   0.0800 
 32 H      -12.8810    -0.6300    -0.4180 H     1 <1>   0.0800 
 33 H       -2.5300     3.1930     0.5420 H     1 <1>   0.0800 
 34 H       -2.5640     3.0890    -1.2170 H     1 <1>   0.0800 
 35 H       -1.8550     0.8900    -1.2160 H     1 <1>   0.0800 
 36 H       -1.2030     1.2510     0.3700 H     1 <1>   0.0800 
 37 H      -14.6020     0.4990    -2.0300 H     1 <1>   0.1500 
 38 H      -14.5950     1.8140     1.9180 H     1 <1>   0.1500 
 39 H      -16.7710     2.7540     0.6290 H     1 <1>   0.1500 
@<TRIPOS>BOND
  1   1   2  1   
  2   1   3  1   
  3   2   4  ar  
  4   2   5  ar  
  5   3   6  1   
  6   3  20  1   
  7   3  21  1   
  8   4   7  ar  
  9   4  22  1   
 10   5   8  ar  
 11   5  23  1   
 12   6   9  1   
 13   6  24  1   
 14   6  25  1   
 15   7  10  ar  
 16   7  11  1   
 17   8  10  ar  
 18   8  26  1   
 19   9  12  1   
 20   9  27  1   
 21   9  28  1   
 22  10  13  1   
 23  11  14  1   
 24  11  29  1   
 25  11  30  1   
 26  12  15  1   
 27  12  31  1   
 28  12  32  1   
 29  13  14  1   
 30  13  33  1   
 31  13  34  1   
 32  14  35  1   
 33  14  36  1   
 34  15  16  1   
 35  15  17  1   
 36  16  18  2   
 37  16  37  1   
 38  17  19  2   
 39  17  38  1   
 40  18  19  1   
 41  19  39  1   
@<TRIPOS>SUBSTRUCTURE
  1 ****   3 GROUP 4 **** **** 0

# MOE 2024.06 (io_trps.svl 2023.06)
