@<TRIPOS>MOLECULE
NONAME
38 39 1 0 0 
SMALL
USER_CHARGES


@<TRIPOS>ATOM
  1 CL      -0.1580     0.2540    -0.0370 Cl    1 <1>  -0.1770 
  2 C        1.4900     0.8550     0.0020 C.ar  1 <1>   0.1770 
  3 C        1.7260     2.1980    -0.2620 C.ar  1 <1>  -0.1440 
  4 C        2.5250    -0.0240     0.2960 C.ar  1 <1>  -0.1440 
  5 C        3.0320     2.6600    -0.2280 C.ar  1 <1>  -0.1500 
  6 C        0.5850     3.1520    -0.5830 C.3   1 <1>  -0.0960 
  7 C        3.8250     0.4580     0.3250 C.ar  1 <1>  -0.1500 
  8 C        2.2450    -1.4930     0.5840 C.3   1 <1>  -0.0960 
  9 C        4.0810     1.8020     0.0620 C.ar  1 <1>   0.0830 
 10 O        5.3230     2.3490     0.0690 O.3   1 <1>  -0.3630 
 11 C        6.4680     1.5720     0.3140 C.3   1 <1>   0.1200 
 12 C        7.6760     2.5100     0.2370 C.3   1 <1>   0.3430 
 13 N        8.9770     1.8010     0.4730 N.4   1 <1>  -0.9590 
 14 C       10.1200     2.7430     0.5540 C.3   1 <1>   0.3430 
 15 C        9.3400     0.8240    -0.5860 C.3   1 <1>   0.3430 
 16 C       11.3460     1.8720     0.3190 C.3   1 <1>  -0.1600 
 17 C       10.8420     0.6320    -0.4250 C.3   1 <1>  -0.1600 
 18 H        3.2470     3.6940    -0.4280 H     1 <1>   0.1500 
 19 H        0.0650     2.8200    -1.4630 H     1 <1>   0.0800 
 20 H        0.9510     4.1480    -0.7580 H     1 <1>   0.0800 
 21 H       -0.1090     3.1840     0.2380 H     1 <1>   0.0800 
 22 H        4.6190    -0.2250     0.5540 H     1 <1>   0.1500 
 23 H        1.5910    -1.5810     1.4340 H     1 <1>   0.0800 
 24 H        3.1510    -2.0310     0.7940 H     1 <1>   0.0800 
 25 H        1.7680    -1.9480    -0.2660 H     1 <1>   0.0800 
 26 H        6.5170     0.8080    -0.4420 H     1 <1>   0.0800 
 27 H        6.3760     1.1420     1.2960 H     1 <1>   0.0800 
 28 H        7.5500     3.2800     0.9800 H     1 <1>   0.0800 
 29 H        7.6920     2.9760    -0.7340 H     1 <1>   0.0800 
 30 H        8.9410     1.2970     1.3700 H     1 <1>   0.4500 
 31 H       10.1620     3.2440     1.5090 H     1 <1>   0.0800 
 32 H       10.0460     3.4770    -0.2330 H     1 <1>   0.0800 
 33 H        9.1350     1.2450    -1.5570 H     1 <1>   0.0800 
 34 H        8.8050    -0.1070    -0.4770 H     1 <1>   0.0800 
 35 H       11.7820     1.5930     1.2630 H     1 <1>   0.0800 
 36 H       12.0840     2.4090    -0.2520 H     1 <1>   0.0800 
 37 H       11.3110     0.5250    -1.3880 H     1 <1>   0.0800 
 38 H       11.0380    -0.2570     0.1500 H     1 <1>   0.0800 
@<TRIPOS>BOND
  1   1   2  1   
  2   2   3  ar  
  3   2   4  ar  
  4   3   5  ar  
  5   3   6  1   
  6   4   7  ar  
  7   4   8  1   
  8   5   9  ar  
  9   5  18  1   
 10   6  19  1   
 11   6  20  1   
 12   6  21  1   
 13   7   9  ar  
 14   7  22  1   
 15   8  23  1   
 16   8  24  1   
 17   8  25  1   
 18   9  10  1   
 19  10  11  1   
 20  11  12  1   
 21  11  26  1   
 22  11  27  1   
 23  12  13  1   
 24  12  28  1   
 25  12  29  1   
 26  13  14  1   
 27  13  15  1   
 28  13  30  1   
 29  14  16  1   
 30  14  31  1   
 31  14  32  1   
 32  15  17  1   
 33  15  33  1   
 34  15  34  1   
 35  16  17  1   
 36  16  35  1   
 37  16  36  1   
 38  17  37  1   
 39  17  38  1   
@<TRIPOS>SUBSTRUCTURE
  1 ****  10 GROUP 4 **** **** 0

# MOE 2024.06 (io_trps.svl 2023.06)
