@<TRIPOS>MOLECULE
NONAME
42 44 1 0 0 
SMALL
USER_CHARGES


@<TRIPOS>ATOM
  1 S       -0.2220    -0.8620     1.1290 S.o2  1 <1>   1.4470 
  2 O        0.1840    -1.2700     2.4560 O.2   1 <1>  -0.6500 
  3 O       -0.6560     0.5030     0.9160 O.2   1 <1>  -0.6500 
  4 N        1.1050    -1.1140     0.1060 N.am  1 <1>  -0.8490 
  5 C       -1.4720    -2.0160     0.4990 C.ar  1 <1>  -0.0090 
  6 C        0.8820    -0.6680    -1.2860 C.3   1 <1>   0.1960 
  7 C        2.3470    -0.5510     0.6470 C.3   1 <1>   0.1960 
  8 C       -2.8010    -1.6330     0.3740 C.ar  1 <1>  -0.1500 
  9 C       -1.1320    -3.3150     0.1420 C.ar  1 <1>  -0.1500 
 10 C        2.1820    -0.3350    -2.0530 C.3   1 <1>   0.1200 
 11 C        3.5670    -0.9160    -0.2310 C.3   1 <1>   0.1200 
 12 C       -3.7810    -2.4980    -0.0980 C.ar  1 <1>   0.1170 
 13 C       -2.0870    -4.1940    -0.3350 C.ar  1 <1>  -0.1500 
 14 O        3.2530    -1.1000    -1.5890 O.3   1 <1>  -0.5600 
 15 N       -5.0970    -2.0250    -0.1990 N.am  1 <1>  -0.5470 
 16 C       -3.4010    -3.7860    -0.4570 C.ar  1 <1>  -0.1500 
 17 C       -6.3130    -2.6600    -0.2890 C.2   1 <1>   0.7150 
 18 O       -6.3860    -3.8750    -0.2770 O.2   1 <1>  -0.5700 
 19 C       -7.5020    -1.8500    -0.3860 C.2   1 <1>   0.0550 
 20 O       -7.4240    -0.5200    -0.3870 O.3   1 <1>  -0.2800 
 21 C       -8.8140    -2.2020    -0.4860 C.2   1 <1>  -0.1500 
 22 C       -8.6360    -0.0230    -0.4850 C.2   1 <1>  -0.0400 
 23 C       -9.5470    -1.0170    -0.5500 C.2   1 <1>  -0.1500 
 24 C       -8.8150     1.4790    -0.5090 C.3   1 <1>  -0.0600 
 25 H        0.2570     0.2090    -1.3130 H     1 <1>   0.0800 
 26 H        0.3600    -1.4480    -1.8140 H     1 <1>   0.0800 
 27 H        2.5200    -0.9190     1.6450 H     1 <1>   0.0800 
 28 H        2.2580     0.5210     0.7100 H     1 <1>   0.0800 
 29 H       -3.0780    -0.6320     0.6560 H     1 <1>   0.1500 
 30 H       -0.1090    -3.6400     0.2390 H     1 <1>   0.1500 
 31 H        2.4340     0.7040    -1.9320 H     1 <1>   0.0800 
 32 H        2.0590    -0.5350    -3.1030 H     1 <1>   0.0800 
 33 H        3.9970    -1.8380     0.1190 H     1 <1>   0.0800 
 34 H        4.3160    -0.1480    -0.1590 H     1 <1>   0.0800 
 35 H       -1.8080    -5.1970    -0.6110 H     1 <1>   0.1500 
 36 H       -5.2100    -1.0120    -0.1530 H     1 <1>   0.3700 
 37 H       -4.1280    -4.4820    -0.8360 H     1 <1>   0.1500 
 38 H       -9.2190    -3.1990    -0.5120 H     1 <1>   0.1500 
 39 H      -10.6170    -0.9460    -0.6350 H     1 <1>   0.1500 
 40 H       -8.2860     1.8950    -1.3470 H     1 <1>   0.0800 
 41 H       -8.4260     1.9060     0.3980 H     1 <1>   0.0800 
 42 H       -9.8570     1.7280    -0.5940 H     1 <1>   0.0800 
@<TRIPOS>BOND
  1   1   2  2   
  2   1   3  2   
  3   1   4  am  
  4   1   5  1   
  5   4   6  1   
  6   4   7  1   
  7   5   8  ar  
  8   5   9  ar  
  9   6  10  1   
 10   6  25  1   
 11   6  26  1   
 12   7  11  1   
 13   7  27  1   
 14   7  28  1   
 15   8  12  ar  
 16   8  29  1   
 17   9  13  ar  
 18   9  30  1   
 19  10  14  1   
 20  10  31  1   
 21  10  32  1   
 22  11  14  1   
 23  11  33  1   
 24  11  34  1   
 25  12  15  1   
 26  12  16  ar  
 27  13  16  ar  
 28  13  35  1   
 29  15  17  am  
 30  15  36  1   
 31  16  37  1   
 32  17  18  2   
 33  17  19  1   
 34  19  20  1   
 35  19  21  2   
 36  20  22  1   
 37  21  23  1   
 38  21  38  1   
 39  22  23  2   
 40  22  24  1   
 41  23  39  1   
 42  24  40  1   
 43  24  41  1   
 44  24  42  1   
@<TRIPOS>SUBSTRUCTURE
  1 ****   8 GROUP 4 **** **** 0

# MOE 2024.06 (io_trps.svl 2023.06)
