@<TRIPOS>MOLECULE
NONAME
51 53 1 0 0 
SMALL
USER_CHARGES


@<TRIPOS>ATOM
  1 O       -0.2820    -0.6920    -2.0260 O.2   1 <1>  -0.5700 
  2 C       -0.1690    -1.6650    -1.3050 C.2   1 <1>   0.5440 
  3 N        1.0510    -1.9140    -0.7140 N.am  1 <1>  -0.6600 
  4 C       -1.3130    -2.5290    -1.0820 C.ar  1 <1>   0.0860 
  5 C        1.2180    -2.8610     0.4350 C.3   1 <1>   0.1400 
  6 C        2.2530    -1.1030    -1.0850 C.3   1 <1>   0.1400 
  7 C       -2.5120    -2.0170    -0.5930 C.ar  1 <1>  -0.1500 
  8 C       -1.2550    -3.8970    -1.3480 C.ar  1 <1>  -0.1500 
  9 C        2.3760    -2.4550     1.3600 C.3   1 <1>   0.1400 
 10 C        3.5680    -1.8470    -0.8020 C.3   1 <1>   0.1400 
 11 C       -3.6070    -2.8290    -0.3580 C.ar  1 <1>   0.0830 
 12 C       -2.3410    -4.7210    -1.1180 C.ar  1 <1>  -0.1500 
 13 N        3.6680    -2.3350     0.6130 N.am  1 <1>  -0.6600 
 14 O       -4.7210    -2.2260     0.1260 O.3   1 <1>  -0.3630 
 15 C       -3.5190    -4.1930    -0.6210 C.ar  1 <1>  -0.1500 
 16 C        4.8550    -2.7370     1.1850 C.2   1 <1>   0.5690 
 17 C       -5.9200    -2.9410     0.3180 C.3   1 <1>   0.1200 
 18 O        4.8710    -3.1610     2.3220 O.2   1 <1>  -0.5700 
 19 C        6.1940    -2.6340     0.4050 C.3   1 <1>   0.2610 
 20 C       -6.9830    -1.9630     0.8210 C.3   1 <1>  -0.1600 
 21 O        6.1400    -3.3350    -0.8100 O.3   1 <1>  -0.5600 
 22 C        7.4140    -3.2500     1.0940 C.3   1 <1>  -0.1600 
 23 C       -8.3240    -2.6670     1.0550 C.3   1 <1>  -0.2400 
 24 C        6.4760    -4.6710    -0.6030 C.3   1 <1>   0.1200 
 25 C        7.3900    -4.6950     0.6210 C.3   1 <1>  -0.1600 
 26 H        1.4110    -3.8480     0.0530 H     1 <1>   0.0800 
 27 H        0.3100    -2.8950     1.0120 H     1 <1>   0.0800 
 28 H        2.2380    -0.1810    -0.5300 H     1 <1>   0.0800 
 29 H        2.2090    -0.8550    -2.1320 H     1 <1>   0.0800 
 30 H       -2.5900    -0.9630    -0.3960 H     1 <1>   0.1500 
 31 H       -0.3440    -4.3110    -1.7440 H     1 <1>   0.1500 
 32 H        2.4670    -3.1900     2.1410 H     1 <1>   0.0800 
 33 H        2.1480    -1.5110     1.8220 H     1 <1>   0.0800 
 34 H        4.3900    -1.1890    -1.0200 H     1 <1>   0.0800 
 35 H        3.6370    -2.6910    -1.4670 H     1 <1>   0.0800 
 36 H       -2.2720    -5.7750    -1.3300 H     1 <1>   0.1500 
 37 H       -4.3490    -4.8520    -0.4490 H     1 <1>   0.1500 
 38 H       -5.7430    -3.7150     1.0440 H     1 <1>   0.0800 
 39 H       -6.2150    -3.3700    -0.6240 H     1 <1>   0.0800 
 40 H        6.3790    -1.5990     0.1840 H     1 <1>   0.0800 
 41 H       -7.1140    -1.1810     0.0940 H     1 <1>   0.0800 
 42 H       -6.6480    -1.5220     1.7440 H     1 <1>   0.0800 
 43 H        7.3840    -3.1600     2.1650 H     1 <1>   0.0800 
 44 H        8.2990    -2.7590     0.7310 H     1 <1>   0.0800 
 45 H       -8.6870    -3.1020     0.1400 H     1 <1>   0.0800 
 46 H       -9.0530    -1.9580     1.4080 H     1 <1>   0.0800 
 47 H       -8.2200    -3.4440     1.7930 H     1 <1>   0.0800 
 48 H        6.9660    -5.0430    -1.4860 H     1 <1>   0.0800 
 49 H        5.5690    -5.2220    -0.4210 H     1 <1>   0.0800 
 50 H        6.9670    -5.3380     1.3730 H     1 <1>   0.0800 
 51 H        8.3740    -5.0480     0.3690 H     1 <1>   0.0800 
@<TRIPOS>BOND
  1   1   2  2   
  2   2   3  am  
  3   2   4  1   
  4   3   5  1   
  5   3   6  1   
  6   4   7  ar  
  7   4   8  ar  
  8   5   9  1   
  9   5  26  1   
 10   5  27  1   
 11   6  10  1   
 12   6  28  1   
 13   6  29  1   
 14   7  11  ar  
 15   7  30  1   
 16   8  12  ar  
 17   8  31  1   
 18   9  13  1   
 19   9  32  1   
 20   9  33  1   
 21  10  13  1   
 22  10  34  1   
 23  10  35  1   
 24  11  14  1   
 25  11  15  ar  
 26  12  15  ar  
 27  12  36  1   
 28  13  16  am  
 29  14  17  1   
 30  15  37  1   
 31  16  18  2   
 32  16  19  1   
 33  17  20  1   
 34  17  38  1   
 35  17  39  1   
 36  19  21  1   
 37  19  22  1   
 38  19  40  1   
 39  20  23  1   
 40  20  41  1   
 41  20  42  1   
 42  21  24  1   
 43  22  25  1   
 44  22  43  1   
 45  22  44  1   
 46  23  45  1   
 47  23  46  1   
 48  23  47  1   
 49  24  25  1   
 50  24  48  1   
 51  24  49  1   
 52  25  50  1   
 53  25  51  1   
@<TRIPOS>SUBSTRUCTURE
  1 ****   5 GROUP 4 **** **** 0

# MOE 2024.06 (io_trps.svl 2023.06)
