@<TRIPOS>MOLECULE
NONAME
46 48 1 0 0 
SMALL
USER_CHARGES


@<TRIPOS>ATOM
  1 CL       1.3680    -0.2030    -2.1200 Cl    1 <1>  -0.1770 
  2 C        2.5130    -1.1960    -1.2750 C.ar  1 <1>   0.7970 
  3 N        3.5380    -0.5760    -0.7700 N.ar  1 <1>  -0.6200 
  4 N        2.2420    -2.4690    -1.2360 N.ar  1 <1>  -0.6200 
  5 C        4.3550    -1.3780    -0.1360 C.ar  1 <1>   0.7200 
  6 C        3.1440    -3.1420    -0.5900 C.ar  1 <1>   0.7200 
  7 N        4.2110    -2.6710    -0.0150 N.ar  1 <1>  -0.6200 
  8 N        5.4670    -0.8420     0.4440 N.pl3 1 <1>  -0.8380 
  9 N        2.9660    -4.4810    -0.5710 N.pl3 1 <1>  -0.8690 
 10 C        6.1120     0.3600    -0.1570 C.3   1 <1>   0.2090 
 11 C        5.5930    -0.9040     1.9250 C.3   1 <1>   0.2090 
 12 C        3.5370    -5.4100     0.4570 C.3   1 <1>   0.2090 
 13 C        7.6000     0.3850     0.2100 C.3   1 <1>  -0.1600 
 14 C        7.0730    -0.8960     2.3220 C.3   1 <1>  -0.1600 
 15 C        4.8120    -6.1100    -0.0660 C.3   1 <1>   0.3430 
 16 C        7.8130     0.3120     1.7290 C.3   1 <1>  -0.1600 
 17 N        5.7160    -5.1250    -0.7290 N.4   1 <1>  -0.9590 
 18 C        6.3860    -5.6540    -1.9620 C.3   1 <1>   0.3430 
 19 C        6.7040    -4.4810     0.2020 C.3   1 <1>   0.3430 
 20 C        7.3020    -4.5910    -2.5990 C.3   1 <1>   0.1200 
 21 C        7.6010    -3.4780    -0.5490 C.3   1 <1>   0.1200 
 22 O        8.2030    -4.0950    -1.6520 O.3   1 <1>  -0.5600 
 23 H        2.0450    -4.7440    -0.9400 H     1 <1>   0.4000 
 24 H        5.6260     1.2480     0.2130 H     1 <1>   0.0800 
 25 H        6.0050     0.3400    -1.2290 H     1 <1>   0.0800 
 26 H        5.1170    -1.7910     2.3060 H     1 <1>   0.0800 
 27 H        5.0990    -0.0480     2.3550 H     1 <1>   0.0800 
 28 H        2.8020    -6.1530     0.7180 H     1 <1>   0.0800 
 29 H        3.7730    -4.8620     1.3540 H     1 <1>   0.0800 
 30 H        8.0400     1.2900    -0.1710 H     1 <1>   0.0800 
 31 H        8.0920    -0.4410    -0.2700 H     1 <1>   0.0800 
 32 H        7.5330    -1.8060     1.9840 H     1 <1>   0.0800 
 33 H        7.1500    -0.8700     3.3940 H     1 <1>   0.0800 
 34 H        4.5080    -6.8550    -0.7830 H     1 <1>   0.0800 
 35 H        5.3220    -6.6130     0.7390 H     1 <1>   0.0800 
 36 H        7.4390     1.2140     2.1820 H     1 <1>   0.0800 
 37 H        8.8640     0.2420     1.9480 H     1 <1>   0.0800 
 38 H        5.0760    -4.3580    -1.0150 H     1 <1>   0.4500 
 39 H        5.6440    -5.9600    -2.6810 H     1 <1>   0.0800 
 40 H        6.9850    -6.5140    -1.7120 H     1 <1>   0.0800 
 41 H        7.3320    -5.2320     0.6510 H     1 <1>   0.0800 
 42 H        6.1830    -3.9600     0.9880 H     1 <1>   0.0800 
 43 H        6.7270    -3.7710    -2.9950 H     1 <1>   0.0800 
 44 H        7.8750    -5.0260    -3.3990 H     1 <1>   0.0800 
 45 H        8.3840    -3.1230     0.0970 H     1 <1>   0.0800 
 46 H        7.0300    -2.6320    -0.8900 H     1 <1>   0.0800 
@<TRIPOS>BOND
  1   1   2  1   
  2   2   3  ar  
  3   2   4  ar  
  4   3   5  ar  
  5   4   6  ar  
  6   5   7  ar  
  7   5   8  1   
  8   6   7  ar  
  9   6   9  1   
 10   8  10  1   
 11   8  11  1   
 12   9  12  1   
 13   9  23  1   
 14  10  13  1   
 15  10  24  1   
 16  10  25  1   
 17  11  14  1   
 18  11  26  1   
 19  11  27  1   
 20  12  15  1   
 21  12  28  1   
 22  12  29  1   
 23  13  16  1   
 24  13  30  1   
 25  13  31  1   
 26  14  16  1   
 27  14  32  1   
 28  14  33  1   
 29  15  17  1   
 30  15  34  1   
 31  15  35  1   
 32  16  36  1   
 33  16  37  1   
 34  17  18  1   
 35  17  19  1   
 36  17  38  1   
 37  18  20  1   
 38  18  39  1   
 39  18  40  1   
 40  19  21  1   
 41  19  41  1   
 42  19  42  1   
 43  20  22  1   
 44  20  43  1   
 45  20  44  1   
 46  21  22  1   
 47  21  45  1   
 48  21  46  1   
@<TRIPOS>SUBSTRUCTURE
  1 ****   7 GROUP 4 **** **** 0

# MOE 2024.06 (io_trps.svl 2023.06)
