@<TRIPOS>MOLECULE
NONAME
41 43 1 0 0 
SMALL
USER_CHARGES


@<TRIPOS>ATOM
  1 N        1.0310    -0.1530    -0.7150 N.ar  1 <1>  -0.6200 
  2 C        1.5750     0.5130     0.3020 C.ar  1 <1>   0.7200 
  3 C        0.0820     0.4770    -1.3680 C.ar  1 <1>   0.1600 
  4 N        1.2920     1.7530     0.6800 N.ar  1 <1>  -0.6200 
  5 N        2.5620    -0.1350     1.0090 N.pl3 1 <1>  -0.8380 
  6 C       -0.3080     1.7520    -1.0390 C.ar  1 <1>  -0.1500 
  7 C        0.3410     2.3570     0.0090 C.ar  1 <1>   0.1600 
  8 C        2.7080    -1.6160     0.9200 C.3   1 <1>   0.2090 
  9 C        3.8470     0.5780     1.2670 C.3   1 <1>   0.2090 
 10 C        3.7070    -1.9690    -0.2010 C.3   1 <1>   0.3430 
 11 C        4.8690     0.2220     0.1660 C.3   1 <1>   0.3430 
 12 N        5.0360    -1.2710    -0.0270 N.4   1 <1>  -0.9590 
 13 C        5.9630    -1.5710    -1.1490 C.3   1 <1>   0.4860 
 14 C        7.3420    -1.0610    -0.7760 C.ar  1 <1>  -0.1430 
 15 C        8.1710    -1.7570     0.1010 C.ar  1 <1>  -0.1430 
 16 C        7.7750     0.1380    -1.3270 C.ar  1 <1>  -0.1500 
 17 C        9.4100    -1.2250     0.4270 C.ar  1 <1>  -0.1500 
 18 C        7.7800    -3.0950     0.7180 C.3   1 <1>  -0.0970 
 19 C        9.0130     0.6560    -0.9960 C.ar  1 <1>  -0.1500 
 20 C        9.8290    -0.0250    -0.1150 C.ar  1 <1>  -0.1500 
 21 H       -0.3980    -0.0330    -2.1870 H     1 <1>   0.1500 
 22 H       -1.0880     2.2570    -1.5780 H     1 <1>   0.1500 
 23 H        0.0720     3.3590     0.3030 H     1 <1>   0.1500 
 24 H        1.7550    -2.0760     0.7200 H     1 <1>   0.0800 
 25 H        3.0570    -1.9990     1.8630 H     1 <1>   0.0800 
 26 H        4.2270     0.2930     2.2320 H     1 <1>   0.0800 
 27 H        3.6980     1.6440     1.2820 H     1 <1>   0.0800 
 28 H        3.2630    -1.6750    -1.1380 H     1 <1>   0.0800 
 29 H        3.8500    -3.0370    -0.2210 H     1 <1>   0.0800 
 30 H        5.8190     0.6680     0.4150 H     1 <1>   0.0800 
 31 H        4.5280     0.6670    -0.7540 H     1 <1>   0.0800 
 32 H        5.4920    -1.6240     0.8210 H     1 <1>   0.4500 
 33 H        5.6230    -1.0940    -2.0530 H     1 <1>   0.0800 
 34 H        6.0100    -2.6340    -1.3220 H     1 <1>   0.0800 
 35 H        7.1600     0.6840    -2.0230 H     1 <1>   0.1500 
 36 H       10.0670    -1.7430     1.1060 H     1 <1>   0.1500 
 37 H        7.0610    -2.9540     1.5040 H     1 <1>   0.0800 
 38 H        8.6420    -3.5800     1.1420 H     1 <1>   0.0800 
 39 H        7.3760    -3.7580    -0.0260 H     1 <1>   0.0800 
 40 H        9.3460     1.5870    -1.4250 H     1 <1>   0.1500 
 41 H       10.7950     0.3760     0.1450 H     1 <1>   0.1500 
@<TRIPOS>BOND
  1   1   2  ar  
  2   1   3  ar  
  3   2   4  ar  
  4   2   5  1   
  5   3   6  ar  
  6   3  21  1   
  7   4   7  ar  
  8   5   8  1   
  9   5   9  1   
 10   6   7  ar  
 11   6  22  1   
 12   7  23  1   
 13   8  10  1   
 14   8  24  1   
 15   8  25  1   
 16   9  11  1   
 17   9  26  1   
 18   9  27  1   
 19  10  12  1   
 20  10  28  1   
 21  10  29  1   
 22  11  12  1   
 23  11  30  1   
 24  11  31  1   
 25  12  13  1   
 26  12  32  1   
 27  13  14  1   
 28  13  33  1   
 29  13  34  1   
 30  14  15  ar  
 31  14  16  ar  
 32  15  17  ar  
 33  15  18  1   
 34  16  19  ar  
 35  16  35  1   
 36  17  20  ar  
 37  17  36  1   
 38  18  37  1   
 39  18  38  1   
 40  18  39  1   
 41  19  20  ar  
 42  19  40  1   
 43  20  41  1   
@<TRIPOS>SUBSTRUCTURE
  1 ****  11 GROUP 4 **** **** 0

# MOE 2024.06 (io_trps.svl 2023.06)
