@<TRIPOS>MOLECULE
NONAME
38 38 1 0 0 
SMALL
USER_CHARGES


@<TRIPOS>ATOM
  1 O       -8.2110     2.0380    -0.4880 O.3   1 <1>  -0.3630 
  2 C       -9.4240     1.4300    -0.5130 C.ar  1 <1>   0.0830 
  3 C       -7.0420     1.3050    -0.2260 C.3   1 <1>   0.1200 
  4 C       -9.6110     0.0690    -0.2900 C.ar  1 <1>  -0.1500 
  5 C      -10.5210     2.2330    -0.7800 C.ar  1 <1>  -0.1500 
  6 C       -5.8720     2.2880    -0.2720 C.3   1 <1>   0.3430 
  7 C      -10.8810    -0.4800    -0.3330 C.ar  1 <1>   0.0820 
  8 C      -11.7930     1.6900    -0.8240 C.ar  1 <1>  -0.1500 
  9 N       -4.5650     1.6050    -0.0040 N.4   1 <1>  -0.9060 
 10 O      -10.9700    -1.8130    -0.1040 O.3   1 <1>  -0.3620 
 11 C      -11.9770     0.3360    -0.6020 C.ar  1 <1>  -0.1500 
 12 C       -3.3730     2.4560    -0.0250 C.3   1 <1>   0.5030 
 13 C      -12.2140    -2.4780    -0.1230 C.3   1 <1>   0.0400 
 14 C       -3.4830     3.5280     1.0590 C.3   1 <1>  -0.2400 
 15 C       -3.2090     3.0860    -1.4070 C.3   1 <1>  -0.2400 
 16 C       -2.1900     1.5400     0.2710 C.3   1 <1>  -0.2400 
 17 H       -6.9450     0.5510    -0.9870 H     1 <1>   0.0800 
 18 H       -7.1390     0.8620     0.7500 H     1 <1>   0.0800 
 19 H       -8.7980    -0.5960    -0.0800 H     1 <1>   0.1500 
 20 H      -10.3780     3.2850    -0.9530 H     1 <1>   0.1500 
 21 H       -6.0410     3.0550     0.4660 H     1 <1>   0.0800 
 22 H       -5.8510     2.7480    -1.2470 H     1 <1>   0.0800 
 23 H      -12.6400     2.3210    -1.0320 H     1 <1>   0.1500 
 24 H       -4.4160     0.8650    -0.6970 H     1 <1>   0.4500 
 25 H       -4.5950     1.1540     0.9160 H     1 <1>   0.4500 
 26 H      -12.9730    -0.0610    -0.6410 H     1 <1>   0.1500 
 27 H      -12.0410    -3.5190     0.0830 H     1 <1>   0.0800 
 28 H      -12.6540    -2.3670    -1.0980 H     1 <1>   0.0800 
 29 H      -12.8480    -2.0560     0.6370 H     1 <1>   0.0800 
 30 H       -3.6490     3.0880     2.0270 H     1 <1>   0.0800 
 31 H       -4.2680     4.2310     0.8470 H     1 <1>   0.0800 
 32 H       -2.5640     4.0870     1.1080 H     1 <1>   0.0800 
 33 H       -3.9940     3.7880    -1.6210 H     1 <1>   0.0800 
 34 H       -3.1830     2.3340    -2.1770 H     1 <1>   0.0800 
 35 H       -2.2800     3.6280    -1.4490 H     1 <1>   0.0800 
 36 H       -2.2840     1.0810     1.2400 H     1 <1>   0.0800 
 37 H       -1.2770     2.1100     0.2700 H     1 <1>   0.0800 
 38 H       -2.0930     0.7730    -0.4770 H     1 <1>   0.0800 
@<TRIPOS>BOND
  1   1   2  1   
  2   1   3  1   
  3   2   4  ar  
  4   2   5  ar  
  5   3   6  1   
  6   3  17  1   
  7   3  18  1   
  8   4   7  ar  
  9   4  19  1   
 10   5   8  ar  
 11   5  20  1   
 12   6   9  1   
 13   6  21  1   
 14   6  22  1   
 15   7  10  1   
 16   7  11  ar  
 17   8  11  ar  
 18   8  23  1   
 19   9  12  1   
 20   9  24  1   
 21   9  25  1   
 22  10  13  1   
 23  11  26  1   
 24  12  14  1   
 25  12  15  1   
 26  12  16  1   
 27  13  27  1   
 28  13  28  1   
 29  13  29  1   
 30  14  30  1   
 31  14  31  1   
 32  14  32  1   
 33  15  33  1   
 34  15  34  1   
 35  15  35  1   
 36  16  36  1   
 37  16  37  1   
 38  16  38  1   
@<TRIPOS>SUBSTRUCTURE
  1 ****   3 GROUP 4 **** **** 0

# MOE 2024.06 (io_trps.svl 2023.06)
