@<TRIPOS>MOLECULE
NONAME
43 44 1 0 0 
SMALL
USER_CHARGES


@<TRIPOS>ATOM
  1 O        0.0260     0.6300     1.3700 O.2   1 <1>  -0.5700 
  2 C       -0.2260     1.3440     0.4300 C.2   1 <1>   0.5690 
  3 N       -1.4910     1.4820    -0.0320 N.am  1 <1>  -0.7300 
  4 C        0.8820     2.1340    -0.2680 C.3   1 <1>  -0.0190 
  5 C       -2.6880     0.9440     0.6340 C.3   1 <1>   0.2840 
  6 C        2.2960     1.6120     0.0620 C.3   1 <1>  -0.1600 
  7 C        0.7840     3.6340     0.0740 C.3   1 <1>  -0.1600 
  8 C       -3.7790     1.9920     0.5180 C.ar  1 <1>  -0.1440 
  9 C        3.3820     2.4440    -0.6220 C.3   1 <1>   0.1400 
 10 C        1.8880     4.4460    -0.6090 C.3   1 <1>   0.1400 
 11 C       -4.8160     1.8400    -0.3910 C.ar  1 <1>  -0.1500 
 12 C       -3.7370     3.1230     1.3190 C.ar  1 <1>  -0.1500 
 13 N        3.2160     3.8770    -0.2510 N.am  1 <1>  -0.6600 
 14 C       -5.8000     2.8080    -0.5010 C.ar  1 <1>  -0.1500 
 15 C       -4.7180     4.0910     1.2100 C.ar  1 <1>  -0.1500 
 16 C        4.1580     4.6400     0.3920 C.2   1 <1>   0.5690 
 17 C       -5.7540     3.9440     0.3030 C.ar  1 <1>   0.0820 
 18 O        3.9770     5.8060     0.6490 O.2   1 <1>  -0.5700 
 19 C        5.4800     4.0420     0.8120 C.3   1 <1>  -0.1790 
 20 O       -6.6720     4.9410     0.2570 O.3   1 <1>  -0.3620 
 21 C       -7.7800     4.8790    -0.6130 C.3   1 <1>   0.0400 
 22 H       -1.7010     2.1400    -0.7830 H     1 <1>   0.3700 
 23 H        0.7320     2.0210    -1.3270 H     1 <1>   0.0800 
 24 H       -2.4780     0.7370     1.6700 H     1 <1>   0.0800 
 25 H       -2.9850     0.0270     0.1550 H     1 <1>   0.0800 
 26 H        2.3820     0.5860    -0.2480 H     1 <1>   0.0800 
 27 H        2.4560     1.6430     1.1270 H     1 <1>   0.0800 
 28 H        0.8660     3.7680     1.1400 H     1 <1>   0.0800 
 29 H       -0.1720     4.0210    -0.2290 H     1 <1>   0.0800 
 30 H        3.2950     2.3500    -1.6910 H     1 <1>   0.0800 
 31 H        4.3490     2.0730    -0.3360 H     1 <1>   0.0800 
 32 H        1.8170     5.4760    -0.3000 H     1 <1>   0.0800 
 33 H        1.7680     4.4120    -1.6780 H     1 <1>   0.0800 
 34 H       -4.8620     0.9680    -1.0200 H     1 <1>   0.1500 
 35 H       -2.9360     3.2520     2.0270 H     1 <1>   0.1500 
 36 H       -6.5900     2.6630    -1.2130 H     1 <1>   0.1500 
 37 H       -4.6870     4.9690     1.8300 H     1 <1>   0.1500 
 38 H        6.0210     3.7100    -0.0530 H     1 <1>   0.0800 
 39 H        5.3120     3.2200     1.4810 H     1 <1>   0.0800 
 40 H        6.0670     4.7850     1.3210 H     1 <1>   0.0800 
 41 H       -8.3680     5.7670    -0.4670 H     1 <1>   0.0800 
 42 H       -8.3660     4.0100    -0.3710 H     1 <1>   0.0800 
 43 H       -7.4260     4.8380    -1.6270 H     1 <1>   0.0800 
@<TRIPOS>BOND
  1   1   2  2   
  2   2   3  am  
  3   2   4  1   
  4   3   5  1   
  5   3  22  1   
  6   4   6  1   
  7   4   7  1   
  8   4  23  1   
  9   5   8  1   
 10   5  24  1   
 11   5  25  1   
 12   6   9  1   
 13   6  26  1   
 14   6  27  1   
 15   7  10  1   
 16   7  28  1   
 17   7  29  1   
 18   8  11  ar  
 19   8  12  ar  
 20   9  13  1   
 21   9  30  1   
 22   9  31  1   
 23  10  13  1   
 24  10  32  1   
 25  10  33  1   
 26  11  14  ar  
 27  11  34  1   
 28  12  15  ar  
 29  12  35  1   
 30  13  16  am  
 31  14  17  ar  
 32  14  36  1   
 33  15  17  ar  
 34  15  37  1   
 35  16  18  2   
 36  16  19  1   
 37  17  20  1   
 38  19  38  1   
 39  19  39  1   
 40  19  40  1   
 41  20  21  1   
 42  21  41  1   
 43  21  42  1   
 44  21  43  1   
@<TRIPOS>SUBSTRUCTURE
  1 ****   3 GROUP 4 **** **** 0

# MOE 2024.06 (io_trps.svl 2023.06)
