@<TRIPOS>MOLECULE
NONAME
53 55 1 0 0 
SMALL
USER_CHARGES


@<TRIPOS>ATOM
  1 F       -0.3210    -0.2150     0.6040 F     1 <1>  -0.3400 
  2 C       -0.0500     0.8130    -0.1970 C.3   1 <1>   1.1640 
  3 F        0.2710     0.2770    -1.3660 F     1 <1>  -0.3400 
  4 F        1.0460     1.3840     0.2780 F     1 <1>  -0.3400 
  5 C       -1.2720     1.7450    -0.3120 C.ar  1 <1>  -0.1440 
  6 C       -2.4800     1.3180    -0.8820 C.ar  1 <1>  -0.1440 
  7 C       -1.1860     3.0500     0.1670 C.ar  1 <1>  -0.1500 
  8 C       -3.5490     2.2000    -0.9710 C.ar  1 <1>  -0.1500 
  9 C       -2.6950    -0.0920    -1.4270 C.3   1 <1>   0.4870 
 10 C       -2.2610     3.9140     0.0810 C.ar  1 <1>  -0.1500 
 11 C       -3.4430     3.4900    -0.4910 C.ar  1 <1>  -0.1500 
 12 N       -2.9040    -1.0430    -0.2990 N.4   1 <1>  -0.9590 
 13 C       -2.9850    -2.4630    -0.8020 C.3   1 <1>   0.3430 
 14 C       -4.1180    -0.6630     0.5200 C.3   1 <1>   0.3430 
 15 C       -3.2960    -3.4750     0.3230 C.3   1 <1>   0.1400 
 16 C       -4.3990    -1.6810     1.6400 C.3   1 <1>   0.1400 
 17 N       -4.5200    -3.0480     1.0550 N.am  1 <1>  -0.6600 
 18 C       -5.7450    -3.4540     0.5760 C.2   1 <1>   0.5440 
 19 O       -6.5070    -2.5830     0.1980 O.2   1 <1>  -0.5700 
 20 C       -6.0830    -4.8590     0.4450 C.ar  1 <1>   0.0860 
 21 C       -6.8950    -5.3080    -0.5930 C.ar  1 <1>  -0.1500 
 22 C       -5.6060    -5.8160     1.3400 C.ar  1 <1>  -0.1500 
 23 C       -7.2100    -6.6440    -0.7580 C.ar  1 <1>   0.0830 
 24 C       -5.9060    -7.1580     1.1940 C.ar  1 <1>  -0.1500 
 25 O       -8.0080    -6.9200    -1.8260 O.3   1 <1>  -0.3630 
 26 C       -6.7030    -7.5980     0.1390 C.ar  1 <1>   0.0830 
 27 C       -9.0140    -7.9050    -1.7340 C.3   1 <1>   0.0400 
 28 O       -6.9780    -8.9180    -0.0440 O.3   1 <1>  -0.3630 
 29 C       -6.4570    -9.9290     0.7910 C.3   1 <1>   0.0400 
 30 H       -0.2770     3.4200     0.6160 H     1 <1>   0.1500 
 31 H       -4.4830     1.8990    -1.4180 H     1 <1>   0.1500 
 32 H       -1.8430    -0.3920    -2.0150 H     1 <1>   0.0800 
 33 H       -3.5590    -0.0990    -2.0730 H     1 <1>   0.0800 
 34 H       -2.1760     4.9210     0.4550 H     1 <1>   0.1500 
 35 H       -4.2770     4.1690    -0.5630 H     1 <1>   0.1500 
 36 H       -2.0880    -0.9770     0.3260 H     1 <1>   0.4500 
 37 H       -2.0580    -2.7390    -1.2770 H     1 <1>   0.0800 
 38 H       -3.7690    -2.5380    -1.5390 H     1 <1>   0.0800 
 39 H       -4.9880    -0.6210    -0.1150 H     1 <1>   0.0800 
 40 H       -3.9800     0.3130     0.9570 H     1 <1>   0.0800 
 41 H       -2.4680    -3.5380     1.0080 H     1 <1>   0.0800 
 42 H       -3.4430    -4.4520    -0.1060 H     1 <1>   0.0800 
 43 H       -5.3180    -1.4180     2.1390 H     1 <1>   0.0800 
 44 H       -3.6100    -1.6630     2.3720 H     1 <1>   0.0800 
 45 H       -7.2970    -4.5970    -1.2930 H     1 <1>   0.1500 
 46 H       -4.9940    -5.5020     2.1680 H     1 <1>   0.1500 
 47 H       -5.5080    -7.8470     1.9140 H     1 <1>   0.1500 
 48 H       -9.7560    -7.6960    -2.4830 H     1 <1>   0.0800 
 49 H       -9.4560    -7.8690    -0.7550 H     1 <1>   0.0800 
 50 H       -8.5740    -8.8690    -1.9190 H     1 <1>   0.0800 
 51 H       -6.8050   -10.8770     0.4230 H     1 <1>   0.0800 
 52 H       -6.8140    -9.7750     1.7940 H     1 <1>   0.0800 
 53 H       -5.3830    -9.8960     0.7520 H     1 <1>   0.0800 
@<TRIPOS>BOND
  1   1   2  1   
  2   2   3  1   
  3   2   4  1   
  4   2   5  1   
  5   5   6  ar  
  6   5   7  ar  
  7   6   8  ar  
  8   6   9  1   
  9   7  10  ar  
 10   7  30  1   
 11   8  11  ar  
 12   8  31  1   
 13   9  12  1   
 14   9  32  1   
 15   9  33  1   
 16  10  11  ar  
 17  10  34  1   
 18  11  35  1   
 19  12  13  1   
 20  12  14  1   
 21  12  36  1   
 22  13  15  1   
 23  13  37  1   
 24  13  38  1   
 25  14  16  1   
 26  14  39  1   
 27  14  40  1   
 28  15  17  1   
 29  15  41  1   
 30  15  42  1   
 31  16  17  1   
 32  16  43  1   
 33  16  44  1   
 34  17  18  am  
 35  18  19  2   
 36  18  20  1   
 37  20  21  ar  
 38  20  22  ar  
 39  21  23  ar  
 40  21  45  1   
 41  22  24  ar  
 42  22  46  1   
 43  23  25  1   
 44  23  26  ar  
 45  24  26  ar  
 46  24  47  1   
 47  25  27  1   
 48  26  28  1   
 49  27  48  1   
 50  27  49  1   
 51  27  50  1   
 52  28  29  1   
 53  29  51  1   
 54  29  52  1   
 55  29  53  1   
@<TRIPOS>SUBSTRUCTURE
  1 ****  13 GROUP 4 **** **** 0

# MOE 2024.06 (io_trps.svl 2023.06)
