@<TRIPOS>MOLECULE
NONAME
48 50 1 0 0 
SMALL
USER_CHARGES


@<TRIPOS>ATOM
  1 CL       0.6700    -0.8310    -2.6460 Cl    1 <1>  -0.1770 
  2 C        0.5990    -2.1840    -1.5440 C.ar  1 <1>   0.1770 
  3 C        1.7580    -2.6290    -0.9420 C.ar  1 <1>  -0.1500 
  4 C       -0.6210    -2.7830    -1.2960 C.ar  1 <1>  -0.1500 
  5 C        1.7130    -3.7060    -0.0640 C.ar  1 <1>   0.1170 
  6 C       -0.6810    -3.8550    -0.4220 C.ar  1 <1>  -0.1500 
  7 N        2.8480    -4.2140     0.5920 N.am  1 <1>  -0.5470 
  8 C        0.4790    -4.3180     0.1960 C.ar  1 <1>   0.0830 
  9 C        4.1840    -4.0090     0.4610 C.2   1 <1>   0.6900 
 10 O        0.4820    -5.3720     1.0680 O.3   1 <1>  -0.3630 
 11 O        4.6610    -3.2000    -0.3110 O.2   1 <1>  -0.5700 
 12 N        5.0260    -4.8040     1.1820 N.am  1 <1>  -0.6600 
 13 C       -0.7180    -6.0150     1.4430 C.3   1 <1>   0.0400 
 14 C        5.1430    -6.2270     0.7610 C.3   1 <1>   0.1400 
 15 C        6.3250    -4.2180     1.6230 C.3   1 <1>   0.1400 
 16 C        6.1820    -6.3540    -0.3740 C.3   1 <1>   0.3430 
 17 C        7.3710    -4.3350     0.4980 C.3   1 <1>   0.3430 
 18 N        7.5140    -5.7540    -0.0020 N.4   1 <1>  -0.9590 
 19 C        8.4690    -5.8150    -1.1400 C.3   1 <1>   0.4860 
 20 C        9.8390    -5.4100    -0.6350 C.ar  1 <1>  -0.1430 
 21 C       10.3490    -4.1540    -0.9320 C.ar  1 <1>  -0.1500 
 22 C       10.5910    -6.2880     0.1350 C.ar  1 <1>  -0.1500 
 23 C       11.5910    -3.7750    -0.4530 C.ar  1 <1>  -0.1500 
 24 C       11.8320    -5.9060     0.6130 C.ar  1 <1>  -0.1500 
 25 C       12.3300    -4.6500     0.3220 C.ar  1 <1>  -0.1500 
 26 H        2.6790    -2.1250    -1.1620 H     1 <1>   0.1500 
 27 H       -1.5060    -2.4130    -1.7820 H     1 <1>   0.1500 
 28 H       -1.6370    -4.3090    -0.2400 H     1 <1>   0.1500 
 29 H        2.6030    -4.8850     1.3190 H     1 <1>   0.3700 
 30 H       -0.4780    -6.7880     2.1510 H     1 <1>   0.0800 
 31 H       -1.1700    -6.4510     0.5690 H     1 <1>   0.0800 
 32 H       -1.3740    -5.2950     1.8990 H     1 <1>   0.0800 
 33 H        4.1890    -6.5850     0.4100 H     1 <1>   0.0800 
 34 H        5.4320    -6.8320     1.6030 H     1 <1>   0.0800 
 35 H        6.6700    -4.7200     2.5100 H     1 <1>   0.0800 
 36 H        6.1830    -3.1780     1.8680 H     1 <1>   0.0800 
 37 H        5.7900    -5.8460    -1.2410 H     1 <1>   0.0800 
 38 H        6.3040    -7.3950    -0.6260 H     1 <1>   0.0800 
 39 H        8.3200    -3.9730     0.8600 H     1 <1>   0.0800 
 40 H        7.0610    -3.6940    -0.3130 H     1 <1>   0.0800 
 41 H        7.9310    -6.2990     0.7620 H     1 <1>   0.4500 
 42 H        8.1540    -5.1510    -1.9290 H     1 <1>   0.0800 
 43 H        8.5190    -6.8170    -1.5340 H     1 <1>   0.0800 
 44 H        9.7950    -3.4570    -1.5380 H     1 <1>   0.1500 
 45 H       10.2300    -7.2750     0.3680 H     1 <1>   0.1500 
 46 H       11.9870    -2.8000    -0.6830 H     1 <1>   0.1500 
 47 H       12.4170    -6.5860     1.2100 H     1 <1>   0.1500 
 48 H       13.2970    -4.3540     0.6940 H     1 <1>   0.1500 
@<TRIPOS>BOND
  1   1   2  1   
  2   2   3  ar  
  3   2   4  ar  
  4   3   5  ar  
  5   3  26  1   
  6   4   6  ar  
  7   4  27  1   
  8   5   7  1   
  9   5   8  ar  
 10   6   8  ar  
 11   6  28  1   
 12   7   9  am  
 13   7  29  1   
 14   8  10  1   
 15   9  11  2   
 16   9  12  am  
 17  10  13  1   
 18  12  14  1   
 19  12  15  1   
 20  13  30  1   
 21  13  31  1   
 22  13  32  1   
 23  14  16  1   
 24  14  33  1   
 25  14  34  1   
 26  15  17  1   
 27  15  35  1   
 28  15  36  1   
 29  16  18  1   
 30  16  37  1   
 31  16  38  1   
 32  17  18  1   
 33  17  39  1   
 34  17  40  1   
 35  18  19  1   
 36  18  41  1   
 37  19  20  1   
 38  19  42  1   
 39  19  43  1   
 40  20  21  ar  
 41  20  22  ar  
 42  21  23  ar  
 43  21  44  1   
 44  22  24  ar  
 45  22  45  1   
 46  23  25  ar  
 47  23  46  1   
 48  24  25  ar  
 49  24  47  1   
 50  25  48  1   
@<TRIPOS>SUBSTRUCTURE
  1 ****   9 GROUP 4 **** **** 0

# MOE 2024.06 (io_trps.svl 2023.06)
