@<TRIPOS>MOLECULE
NONAME
43 45 1 0 0 
SMALL
USER_CHARGES


@<TRIPOS>ATOM
  1 CL      -2.1350     1.1240     0.9090 Cl    1 <1>  -0.1770 
  2 C       -0.7380     2.1250     0.5780 C.ar  1 <1>   0.1770 
  3 C       -0.7980     3.1260    -0.3850 C.ar  1 <1>  -0.0230 
  4 C        0.4160     1.8820     1.3000 C.ar  1 <1>  -0.1500 
  5 N       -1.9850     3.3800    -1.1170 N.pl3 1 <1>   0.5930 
  6 C        0.3500     3.8800    -0.6180 C.ar  1 <1>  -0.1500 
  7 C        1.5450     2.6470     1.0620 C.ar  1 <1>  -0.1500 
  8 N       -2.0190     3.3150    -2.4750 N.2   1 <1>  -0.7070 
  9 C       -3.1930     3.7990    -0.6330 C.2   1 <1>  -0.0880 
 10 C        1.5090     3.6440     0.1010 C.ar  1 <1>  -0.1500 
 11 C       -3.2220     3.6500    -2.8020 C.2   1 <1>   0.1390 
 12 N       -3.4590     4.0380     0.7330 N.am  1 <1>  -0.4940 
 13 C       -4.0330     3.9420    -1.7050 C.2   1 <1>  -0.0860 
 14 C       -4.0870     5.0720     1.3590 C.2   1 <1>   0.5690 
 15 C       -5.4190     4.2930    -1.8090 C.2   1 <1>   0.7160 
 16 O       -4.2710     5.0210     2.5460 O.2   1 <1>  -0.5700 
 17 C       -4.5300     6.3030     0.6040 C.3   1 <1>  -0.1790 
 18 O       -5.7470     5.1380    -2.6240 O.2   1 <1>  -0.5700 
 19 N       -6.3930     3.7000    -1.0300 N.am  1 <1>  -0.6600 
 20 C       -6.2240     2.3650    -0.3870 C.3   1 <1>   0.1400 
 21 C       -7.7830     4.2370    -0.9810 C.3   1 <1>   0.1400 
 22 C       -6.7130     2.4070     1.0650 C.3   1 <1>  -0.1600 
 23 C       -8.2700     4.2950     0.4700 C.3   1 <1>  -0.1600 
 24 C       -8.1510     2.9310     1.1640 C.3   1 <1>  -0.1600 
 25 H        0.4300     1.1020     2.0400 H     1 <1>   0.1500 
 26 H        0.3340     4.6520    -1.3700 H     1 <1>   0.1500 
 27 H        2.4490     2.4660     1.6190 H     1 <1>   0.1500 
 28 H        2.3890     4.2360    -0.0900 H     1 <1>   0.1500 
 29 H       -3.5720     3.6980    -3.8220 H     1 <1>   0.1500 
 30 H       -3.1130     3.3500     1.4080 H     1 <1>   0.3700 
 31 H       -3.9010     6.4760    -0.2490 H     1 <1>   0.0800 
 32 H       -4.4730     7.1570     1.2520 H     1 <1>   0.0800 
 33 H       -5.5460     6.1840     0.2830 H     1 <1>   0.0800 
 34 H       -5.1980     2.0460    -0.4130 H     1 <1>   0.0800 
 35 H       -6.8050     1.6450    -0.9370 H     1 <1>   0.0800 
 36 H       -8.4250     3.5950    -1.5590 H     1 <1>   0.0800 
 37 H       -7.8240     5.2250    -1.4090 H     1 <1>   0.0800 
 38 H       -6.0600     3.0380     1.6410 H     1 <1>   0.0800 
 39 H       -6.6600     1.4190     1.4850 H     1 <1>   0.0800 
 40 H       -9.2960     4.6190     0.4870 H     1 <1>   0.0800 
 41 H       -7.6890     5.0250     1.0060 H     1 <1>   0.0800 
 42 H       -8.4330     3.0240     2.1990 H     1 <1>   0.0800 
 43 H       -8.8220     2.2310     0.6970 H     1 <1>   0.0800 
@<TRIPOS>BOND
  1   1   2  1   
  2   2   3  ar  
  3   2   4  ar  
  4   3   5  1   
  5   3   6  ar  
  6   4   7  ar  
  7   4  25  1   
  8   5   8  1   
  9   5   9  1   
 10   6  10  ar  
 11   6  26  1   
 12   7  10  ar  
 13   7  27  1   
 14   8  11  2   
 15   9  12  1   
 16   9  13  2   
 17  10  28  1   
 18  11  13  1   
 19  11  29  1   
 20  12  14  am  
 21  12  30  1   
 22  13  15  1   
 23  14  16  2   
 24  14  17  1   
 25  15  18  2   
 26  15  19  am  
 27  17  31  1   
 28  17  32  1   
 29  17  33  1   
 30  19  20  1   
 31  19  21  1   
 32  20  22  1   
 33  20  34  1   
 34  20  35  1   
 35  21  23  1   
 36  21  36  1   
 37  21  37  1   
 38  22  24  1   
 39  22  38  1   
 40  22  39  1   
 41  23  24  1   
 42  23  40  1   
 43  23  41  1   
 44  24  42  1   
 45  24  43  1   
@<TRIPOS>SUBSTRUCTURE
  1 ****   9 GROUP 4 **** **** 0

# MOE 2024.06 (io_trps.svl 2023.06)
