@<TRIPOS>MOLECULE
NONAME
43 46 1 0 0 
SMALL
USER_CHARGES


@<TRIPOS>ATOM
  1 O       -0.0100    -0.8070    -1.4410 O.2   1 <1>  -0.5700 
  2 C       -0.2770    -1.7920    -0.8010 C.2   1 <1>   0.4230 
  3 C       -1.6200    -2.2160    -0.5330 C.ar  1 <1>   0.0860 
  4 C        0.8770    -2.6080    -0.2420 C.3   1 <1>  -0.0990 
  5 C       -1.9080    -3.3660     0.1900 C.ar  1 <1>   0.1660 
  6 C       -2.7230    -1.5090    -0.9810 C.ar  1 <1>   0.1600 
  7 C        0.5250    -4.1000    -0.0700 C.3   1 <1>   0.0000 
  8 N       -3.1320    -3.7560     0.4410 N.ar  1 <1>  -0.6200 
  9 C       -0.7820    -4.2300     0.7400 C.3   1 <1>  -0.0160 
 10 N       -3.9590    -1.8780    -0.7480 N.ar  1 <1>  -0.6200 
 11 C        0.3670    -4.7700    -1.4490 C.3   1 <1>  -0.2400 
 12 C        1.6660    -4.8080     0.6770 C.3   1 <1>  -0.2400 
 13 C       -4.1030    -2.9920    -0.0390 C.ar  1 <1>   0.7200 
 14 N       -5.3450    -3.4150     0.2350 N.pl3 1 <1>  -0.8690 
 15 C       -6.5880    -2.8830    -0.3360 C.3   1 <1>   0.3530 
 16 C       -7.6490    -3.9670    -0.2580 C.ar  1 <1>  -0.1430 
 17 C       -8.6400    -3.9080     0.7180 C.ar  1 <1>  -0.1500 
 18 C       -7.6260    -5.0270    -1.1650 C.ar  1 <1>  -0.1500 
 19 C       -9.5840    -4.9150     0.7500 C.ar  1 <1>   0.0830 
 20 C       -8.5850    -6.0320    -1.1160 C.ar  1 <1>  -0.1500 
 21 O      -10.6150    -5.0580     1.5900 O.3   1 <1>  -0.3630 
 22 C       -9.5590    -5.9470    -0.1410 C.ar  1 <1>   0.0830 
 23 C      -11.2860    -6.2590     1.2120 C.3   1 <1>   0.4000 
 24 O      -10.5720    -6.7870     0.0960 O.3   1 <1>  -0.3630 
 25 H        1.1460    -2.1820     0.7070 H     1 <1>   0.0800 
 26 H        1.7250    -2.5040    -0.8960 H     1 <1>   0.0800 
 27 H       -2.5630    -0.6090    -1.5510 H     1 <1>   0.1500 
 28 H       -1.0980    -5.2590     0.7520 H     1 <1>   0.0800 
 29 H       -0.6120    -3.9350     1.7600 H     1 <1>   0.0800 
 30 H       -0.4260    -4.3230    -2.0220 H     1 <1>   0.0800 
 31 H        0.1430    -5.8170    -1.3350 H     1 <1>   0.0800 
 32 H        1.2770    -4.6840    -2.0170 H     1 <1>   0.0800 
 33 H        1.8170    -4.3720     1.6490 H     1 <1>   0.0800 
 34 H        2.5870    -4.7290     0.1260 H     1 <1>   0.0800 
 35 H        1.4420    -5.8530     0.8090 H     1 <1>   0.0800 
 36 H       -5.4240    -4.3050     0.7230 H     1 <1>   0.4000 
 37 H       -6.4300    -2.5950    -1.3620 H     1 <1>   0.0800 
 38 H       -6.8920    -2.0130     0.2210 H     1 <1>   0.0800 
 39 H       -8.6850    -3.1110     1.4380 H     1 <1>   0.1500 
 40 H       -6.8530    -5.0720    -1.9130 H     1 <1>   0.1500 
 41 H       -8.5790    -6.8540    -1.8080 H     1 <1>   0.1500 
 42 H      -12.2950    -6.0320     0.9200 H     1 <1>   0.0800 
 43 H      -11.2540    -6.9610     2.0260 H     1 <1>   0.0800 
@<TRIPOS>BOND
  1   1   2  2   
  2   2   3  1   
  3   2   4  1   
  4   3   5  ar  
  5   3   6  ar  
  6   4   7  1   
  7   4  25  1   
  8   4  26  1   
  9   5   8  ar  
 10   5   9  1   
 11   6  10  ar  
 12   6  27  1   
 13   7   9  1   
 14   7  11  1   
 15   7  12  1   
 16   8  13  ar  
 17   9  28  1   
 18   9  29  1   
 19  10  13  ar  
 20  11  30  1   
 21  11  31  1   
 22  11  32  1   
 23  12  33  1   
 24  12  34  1   
 25  12  35  1   
 26  13  14  1   
 27  14  15  1   
 28  14  36  1   
 29  15  16  1   
 30  15  37  1   
 31  15  38  1   
 32  16  17  ar  
 33  16  18  ar  
 34  17  19  ar  
 35  17  39  1   
 36  18  20  ar  
 37  18  40  1   
 38  19  21  1   
 39  19  22  ar  
 40  20  22  ar  
 41  20  41  1   
 42  21  23  1   
 43  22  24  1   
 44  23  24  1   
 45  23  42  1   
 46  23  43  1   
@<TRIPOS>SUBSTRUCTURE
  1 ****  14 GROUP 4 **** **** 0

# MOE 2024.06 (io_trps.svl 2023.06)
