@<TRIPOS>MOLECULE
NONAME
33 34 1 0 0 
SMALL
USER_CHARGES


@<TRIPOS>ATOM
  1 CL       0.0480     2.5650     3.1040 Cl    1 <1>  -0.1770 
  2 C        0.0270     2.8680     1.3810 C.ar  1 <1>   0.1770 
  3 C       -0.9340     2.2930     0.5670 C.ar  1 <1>   0.1900 
  4 C        0.9880     3.6940     0.8320 C.ar  1 <1>  -0.1500 
  5 F       -1.8470     1.5090     1.0830 F     1 <1>  -0.1900 
  6 C       -0.9550     2.5270    -0.7960 C.ar  1 <1>  -0.1500 
  7 C        0.9810     3.9500    -0.5360 C.ar  1 <1>   0.1000 
  8 C        0.0100     3.3590    -1.3410 C.ar  1 <1>  -0.1500 
  9 N        1.9450     4.7820    -1.1130 N.pl3 1 <1>  -0.6000 
 10 C        2.2510     6.0930    -0.8140 C.2   1 <1>  -0.0380 
 11 C        3.3050     6.7420    -1.3680 C.2   1 <1>  -0.1360 
 12 C        1.3540     6.8310     0.1830 C.3   1 <1>  -0.0220 
 13 C        3.6770     8.0810    -1.0880 C.2   1 <1>   0.4950 
 14 C        1.4010     8.3700     0.0170 C.3   1 <1>   0.0000 
 15 O        4.6160     8.6290    -1.6120 O.2   1 <1>  -0.5700 
 16 C        2.8660     8.8530    -0.0630 C.3   1 <1>  -0.0990 
 17 C        0.6430     8.7830    -1.2590 C.3   1 <1>  -0.2400 
 18 C        0.7110     9.0370     1.2180 C.3   1 <1>  -0.2400 
 19 H        1.7420     4.1320     1.4580 H     1 <1>   0.1500 
 20 H       -1.7110     2.0690    -1.4100 H     1 <1>   0.1500 
 21 H        0.0090     3.5600    -2.3980 H     1 <1>   0.1500 
 22 H        2.4680     4.3510    -1.8830 H     1 <1>   0.4000 
 23 H        3.9410     6.2470    -2.0750 H     1 <1>   0.1500 
 24 H        1.6710     6.5660     1.1750 H     1 <1>   0.0800 
 25 H        0.3360     6.5050     0.0680 H     1 <1>   0.0800 
 26 H        2.8980     9.8990    -0.3090 H     1 <1>   0.0800 
 27 H        3.3470     8.7260     0.8890 H     1 <1>   0.0800 
 28 H        1.0730     8.3310    -2.1350 H     1 <1>   0.0800 
 29 H        0.6700     9.8510    -1.3870 H     1 <1>   0.0800 
 30 H       -0.3870     8.4790    -1.2020 H     1 <1>   0.0800 
 31 H        1.2090     8.7810     2.1360 H     1 <1>   0.0800 
 32 H       -0.3140     8.7180     1.2900 H     1 <1>   0.0800 
 33 H        0.7240    10.1080     1.1150 H     1 <1>   0.0800 
@<TRIPOS>BOND
  1   1   2  1   
  2   2   3  ar  
  3   2   4  ar  
  4   3   5  1   
  5   3   6  ar  
  6   4   7  ar  
  7   4  19  1   
  8   6   8  ar  
  9   6  20  1   
 10   7   8  ar  
 11   7   9  1   
 12   8  21  1   
 13   9  10  1   
 14   9  22  1   
 15  10  11  2   
 16  10  12  1   
 17  11  13  1   
 18  11  23  1   
 19  12  14  1   
 20  12  24  1   
 21  12  25  1   
 22  13  15  2   
 23  13  16  1   
 24  14  16  1   
 25  14  17  1   
 26  14  18  1   
 27  16  26  1   
 28  16  27  1   
 29  17  28  1   
 30  17  29  1   
 31  17  30  1   
 32  18  31  1   
 33  18  32  1   
 34  18  33  1   
@<TRIPOS>SUBSTRUCTURE
  1 ****  12 GROUP 4 **** **** 0

# MOE 2024.06 (io_trps.svl 2023.06)
