@<TRIPOS>MOLECULE
NONAME
48 49 1 0 0 
SMALL
USER_CHARGES


@<TRIPOS>ATOM
  1 O        0.3460     0.1980    -0.2410 O.2   1 <1>  -0.5700 
  2 C        0.3450     1.4060    -0.1700 C.2   1 <1>   0.6340 
  3 O       -0.8390     2.0160    -0.2720 O.3   1 <1>  -0.4300 
  4 C        1.5540     2.1710     0.0460 C.ar  1 <1>   0.0860 
  5 C       -1.1450     3.2060     0.4180 C.3   1 <1>   0.1200 
  6 C        1.8530     3.3140    -0.7000 C.ar  1 <1>  -0.1500 
  7 C        2.4840     1.7820     1.0110 C.ar  1 <1>  -0.1500 
  8 C       -2.6560     3.4020     0.3630 C.3   1 <1>  -0.2400 
  9 C        2.9990     4.0480    -0.4660 C.ar  1 <1>  -0.1500 
 10 C        3.6320     2.5140     1.2470 C.ar  1 <1>  -0.1500 
 11 C        3.9000     3.6680     0.5220 C.ar  1 <1>   0.1170 
 12 N        5.0530     4.4030     0.7900 N.am  1 <1>  -0.5470 
 13 C        5.2770     5.7530     0.7880 C.2   1 <1>   0.5440 
 14 O        6.4390     6.0980     0.7970 O.2   1 <1>  -0.5700 
 15 C        4.2070     6.7330     0.7790 C.ar  1 <1>   0.0860 
 16 C        4.2970     7.8800    -0.0100 C.ar  1 <1>  -0.1500 
 17 C        3.0520     6.5760     1.5490 C.ar  1 <1>  -0.1500 
 18 C        3.2780     8.8140    -0.0550 C.ar  1 <1>  -0.1500 
 19 C        2.0290     7.5030     1.5100 C.ar  1 <1>  -0.1500 
 20 C        2.1280     8.6260     0.7060 C.ar  1 <1>   0.0830 
 21 O        1.0820     9.4800     0.7170 O.3   1 <1>  -0.3620 
 22 C        1.0880    10.6750    -0.0350 C.3   1 <1>   0.1200 
 23 C       -0.2310    11.4300     0.1940 C.3   1 <1>  -0.0800 
 24 C       -1.4460    10.6080    -0.2610 C.3   1 <1>  -0.2400 
 25 C       -0.2070    12.7710    -0.5510 C.3   1 <1>  -0.2400 
 26 H       -0.6430     4.0300    -0.0580 H     1 <1>   0.0800 
 27 H       -0.8130     3.1100     1.4380 H     1 <1>   0.0800 
 28 H        1.1760     3.6240    -1.4780 H     1 <1>   0.1500 
 29 H        2.2930     0.8880     1.5810 H     1 <1>   0.1500 
 30 H       -2.9820     3.4840    -0.6590 H     1 <1>   0.0800 
 31 H       -2.9280     4.3020     0.8830 H     1 <1>   0.0800 
 32 H       -3.1530     2.5710     0.8310 H     1 <1>   0.0800 
 33 H        3.2000     4.9220    -1.0620 H     1 <1>   0.1500 
 34 H        4.3260     2.1910     2.0020 H     1 <1>   0.1500 
 35 H        5.9120     3.8760     0.9550 H     1 <1>   0.3700 
 36 H        5.1880     8.0340    -0.5960 H     1 <1>   0.1500 
 37 H        2.9570     5.7140     2.1860 H     1 <1>   0.1500 
 38 H        3.3960     9.6780    -0.6810 H     1 <1>   0.1500 
 39 H        1.1430     7.3680     2.1050 H     1 <1>   0.1500 
 40 H        1.2010    10.4210    -1.0740 H     1 <1>   0.0800 
 41 H        1.9220    11.2700     0.2920 H     1 <1>   0.0800 
 42 H       -0.3210    11.6340     1.2480 H     1 <1>   0.0800 
 43 H       -1.3780    10.3760    -1.3090 H     1 <1>   0.0800 
 44 H       -2.3540    11.1570    -0.0870 H     1 <1>   0.0800 
 45 H       -1.5000     9.6860     0.2910 H     1 <1>   0.0800 
 46 H       -0.1170    12.6170    -1.6120 H     1 <1>   0.0800 
 47 H        0.6220    13.3710    -0.2180 H     1 <1>   0.0800 
 48 H       -1.1140    13.3180    -0.3610 H     1 <1>   0.0800 
@<TRIPOS>BOND
  1   1   2  2   
  2   2   3  1   
  3   2   4  1   
  4   3   5  1   
  5   4   6  ar  
  6   4   7  ar  
  7   5   8  1   
  8   5  26  1   
  9   5  27  1   
 10   6   9  ar  
 11   6  28  1   
 12   7  10  ar  
 13   7  29  1   
 14   8  30  1   
 15   8  31  1   
 16   8  32  1   
 17   9  11  ar  
 18   9  33  1   
 19  10  11  ar  
 20  10  34  1   
 21  11  12  1   
 22  12  13  am  
 23  12  35  1   
 24  13  14  2   
 25  13  15  1   
 26  15  16  ar  
 27  15  17  ar  
 28  16  18  ar  
 29  16  36  1   
 30  17  19  ar  
 31  17  37  1   
 32  18  20  ar  
 33  18  38  1   
 34  19  20  ar  
 35  19  39  1   
 36  20  21  1   
 37  21  22  1   
 38  22  23  1   
 39  22  40  1   
 40  22  41  1   
 41  23  24  1   
 42  23  25  1   
 43  23  42  1   
 44  24  43  1   
 45  24  44  1   
 46  24  45  1   
 47  25  46  1   
 48  25  47  1   
 49  25  48  1   
@<TRIPOS>SUBSTRUCTURE
  1 ****  17 GROUP 4 **** **** 0

# MOE 2024.06 (io_trps.svl 2023.06)
