@<TRIPOS>MOLECULE
NONAME
47 48 1 0 0 
SMALL
USER_CHARGES


@<TRIPOS>ATOM
  1 S        0.0390     0.4000     1.2030 S.o2  1 <1>   1.4470 
  2 O       -0.3280     0.8050     2.5430 O.2   1 <1>  -0.6500 
  3 O       -0.2770    -0.9400     0.7580 O.2   1 <1>  -0.6500 
  4 N       -0.7450     1.4680     0.1430 N.am  1 <1>  -0.8490 
  5 C        1.7960     0.7350     0.9000 C.ar  1 <1>  -0.0090 
  6 C       -0.5360     2.8750     0.5240 C.3   1 <1>   0.1960 
  7 C       -2.1770     1.1650     0.0600 C.3   1 <1>   0.1960 
  8 C        2.3670     0.4650    -0.3380 C.ar  1 <1>  -0.1500 
  9 C        2.6080     1.2890     1.8820 C.ar  1 <1>  -0.1500 
 10 C       -1.1120     3.8090    -0.5480 C.3   1 <1>  -0.0190 
 11 C       -2.8450     2.0400    -1.0080 C.3   1 <1>  -0.1600 
 12 C        3.7010     0.7360    -0.6000 C.ar  1 <1>  -0.1440 
 13 C        3.9410     1.5670     1.6390 C.ar  1 <1>  -0.1500 
 14 C       -0.8540     5.2630    -0.1810 C.2   1 <1>   0.5690 
 15 C       -2.6130     3.5350    -0.7450 C.3   1 <1>  -0.1600 
 16 C        4.4980     1.2930     0.3940 C.ar  1 <1>   0.0820 
 17 C        4.2800     0.4210    -1.9720 C.3   1 <1>  -0.0960 
 18 O       -0.9100     5.6030     0.9760 O.2   1 <1>  -0.5700 
 19 N       -0.5690     6.1430    -1.1770 N.am  1 <1>  -0.7300 
 20 O        5.7980     1.5460     0.0930 O.3   1 <1>  -0.3630 
 21 C       -0.2940     7.5900    -0.9850 C.3   1 <1>   0.0600 
 22 C        6.6860     2.1030     1.0330 C.3   1 <1>   0.1200 
 23 C        8.0510     2.2480     0.3660 C.3   1 <1>  -0.2400 
 24 H        0.5170     3.0760     0.6260 H     1 <1>   0.0800 
 25 H       -1.0060     3.0730     1.4760 H     1 <1>   0.0800 
 26 H       -2.6420     1.3310     1.0200 H     1 <1>   0.0800 
 27 H       -2.3160     0.1300    -0.2050 H     1 <1>   0.0800 
 28 H        1.7450     0.0350    -1.1050 H     1 <1>   0.1500 
 29 H        2.1900     1.5070     2.8510 H     1 <1>   0.1500 
 30 H       -0.5940     3.6020    -1.4660 H     1 <1>   0.0800 
 31 H       -3.9000     1.8350    -1.0250 H     1 <1>   0.0800 
 32 H       -2.4440     1.7710    -1.9700 H     1 <1>   0.0800 
 33 H        4.5260     1.9950     2.4310 H     1 <1>   0.1500 
 34 H       -2.9920     4.1170    -1.5670 H     1 <1>   0.0800 
 35 H       -3.1460     3.8270     0.1450 H     1 <1>   0.0800 
 36 H        3.5370    -0.0030    -2.6230 H     1 <1>   0.0800 
 37 H        5.0890    -0.2800    -1.8710 H     1 <1>   0.0800 
 38 H        4.6590     1.3210    -2.4220 H     1 <1>   0.0800 
 39 H       -0.5450     5.8130    -2.1440 H     1 <1>   0.3700 
 40 H       -0.3390     7.8460     0.0600 H     1 <1>   0.0800 
 41 H       -1.0260     8.1740    -1.5160 H     1 <1>   0.0800 
 42 H        0.6880     7.8270    -1.3570 H     1 <1>   0.0800 
 43 H        6.7450     1.4420     1.8800 H     1 <1>   0.0800 
 44 H        6.3060     3.0650     1.3330 H     1 <1>   0.0800 
 45 H        8.4140     1.2840     0.0560 H     1 <1>   0.0800 
 46 H        8.7530     2.6720     1.0610 H     1 <1>   0.0800 
 47 H        7.9780     2.8960    -0.4880 H     1 <1>   0.0800 
@<TRIPOS>BOND
  1   1   2  2   
  2   1   3  2   
  3   1   4  am  
  4   1   5  1   
  5   4   6  1   
  6   4   7  1   
  7   5   8  ar  
  8   5   9  ar  
  9   6  10  1   
 10   6  24  1   
 11   6  25  1   
 12   7  11  1   
 13   7  26  1   
 14   7  27  1   
 15   8  12  ar  
 16   8  28  1   
 17   9  13  ar  
 18   9  29  1   
 19  10  14  1   
 20  10  15  1   
 21  10  30  1   
 22  11  15  1   
 23  11  31  1   
 24  11  32  1   
 25  12  16  ar  
 26  12  17  1   
 27  13  16  ar  
 28  13  33  1   
 29  14  18  2   
 30  14  19  am  
 31  15  34  1   
 32  15  35  1   
 33  16  20  1   
 34  17  36  1   
 35  17  37  1   
 36  17  38  1   
 37  19  21  1   
 38  19  39  1   
 39  20  22  1   
 40  21  40  1   
 41  21  41  1   
 42  21  42  1   
 43  22  23  1   
 44  22  43  1   
 45  22  44  1   
 46  23  45  1   
 47  23  46  1   
 48  23  47  1   
@<TRIPOS>SUBSTRUCTURE
  1 ****   5 GROUP 4 **** **** 0

# MOE 2024.06 (io_trps.svl 2023.06)
