@<TRIPOS>MOLECULE
NONAME
41 42 1 0 0 
SMALL
USER_CHARGES


@<TRIPOS>ATOM
  1 CL       0.6060     1.1030     3.9910 Cl    1 <1>  -0.1770 
  2 C        1.8140     1.5420     2.8100 C.ar  1 <1>   0.1770 
  3 C        1.8250     2.8240     2.2960 C.ar  1 <1>  -0.1500 
  4 C        2.7400     0.6010     2.4080 C.ar  1 <1>  -0.1500 
  5 C        2.7810     3.1850     1.3550 C.ar  1 <1>  -0.1440 
  6 C        3.6980     0.9510     1.4730 C.ar  1 <1>  -0.1500 
  7 C        3.7230     2.2420     0.9430 C.ar  1 <1>   0.0830 
  8 C        2.7890     4.6060     0.7950 C.3   1 <1>   0.5020 
  9 O        4.6370     2.6330     0.0170 O.3   1 <1>  -0.3630 
 10 N        3.2320     5.4890     1.8890 N.am  1 <1>  -0.7300 
 11 C        1.4120     4.9940     0.2240 C.2   1 <1>  -0.1240 
 12 C        5.6210     1.7530    -0.4800 C.3   1 <1>   0.1200 
 13 C        2.4550     6.4170     2.4630 C.2   1 <1>   0.6900 
 14 C        0.7230     6.0090     0.8250 C.2   1 <1>  -0.0290 
 15 C        0.9690     4.2060    -0.8920 C.2   1 <1>   0.4950 
 16 C        6.4530     2.5080    -1.5180 C.3   1 <1>  -0.1600 
 17 O        2.8230     7.0140     3.4480 O.2   1 <1>  -0.5700 
 18 N        1.2400     6.6650     1.9210 N.am  1 <1>  -0.5390 
 19 C       -0.6370     6.5440     0.3990 C.3   1 <1>  -0.1020 
 20 O       -0.1920     4.0910    -1.2000 O.2   1 <1>  -0.5700 
 21 C        1.9310     3.4440    -1.7870 C.3   1 <1>  -0.1790 
 22 C        7.5460     1.6130    -2.1130 C.3   1 <1>  -0.2400 
 23 H        1.0890     3.5320     2.6380 H     1 <1>   0.1500 
 24 H        2.7080    -0.3890     2.8250 H     1 <1>   0.1500 
 25 H        4.4110     0.2060     1.1740 H     1 <1>   0.1500 
 26 H        3.5190     4.7080     0.0130 H     1 <1>   0.0800 
 27 H        4.0750     5.2140     2.3860 H     1 <1>   0.3700 
 28 H        5.1280     0.9090    -0.9320 H     1 <1>   0.0800 
 29 H        6.2380     1.4310     0.3410 H     1 <1>   0.0800 
 30 H        6.9120     3.3620    -1.0500 H     1 <1>   0.0800 
 31 H        5.8090     2.8510    -2.3080 H     1 <1>   0.0800 
 32 H        0.7210     7.3990     2.4020 H     1 <1>   0.3700 
 33 H       -0.6900     7.6060     0.5560 H     1 <1>   0.0800 
 34 H       -1.4110     6.0680     0.9730 H     1 <1>   0.0800 
 35 H       -0.8260     6.3700    -0.6440 H     1 <1>   0.0800 
 36 H        2.8470     3.9830    -1.9330 H     1 <1>   0.0800 
 37 H        1.4790     3.2960    -2.7510 H     1 <1>   0.0800 
 38 H        2.1360     2.4780    -1.3650 H     1 <1>   0.0800 
 39 H        8.2150     1.2700    -1.3440 H     1 <1>   0.0800 
 40 H        8.1170     2.1650    -2.8390 H     1 <1>   0.0800 
 41 H        7.1110     0.7580    -2.6020 H     1 <1>   0.0800 
@<TRIPOS>BOND
  1   1   2  1   
  2   2   3  ar  
  3   2   4  ar  
  4   3   5  ar  
  5   3  23  1   
  6   4   6  ar  
  7   4  24  1   
  8   5   7  ar  
  9   5   8  1   
 10   6   7  ar  
 11   6  25  1   
 12   7   9  1   
 13   8  10  1   
 14   8  11  1   
 15   8  26  1   
 16   9  12  1   
 17  10  13  am  
 18  10  27  1   
 19  11  14  2   
 20  11  15  1   
 21  12  16  1   
 22  12  28  1   
 23  12  29  1   
 24  13  17  2   
 25  13  18  am  
 26  14  18  1   
 27  14  19  1   
 28  15  20  2   
 29  15  21  1   
 30  16  22  1   
 31  16  30  1   
 32  16  31  1   
 33  18  32  1   
 34  19  33  1   
 35  19  34  1   
 36  19  35  1   
 37  21  36  1   
 38  21  37  1   
 39  21  38  1   
 40  22  39  1   
 41  22  40  1   
 42  22  41  1   
@<TRIPOS>SUBSTRUCTURE
  1 ****   5 GROUP 4 **** **** 0

# MOE 2024.06 (io_trps.svl 2023.06)
