@<TRIPOS>MOLECULE
NONAME
32 33 1 0 0 
SMALL
USER_CHARGES


@<TRIPOS>ATOM
  1 BR      -1.3030     0.6070     3.1240 Br    1 <1>  -0.0580 
  2 C       -2.2990     0.3350     1.5050 C.2   1 <1>   0.0980 
  3 S       -3.7280    -0.6610     1.6440 S.3   1 <1>  -0.0800 
  4 C       -2.0900     0.7840     0.2560 C.2   1 <1>  -0.1500 
  5 C       -4.0460    -0.4470    -0.0800 C.2   1 <1>  -0.1400 
  6 C       -3.1000     0.3290    -0.6530 C.2   1 <1>  -0.1500 
  7 C       -5.2780    -1.1320    -0.6330 C.3   1 <1>   0.5230 
  8 N       -6.4680    -0.6130     0.0920 N.4   1 <1>  -0.9590 
  9 C       -7.7050    -1.4180    -0.2060 C.3   1 <1>   0.3430 
 10 C       -6.6720     0.8600    -0.1740 C.3   1 <1>   0.3430 
 11 C       -8.9570    -0.8680     0.5120 C.3   1 <1>   0.1400 
 12 C       -7.9020     1.4070     0.5680 C.3   1 <1>   0.1400 
 13 N       -9.1120     0.5920     0.2370 N.am  1 <1>  -0.6600 
 14 C      -10.1870     1.1690    -0.3910 C.2   1 <1>   0.5690 
 15 O      -10.1300     2.2940    -0.8180 O.2   1 <1>  -0.5700 
 16 C      -11.4760     0.4060    -0.5890 C.3   1 <1>  -0.1790 
 17 H       -1.2710     1.4090    -0.0580 H     1 <1>   0.1500 
 18 H       -3.0520     0.6140    -1.6920 H     1 <1>   0.1500 
 19 H       -5.1850    -2.1960    -0.4830 H     1 <1>   0.0800 
 20 H       -5.3660    -0.9380    -1.6890 H     1 <1>   0.0800 
 21 H       -6.2490    -0.7060     1.0940 H     1 <1>   0.4500 
 22 H       -7.5550    -2.4440     0.0880 H     1 <1>   0.0800 
 23 H       -7.8950    -1.4040    -1.2670 H     1 <1>   0.0800 
 24 H       -6.8130     1.0260    -1.2290 H     1 <1>   0.0800 
 25 H       -5.8010     1.4150     0.1360 H     1 <1>   0.0800 
 26 H       -8.8660    -1.0210     1.5740 H     1 <1>   0.0800 
 27 H       -9.8190    -1.4160     0.1770 H     1 <1>   0.0800 
 28 H       -8.0470     2.4380     0.2940 H     1 <1>   0.0800 
 29 H       -7.7330     1.3800     1.6300 H     1 <1>   0.0800 
 30 H      -11.7880    -0.0420     0.3350 H     1 <1>   0.0800 
 31 H      -11.3460    -0.3490    -1.3410 H     1 <1>   0.0800 
 32 H      -12.2450     1.0830    -0.9150 H     1 <1>   0.0800 
@<TRIPOS>BOND
  1   1   2  1   
  2   2   3  1   
  3   2   4  2   
  4   3   5  1   
  5   4   6  1   
  6   4  17  1   
  7   5   6  2   
  8   5   7  1   
  9   6  18  1   
 10   7   8  1   
 11   7  19  1   
 12   7  20  1   
 13   8   9  1   
 14   8  10  1   
 15   8  21  1   
 16   9  11  1   
 17   9  22  1   
 18   9  23  1   
 19  10  12  1   
 20  10  24  1   
 21  10  25  1   
 22  11  13  1   
 23  11  26  1   
 24  11  27  1   
 25  12  13  1   
 26  12  28  1   
 27  12  29  1   
 28  13  14  am  
 29  14  15  2   
 30  14  16  1   
 31  16  30  1   
 32  16  31  1   
 33  16  32  1   
@<TRIPOS>SUBSTRUCTURE
  1 ****  10 GROUP 4 **** **** 0

# MOE 2024.06 (io_trps.svl 2023.06)
