@<TRIPOS>MOLECULE
NONAME
49 51 1 0 0 
SMALL
USER_CHARGES


@<TRIPOS>ATOM
  1 F       -0.2650    -0.9100     0.2490 F     1 <1>  -0.1900 
  2 C        0.8360    -1.2700    -0.3530 C.ar  1 <1>   0.1900 
  3 C        1.8700    -1.7850     0.4050 C.ar  1 <1>  -0.1500 
  4 C        0.9250    -1.1190    -1.7240 C.ar  1 <1>  -0.1500 
  5 C        3.0450    -2.1620    -0.2300 C.ar  1 <1>  -0.1440 
  6 C        2.0980    -1.5000    -2.3540 C.ar  1 <1>  -0.1500 
  7 C        3.1480    -2.0170    -1.6090 C.ar  1 <1>  -0.1500 
  8 C        4.2100    -2.7260     0.5690 C.3   1 <1>   0.2540 
  9 N        5.3760    -1.8230     0.4940 N.3   1 <1>  -0.8100 
 10 C        5.0810    -0.4790     1.0540 C.3   1 <1>   0.1100 
 11 C        6.5630    -2.4040     1.1550 C.3   1 <1>   0.1100 
 12 C        6.3150     0.4540     1.0420 C.3   1 <1>   0.3430 
 13 C        7.8090    -1.4930     1.0190 C.3   1 <1>   0.3430 
 14 N        7.4820    -0.1880     0.3420 N.4   1 <1>  -0.9590 
 15 C        8.6510     0.7130     0.1080 C.3   1 <1>   0.4230 
 16 C        8.2100     1.9590    -0.6820 C.3   1 <1>  -0.1600 
 17 C        9.7560    -0.0380    -0.6590 C.3   1 <1>  -0.1600 
 18 C        9.3960     2.8670    -1.0420 C.3   1 <1>  -0.1600 
 19 C       10.9370     0.8770    -1.0190 C.3   1 <1>  -0.1600 
 20 C       10.4760     2.1020    -1.8170 C.3   1 <1>  -0.0800 
 21 C       11.6650     3.0190    -2.1220 C.3   1 <1>  -0.2400 
 22 H        1.7440    -1.8830     1.4680 H     1 <1>   0.1500 
 23 H        0.0980    -0.7160    -2.2780 H     1 <1>   0.1500 
 24 H        2.1930    -1.3960    -3.4210 H     1 <1>   0.1500 
 25 H        4.0560    -2.3090    -2.1070 H     1 <1>   0.1500 
 26 H        4.4730    -3.6870     0.1570 H     1 <1>   0.0800 
 27 H        3.9200    -2.8720     1.5960 H     1 <1>   0.0800 
 28 H        4.7160    -0.5700     2.0630 H     1 <1>   0.0800 
 29 H        4.3030    -0.0120     0.4730 H     1 <1>   0.0800 
 30 H        6.7870    -3.3620     0.7150 H     1 <1>   0.0800 
 31 H        6.3570    -2.5690     2.2000 H     1 <1>   0.0800 
 32 H        6.5850     0.6990     2.0550 H     1 <1>   0.0800 
 33 H        6.0350     1.3680     0.5480 H     1 <1>   0.0800 
 34 H        8.5490    -2.0270     0.4480 H     1 <1>   0.0800 
 35 H        8.2220    -1.3090     1.9970 H     1 <1>   0.0800 
 36 H        7.0930    -0.4720    -0.5700 H     1 <1>   0.4500 
 37 H        9.0530     1.0340     1.0560 H     1 <1>   0.0800 
 38 H        7.5260     2.5510    -0.1040 H     1 <1>   0.0800 
 39 H        7.7220     1.6560    -1.5920 H     1 <1>   0.0800 
 40 H        9.3510    -0.4460    -1.5690 H     1 <1>   0.0800 
 41 H       10.1500    -0.8410    -0.0650 H     1 <1>   0.0800 
 42 H        9.8220     3.2770    -0.1410 H     1 <1>   0.0800 
 43 H        9.0440     3.6920    -1.6400 H     1 <1>   0.0800 
 44 H       11.6540     0.3210    -1.5990 H     1 <1>   0.0800 
 45 H       11.4290     1.1990    -0.1160 H     1 <1>   0.0800 
 46 H       10.0610     1.7700    -2.7550 H     1 <1>   0.0800 
 47 H       12.1160     3.3790    -1.2140 H     1 <1>   0.0800 
 48 H       11.3440     3.8660    -2.7040 H     1 <1>   0.0800 
 49 H       12.4110     2.4880    -2.6870 H     1 <1>   0.0800 
@<TRIPOS>BOND
  1   1   2  1   
  2   2   3  ar  
  3   2   4  ar  
  4   3   5  ar  
  5   3  22  1   
  6   4   6  ar  
  7   4  23  1   
  8   5   7  ar  
  9   5   8  1   
 10   6   7  ar  
 11   6  24  1   
 12   7  25  1   
 13   8   9  1   
 14   8  26  1   
 15   8  27  1   
 16   9  10  1   
 17   9  11  1   
 18  10  12  1   
 19  10  28  1   
 20  10  29  1   
 21  11  13  1   
 22  11  30  1   
 23  11  31  1   
 24  12  14  1   
 25  12  32  1   
 26  12  33  1   
 27  13  14  1   
 28  13  34  1   
 29  13  35  1   
 30  14  15  1   
 31  14  36  1   
 32  15  16  1   
 33  15  17  1   
 34  15  37  1   
 35  16  18  1   
 36  16  38  1   
 37  16  39  1   
 38  17  19  1   
 39  17  40  1   
 40  17  41  1   
 41  18  20  1   
 42  18  42  1   
 43  18  43  1   
 44  19  20  1   
 45  19  44  1   
 46  19  45  1   
 47  20  21  1   
 48  20  46  1   
 49  21  47  1   
 50  21  48  1   
 51  21  49  1   
@<TRIPOS>SUBSTRUCTURE
  1 ****  10 GROUP 4 **** **** 0

# MOE 2024.06 (io_trps.svl 2023.06)
