@<TRIPOS>MOLECULE
NONAME
42 43 1 0 0 
SMALL
USER_CHARGES


@<TRIPOS>ATOM
  1 O       -0.1910    -0.4300    -0.4250 O.2   1 <1>  -0.5700 
  2 C       -0.1920    -1.5200     0.1120 C.2   1 <1>   0.5440 
  3 N        0.9680    -2.0000     0.6530 N.am  1 <1>  -0.7300 
  4 C       -1.3960    -2.3160     0.1590 C.ar  1 <1>   0.0860 
  5 C        2.2590    -1.2700     0.6930 C.3   1 <1>   0.1400 
  6 C       -2.5690    -1.8450     0.7570 C.ar  1 <1>   0.0830 
  7 C       -1.4290    -3.5910    -0.4080 C.ar  1 <1>  -0.1500 
  8 C        3.2340    -1.8820    -0.3150 C.3   1 <1>  -0.0220 
  9 O       -2.5880    -0.6310     1.3500 O.3   1 <1>  -0.2320 
 10 C       -3.7210    -2.6170     0.7870 C.ar  1 <1>  -0.1500 
 11 C       -2.5770    -4.3620    -0.3830 C.ar  1 <1>  -0.1500 
 12 C        4.6020    -1.2170    -0.2410 C.2   1 <1>  -0.2760 
 13 C       -3.2100     0.4330     0.8450 C.2   1 <1>   0.6590 
 14 C       -3.7260    -3.8750     0.2150 C.ar  1 <1>  -0.1500 
 15 C        5.6640    -1.8120     0.3130 C.2   1 <1>  -0.2880 
 16 C        4.6730     0.1750    -0.8670 C.3   1 <1>  -0.0220 
 17 O       -3.5450     1.3390     1.5580 O.2   1 <1>  -0.5700 
 18 C       -3.4930     0.4840    -0.6430 C.3   1 <1>  -0.1790 
 19 C        7.0550    -1.2020     0.3770 C.3   1 <1>  -0.0220 
 20 C        5.9560     0.9170    -0.4640 C.3   1 <1>  -0.1600 
 21 C        7.1830     0.0020    -0.5670 C.3   1 <1>  -0.1600 
 22 H        0.9530    -2.8950     1.1430 H     1 <1>   0.3700 
 23 H        2.6730    -1.3330     1.6840 H     1 <1>   0.0800 
 24 H        2.0970    -0.2310     0.4650 H     1 <1>   0.0800 
 25 H       -0.5420    -3.9740    -0.8820 H     1 <1>   0.1500 
 26 H        2.8370    -1.7820    -1.3100 H     1 <1>   0.0800 
 27 H        3.3410    -2.9290    -0.0990 H     1 <1>   0.0800 
 28 H       -4.6080    -2.2370     1.2640 H     1 <1>   0.1500 
 29 H       -2.5800    -5.3420    -0.8300 H     1 <1>   0.1500 
 30 H       -4.6200    -4.4770     0.2370 H     1 <1>   0.1500 
 31 H        5.6200    -2.7870     0.7670 H     1 <1>   0.1500 
 32 H        3.8290     0.7700    -0.5680 H     1 <1>   0.0800 
 33 H        4.6400     0.0710    -1.9380 H     1 <1>   0.0800 
 34 H       -2.5820     0.3450    -1.1940 H     1 <1>   0.0800 
 35 H       -3.9030     1.4440    -0.8960 H     1 <1>   0.0800 
 36 H       -4.1990    -0.2770    -0.9140 H     1 <1>   0.0800 
 37 H        7.7870    -1.9410     0.1040 H     1 <1>   0.0800 
 38 H        7.2510    -0.8940     1.3890 H     1 <1>   0.0800 
 39 H        5.8590     1.2580     0.5520 H     1 <1>   0.0800 
 40 H        6.0860     1.7790    -1.0940 H     1 <1>   0.0800 
 41 H        7.2690    -0.3540    -1.5800 H     1 <1>   0.0800 
 42 H        8.0760     0.5520    -0.3310 H     1 <1>   0.0800 
@<TRIPOS>BOND
  1   1   2  2   
  2   2   3  am  
  3   2   4  1   
  4   3   5  1   
  5   3  22  1   
  6   4   6  ar  
  7   4   7  ar  
  8   5   8  1   
  9   5  23  1   
 10   5  24  1   
 11   6   9  1   
 12   6  10  ar  
 13   7  11  ar  
 14   7  25  1   
 15   8  12  1   
 16   8  26  1   
 17   8  27  1   
 18   9  13  1   
 19  10  14  ar  
 20  10  28  1   
 21  11  14  ar  
 22  11  29  1   
 23  12  15  2   
 24  12  16  1   
 25  13  17  2   
 26  13  18  1   
 27  14  30  1   
 28  15  19  1   
 29  15  31  1   
 30  16  20  1   
 31  16  32  1   
 32  16  33  1   
 33  18  34  1   
 34  18  35  1   
 35  18  36  1   
 36  19  21  1   
 37  19  37  1   
 38  19  38  1   
 39  20  21  1   
 40  20  39  1   
 41  20  40  1   
 42  21  41  1   
 43  21  42  1   
@<TRIPOS>SUBSTRUCTURE
  1 ****   2 GROUP 4 **** **** 0

# MOE 2024.06 (io_trps.svl 2023.06)
