@<TRIPOS>MOLECULE
NONAME
31 30 1 0 0 
SMALL
USER_CHARGES


@<TRIPOS>ATOM
  1 O        0.1700    -0.0730     1.5680 O.2   1 <1>  -0.5700 
  2 C        0.0060     0.7120     0.6550 C.2   1 <1>   0.7060 
  3 O       -1.0840     0.5860    -0.1090 O.3   1 <1>  -0.4300 
  4 C        0.9530     1.7290     0.3310 C.2   1 <1>   0.0290 
  5 C       -2.0630    -0.3950     0.1520 C.3   1 <1>   0.1200 
  6 C        0.4160     2.9920    -0.0800 C.2   1 <1>   0.7060 
  7 C        2.2980     1.4820     0.4250 C.2   1 <1>  -0.0410 
  8 C       -3.1860    -0.2210    -0.8650 C.3   1 <1>  -0.2400 
  9 O        1.0530     3.8060    -0.7280 O.2   1 <1>  -0.5700 
 10 O       -0.8220     3.3230     0.3010 O.3   1 <1>  -0.4300 
 11 N        3.3110     2.3560     0.1030 N.am  1 <1>  -0.5390 
 12 C       -1.4190     4.5460    -0.0680 C.3   1 <1>   0.1200 
 13 C        4.6620     2.1490     0.1940 C.2   1 <1>   0.5690 
 14 C       -2.8380     4.5610     0.4890 C.3   1 <1>  -0.2400 
 15 O        5.1350     1.1210     0.6020 O.2   1 <1>  -0.5700 
 16 C        5.5730     3.2660    -0.2430 C.3   1 <1>  -0.1790 
 17 H       -1.6060    -1.3670     0.0640 H     1 <1>   0.0800 
 18 H       -2.4280    -0.2560     1.1560 H     1 <1>   0.0800 
 19 H        2.6290     0.5150     0.7790 H     1 <1>   0.1500 
 20 H       -2.8060    -0.3530    -1.8630 H     1 <1>   0.0800 
 21 H       -3.6210     0.7580    -0.7720 H     1 <1>   0.0800 
 22 H       -3.9510    -0.9550    -0.6900 H     1 <1>   0.0800 
 23 H        3.0270     3.2660    -0.2840 H     1 <1>   0.3700 
 24 H       -0.8330     5.3520     0.3420 H     1 <1>   0.0800 
 25 H       -1.4260     4.6130    -1.1430 H     1 <1>   0.0800 
 26 H       -2.8170     4.4840     1.5620 H     1 <1>   0.0800 
 27 H       -3.4050     3.7440     0.0810 H     1 <1>   0.0800 
 28 H       -3.3240     5.4820     0.2220 H     1 <1>   0.0800 
 29 H        5.4010     4.1350     0.3640 H     1 <1>   0.0800 
 30 H        5.3910     3.5040    -1.2740 H     1 <1>   0.0800 
 31 H        6.5980     2.9620    -0.1310 H     1 <1>   0.0800 
@<TRIPOS>BOND
  1   1   2  2   
  2   2   3  1   
  3   2   4  1   
  4   3   5  1   
  5   4   6  1   
  6   4   7  2   
  7   5   8  1   
  8   5  17  1   
  9   5  18  1   
 10   6   9  2   
 11   6  10  1   
 12   7  11  1   
 13   7  19  1   
 14   8  20  1   
 15   8  21  1   
 16   8  22  1   
 17  10  12  1   
 18  11  13  am  
 19  11  23  1   
 20  12  14  1   
 21  12  24  1   
 22  12  25  1   
 23  13  15  2   
 24  13  16  1   
 25  14  26  1   
 26  14  27  1   
 27  14  28  1   
 28  16  29  1   
 29  16  30  1   
 30  16  31  1   
@<TRIPOS>SUBSTRUCTURE
  1 ****   4 GROUP 4 **** **** 0

# MOE 2024.06 (io_trps.svl 2023.06)
