@<TRIPOS>MOLECULE
NONAME
38 40 1 0 0 
SMALL
USER_CHARGES


@<TRIPOS>ATOM
  1 O        0.0150     0.5180     0.1340 O.2   1 <1>  -0.5700 
  2 C        0.5630     1.5840    -0.0550 C.2   1 <1>   0.7060 
  3 O        1.8890     1.6230     0.1300 O.3   1 <1>  -0.2330 
  4 C       -0.1110     2.8010    -0.4070 C.2   1 <1>   0.0290 
  5 C        2.6150     2.7600     0.0770 C.ar  1 <1>   0.0830 
  6 C       -1.5150     2.7240    -0.6770 C.2   1 <1>   0.6160 
  7 C        0.5910     3.9660    -0.4690 C.2   1 <1>  -0.1780 
  8 C        1.9910     3.9780    -0.2160 C.ar  1 <1>   0.0280 
  9 C        3.9790     2.7020     0.3220 C.ar  1 <1>  -0.1500 
 10 O       -1.9330     2.1260    -1.6470 O.2   1 <1>  -0.5700 
 11 N       -2.3920     3.3960     0.1200 N.am  1 <1>  -0.7300 
 12 C        2.7740     5.1320    -0.2520 C.ar  1 <1>  -0.1500 
 13 C        4.7370     3.8560     0.2810 C.ar  1 <1>  -0.1500 
 14 C       -3.8480     3.5070    -0.0860 C.3   1 <1>   0.2200 
 15 C        4.1310     5.0720    -0.0060 C.ar  1 <1>  -0.1500 
 16 C       -4.1910     4.9960    -0.3370 C.3   1 <1>   0.2000 
 17 C       -4.5140     2.8990     1.1520 C.3   1 <1>  -0.2400 
 18 O       -3.7240     5.8030     0.7080 O.3   1 <1>  -0.5600 
 19 C       -5.6660     5.3530    -0.4800 C.3   1 <1>  -0.1600 
 20 C       -4.4920     6.9610     0.8370 C.3   1 <1>   0.1200 
 21 C       -5.6660     6.8270    -0.1290 C.3   1 <1>  -0.1600 
 22 H        0.1150     4.8980    -0.7200 H     1 <1>   0.1500 
 23 H        4.4370     1.7550     0.5440 H     1 <1>   0.1500 
 24 H       -2.0560     4.0280     0.8500 H     1 <1>   0.3700 
 25 H        2.3120     6.0780    -0.4760 H     1 <1>   0.1500 
 26 H        5.7960     3.8160     0.4710 H     1 <1>   0.1500 
 27 H       -4.1360     2.9340    -0.9510 H     1 <1>   0.0800 
 28 H        4.7270     5.9680    -0.0370 H     1 <1>   0.1500 
 29 H       -3.6770     5.3150    -1.2270 H     1 <1>   0.0800 
 30 H       -4.3180     3.5020     2.0210 H     1 <1>   0.0800 
 31 H       -4.1390     1.9050     1.3170 H     1 <1>   0.0800 
 32 H       -5.5760     2.8280     1.0130 H     1 <1>   0.0800 
 33 H       -6.2650     4.8130     0.2300 H     1 <1>   0.0800 
 34 H       -6.0320     5.1620    -1.4740 H     1 <1>   0.0800 
 35 H       -3.8780     7.8140     0.6070 H     1 <1>   0.0800 
 36 H       -4.8310     7.0160     1.8580 H     1 <1>   0.0800 
 37 H       -6.5920     7.1460     0.3180 H     1 <1>   0.0800 
 38 H       -5.4740     7.4230    -1.0040 H     1 <1>   0.0800 
@<TRIPOS>BOND
  1   1   2  2   
  2   2   3  1   
  3   2   4  1   
  4   3   5  1   
  5   4   6  1   
  6   4   7  2   
  7   5   8  ar  
  8   5   9  ar  
  9   6  10  2   
 10   6  11  am  
 11   7   8  1   
 12   7  22  1   
 13   8  12  ar  
 14   9  13  ar  
 15   9  23  1   
 16  11  14  1   
 17  11  24  1   
 18  12  15  ar  
 19  12  25  1   
 20  13  15  ar  
 21  13  26  1   
 22  14  16  1   
 23  14  17  1   
 24  14  27  1   
 25  15  28  1   
 26  16  18  1   
 27  16  19  1   
 28  16  29  1   
 29  17  30  1   
 30  17  31  1   
 31  17  32  1   
 32  18  20  1   
 33  19  21  1   
 34  19  33  1   
 35  19  34  1   
 36  20  21  1   
 37  20  35  1   
 38  20  36  1   
 39  21  37  1   
 40  21  38  1   
@<TRIPOS>SUBSTRUCTURE
  1 ****   4 GROUP 4 **** **** 0

# MOE 2024.06 (io_trps.svl 2023.06)
