@<TRIPOS>MOLECULE
NONAME
39 40 1 0 0 
SMALL
USER_CHARGES


@<TRIPOS>ATOM
  1 S       -0.2220    -0.0260     0.4360 S.o2  1 <1>   1.4470 
  2 O       -0.3900    -0.9450    -0.6660 O.2   1 <1>  -0.6500 
  3 O       -0.5660    -0.4280     1.7810 O.2   1 <1>  -0.6500 
  4 N       -1.2320     1.2510     0.0340 N.am  1 <1>  -0.9140 
  5 C        1.4260     0.7280     0.4070 C.ar  1 <1>  -0.0090 
  6 C       -2.6070     1.0220     0.4210 C.3   1 <1>   0.1960 
  7 C        1.7560     1.7540     1.2850 C.ar  1 <1>  -0.1500 
  8 C        2.4020     0.3110    -0.4900 C.ar  1 <1>  -0.1500 
  9 C       -3.4500     2.1630    -0.1310 C.3   1 <1>  -0.2400 
 10 C        3.0100     2.3400     1.2680 C.ar  1 <1>  -0.1500 
 11 C        3.6560     0.8940    -0.5110 C.ar  1 <1>  -0.1500 
 12 C        3.9830     1.9180     0.3710 C.ar  1 <1>   0.1170 
 13 N        5.2340     2.5470     0.3810 N.am  1 <1>  -0.5470 
 14 C        6.4620     2.1250    -0.0430 C.2   1 <1>   0.6900 
 15 O        6.6450     0.9870    -0.4310 O.2   1 <1>  -0.5700 
 16 N        7.5050     3.0100     0.0000 N.am  1 <1>  -0.6600 
 17 C        8.8720     2.6120    -0.4000 C.3   1 <1>   0.1400 
 18 C        7.3980     4.4800     0.1300 C.3   1 <1>   0.1400 
 19 C        9.7010     3.8850    -0.2840 C.3   1 <1>  -0.1600 
 20 C        8.6940     5.0180    -0.4650 C.3   1 <1>  -0.1600 
 21 H       -1.2100     1.2560    -0.9830 H     1 <1>   0.4200 
 22 H       -2.6850     0.9960     1.4970 H     1 <1>   0.0800 
 23 H       -2.9540     0.0790     0.0270 H     1 <1>   0.0800 
 24 H        1.0170     2.0960     1.9900 H     1 <1>   0.1500 
 25 H        2.1810    -0.4830    -1.1840 H     1 <1>   0.1500 
 26 H       -3.1050     3.1020     0.2620 H     1 <1>   0.0800 
 27 H       -4.4750     2.0270     0.1630 H     1 <1>   0.0800 
 28 H       -3.4040     2.1830    -1.2050 H     1 <1>   0.0800 
 29 H        3.2330     3.1280     1.9630 H     1 <1>   0.1500 
 30 H        4.3840     0.5490    -1.2230 H     1 <1>   0.1500 
 31 H        5.2830     3.4260     0.8810 H     1 <1>   0.3700 
 32 H        8.8520     2.2620    -1.4190 H     1 <1>   0.0800 
 33 H        9.2440     1.8300     0.2400 H     1 <1>   0.0800 
 34 H        7.3350     4.7370     1.1740 H     1 <1>   0.0800 
 35 H        6.5400     4.8590    -0.3990 H     1 <1>   0.0800 
 36 H       10.4910     3.9150    -1.0130 H     1 <1>   0.0800 
 37 H       10.1320     3.9310     0.7020 H     1 <1>   0.0800 
 38 H        9.0090     5.9280     0.0130 H     1 <1>   0.0800 
 39 H        8.5450     5.2060    -1.5150 H     1 <1>   0.0800 
@<TRIPOS>BOND
  1   1   2  2   
  2   1   3  2   
  3   1   4  am  
  4   1   5  1   
  5   4   6  1   
  6   4  21  1   
  7   5   7  ar  
  8   5   8  ar  
  9   6   9  1   
 10   6  22  1   
 11   6  23  1   
 12   7  10  ar  
 13   7  24  1   
 14   8  11  ar  
 15   8  25  1   
 16   9  26  1   
 17   9  27  1   
 18   9  28  1   
 19  10  12  ar  
 20  10  29  1   
 21  11  12  ar  
 22  11  30  1   
 23  12  13  1   
 24  13  14  am  
 25  13  31  1   
 26  14  15  2   
 27  14  16  am  
 28  16  17  1   
 29  16  18  1   
 30  17  19  1   
 31  17  32  1   
 32  17  33  1   
 33  18  20  1   
 34  18  34  1   
 35  18  35  1   
 36  19  20  1   
 37  19  36  1   
 38  19  37  1   
 39  20  38  1   
 40  20  39  1   
@<TRIPOS>SUBSTRUCTURE
  1 ****  12 GROUP 4 **** **** 0

# MOE 2024.06 (io_trps.svl 2023.06)
