@<TRIPOS>MOLECULE
NONAME
50 52 1 0 0 
SMALL
USER_CHARGES


@<TRIPOS>ATOM
  1 S        0.7230    -0.6080    -1.6260 S.o2  1 <1>   1.4470 
  2 O        0.9990     0.5990    -2.3740 O.2   1 <1>  -0.6500 
  3 O        1.0580    -1.8880    -2.2140 O.2   1 <1>  -0.6500 
  4 N        1.6160    -0.5030    -0.1900 N.am  1 <1>  -0.8490 
  5 C       -1.0120    -0.6090    -1.0940 C.ar  1 <1>  -0.0090 
  6 C        1.8540    -1.7920     0.4760 C.3   1 <1>   0.3370 
  7 C        2.9290     0.0950    -0.3620 C.3   1 <1>   0.1960 
  8 C       -1.4320     0.0970     0.0270 C.ar  1 <1>  -0.1500 
  9 C       -1.9710    -1.3200    -1.8070 C.ar  1 <1>  -0.1500 
 10 C        0.5940    -2.5060     1.0250 C.2   1 <1>   0.5690 
 11 C        2.9090    -1.4370     1.5240 C.3   1 <1>  -0.1600 
 12 C        3.7150    -0.3030     0.8870 C.3   1 <1>  -0.1600 
 13 C       -2.7560     0.0810     0.4320 C.ar  1 <1>  -0.1500 
 14 C       -3.2960    -1.3410    -1.4070 C.ar  1 <1>  -0.1500 
 15 O        0.2040    -2.2700     2.1450 O.2   1 <1>  -0.5700 
 16 N       -0.0370    -3.4010     0.1970 N.am  1 <1>  -0.5470 
 17 C       -3.6950    -0.6430    -0.2810 C.ar  1 <1>  -0.1430 
 18 C       -1.2470    -4.1020     0.3180 C.ar  1 <1>   0.1170 
 19 C       -5.1460    -0.6740     0.1620 C.3   1 <1>  -0.0970 
 20 C       -1.4530    -5.3120    -0.3790 C.ar  1 <1>   0.0860 
 21 C       -2.2720    -3.5880     1.1100 C.ar  1 <1>  -0.1500 
 22 C       -0.4420    -5.9020    -1.2410 C.2   1 <1>   0.6340 
 23 C       -2.6900    -5.9500    -0.2190 C.ar  1 <1>  -0.1500 
 24 C       -3.4790    -4.2390     1.2450 C.ar  1 <1>  -0.1500 
 25 O        0.5830    -5.3400    -1.5810 O.2   1 <1>  -0.5700 
 26 O       -0.6530    -7.1430    -1.6970 O.3   1 <1>  -0.4300 
 27 C       -3.6880    -5.4300     0.5780 C.ar  1 <1>  -0.1500 
 28 C        0.2680    -7.7980    -2.5470 C.3   1 <1>   0.0400 
 29 H        2.3260    -2.4610    -0.2240 H     1 <1>   0.0800 
 30 H        2.8500     1.1650    -0.4650 H     1 <1>   0.0800 
 31 H        3.4060    -0.3120    -1.2400 H     1 <1>   0.0800 
 32 H       -0.7140     0.6610     0.5970 H     1 <1>   0.1500 
 33 H       -1.6750    -1.8720    -2.6830 H     1 <1>   0.1500 
 34 H        3.5180    -2.2880     1.7710 H     1 <1>   0.0800 
 35 H        2.4310    -1.0790     2.4200 H     1 <1>   0.0800 
 36 H        3.7900     0.5330     1.5610 H     1 <1>   0.0800 
 37 H        4.7050    -0.6220     0.6140 H     1 <1>   0.0800 
 38 H       -3.0470     0.6330     1.3090 H     1 <1>   0.1500 
 39 H       -4.0140    -1.9060    -1.9760 H     1 <1>   0.1500 
 40 H        0.4820    -3.6390    -0.6650 H     1 <1>   0.3700 
 41 H       -5.2230    -0.4750     1.2160 H     1 <1>   0.0800 
 42 H       -5.5740    -1.6400    -0.0330 H     1 <1>   0.0800 
 43 H       -5.7050     0.0710    -0.3740 H     1 <1>   0.0800 
 44 H       -2.1330    -2.6540     1.6240 H     1 <1>   0.1500 
 45 H       -2.8810    -6.8780    -0.7310 H     1 <1>   0.1500 
 46 H       -4.2510    -3.8200     1.8660 H     1 <1>   0.1500 
 47 H       -4.6280    -5.9460     0.6820 H     1 <1>   0.1500 
 48 H        1.2140    -7.8790    -2.0390 H     1 <1>   0.0800 
 49 H        0.3800    -7.2220    -3.4490 H     1 <1>   0.0800 
 50 H       -0.1140    -8.7770    -2.7760 H     1 <1>   0.0800 
@<TRIPOS>BOND
  1   1   2  2   
  2   1   3  2   
  3   1   4  am  
  4   1   5  1   
  5   4   6  1   
  6   4   7  1   
  7   5   8  ar  
  8   5   9  ar  
  9   6  10  1   
 10   6  11  1   
 11   6  29  1   
 12   7  12  1   
 13   7  30  1   
 14   7  31  1   
 15   8  13  ar  
 16   8  32  1   
 17   9  14  ar  
 18   9  33  1   
 19  10  15  2   
 20  10  16  am  
 21  11  12  1   
 22  11  34  1   
 23  11  35  1   
 24  12  36  1   
 25  12  37  1   
 26  13  17  ar  
 27  13  38  1   
 28  14  17  ar  
 29  14  39  1   
 30  16  18  1   
 31  16  40  1   
 32  17  19  1   
 33  18  20  ar  
 34  18  21  ar  
 35  19  41  1   
 36  19  42  1   
 37  19  43  1   
 38  20  22  1   
 39  20  23  ar  
 40  21  24  ar  
 41  21  44  1   
 42  22  25  2   
 43  22  26  1   
 44  23  27  ar  
 45  23  45  1   
 46  24  27  ar  
 47  24  46  1   
 48  26  28  1   
 49  27  47  1   
 50  28  48  1   
 51  28  49  1   
 52  28  50  1   
@<TRIPOS>SUBSTRUCTURE
  1 ****  16 GROUP 4 **** **** 0

# MOE 2024.06 (io_trps.svl 2023.06)
