@<TRIPOS>MOLECULE
NONAME
61 64 1 0 0 
SMALL
USER_CHARGES


@<TRIPOS>ATOM
  1 O       -5.3700     2.4050    -1.0290 O.2   1 <1>  -0.5700 
  2 C       -4.8290     1.6150    -0.2780 C.2   1 <1>   0.5440 
  3 N       -5.5250     0.4650     0.0940 N.am  1 <1>  -0.4690 
  4 C       -3.4730     1.8740     0.1700 C.ar  1 <1>   0.0860 
  5 C       -6.9170     0.3350    -0.0710 C.2   1 <1>  -0.0290 
  6 C       -4.7670    -0.7360     0.5600 C.3   1 <1>   0.1400 
  7 C       -2.4440     2.0590    -0.7530 C.ar  1 <1>  -0.1500 
  8 C       -3.1460     1.9430     1.5240 C.ar  1 <1>  -0.1500 
  9 C       -7.5420    -0.7300    -0.6380 C.2   1 <1>  -0.2880 
 10 C       -7.7770     1.5200     0.4620 C.3   1 <1>  -0.0220 
 11 C       -3.9720    -1.3830    -0.5820 C.3   1 <1>  -0.0170 
 12 C       -1.1410     2.2730    -0.3450 C.ar  1 <1>  -0.1500 
 13 C       -1.8440     2.1550     1.9390 C.ar  1 <1>  -0.1500 
 14 C       -9.0560    -0.7750    -0.9050 C.3   1 <1>   0.5610 
 15 C       -9.2170     0.9990     0.5070 C.3   1 <1>   0.4230 
 16 C       -2.9430    -2.3380    -0.0040 C.ar  1 <1>  -0.1440 
 17 C       -0.8370     2.3160     1.0040 C.ar  1 <1>  -0.1500 
 18 N       -9.3620     0.6440    -0.9380 N.4   1 <1>  -0.9590 
 19 C       -9.9350    -1.2490     0.2700 C.3   1 <1>  -0.1600 
 20 C      -10.2750     0.0470     1.0550 C.3   1 <1>  -0.1600 
 21 C       -3.1820    -3.7030     0.0480 C.ar  1 <1>  -0.1500 
 22 C       -1.7520    -1.8350     0.4890 C.ar  1 <1>  -0.1500 
 23 C      -10.6240     1.0450    -1.6400 C.3   1 <1>   0.2630 
 24 C       -2.2420    -4.5780     0.5910 C.ar  1 <1>   0.0830 
 25 C       -0.8090    -2.6910     1.0260 C.ar  1 <1>  -0.1500 
 26 O       -2.4850    -5.9190     0.6750 O.3   1 <1>  -0.3620 
 27 C       -1.0310    -4.0560     1.0770 C.ar  1 <1>   0.0830 
 28 C       -3.7150    -6.4930     0.2910 C.3   1 <1>   0.0400 
 29 O       -0.0140    -4.7820     1.6220 O.3   1 <1>  -0.3630 
 30 C        0.2820    -6.0800     1.1580 C.3   1 <1>   0.0400 
 31 H       -5.4440    -1.4600     0.9780 H     1 <1>   0.0800 
 32 H       -4.0940    -0.4520     1.3480 H     1 <1>   0.0800 
 33 H       -2.6770     2.0360    -1.8040 H     1 <1>   0.1500 
 34 H       -3.9220     1.8280     2.2600 H     1 <1>   0.1500 
 35 H       -7.0290    -1.6100    -0.9820 H     1 <1>   0.1500 
 36 H       -7.7010     2.3990    -0.1540 H     1 <1>   0.0800 
 37 H       -7.4600     1.7820     1.4560 H     1 <1>   0.0800 
 38 H       -3.4540    -0.6370    -1.1560 H     1 <1>   0.0800 
 39 H       -4.6370    -1.9070    -1.2440 H     1 <1>   0.0800 
 40 H       -0.3610     2.4080    -1.0750 H     1 <1>   0.1500 
 41 H       -1.6100     2.1970     2.9900 H     1 <1>   0.1500 
 42 H       -9.2870    -1.2570    -1.8420 H     1 <1>   0.0800 
 43 H       -8.6540     0.2730     1.0700 H     1 <1>   0.0800 
 44 H        0.1770     2.4810     1.3250 H     1 <1>   0.1500 
 45 H       -8.5570     1.0710    -1.4240 H     1 <1>   0.4500 
 46 H       -9.3910    -1.9530     0.8760 H     1 <1>   0.0800 
 47 H      -10.8300    -1.7240    -0.0910 H     1 <1>   0.0800 
 48 H      -11.2720     0.4020     0.8570 H     1 <1>   0.0800 
 49 H      -10.1740    -0.0910     2.1190 H     1 <1>   0.0800 
 50 H       -4.1110    -4.0710    -0.3400 H     1 <1>   0.1500 
 51 H       -1.5480    -0.7780     0.4600 H     1 <1>   0.1500 
 52 H      -11.4760     0.5400    -1.2170 H     1 <1>   0.0800 
 53 H      -10.5630     0.7930    -2.6870 H     1 <1>   0.0800 
 54 H      -10.7740     2.1090    -1.5530 H     1 <1>   0.0800 
 55 H        0.1170    -2.3000     1.4090 H     1 <1>   0.1500 
 56 H       -3.6660    -7.5480     0.4880 H     1 <1>   0.0800 
 57 H       -3.8660    -6.3250    -0.7600 H     1 <1>   0.0800 
 58 H       -4.5030    -6.0500     0.8740 H     1 <1>   0.0800 
 59 H        1.2970    -6.3090     1.4270 H     1 <1>   0.0800 
 60 H        0.1680    -6.1070     0.0880 H     1 <1>   0.0800 
 61 H       -0.3850    -6.7780     1.6310 H     1 <1>   0.0800 
@<TRIPOS>BOND
  1   1   2  2   
  2   2   3  am  
  3   2   4  1   
  4   3   5  1   
  5   3   6  1   
  6   4   7  ar  
  7   4   8  ar  
  8   5   9  2   
  9   5  10  1   
 10   6  11  1   
 11   6  31  1   
 12   6  32  1   
 13   7  12  ar  
 14   7  33  1   
 15   8  13  ar  
 16   8  34  1   
 17   9  14  1   
 18   9  35  1   
 19  10  15  1   
 20  10  36  1   
 21  10  37  1   
 22  11  16  1   
 23  11  38  1   
 24  11  39  1   
 25  12  17  ar  
 26  12  40  1   
 27  13  17  ar  
 28  13  41  1   
 29  14  18  1   
 30  14  19  1   
 31  14  42  1   
 32  15  18  1   
 33  15  20  1   
 34  15  43  1   
 35  16  21  ar  
 36  16  22  ar  
 37  17  44  1   
 38  18  23  1   
 39  18  45  1   
 40  19  20  1   
 41  19  46  1   
 42  19  47  1   
 43  20  48  1   
 44  20  49  1   
 45  21  24  ar  
 46  21  50  1   
 47  22  25  ar  
 48  22  51  1   
 49  23  52  1   
 50  23  53  1   
 51  23  54  1   
 52  24  26  1   
 53  24  27  ar  
 54  25  27  ar  
 55  25  55  1   
 56  26  28  1   
 57  27  29  1   
 58  28  56  1   
 59  28  57  1   
 60  28  58  1   
 61  29  30  1   
 62  30  59  1   
 63  30  60  1   
 64  30  61  1   
@<TRIPOS>SUBSTRUCTURE
  1 ****   6 GROUP 4 **** **** 0

# MOE 2024.06 (io_trps.svl 2023.06)
