@<TRIPOS>MOLECULE
NONAME
37 39 1 0 0 
SMALL
USER_CHARGES


@<TRIPOS>ATOM
  1 S        0.3230    -0.2630    -0.2970 S.3   1 <1>  -0.3320 
  2 C        1.9510     0.4700    -0.1830 C.ar  1 <1>   0.7220 
  3 C       -0.8590     1.1190     0.0550 C.3   1 <1>   0.0700 
  4 N        1.9990     1.7920     0.1140 N.ar  1 <1>  -0.3100 
  5 N        2.9520    -0.3470    -0.3990 N.ar  1 <1>  -0.5670 
  6 C       -2.2770     0.5650    -0.0250 C.3   1 <1>  -0.2660 
  7 N        3.1500     2.3940     0.2140 N.ar  1 <1>  -0.2560 
  8 C        4.1230     0.2840    -0.2930 C.ar  1 <1>   0.1050 
  9 C       -3.2580     1.6670     0.2560 C.2   1 <1>   0.9060 
 10 C        4.2280     1.6300     0.0080 C.ar  1 <1>   0.2560 
 11 N        5.3790    -0.2440    -0.4500 N.pl3 1 <1>   0.0480 
 12 O       -3.6650     2.3450    -0.6890 O.co2 1 <1>  -0.9000 
 13 O       -3.5980     1.8650     1.4250 O.co2 1 <1>  -0.9000 
 14 C        5.6120     1.9460     0.0370 C.ar  1 <1>   0.0000 
 15 C        6.3000     0.7700    -0.2480 C.ar  1 <1>  -0.1520 
 16 C        5.6830    -1.6550    -0.7690 C.3   1 <1>   0.0960 
 17 C        6.3200     3.1240     0.2830 C.ar  1 <1>  -0.1500 
 18 C        7.6950     0.7560    -0.2890 C.ar  1 <1>  -0.1500 
 19 C        5.9850    -2.4420     0.5130 C.3   1 <1>  -0.1600 
 20 C        7.6970     3.1080     0.2400 C.ar  1 <1>  -0.1500 
 21 C        8.3830     1.9250    -0.0450 C.ar  1 <1>  -0.1500 
 22 C        6.3170    -3.9050     0.2020 C.3   1 <1>  -0.2400 
 23 H       -0.7010     1.8880    -0.6820 H     1 <1>   0.0800 
 24 H       -0.6450     1.4980     1.0390 H     1 <1>   0.0800 
 25 H       -2.4190    -0.2100     0.7020 H     1 <1>   0.0800 
 26 H       -2.4740     0.1770    -1.0060 H     1 <1>   0.0800 
 27 H        6.5260    -1.6850    -1.4340 H     1 <1>   0.0800 
 28 H        4.8360    -2.0860    -1.2730 H     1 <1>   0.0800 
 29 H        5.7770     4.0270     0.5020 H     1 <1>   0.1500 
 30 H        8.2250    -0.1540    -0.5080 H     1 <1>   0.1500 
 31 H        5.1250    -2.4060     1.1610 H     1 <1>   0.0800 
 32 H        6.8180    -1.9920     1.0260 H     1 <1>   0.0800 
 33 H        8.2550     4.0090     0.4270 H     1 <1>   0.1500 
 34 H        9.4590     1.9360    -0.0730 H     1 <1>   0.1500 
 35 H        5.4880    -4.3830    -0.2910 H     1 <1>   0.0800 
 36 H        6.5200    -4.4370     1.1150 H     1 <1>   0.0800 
 37 H        7.1840    -3.9710    -0.4310 H     1 <1>   0.0800 
@<TRIPOS>BOND
  1   1   2  1   
  2   1   3  1   
  3   2   4  ar  
  4   2   5  ar  
  5   3   6  1   
  6   3  23  1   
  7   3  24  1   
  8   4   7  ar  
  9   5   8  ar  
 10   6   9  1   
 11   6  25  1   
 12   6  26  1   
 13   7  10  ar  
 14   8  10  ar  
 15   8  11  1   
 16   9  12  ar  
 17   9  13  ar  
 18  10  14  1   
 19  11  15  1   
 20  11  16  1   
 21  14  15  ar  
 22  14  17  ar  
 23  15  18  ar  
 24  16  19  1   
 25  16  27  1   
 26  16  28  1   
 27  17  20  ar  
 28  17  29  1   
 29  18  21  ar  
 30  18  30  1   
 31  19  22  1   
 32  19  31  1   
 33  19  32  1   
 34  20  21  ar  
 35  20  33  1   
 36  21  34  1   
 37  22  35  1   
 38  22  36  1   
 39  22  37  1   
@<TRIPOS>SUBSTRUCTURE
  1 ****   8 GROUP 4 **** **** 0

# MOE 2024.06 (io_trps.svl 2023.06)
