@<TRIPOS>MOLECULE
NONAME
37 38 1 0 0 
SMALL
USER_CHARGES


@<TRIPOS>ATOM
  1 O        0.0630    -2.2150    -0.3530 O.2   1 <1>  -0.5700 
  2 C       -1.0160    -2.6210    -0.7130 C.2   1 <1>   0.6590 
  3 O       -1.6260    -3.6410    -0.1250 O.3   1 <1>  -0.4300 
  4 C       -1.7600    -1.9550    -1.8770 C.3   1 <1>   0.3900 
  5 C       -1.0480    -4.3380     0.9630 C.3   1 <1>   0.0400 
  6 N       -2.4500    -0.6520    -1.5560 N.pl3 1 <1>  -0.7940 
  7 C       -2.0030     0.4250    -0.9240 C.cat 1 <1>   0.7310 
  8 N       -0.7940     0.4250    -0.3970 N.pl3 1 <1>  -0.7940 
  9 C       -2.8370     1.6070    -0.7940 C.ar  1 <1>  -0.0220 
 10 C       -0.2080     1.5320     0.3610 C.3   1 <1>   0.4900 
 11 C       -2.5300     2.5560     0.1880 C.ar  1 <1>  -0.1430 
 12 C       -3.9370     1.8650    -1.6190 C.ar  1 <1>  -0.1500 
 13 C       -1.3260     2.3090     1.0910 C.3   1 <1>  -0.0170 
 14 C        0.7750     0.9260     1.3610 C.3   1 <1>  -0.2400 
 15 C        0.5390     2.4220    -0.6330 C.3   1 <1>  -0.2400 
 16 C       -3.2990     3.6950     0.3480 C.ar  1 <1>  -0.1500 
 17 C       -4.7040     3.0040    -1.4580 C.ar  1 <1>  -0.1500 
 18 C       -4.3870     3.9190    -0.4730 C.ar  1 <1>  -0.1500 
 19 H       -2.4910    -2.6550    -2.2420 H     1 <1>   0.0800 
 20 H       -1.0530    -1.7850    -2.6690 H     1 <1>   0.0800 
 21 H       -0.8960    -3.6520     1.7790 H     1 <1>   0.0800 
 22 H       -0.1070    -4.7580     0.6520 H     1 <1>   0.0800 
 23 H       -1.7200    -5.1230     1.2630 H     1 <1>   0.0800 
 24 H       -3.4130    -0.6160    -1.8980 H     1 <1>   0.4500 
 25 H       -0.1820    -0.4000    -0.4290 H     1 <1>   0.4500 
 26 H       -4.2090     1.1880    -2.4080 H     1 <1>   0.1500 
 27 H       -0.9340     3.2420     1.4560 H     1 <1>   0.0800 
 28 H       -1.6560     1.7450     1.9460 H     1 <1>   0.0800 
 29 H        0.2710     0.2520     2.0310 H     1 <1>   0.0800 
 30 H        1.2310     1.7040     1.9470 H     1 <1>   0.0800 
 31 H        1.5570     0.3910     0.8520 H     1 <1>   0.0800 
 32 H        1.0200     3.2320    -0.1150 H     1 <1>   0.0800 
 33 H       -0.1390     2.8450    -1.3520 H     1 <1>   0.0800 
 34 H        1.2950     1.8620    -1.1520 H     1 <1>   0.0800 
 35 H       -3.0600     4.4170     1.1120 H     1 <1>   0.1500 
 36 H       -5.5490     3.1860    -2.1000 H     1 <1>   0.1500 
 37 H       -4.9860     4.8060    -0.3460 H     1 <1>   0.1500 
@<TRIPOS>BOND
  1   1   2  2   
  2   2   3  1   
  3   2   4  1   
  4   3   5  1   
  5   4   6  1   
  6   4  19  1   
  7   4  20  1   
  8   5  21  1   
  9   5  22  1   
 10   5  23  1   
 11   6   7  ar  
 12   6  24  1   
 13   7   8  ar  
 14   7   9  1   
 15   8  10  1   
 16   8  25  1   
 17   9  11  ar  
 18   9  12  ar  
 19  10  13  1   
 20  10  14  1   
 21  10  15  1   
 22  11  13  1   
 23  11  16  ar  
 24  12  17  ar  
 25  12  26  1   
 26  13  27  1   
 27  13  28  1   
 28  14  29  1   
 29  14  30  1   
 30  14  31  1   
 31  15  32  1   
 32  15  33  1   
 33  15  34  1   
 34  16  18  ar  
 35  16  35  1   
 36  17  18  ar  
 37  17  36  1   
 38  18  37  1   
@<TRIPOS>SUBSTRUCTURE
  1 ****   7 GROUP 4 **** **** 0

# MOE 2024.06 (io_trps.svl 2023.06)
