@<TRIPOS>MOLECULE
NONAME
43 45 1 0 0 
SMALL
USER_CHARGES


@<TRIPOS>ATOM
  1 CL       0.4490     0.8500     1.9560 Cl    1 <1>  -0.1770 
  2 C       -1.0250     1.4280     1.1910 C.ar  1 <1>   0.1770 
  3 C       -2.1510     0.6480     1.2600 C.ar  1 <1>   0.0820 
  4 C       -1.0170     2.6640     0.5100 C.ar  1 <1>   0.1000 
  5 O       -2.1130    -0.5390     1.9150 O.3   1 <1>  -0.2330 
  6 C       -3.3670     1.0540     0.6610 C.ar  1 <1>   0.0000 
  7 N        0.1270     3.4830     0.4250 N.pl3 1 <1>  -0.8380 
  8 C       -2.1990     3.0480    -0.0970 C.ar  1 <1>   0.0830 
  9 C       -1.9160    -1.7090     1.3120 C.2   1 <1>   0.6590 
 10 C       -3.3810     2.2750    -0.0530 C.ar  1 <1>   0.0000 
 11 C       -4.5610     0.3030     0.7380 C.ar  1 <1>  -0.1500 
 12 C        1.1900     3.0600    -0.5370 C.3   1 <1>   0.2090 
 13 C        0.6520     4.0950     1.6900 C.3   1 <1>   0.2090 
 14 O       -2.2340     4.2250    -0.7660 O.3   1 <1>  -0.2330 
 15 O       -2.1200    -2.7370     1.8980 O.2   1 <1>  -0.5700 
 16 C       -1.4340    -1.7310    -0.1250 C.3   1 <1>  -0.1790 
 17 C       -4.5820     2.6650    -0.6900 C.ar  1 <1>  -0.1500 
 18 C       -5.7070     0.7140     0.1180 C.ar  1 <1>  -0.1500 
 19 C        2.3630     4.0630    -0.5680 C.3   1 <1>   0.1200 
 20 C        2.1790     3.9390     1.8250 C.3   1 <1>   0.1200 
 21 C       -2.1960     5.3880    -1.3800 C.2   1 <1>   0.6590 
 22 C       -5.7160     1.9070    -0.6090 C.ar  1 <1>  -0.1500 
 23 O        2.8500     4.4410     0.7000 O.3   1 <1>  -0.5600 
 24 O       -2.9320     5.6380    -2.2960 O.2   1 <1>  -0.5700 
 25 C       -1.1900     6.3880    -0.8670 C.3   1 <1>  -0.1790 
 26 H       -4.5690    -0.6140     1.3020 H     1 <1>   0.1500 
 27 H        0.7640     2.9810    -1.5230 H     1 <1>   0.0800 
 28 H        1.5650     2.0890    -0.2630 H     1 <1>   0.0800 
 29 H        0.1730     3.6470     2.5430 H     1 <1>   0.0800 
 30 H        0.4110     5.1430     1.6950 H     1 <1>   0.0800 
 31 H       -2.1690    -1.2860    -0.7690 H     1 <1>   0.0800 
 32 H       -1.2770    -2.7490    -0.4330 H     1 <1>   0.0800 
 33 H       -0.5060    -1.1990    -0.2090 H     1 <1>   0.0800 
 34 H       -4.5990     3.5830    -1.2520 H     1 <1>   0.1500 
 35 H       -6.6110     0.1320     0.1800 H     1 <1>   0.1500 
 36 H        2.0460     4.9610    -1.0650 H     1 <1>   0.0800 
 37 H        3.1860     3.6470    -1.1210 H     1 <1>   0.0800 
 38 H        2.4410     2.9030     1.9420 H     1 <1>   0.0800 
 39 H        2.5330     4.4800     2.6840 H     1 <1>   0.0800 
 40 H       -6.6230     2.2180    -1.0980 H     1 <1>   0.1500 
 41 H       -1.3730     6.5790     0.1730 H     1 <1>   0.0800 
 42 H       -1.2760     7.3060    -1.4180 H     1 <1>   0.0800 
 43 H       -0.2000     5.9930    -0.9860 H     1 <1>   0.0800 
@<TRIPOS>BOND
  1   1   2  1   
  2   2   3  ar  
  3   2   4  ar  
  4   3   5  1   
  5   3   6  ar  
  6   4   7  1   
  7   4   8  ar  
  8   5   9  1   
  9   6  10  ar  
 10   6  11  ar  
 11   7  12  1   
 12   7  13  1   
 13   8  10  ar  
 14   8  14  1   
 15   9  15  2   
 16   9  16  1   
 17  10  17  ar  
 18  11  18  ar  
 19  11  26  1   
 20  12  19  1   
 21  12  27  1   
 22  12  28  1   
 23  13  20  1   
 24  13  29  1   
 25  13  30  1   
 26  14  21  1   
 27  16  31  1   
 28  16  32  1   
 29  16  33  1   
 30  17  22  ar  
 31  17  34  1   
 32  18  22  ar  
 33  18  35  1   
 34  19  23  1   
 35  19  36  1   
 36  19  37  1   
 37  20  23  1   
 38  20  38  1   
 39  20  39  1   
 40  21  24  2   
 41  21  25  1   
 42  22  40  1   
 43  25  41  1   
 44  25  42  1   
 45  25  43  1   
@<TRIPOS>SUBSTRUCTURE
  1 ****   4 GROUP 4 **** **** 0

# MOE 2024.06 (io_trps.svl 2023.06)
