@<TRIPOS>MOLECULE
NONAME
34 35 1 0 0 
SMALL
USER_CHARGES


@<TRIPOS>ATOM
  1 O       -0.2500    -0.3170     0.0710 O.2   1 <1>  -0.5700 
  2 C       -1.2660    -0.9900     0.0430 C.2   1 <1>   0.5440 
  3 N       -2.4210    -0.2600     0.0550 N.am  1 <1>  -0.8000 
  4 C       -1.2630    -2.4710     0.0020 C.ar  1 <1>   0.7060 
  5 N       -0.1160    -3.1110    -0.0950 N.ar  1 <1>  -0.6200 
  6 N       -2.4320    -3.0810     0.0620 N.ar  1 <1>  -0.6200 
  7 C       -0.1910    -4.4150    -0.1320 C.ar  1 <1>   0.7200 
  8 C       -2.3860    -4.3880     0.0130 C.ar  1 <1>   0.7200 
  9 N       -1.2990    -5.0990    -0.0850 N.ar  1 <1>  -0.6200 
 10 N        0.9920    -5.1120    -0.2320 N.pl3 1 <1>  -0.8380 
 11 N       -3.5860    -5.0610     0.0670 N.pl3 1 <1>  -0.8380 
 12 C        1.0710    -6.6080    -0.2380 C.3   1 <1>   0.2090 
 13 C        2.3290    -4.4580    -0.4080 C.3   1 <1>   0.2090 
 14 C       -4.8420    -4.4350     0.5700 C.3   1 <1>   0.1290 
 15 C       -3.7120    -6.4910    -0.3370 C.3   1 <1>   0.1290 
 16 C        2.1940    -7.1010     0.6930 C.3   1 <1>   0.1200 
 17 C        3.3750    -5.0850     0.5320 C.3   1 <1>   0.1200 
 18 O        3.4130    -6.4790     0.3910 O.3   1 <1>  -0.5600 
 19 H       -2.3770     0.7590     0.0780 H     1 <1>   0.3700 
 20 H       -3.3410    -0.7020     0.0270 H     1 <1>   0.3700 
 21 H        1.2690    -6.9450    -1.2400 H     1 <1>   0.0800 
 22 H        0.1450    -7.0500     0.0820 H     1 <1>   0.0800 
 23 H        2.2830    -3.4020    -0.2100 H     1 <1>   0.0800 
 24 H        2.6510    -4.5860    -1.4270 H     1 <1>   0.0800 
 25 H       -4.6230    -3.5990     1.2110 H     1 <1>   0.0800 
 26 H       -5.4100    -5.1520     1.1360 H     1 <1>   0.0800 
 27 H       -5.4320    -4.0930    -0.2630 H     1 <1>   0.0800 
 28 H       -2.9460    -6.7550    -1.0450 H     1 <1>   0.0800 
 29 H       -4.6690    -6.6610    -0.7980 H     1 <1>   0.0800 
 30 H       -3.6180    -7.1200     0.5300 H     1 <1>   0.0800 
 31 H        2.3290    -8.1610     0.5780 H     1 <1>   0.0800 
 32 H        1.9450    -6.8930     1.7190 H     1 <1>   0.0800 
 33 H        3.1450    -4.8470     1.5550 H     1 <1>   0.0800 
 34 H        4.3540    -4.7050     0.3000 H     1 <1>   0.0800 
@<TRIPOS>BOND
  1   1   2  2   
  2   2   3  am  
  3   2   4  1   
  4   3  19  1   
  5   3  20  1   
  6   4   5  ar  
  7   4   6  ar  
  8   5   7  ar  
  9   6   8  ar  
 10   7   9  ar  
 11   7  10  1   
 12   8   9  ar  
 13   8  11  1   
 14  10  12  1   
 15  10  13  1   
 16  11  14  1   
 17  11  15  1   
 18  12  16  1   
 19  12  21  1   
 20  12  22  1   
 21  13  17  1   
 22  13  23  1   
 23  13  24  1   
 24  14  25  1   
 25  14  26  1   
 26  14  27  1   
 27  15  28  1   
 28  15  29  1   
 29  15  30  1   
 30  16  18  1   
 31  16  31  1   
 32  16  32  1   
 33  17  18  1   
 34  17  33  1   
 35  17  34  1   
@<TRIPOS>SUBSTRUCTURE
  1 ****   7 GROUP 4 **** **** 0

# MOE 2024.06 (io_trps.svl 2023.06)
