@<TRIPOS>MOLECULE
NONAME
56 57 1 0 0 
SMALL
USER_CHARGES


@<TRIPOS>ATOM
  1 S       -0.3040    -0.5600    -2.0250 S.o2  1 <1>   1.4470 
  2 O        0.0100    -1.1220    -3.3190 O.2   1 <1>  -0.6500 
  3 O       -0.1390     0.8550    -1.7860 O.2   1 <1>  -0.6500 
  4 N        0.7380    -1.3430    -0.9350 N.am  1 <1>  -0.8490 
  5 C       -1.9400    -1.1100    -1.4590 C.ar  1 <1>  -0.0090 
  6 C        0.8860    -2.7900    -1.1990 C.3   1 <1>   0.1960 
  7 C        2.0620    -0.6960    -0.8420 C.3   1 <1>   0.1960 
  8 C       -2.1380    -1.4900    -0.1420 C.ar  1 <1>  -0.1500 
  9 C       -3.0320    -1.1770    -2.3130 C.ar  1 <1>  -0.1500 
 10 C        1.6810    -3.5000    -0.0730 C.3   1 <1>   0.3430 
 11 C        2.9930    -1.4090     0.1740 C.3   1 <1>   0.3430 
 12 C       -3.3420    -1.9920     0.3500 C.ar  1 <1>   0.0860 
 13 C       -4.2590    -1.6270    -1.8620 C.ar  1 <1>  -0.1500 
 14 N        2.2820    -2.5230     0.9040 N.4   1 <1>  -0.9590 
 15 C       -4.4280    -2.0400    -0.5400 C.ar  1 <1>   0.0830 
 16 C       -3.3700    -2.4520     1.7300 C.2   1 <1>   0.5440 
 17 C        3.0870    -3.1930     1.9550 C.3   1 <1>   0.3430 
 18 O       -5.6220    -2.4980    -0.0890 O.3   1 <1>  -0.3630 
 19 O       -2.3420    -2.7620     2.3010 O.2   1 <1>  -0.5700 
 20 N       -4.5050    -2.5620     2.4520 N.am  1 <1>  -0.8000 
 21 C        3.3020    -2.2350     3.1200 C.3   1 <1>  -0.2400 
 22 C       -6.7720    -2.5960    -0.9030 C.3   1 <1>   0.1200 
 23 C       -7.9180    -3.1370    -0.0450 C.3   1 <1>  -0.1600 
 24 C       -9.2610    -3.1800    -0.7950 C.3   1 <1>  -0.0800 
 25 C      -10.3780    -3.6040     0.1660 C.3   1 <1>  -0.2400 
 26 C       -9.2250    -4.1440    -1.9900 C.3   1 <1>  -0.2400 
 27 H        1.3900    -2.9410    -2.1400 H     1 <1>   0.0800 
 28 H       -0.0840    -3.2520    -1.2800 H     1 <1>   0.0800 
 29 H        1.9400     0.3280    -0.5290 H     1 <1>   0.0800 
 30 H        2.5320    -0.6780    -1.8120 H     1 <1>   0.0800 
 31 H       -1.3190    -1.4030     0.5490 H     1 <1>   0.1500 
 32 H       -2.9190    -0.8750    -3.3420 H     1 <1>   0.1500 
 33 H        2.4550    -4.1020    -0.5190 H     1 <1>   0.0800 
 34 H        1.0140    -4.1660     0.4520 H     1 <1>   0.0800 
 35 H        3.3560    -0.6780     0.8770 H     1 <1>   0.0800 
 36 H        3.8460    -1.8040    -0.3520 H     1 <1>   0.0800 
 37 H       -5.0720    -1.6530    -2.5630 H     1 <1>   0.1500 
 38 H        1.4690    -2.0720     1.3540 H     1 <1>   0.4500 
 39 H        4.0350    -3.5150     1.5550 H     1 <1>   0.0800 
 40 H        2.5580    -4.0620     2.3150 H     1 <1>   0.0800 
 41 H       -4.4780    -2.9480     3.3950 H     1 <1>   0.3700 
 42 H       -5.4200    -2.4850     2.0000 H     1 <1>   0.3700 
 43 H        3.9070    -1.3940     2.8330 H     1 <1>   0.0800 
 44 H        3.8180    -2.7530     3.9090 H     1 <1>   0.0800 
 45 H        2.3610    -1.8910     3.5110 H     1 <1>   0.0800 
 46 H       -6.5510    -3.2650    -1.7170 H     1 <1>   0.0800 
 47 H       -7.0100    -1.6150    -1.2760 H     1 <1>   0.0800 
 48 H       -8.0260    -2.4990     0.8150 H     1 <1>   0.0800 
 49 H       -7.6660    -4.1270     0.2970 H     1 <1>   0.0800 
 50 H       -9.4910    -2.1910    -1.1580 H     1 <1>   0.0800 
 51 H      -10.1920    -4.5910     0.5520 H     1 <1>   0.0800 
 52 H      -11.3270    -3.6070    -0.3400 H     1 <1>   0.0800 
 53 H      -10.4410    -2.9180     0.9930 H     1 <1>   0.0800 
 54 H       -8.9480    -5.1330    -1.6710 H     1 <1>   0.0800 
 55 H       -8.5260    -3.8120    -2.7350 H     1 <1>   0.0800 
 56 H      -10.1950    -4.1960    -2.4530 H     1 <1>   0.0800 
@<TRIPOS>BOND
  1   1   2  2   
  2   1   3  2   
  3   1   4  am  
  4   1   5  1   
  5   4   6  1   
  6   4   7  1   
  7   5   8  ar  
  8   5   9  ar  
  9   6  10  1   
 10   6  27  1   
 11   6  28  1   
 12   7  11  1   
 13   7  29  1   
 14   7  30  1   
 15   8  12  ar  
 16   8  31  1   
 17   9  13  ar  
 18   9  32  1   
 19  10  14  1   
 20  10  33  1   
 21  10  34  1   
 22  11  14  1   
 23  11  35  1   
 24  11  36  1   
 25  12  15  ar  
 26  12  16  1   
 27  13  15  ar  
 28  13  37  1   
 29  14  17  1   
 30  14  38  1   
 31  15  18  1   
 32  16  19  2   
 33  16  20  am  
 34  17  21  1   
 35  17  39  1   
 36  17  40  1   
 37  18  22  1   
 38  20  41  1   
 39  20  42  1   
 40  21  43  1   
 41  21  44  1   
 42  21  45  1   
 43  22  23  1   
 44  22  46  1   
 45  22  47  1   
 46  23  24  1   
 47  23  48  1   
 48  23  49  1   
 49  24  25  1   
 50  24  26  1   
 51  24  50  1   
 52  25  51  1   
 53  25  52  1   
 54  25  53  1   
 55  26  54  1   
 56  26  55  1   
 57  26  56  1   
@<TRIPOS>SUBSTRUCTURE
  1 ****   8 GROUP 4 **** **** 0

# MOE 2024.06 (io_trps.svl 2023.06)
