@<TRIPOS>MOLECULE
NONAME
41 41 1 0 0 
SMALL
USER_CHARGES


@<TRIPOS>ATOM
  1 O       -0.7430     8.2860     0.0140 O.3   1 <1>  -0.3630 
  2 C        0.4530     7.6940     0.2630 C.ar  1 <1>   0.0830 
  3 C       -1.9460     7.5680     0.1050 C.3   1 <1>   0.1200 
  4 C        1.5770     8.4920     0.1380 C.ar  1 <1>  -0.1500 
  5 C        0.5960     6.3580     0.6270 C.ar  1 <1>  -0.1500 
  6 C       -3.0700     8.5450    -0.2420 C.3   1 <1>   0.3430 
  7 C        2.8440     7.9810     0.3700 C.ar  1 <1>  -0.1440 
  8 C        1.8550     5.8350     0.8640 C.ar  1 <1>  -0.1440 
  9 N       -4.4110     7.8910    -0.1860 N.4   1 <1>  -0.9060 
 10 C        2.9700     6.6470     0.7320 C.ar  1 <1>  -0.1500 
 11 C        4.0680     8.8830     0.2240 C.3   1 <1>   0.0630 
 12 C        2.0290     4.3790     1.2600 C.3   1 <1>  -0.0970 
 13 C       -5.5070     8.8210    -0.4960 C.3   1 <1>   0.4810 
 14 C        4.9990     8.3670    -0.8770 C.3   1 <1>  -0.2400 
 15 C        4.8160     9.0090     1.5550 C.3   1 <1>  -0.2400 
 16 C       -6.7750     8.0370    -0.2800 C.2   1 <1>  -0.2880 
 17 C       -7.6240     8.2090     0.7390 C.2   1 <1>  -0.3000 
 18 H       -2.0410     7.2050     1.1130 H     1 <1>   0.0800 
 19 H       -1.9020     6.7560    -0.6000 H     1 <1>   0.0800 
 20 H        1.4520     9.5220    -0.1440 H     1 <1>   0.1500 
 21 H       -0.2520     5.7110     0.7320 H     1 <1>   0.1500 
 22 H       -2.8950     8.9310    -1.2340 H     1 <1>   0.0800 
 23 H       -3.0370     9.3660     0.4560 H     1 <1>   0.0800 
 24 H       -4.6000     7.5150     0.7510 H     1 <1>   0.4500 
 25 H       -4.4660     7.1010    -0.8390 H     1 <1>   0.4500 
 26 H        3.9460     6.2360     0.9140 H     1 <1>   0.1500 
 27 H        3.7390     9.8680    -0.0610 H     1 <1>   0.0800 
 28 H        1.1240     3.9870     1.6860 H     1 <1>   0.0800 
 29 H        2.8140     4.2850     1.9900 H     1 <1>   0.0800 
 30 H        2.2890     3.7960     0.3960 H     1 <1>   0.0800 
 31 H       -5.4450     9.1770    -1.5130 H     1 <1>   0.0800 
 32 H       -5.4800     9.6660     0.1750 H     1 <1>   0.0800 
 33 H        5.4000     7.4030    -0.6210 H     1 <1>   0.0800 
 34 H        5.8160     9.0500    -1.0250 H     1 <1>   0.0800 
 35 H        4.4560     8.2770    -1.8010 H     1 <1>   0.0800 
 36 H        5.2120     8.0590     1.8640 H     1 <1>   0.0800 
 37 H        4.1450     9.3640     2.3170 H     1 <1>   0.0800 
 38 H        5.6280     9.7070     1.4610 H     1 <1>   0.0800 
 39 H       -6.9530     7.3030    -1.0490 H     1 <1>   0.1500 
 40 H       -8.5300     7.6360     0.8660 H     1 <1>   0.1500 
 41 H       -7.5080     8.9290     1.5330 H     1 <1>   0.1500 
@<TRIPOS>BOND
  1   1   2  1   
  2   1   3  1   
  3   2   4  ar  
  4   2   5  ar  
  5   3   6  1   
  6   3  18  1   
  7   3  19  1   
  8   4   7  ar  
  9   4  20  1   
 10   5   8  ar  
 11   5  21  1   
 12   6   9  1   
 13   6  22  1   
 14   6  23  1   
 15   7  10  ar  
 16   7  11  1   
 17   8  10  ar  
 18   8  12  1   
 19   9  13  1   
 20   9  24  1   
 21   9  25  1   
 22  10  26  1   
 23  11  14  1   
 24  11  15  1   
 25  11  27  1   
 26  12  28  1   
 27  12  29  1   
 28  12  30  1   
 29  13  16  1   
 30  13  31  1   
 31  13  32  1   
 32  14  33  1   
 33  14  34  1   
 34  14  35  1   
 35  15  36  1   
 36  15  37  1   
 37  15  38  1   
 38  16  17  2   
 39  16  39  1   
 40  17  40  1   
 41  17  41  1   
@<TRIPOS>SUBSTRUCTURE
  1 ****   2 GROUP 4 **** **** 0

# MOE 2024.06 (io_trps.svl 2023.06)
