@<TRIPOS>MOLECULE
NONAME
37 38 1 0 0 
SMALL
USER_CHARGES


@<TRIPOS>ATOM
  1 S       -1.7130     0.9580     1.7200 S.3   1 <1>  -0.0800 
  2 C       -1.8400     0.8830    -0.0330 C.2   1 <1>  -0.1400 
  3 C       -0.2300     1.8890     1.6160 C.2   1 <1>  -0.1100 
  4 C       -0.8080     1.5290    -0.6090 C.2   1 <1>  -0.1500 
  5 C       -3.0320     0.1440    -0.6010 C.3   1 <1>   0.5230 
  6 C        0.1070     2.1020     0.3310 C.2   1 <1>  -0.1500 
  7 N       -4.2700     0.8100    -0.1170 N.4   1 <1>  -0.9590 
  8 C       -5.4820    -0.0170    -0.4150 C.3   1 <1>   0.3430 
  9 C       -4.3810     2.2020    -0.6460 C.3   1 <1>   0.3430 
 10 C       -6.7530     0.6250     0.1550 C.3   1 <1>  -0.0190 
 11 C       -5.6160     2.8820    -0.0500 C.3   1 <1>  -0.1600 
 12 C       -7.9450    -0.2210    -0.2530 C.2   1 <1>   0.6590 
 13 C       -6.8990     2.0830    -0.3230 C.3   1 <1>  -0.1600 
 14 O       -7.8420    -1.0830    -1.0870 O.2   1 <1>  -0.5700 
 15 O       -9.0850     0.0480     0.3630 O.3   1 <1>  -0.4300 
 16 C      -10.2680    -0.6610     0.0710 C.3   1 <1>   0.1200 
 17 C      -11.3830    -0.0980     0.9460 C.3   1 <1>  -0.2400 
 18 H        0.2420     2.1810     2.5390 H     1 <1>   0.1500 
 19 H       -0.6300     1.6380    -1.6660 H     1 <1>   0.1500 
 20 H       -3.0040    -0.8800    -0.2630 H     1 <1>   0.0800 
 21 H       -2.9950     0.1530    -1.6780 H     1 <1>   0.0800 
 22 H        0.9760     2.6450    -0.0010 H     1 <1>   0.1500 
 23 H       -4.1580     0.8870     0.9030 H     1 <1>   0.4500 
 24 H       -5.3710    -1.0060     0.0020 H     1 <1>   0.0800 
 25 H       -5.5970    -0.1210    -1.4820 H     1 <1>   0.0800 
 26 H       -4.4680     2.1800    -1.7210 H     1 <1>   0.0800 
 27 H       -3.5010     2.7700    -0.3880 H     1 <1>   0.0800 
 28 H       -6.6980     0.6030     1.2280 H     1 <1>   0.0800 
 29 H       -5.7130     3.8650    -0.4770 H     1 <1>   0.0800 
 30 H       -5.4770     3.0080     1.0100 H     1 <1>   0.0800 
 31 H       -7.7310     2.5500     0.1790 H     1 <1>   0.0800 
 32 H       -7.1090     2.0950    -1.3810 H     1 <1>   0.0800 
 33 H      -10.1040    -1.7050     0.2800 H     1 <1>   0.0800 
 34 H      -10.4960    -0.5330    -0.9740 H     1 <1>   0.0800 
 35 H      -11.1410    -0.2240     1.9860 H     1 <1>   0.0800 
 36 H      -12.3000    -0.6210     0.7440 H     1 <1>   0.0800 
 37 H      -11.5330     0.9460     0.7340 H     1 <1>   0.0800 
@<TRIPOS>BOND
  1   1   2  1   
  2   1   3  1   
  3   2   4  2   
  4   2   5  1   
  5   3   6  2   
  6   3  18  1   
  7   4   6  1   
  8   4  19  1   
  9   5   7  1   
 10   5  20  1   
 11   5  21  1   
 12   6  22  1   
 13   7   8  1   
 14   7   9  1   
 15   7  23  1   
 16   8  10  1   
 17   8  24  1   
 18   8  25  1   
 19   9  11  1   
 20   9  26  1   
 21   9  27  1   
 22  10  12  1   
 23  10  13  1   
 24  10  28  1   
 25  11  13  1   
 26  11  29  1   
 27  11  30  1   
 28  12  14  2   
 29  12  15  1   
 30  13  31  1   
 31  13  32  1   
 32  15  16  1   
 33  16  17  1   
 34  16  33  1   
 35  16  34  1   
 36  17  35  1   
 37  17  36  1   
 38  17  37  1   
@<TRIPOS>SUBSTRUCTURE
  1 ****   7 GROUP 4 **** **** 0

# MOE 2024.06 (io_trps.svl 2023.06)
