@<TRIPOS>MOLECULE
NONAME
49 50 1 0 0 
SMALL
USER_CHARGES


@<TRIPOS>ATOM
  1 O       -2.7670    -8.2210    -0.6790 O.3   1 <1>  -0.3630 
  2 C       -4.1150    -8.1010    -0.5350 C.ar  1 <1>   0.0830 
  3 C       -2.0950    -9.3880    -0.2800 C.3   1 <1>   0.1200 
  4 C       -4.6620    -6.8210    -0.5840 C.ar  1 <1>  -0.1440 
  5 C       -4.9470    -9.2010    -0.3390 C.ar  1 <1>  -0.1500 
  6 C       -0.5990    -9.0820    -0.3350 C.3   1 <1>  -0.1600 
  7 C       -6.0290    -6.6600    -0.4220 C.ar  1 <1>  -0.1500 
  8 C       -3.7900    -5.5910    -0.8080 C.3   1 <1>   0.1220 
  9 C       -6.3100    -9.0280    -0.1830 C.ar  1 <1>  -0.1500 
 10 C        0.2180   -10.2960     0.1000 C.3   1 <1>   0.3430 
 11 C       -6.8590    -7.7510    -0.2210 C.ar  1 <1>   0.0830 
 12 C       -3.1950    -5.1140     0.5070 C.2   1 <1>  -0.2880 
 13 N        1.6650    -9.9510     0.1690 N.4   1 <1>  -0.9590 
 14 O       -8.1850    -7.4910    -0.0750 O.3   1 <1>  -0.3630 
 15 C       -3.3440    -3.8920     1.0260 C.2   1 <1>  -0.3000 
 16 C        2.2680    -9.7340    -1.1830 C.3   1 <1>   0.3430 
 17 C        2.4160   -10.9880     0.9370 C.3   1 <1>   0.3430 
 18 C       -9.1100    -8.5300     0.1520 C.3   1 <1>   0.0400 
 19 C        3.7150    -9.2600    -1.0330 C.3   1 <1>  -0.1600 
 20 C        3.8650   -10.5400     1.1330 C.3   1 <1>  -0.1600 
 21 C        4.5530   -10.2420    -0.2050 C.3   1 <1>  -0.1600 
 22 H       -2.3610   -10.1780    -0.9610 H     1 <1>   0.0800 
 23 H       -2.4080    -9.6310     0.7220 H     1 <1>   0.0800 
 24 H       -4.5570   -10.1990    -0.3110 H     1 <1>   0.1500 
 25 H       -0.4000    -8.2550     0.3250 H     1 <1>   0.0800 
 26 H       -0.3530    -8.8050    -1.3440 H     1 <1>   0.0800 
 27 H       -6.4700    -5.6800    -0.4450 H     1 <1>   0.1500 
 28 H       -4.3770    -4.8050    -1.2480 H     1 <1>   0.0800 
 29 H       -2.9990    -5.8220    -1.4980 H     1 <1>   0.0800 
 30 H       -6.9270    -9.8940    -0.0340 H     1 <1>   0.1500 
 31 H        0.0640   -11.1120    -0.5890 H     1 <1>   0.0800 
 32 H       -0.1220   -10.6090     1.0740 H     1 <1>   0.0800 
 33 H       -2.6250    -5.8860     0.9960 H     1 <1>   0.1500 
 34 H        1.7610    -9.0670     0.6870 H     1 <1>   0.4500 
 35 H       -2.9140    -3.5810     1.9630 H     1 <1>   0.1500 
 36 H       -3.9090    -3.1010     0.5640 H     1 <1>   0.1500 
 37 H        1.7090    -8.9910    -1.7280 H     1 <1>   0.0800 
 38 H        2.2470   -10.6540    -1.7440 H     1 <1>   0.0800 
 39 H        2.3990   -11.9230     0.4000 H     1 <1>   0.0800 
 40 H        1.9560   -11.1420     1.9000 H     1 <1>   0.0800 
 41 H      -10.0880    -8.0920     0.2430 H     1 <1>   0.0800 
 42 H       -8.8500    -9.0370     1.0640 H     1 <1>   0.0800 
 43 H       -9.0890    -9.2050    -0.6860 H     1 <1>   0.0800 
 44 H        3.7270    -8.2870    -0.5730 H     1 <1>   0.0800 
 45 H        4.1540    -9.1560    -2.0110 H     1 <1>   0.0800 
 46 H        4.4070   -11.3160     1.6460 H     1 <1>   0.0800 
 47 H        3.8880    -9.6650     1.7600 H     1 <1>   0.0800 
 48 H        5.5340    -9.8300    -0.0300 H     1 <1>   0.0800 
 49 H        4.6790   -11.1600    -0.7560 H     1 <1>   0.0800 
@<TRIPOS>BOND
  1   1   2  1   
  2   1   3  1   
  3   2   4  ar  
  4   2   5  ar  
  5   3   6  1   
  6   3  22  1   
  7   3  23  1   
  8   4   7  ar  
  9   4   8  1   
 10   5   9  ar  
 11   5  24  1   
 12   6  10  1   
 13   6  25  1   
 14   6  26  1   
 15   7  11  ar  
 16   7  27  1   
 17   8  12  1   
 18   8  28  1   
 19   8  29  1   
 20   9  11  ar  
 21   9  30  1   
 22  10  13  1   
 23  10  31  1   
 24  10  32  1   
 25  11  14  1   
 26  12  15  2   
 27  12  33  1   
 28  13  16  1   
 29  13  17  1   
 30  13  34  1   
 31  14  18  1   
 32  15  35  1   
 33  15  36  1   
 34  16  19  1   
 35  16  37  1   
 36  16  38  1   
 37  17  20  1   
 38  17  39  1   
 39  17  40  1   
 40  18  41  1   
 41  18  42  1   
 42  18  43  1   
 43  19  21  1   
 44  19  44  1   
 45  19  45  1   
 46  20  21  1   
 47  20  46  1   
 48  20  47  1   
 49  21  48  1   
 50  21  49  1   
@<TRIPOS>SUBSTRUCTURE
  1 ****   1 GROUP 4 **** **** 0

# MOE 2024.06 (io_trps.svl 2023.06)
