@<TRIPOS>MOLECULE
NONAME
34 35 1 0 0 
SMALL
USER_CHARGES


@<TRIPOS>ATOM
  1 S       -0.9470     0.3870    -0.5250 S.3   1 <1>  -0.0800 
  2 C       -0.3210    -1.1690    -0.0940 C.2   1 <1>   0.4420 
  3 C       -1.6780     0.4450     1.0440 C.2   1 <1>   0.1980 
  4 N       -0.6490    -1.5110     1.0980 N.2   1 <1>  -0.3380 
  5 N        0.4360    -1.8180    -1.0390 N.am  1 <1>  -0.4940 
  6 N       -1.4280    -0.5900     1.7390 N.2   1 <1>  -0.3380 
  7 C       -2.5020     1.6640     1.4090 C.3   1 <1>   0.1640 
  8 C        1.0600    -3.0260    -1.0340 C.2   1 <1>   0.7800 
  9 C       -3.6910     1.8220     0.4710 C.ar  1 <1>  -0.1440 
 10 O        2.0610    -3.1600    -1.6960 O.2   1 <1>  -0.5700 
 11 O        0.5860    -4.0970    -0.3960 O.3   1 <1>  -0.4300 
 12 C       -3.7440     2.8660    -0.4410 C.ar  1 <1>  -0.1500 
 13 C       -4.7360     0.9100     0.5220 C.ar  1 <1>  -0.1500 
 14 C       -0.7730    -4.3240    -0.0940 C.3   1 <1>   0.1200 
 15 C       -4.8280     2.9960    -1.2920 C.ar  1 <1>  -0.1500 
 16 C       -5.8200     1.0400    -0.3280 C.ar  1 <1>  -0.1500 
 17 C       -1.0570    -5.8140    -0.2830 C.3   1 <1>  -0.1600 
 18 C       -5.8660     2.0830    -1.2360 C.ar  1 <1>  -0.1500 
 19 C       -2.5210    -6.1450     0.0300 C.3   1 <1>  -0.2400 
 20 H        0.7910    -1.2330    -1.7890 H     1 <1>   0.3700 
 21 H       -1.8750     2.5350     1.3720 H     1 <1>   0.0800 
 22 H       -2.8580     1.5580     2.4180 H     1 <1>   0.0800 
 23 H       -2.9450     3.5840    -0.4980 H     1 <1>   0.1500 
 24 H       -4.7080     0.0920     1.2220 H     1 <1>   0.1500 
 25 H       -1.3910    -3.7370    -0.7520 H     1 <1>   0.0800 
 26 H       -0.9440    -4.0380     0.9290 H     1 <1>   0.0800 
 27 H       -4.8650     3.8080    -1.9970 H     1 <1>   0.1500 
 28 H       -6.6270     0.3300    -0.2840 H     1 <1>   0.1500 
 29 H       -0.4180    -6.3800     0.3730 H     1 <1>   0.0800 
 30 H       -0.8390    -6.0910    -1.3000 H     1 <1>   0.0800 
 31 H       -6.7090     2.1850    -1.8970 H     1 <1>   0.1500 
 32 H       -2.7550    -5.8870     1.0480 H     1 <1>   0.0800 
 33 H       -2.6960    -7.1980    -0.1050 H     1 <1>   0.0800 
 34 H       -3.1790    -5.6020    -0.6260 H     1 <1>   0.0800 
@<TRIPOS>BOND
  1   1   2  1   
  2   1   3  1   
  3   2   4  2   
  4   2   5  1   
  5   3   6  2   
  6   3   7  1   
  7   4   6  1   
  8   5   8  am  
  9   5  20  1   
 10   7   9  1   
 11   7  21  1   
 12   7  22  1   
 13   8  10  2   
 14   8  11  1   
 15   9  12  ar  
 16   9  13  ar  
 17  11  14  1   
 18  12  15  ar  
 19  12  23  1   
 20  13  16  ar  
 21  13  24  1   
 22  14  17  1   
 23  14  25  1   
 24  14  26  1   
 25  15  18  ar  
 26  15  27  1   
 27  16  18  ar  
 28  16  28  1   
 29  17  19  1   
 30  17  29  1   
 31  17  30  1   
 32  18  31  1   
 33  19  32  1   
 34  19  33  1   
 35  19  34  1   
@<TRIPOS>SUBSTRUCTURE
  1 ****   2 GROUP 4 **** **** 0

# MOE 2024.06 (io_trps.svl 2023.06)
