@<TRIPOS>MOLECULE
NONAME
37 39 1 0 0 
SMALL
USER_CHARGES


@<TRIPOS>ATOM
  1 BR      -0.5490     0.5010     0.6410 Br    1 <1>  -0.1110 
  2 C       -2.2400    -0.3810     0.3750 C.ar  1 <1>   0.1110 
  3 C       -2.4870    -1.5660     1.0400 C.ar  1 <1>  -0.1500 
  4 C       -3.1650     0.1920    -0.4760 C.ar  1 <1>  -0.1500 
  5 C       -3.7040    -2.1950     0.8430 C.ar  1 <1>  -0.1500 
  6 C       -4.3780    -0.4500    -0.6600 C.ar  1 <1>  -0.1500 
  7 C       -4.6650    -1.6450    -0.0050 C.ar  1 <1>   0.1170 
  8 N       -5.9130    -2.2400    -0.2460 N.am  1 <1>  -0.5470 
  9 C       -6.6110    -3.2180     0.4130 C.2   1 <1>   0.5690 
 10 O       -6.2110    -3.7640     1.4120 O.2   1 <1>  -0.5700 
 11 C       -7.9620    -3.6520    -0.1520 C.3   1 <1>   0.2010 
 12 N       -8.9790    -2.5610    -0.1560 N.am  1 <1>  -0.4200 
 13 C      -10.1350    -2.5900     0.5700 C.2   1 <1>   0.5690 
 14 C       -8.8960    -1.4160    -0.8920 C.2   1 <1>   0.5690 
 15 O      -10.4470    -3.4220     1.3800 O.2   1 <1>  -0.5700 
 16 C      -11.0130    -1.4350     0.1460 C.3   1 <1>  -0.0190 
 17 O       -8.0570    -1.1730    -1.7220 O.2   1 <1>  -0.5700 
 18 C       -9.9920    -0.4700    -0.4610 C.3   1 <1>  -0.0190 
 19 C      -11.9080    -0.6820     1.1350 C.3   1 <1>  -0.0220 
 20 C      -10.6960     0.4760    -1.4380 C.3   1 <1>  -0.0220 
 21 C      -12.4270     0.5700     0.4230 C.2   1 <1>  -0.2880 
 22 C      -11.9090     1.0650    -0.7140 C.2   1 <1>  -0.2880 
 23 H       -1.7440    -1.9870     1.6940 H     1 <1>   0.1500 
 24 H       -2.9390     1.1150    -0.9790 H     1 <1>   0.1500 
 25 H       -3.8970    -3.1200     1.3550 H     1 <1>   0.1500 
 26 H       -5.1090    -0.0160    -1.3200 H     1 <1>   0.1500 
 27 H       -6.4370    -1.8030    -1.0160 H     1 <1>   0.3700 
 28 H       -8.3260    -4.4770     0.4350 H     1 <1>   0.0800 
 29 H       -7.8180    -4.0000    -1.1580 H     1 <1>   0.0800 
 30 H      -11.6440    -1.8170    -0.6380 H     1 <1>   0.0800 
 31 H       -9.5700     0.1310     0.3270 H     1 <1>   0.0800 
 32 H      -11.3600    -0.4060     2.0190 H     1 <1>   0.0800 
 33 H      -12.7290    -1.3150     1.4250 H     1 <1>   0.0800 
 34 H      -11.0130    -0.0480    -2.3240 H     1 <1>   0.0800 
 35 H      -10.0170     1.2600    -1.7280 H     1 <1>   0.0800 
 36 H      -13.2660     1.0230     0.9260 H     1 <1>   0.1500 
 37 H      -12.3140     1.9340    -1.2080 H     1 <1>   0.1500 
@<TRIPOS>BOND
  1   1   2  1   
  2   2   3  ar  
  3   2   4  ar  
  4   3   5  ar  
  5   3  23  1   
  6   4   6  ar  
  7   4  24  1   
  8   5   7  ar  
  9   5  25  1   
 10   6   7  ar  
 11   6  26  1   
 12   7   8  1   
 13   8   9  am  
 14   8  27  1   
 15   9  10  2   
 16   9  11  1   
 17  11  12  1   
 18  11  28  1   
 19  11  29  1   
 20  12  13  am  
 21  12  14  am  
 22  13  15  2   
 23  13  16  1   
 24  14  17  2   
 25  14  18  1   
 26  16  18  1   
 27  16  19  1   
 28  16  30  1   
 29  18  20  1   
 30  18  31  1   
 31  19  21  1   
 32  19  32  1   
 33  19  33  1   
 34  20  22  1   
 35  20  34  1   
 36  20  35  1   
 37  21  22  2   
 38  21  36  1   
 39  22  37  1   
@<TRIPOS>SUBSTRUCTURE
  1 ****   8 GROUP 4 **** **** 0

# MOE 2024.06 (io_trps.svl 2023.06)
