@<TRIPOS>MOLECULE
NONAME
32 33 1 0 0 
SMALL
USER_CHARGES


@<TRIPOS>ATOM
  1 BR      -0.1560    -0.1180     1.5790 Br    1 <1>  -0.1110 
  2 C       -1.7250    -0.9100     0.7980 C.ar  1 <1>   0.1110 
  3 C       -2.4020    -1.8850     1.5040 C.ar  1 <1>  -0.1500 
  4 C       -2.1340    -0.4860    -0.4510 C.ar  1 <1>  -0.1500 
  5 C       -3.5320    -2.4500     0.9400 C.ar  1 <1>  -0.1500 
  6 C       -3.2660    -1.0570    -1.0080 C.ar  1 <1>  -0.1500 
  7 C       -3.9720    -2.0350    -0.3130 C.ar  1 <1>  -0.1430 
  8 C       -5.2220    -2.6440    -0.9200 C.3   1 <1>   0.4870 
  9 N       -6.4100    -2.0850    -0.2200 N.4   1 <1>  -0.9590 
 10 C       -7.6570    -2.8340    -0.5960 C.3   1 <1>   0.3430 
 11 C       -6.5470    -0.6150    -0.4550 C.3   1 <1>   0.3430 
 12 C       -8.9020    -2.2990     0.1350 C.3   1 <1>   0.2000 
 13 C       -7.7370    -0.0680     0.3390 C.3   1 <1>  -0.1600 
 14 O      -10.0090    -2.8970    -0.4270 O.3   1 <1>  -0.6800 
 15 C       -9.0500    -0.7820    -0.0230 C.3   1 <1>  -0.1600 
 16 H       -2.0440    -2.1920     2.4720 H     1 <1>   0.1500 
 17 H       -1.5740     0.2710    -0.9720 H     1 <1>   0.1500 
 18 H       -4.0530    -3.2170     1.4880 H     1 <1>   0.1500 
 19 H       -3.5820    -0.7310    -1.9850 H     1 <1>   0.1500 
 20 H       -5.1880    -3.7140    -0.7980 H     1 <1>   0.0800 
 21 H       -5.2690    -2.4220    -1.9740 H     1 <1>   0.0800 
 22 H       -6.2390    -2.2100     0.7860 H     1 <1>   0.4500 
 23 H       -7.5440    -3.8810    -0.3640 H     1 <1>   0.0800 
 24 H       -7.8250    -2.7360    -1.6560 H     1 <1>   0.0800 
 25 H       -6.7000    -0.4260    -1.5060 H     1 <1>   0.0800 
 26 H       -5.6480    -0.1050    -0.1470 H     1 <1>   0.0800 
 27 H       -8.8680    -2.5770     1.1760 H     1 <1>   0.0800 
 28 H       -7.8400     0.9830     0.1300 H     1 <1>   0.0800 
 29 H       -7.5390    -0.1660     1.3920 H     1 <1>   0.0800 
 30 H      -10.8340    -2.5970     0.0080 H     1 <1>   0.4000 
 31 H       -9.8410    -0.4230     0.6140 H     1 <1>   0.0800 
 32 H       -9.3040    -0.5500    -1.0440 H     1 <1>   0.0800 
@<TRIPOS>BOND
  1   1   2  1   
  2   2   3  ar  
  3   2   4  ar  
  4   3   5  ar  
  5   3  16  1   
  6   4   6  ar  
  7   4  17  1   
  8   5   7  ar  
  9   5  18  1   
 10   6   7  ar  
 11   6  19  1   
 12   7   8  1   
 13   8   9  1   
 14   8  20  1   
 15   8  21  1   
 16   9  10  1   
 17   9  11  1   
 18   9  22  1   
 19  10  12  1   
 20  10  23  1   
 21  10  24  1   
 22  11  13  1   
 23  11  25  1   
 24  11  26  1   
 25  12  14  1   
 26  12  15  1   
 27  12  27  1   
 28  13  15  1   
 29  13  28  1   
 30  13  29  1   
 31  14  30  1   
 32  15  31  1   
 33  15  32  1   
@<TRIPOS>SUBSTRUCTURE
  1 ****   9 GROUP 4 **** **** 0

# MOE 2024.06 (io_trps.svl 2023.06)
