@<TRIPOS>MOLECULE
NONAME
47 48 1 0 0 
SMALL
USER_CHARGES


@<TRIPOS>ATOM
  1 S       -0.1630     0.5060     1.0300 S.o2  1 <1>   1.3330 
  2 O       -1.1930     1.4930     0.8170 O.2   1 <1>  -0.6500 
  3 O        0.2710     0.1850     2.3680 O.2   1 <1>  -0.6500 
  4 N        1.2170     1.0480     0.2020 N.am  1 <1>  -0.8490 
  5 C       -0.6160    -0.9810     0.1620 C.3   1 <1>  -0.1350 
  6 C        2.4520     0.3950     0.6760 C.3   1 <1>   0.1960 
  7 C        1.3340     2.5160     0.2870 C.3   1 <1>   0.1960 
  8 C        3.6980     0.8930    -0.0870 C.3   1 <1>   0.3430 
  9 C        2.5700     3.0500    -0.4650 C.3   1 <1>   0.3430 
 10 N        3.8590     2.3950    -0.0200 N.4   1 <1>  -0.9590 
 11 C        5.0600     2.8970    -0.7660 C.3   1 <1>   0.4230 
 12 C        6.3310     2.2030    -0.2360 C.3   1 <1>  -0.1600 
 13 C        5.1590     4.4280    -0.6260 C.3   1 <1>  -0.1600 
 14 C        7.6050     2.7990    -0.8350 C.3   1 <1>   0.1400 
 15 C        6.4560     4.9750    -1.2190 C.3   1 <1>   0.1400 
 16 N        7.5860     4.2570    -0.5950 N.am  1 <1>  -0.6600 
 17 C        8.5190     4.9110     0.1730 C.2   1 <1>   0.7800 
 18 O        8.4510     6.1020     0.4050 O.2   1 <1>  -0.5700 
 19 O        9.5150     4.1900     0.6880 O.3   1 <1>  -0.4300 
 20 C       10.5150     4.7980     1.4740 C.3   1 <1>   0.1200 
 21 C       11.5000     3.7160     1.9060 C.3   1 <1>  -0.2400 
 22 H       -1.5030    -1.3990     0.5960 H     1 <1>   0.0800 
 23 H        0.1690    -1.7090     0.2220 H     1 <1>   0.0800 
 24 H       -0.8120    -0.7620    -0.8690 H     1 <1>   0.0800 
 25 H        2.3660    -0.6700     0.5450 H     1 <1>   0.0800 
 26 H        2.5940     0.5830     1.7290 H     1 <1>   0.0800 
 27 H        1.3740     2.8220     1.3200 H     1 <1>   0.0800 
 28 H        0.4600     2.9710    -0.1510 H     1 <1>   0.0800 
 29 H        3.6120     0.5830    -1.1150 H     1 <1>   0.0800 
 30 H        4.5650     0.4100     0.3330 H     1 <1>   0.0800 
 31 H        2.6220     4.1140    -0.3090 H     1 <1>   0.0800 
 32 H        2.4220     2.8780    -1.5190 H     1 <1>   0.0800 
 33 H        4.0010     2.6450     0.9670 H     1 <1>   0.4500 
 34 H        4.9580     2.6590    -1.8130 H     1 <1>   0.0800 
 35 H        6.3270     1.1590    -0.4840 H     1 <1>   0.0800 
 36 H        6.3910     2.3040     0.8340 H     1 <1>   0.0800 
 37 H        5.1250     4.7120     0.4120 H     1 <1>   0.0800 
 38 H        4.3510     4.9120    -1.1420 H     1 <1>   0.0800 
 39 H        7.6510     2.6170    -1.8950 H     1 <1>   0.0800 
 40 H        8.4710     2.3430    -0.3840 H     1 <1>   0.0800 
 41 H        6.5270     6.0350    -1.0340 H     1 <1>   0.0800 
 42 H        6.4850     4.8230    -2.2850 H     1 <1>   0.0800 
 43 H       10.0460     5.2580     2.3290 H     1 <1>   0.0800 
 44 H       11.0040     5.5520     0.8810 H     1 <1>   0.0800 
 45 H       10.9970     2.9670     2.4910 H     1 <1>   0.0800 
 46 H       12.2770     4.1530     2.5050 H     1 <1>   0.0800 
 47 H       11.9490     3.2590     1.0420 H     1 <1>   0.0800 
@<TRIPOS>BOND
  1   1   2  2   
  2   1   3  2   
  3   1   4  am  
  4   1   5  1   
  5   4   6  1   
  6   4   7  1   
  7   5  22  1   
  8   5  23  1   
  9   5  24  1   
 10   6   8  1   
 11   6  25  1   
 12   6  26  1   
 13   7   9  1   
 14   7  27  1   
 15   7  28  1   
 16   8  10  1   
 17   8  29  1   
 18   8  30  1   
 19   9  10  1   
 20   9  31  1   
 21   9  32  1   
 22  10  11  1   
 23  10  33  1   
 24  11  12  1   
 25  11  13  1   
 26  11  34  1   
 27  12  14  1   
 28  12  35  1   
 29  12  36  1   
 30  13  15  1   
 31  13  37  1   
 32  13  38  1   
 33  14  16  1   
 34  14  39  1   
 35  14  40  1   
 36  15  16  1   
 37  15  41  1   
 38  15  42  1   
 39  16  17  am  
 40  17  18  2   
 41  17  19  1   
 42  19  20  1   
 43  20  21  1   
 44  20  43  1   
 45  20  44  1   
 46  21  45  1   
 47  21  46  1   
 48  21  47  1   
@<TRIPOS>SUBSTRUCTURE
  1 ****  10 GROUP 4 **** **** 0

# MOE 2024.06 (io_trps.svl 2023.06)
