@<TRIPOS>MOLECULE
NONAME
33 33 1 0 0 
SMALL
USER_CHARGES


@<TRIPOS>ATOM
  1 O       -0.5750    -0.3010     0.3120 O.2   1 <1>  -0.5700 
  2 C       -0.4250    -1.5040     0.4560 C.2   1 <1>   0.6900 
  3 N       -1.4460    -2.2750     0.9130 N.am  1 <1>  -0.4300 
  4 N        0.7670    -2.0920     0.1750 N.am  1 <1>  -0.7300 
  5 N       -2.8510    -1.8490     0.9860 N.am  1 <1>  -0.4300 
  6 C        1.9430    -1.3650    -0.3450 C.3   1 <1>   0.1400 
  7 C       -3.8110    -2.1700     0.0700 C.2   1 <1>   0.5440 
  8 C        3.2160    -2.0470     0.1550 C.3   1 <1>  -0.1600 
  9 O       -3.6310    -3.1280    -0.6660 O.2   1 <1>  -0.5700 
 10 C       -5.0380    -1.4040    -0.0080 C.ar  1 <1>   0.0860 
 11 C        4.4690    -1.3250    -0.3560 C.3   1 <1>  -0.1600 
 12 C       -6.2500    -1.9860    -0.3520 C.ar  1 <1>  -0.1500 
 13 C       -5.0990    -0.0400     0.2470 C.ar  1 <1>  -0.1500 
 14 C        5.7430    -2.0090     0.1470 C.3   1 <1>  -0.2400 
 15 C       -7.4030    -1.2270    -0.4010 C.ar  1 <1>   0.1600 
 16 C       -6.3040     0.6310     0.1710 C.ar  1 <1>   0.1600 
 17 N       -7.4590     0.0680    -0.1400 N.ar  1 <1>  -0.6200 
 18 H       -1.2690    -3.2630     1.0970 H     1 <1>   0.3700 
 19 H        0.7890    -3.1020     0.0530 H     1 <1>   0.3700 
 20 H       -3.0460    -1.1250     1.6840 H     1 <1>   0.3700 
 21 H        1.9170    -0.3410    -0.0080 H     1 <1>   0.0800 
 22 H        1.9140    -1.3700    -1.4220 H     1 <1>   0.0800 
 23 H        3.2320    -3.0680    -0.1850 H     1 <1>   0.0800 
 24 H        3.2170    -2.0400     1.2320 H     1 <1>   0.0800 
 25 H        4.4600    -0.3020    -0.0180 H     1 <1>   0.0800 
 26 H        4.4720    -1.3200    -1.4330 H     1 <1>   0.0800 
 27 H       -6.2870    -3.0360    -0.5820 H     1 <1>   0.1500 
 28 H       -4.2060     0.5060     0.4940 H     1 <1>   0.1500 
 29 H        5.7740    -2.0040     1.2220 H     1 <1>   0.0800 
 30 H        6.6100    -1.4880    -0.2210 H     1 <1>   0.0800 
 31 H        5.7860    -3.0270    -0.1980 H     1 <1>   0.0800 
 32 H       -8.3290    -1.7090    -0.6680 H     1 <1>   0.1500 
 33 H       -6.3230     1.6900     0.3740 H     1 <1>   0.1500 
@<TRIPOS>BOND
  1   1   2  2   
  2   2   3  am  
  3   2   4  am  
  4   3   5  1   
  5   3  18  1   
  6   4   6  1   
  7   4  19  1   
  8   5   7  am  
  9   5  20  1   
 10   6   8  1   
 11   6  21  1   
 12   6  22  1   
 13   7   9  2   
 14   7  10  1   
 15   8  11  1   
 16   8  23  1   
 17   8  24  1   
 18  10  12  ar  
 19  10  13  ar  
 20  11  14  1   
 21  11  25  1   
 22  11  26  1   
 23  12  15  ar  
 24  12  27  1   
 25  13  16  ar  
 26  13  28  1   
 27  14  29  1   
 28  14  30  1   
 29  14  31  1   
 30  15  17  ar  
 31  15  32  1   
 32  16  17  ar  
 33  16  33  1   
@<TRIPOS>SUBSTRUCTURE
  1 ****   5 GROUP 4 **** **** 0

# MOE 2024.06 (io_trps.svl 2023.06)
