@<TRIPOS>MOLECULE
NONAME
39 39 1 0 0 
SMALL
USER_CHARGES


@<TRIPOS>ATOM
  1 CL       0.0790     1.2950    -1.8340 Cl    1 <1>  -0.1770 
  2 C        0.8420     2.4970    -0.8160 C.ar  1 <1>   0.1770 
  3 C        0.1580     3.6490    -0.4490 C.ar  1 <1>   0.0820 
  4 C        2.1360     2.2550    -0.3920 C.ar  1 <1>  -0.1500 
  5 O       -1.1140     3.8290    -0.8820 O.3   1 <1>  -0.3630 
  6 C        0.8120     4.5890     0.3580 C.ar  1 <1>   0.0820 
  7 C        2.7790     3.1790     0.4180 C.ar  1 <1>  -0.1440 
  8 C       -2.1250     3.2950    -0.0580 C.3   1 <1>   0.2580 
  9 O        0.2870     5.7720     0.7800 O.3   1 <1>  -0.3630 
 10 C        2.1050     4.3340     0.7900 C.ar  1 <1>  -0.1500 
 11 C        4.1990     2.9440     0.8860 C.3   1 <1>   0.4870 
 12 C       -3.4540     3.8350    -0.5470 C.2   1 <1>  -0.2880 
 13 C       -0.6400     6.4880    -0.0120 C.3   1 <1>   0.0400 
 14 N        5.0830     3.6400    -0.0720 N.4   1 <1>  -0.9060 
 15 C       -4.3170     4.5480     0.1850 C.2   1 <1>  -0.3000 
 16 C        6.5210     3.5230     0.2580 C.3   1 <1>   0.3430 
 17 C        7.3300     4.2760    -0.7950 C.3   1 <1>  -0.1600 
 18 C        8.8320     4.1860    -0.5020 C.3   1 <1>  -0.2400 
 19 H        2.6140     1.3410    -0.7050 H     1 <1>   0.1500 
 20 H       -1.9390     3.5970     0.9580 H     1 <1>   0.0800 
 21 H       -2.0960     2.2220    -0.1320 H     1 <1>   0.0800 
 22 H        2.5680     5.0690     1.4270 H     1 <1>   0.1500 
 23 H        4.4140     1.8870     0.9020 H     1 <1>   0.0800 
 24 H        4.3290     3.3420     1.8800 H     1 <1>   0.0800 
 25 H       -3.6380     3.5800    -1.5770 H     1 <1>   0.1500 
 26 H       -0.6310     7.5150     0.3070 H     1 <1>   0.0800 
 27 H       -1.6210     6.0750     0.1340 H     1 <1>   0.0800 
 28 H       -0.3510     6.4230    -1.0460 H     1 <1>   0.0800 
 29 H        4.8040     4.6280    -0.1040 H     1 <1>   0.4500 
 30 H        4.9010     3.2670    -1.0110 H     1 <1>   0.4500 
 31 H       -5.2550     4.9200    -0.1920 H     1 <1>   0.1500 
 32 H       -4.1630     4.8210     1.2150 H     1 <1>   0.1500 
 33 H        6.8190     2.4860     0.2670 H     1 <1>   0.0800 
 34 H        6.7160     3.9450     1.2320 H     1 <1>   0.0800 
 35 H        7.0460     5.3150    -0.8060 H     1 <1>   0.0800 
 36 H        7.1470     3.8570    -1.7700 H     1 <1>   0.0800 
 37 H        9.0650     4.6200     0.4560 H     1 <1>   0.0800 
 38 H        9.3860     4.7220    -1.2540 H     1 <1>   0.0800 
 39 H        9.1660     3.1620    -0.5090 H     1 <1>   0.0800 
@<TRIPOS>BOND
  1   1   2  1   
  2   2   3  ar  
  3   2   4  ar  
  4   3   5  1   
  5   3   6  ar  
  6   4   7  ar  
  7   4  19  1   
  8   5   8  1   
  9   6   9  1   
 10   6  10  ar  
 11   7  10  ar  
 12   7  11  1   
 13   8  12  1   
 14   8  20  1   
 15   8  21  1   
 16   9  13  1   
 17  10  22  1   
 18  11  14  1   
 19  11  23  1   
 20  11  24  1   
 21  12  15  2   
 22  12  25  1   
 23  13  26  1   
 24  13  27  1   
 25  13  28  1   
 26  14  16  1   
 27  14  29  1   
 28  14  30  1   
 29  15  31  1   
 30  15  32  1   
 31  16  17  1   
 32  16  33  1   
 33  16  34  1   
 34  17  18  1   
 35  17  35  1   
 36  17  36  1   
 37  18  37  1   
 38  18  38  1   
 39  18  39  1   
@<TRIPOS>SUBSTRUCTURE
  1 ****  10 GROUP 4 **** **** 0

# MOE 2024.06 (io_trps.svl 2023.06)
