@<TRIPOS>MOLECULE
NONAME
45 48 1 0 0 
SMALL
USER_CHARGES


@<TRIPOS>ATOM
  1 O        0.2440     0.6850    -1.1450 O.2   1 <1>  -0.5700 
  2 C        0.5910     1.5100    -0.3350 C.2   1 <1>   0.5690 
  3 N       -0.2910     2.3300     0.3190 N.am  1 <1>  -0.5470 
  4 C        2.0800     1.6740    -0.0230 C.3   1 <1>  -0.0190 
  5 C       -1.6890     2.3910     0.2560 C.ar  1 <1>   0.1170 
  6 C        2.8560     2.1800    -1.2550 C.3   1 <1>  -0.1600 
  7 C        2.6950     0.3620     0.5010 C.3   1 <1>  -0.1600 
  8 C       -2.4780     1.3010    -0.0940 C.ar  1 <1>  -0.1500 
  9 C       -2.3310     3.5830     0.5660 C.ar  1 <1>  -0.1500 
 10 C        4.3520     2.3410    -0.9520 C.3   1 <1>  -0.1600 
 11 C        4.1910     0.5220     0.8050 C.3   1 <1>  -0.1600 
 12 C       -3.8550     1.4030    -0.1450 C.ar  1 <1>  -0.1500 
 13 C       -3.7090     3.6870     0.5160 C.ar  1 <1>  -0.1500 
 14 C        4.9540     1.0330    -0.4240 C.3   1 <1>  -0.1600 
 15 C       -4.5040     2.6000     0.1540 C.ar  1 <1>   0.0410 
 16 C       -5.9450     2.7090     0.0920 C.2   1 <1>   0.3090 
 17 N       -6.7170     2.0540    -0.8360 N.pl3 1 <1>  -0.7000 
 18 C       -6.8090     3.4220     0.8600 C.2   1 <1>   0.2000 
 19 C       -7.9870     2.3620    -0.6330 C.cat 1 <1>   0.9620 
 20 N       -8.0950     3.2070     0.4100 N.pl3 1 <1>  -0.6290 
 21 N       -9.0140     1.9090    -1.3540 N.2   1 <1>  -0.6120 
 22 C       -9.3270     3.6570     0.7980 C.2   1 <1>   0.2290 
 23 C      -10.1840     2.3350    -0.9880 C.2   1 <1>   0.3760 
 24 C      -10.3980     3.2160     0.0890 C.2   1 <1>  -0.1360 
 25 H        0.1450     3.0370     0.9070 H     1 <1>   0.3700 
 26 H        2.1820     2.4110     0.7520 H     1 <1>   0.0800 
 27 H        2.4510     3.1240    -1.5780 H     1 <1>   0.0800 
 28 H        2.7320     1.4790    -2.0630 H     1 <1>   0.0800 
 29 H        2.5660    -0.4110    -0.2390 H     1 <1>   0.0800 
 30 H        2.1780     0.0490     1.3910 H     1 <1>   0.0800 
 31 H       -2.0130     0.3590    -0.3260 H     1 <1>   0.1500 
 32 H       -1.7440     4.4410     0.8420 H     1 <1>   0.1500 
 33 H        4.4900     3.1180    -0.2200 H     1 <1>   0.0800 
 34 H        4.8700     2.6380    -1.8480 H     1 <1>   0.0800 
 35 H        4.5990    -0.4260     1.1120 H     1 <1>   0.0800 
 36 H        4.3210     1.2160     1.6190 H     1 <1>   0.0800 
 37 H       -4.4230     0.5300    -0.4160 H     1 <1>   0.1500 
 38 H       -4.1620     4.6340     0.7530 H     1 <1>   0.1500 
 39 H        5.9880     1.1880    -0.1690 H     1 <1>   0.0800 
 40 H        4.9160     0.2860    -1.2000 H     1 <1>   0.0800 
 41 H       -6.4120     1.4480    -1.5960 H     1 <1>   0.4500 
 42 H       -6.5810     4.0610     1.6970 H     1 <1>   0.1500 
 43 H       -9.4040     4.3330     1.6370 H     1 <1>   0.1500 
 44 H      -11.0470     1.9990    -1.5370 H     1 <1>   0.0600 
 45 H      -11.4020     3.5190     0.3240 H     1 <1>   0.1500 
@<TRIPOS>BOND
  1   1   2  2   
  2   2   3  am  
  3   2   4  1   
  4   3   5  1   
  5   3  25  1   
  6   4   6  1   
  7   4   7  1   
  8   4  26  1   
  9   5   8  ar  
 10   5   9  ar  
 11   6  10  1   
 12   6  27  1   
 13   6  28  1   
 14   7  11  1   
 15   7  29  1   
 16   7  30  1   
 17   8  12  ar  
 18   8  31  1   
 19   9  13  ar  
 20   9  32  1   
 21  10  14  1   
 22  10  33  1   
 23  10  34  1   
 24  11  14  1   
 25  11  35  1   
 26  11  36  1   
 27  12  15  ar  
 28  12  37  1   
 29  13  15  ar  
 30  13  38  1   
 31  14  39  1   
 32  14  40  1   
 33  15  16  1   
 34  16  17  1   
 35  16  18  2   
 36  17  19  ar  
 37  17  41  1   
 38  18  20  1   
 39  18  42  1   
 40  19  20  ar  
 41  19  21  1   
 42  20  22  1   
 43  21  23  2   
 44  22  24  2   
 45  22  43  1   
 46  23  24  1   
 47  23  44  1   
 48  24  45  1   
@<TRIPOS>SUBSTRUCTURE
  1 ****   8 GROUP 4 **** **** 0

# MOE 2024.06 (io_trps.svl 2023.06)
