@<TRIPOS>MOLECULE
NONAME
25 26 1 0 0 
SMALL
USER_CHARGES


@<TRIPOS>ATOM
  1 CL       0.6150     0.3440    -1.1710 Cl    1 <1>  -0.1770 
  2 C        0.2400     1.9390    -0.5570 C.ar  1 <1>   0.1770 
  3 C        1.2470     2.8520    -0.2900 C.ar  1 <1>   0.1900 
  4 C       -1.0780     2.2860    -0.3330 C.ar  1 <1>  -0.1500 
  5 F        2.4980     2.5290    -0.4990 F     1 <1>  -0.1900 
  6 C        0.9620     4.1120     0.2000 C.ar  1 <1>  -0.1500 
  7 C       -1.3960     3.5530     0.1580 C.ar  1 <1>   0.1170 
  8 C       -0.3630     4.4530     0.4220 C.ar  1 <1>  -0.1500 
  9 N       -2.7160     3.9480     0.4150 N.am  1 <1>  -0.5470 
 10 C       -3.8830     3.5510    -0.1770 C.2   1 <1>   0.6900 
 11 O       -3.8840     2.8260    -1.1520 O.2   1 <1>  -0.5700 
 12 N       -5.0500     4.0050     0.3520 N.am  1 <1>  -0.5790 
 13 C       -6.3930     3.7070    -0.1670 C.3   1 <1>   0.0490 
 14 C       -7.4580     4.7370     0.0120 C.3   1 <1>  -0.2000 
 15 C       -7.4900     3.4740     0.8190 C.3   1 <1>  -0.2000 
 16 H       -1.8510     1.5680    -0.5400 H     1 <1>   0.1500 
 17 H        1.7600     4.8050     0.4000 H     1 <1>   0.1500 
 18 H       -0.5960     5.4320     0.8000 H     1 <1>   0.1500 
 19 H       -2.8200     4.7310     1.0520 H     1 <1>   0.3700 
 20 H       -5.0380     4.5080     1.2340 H     1 <1>   0.3700 
 21 H       -6.3830     3.1260    -1.0770 H     1 <1>   0.1000 
 22 H       -8.1890     4.8610    -0.7680 H     1 <1>   0.1000 
 23 H       -7.2120     5.6640     0.4980 H     1 <1>   0.1000 
 24 H       -7.2660     3.5160     1.8700 H     1 <1>   0.1000 
 25 H       -8.2420     2.7410     0.5850 H     1 <1>   0.1000 
@<TRIPOS>BOND
  1   1   2  1   
  2   2   3  ar  
  3   2   4  ar  
  4   3   5  1   
  5   3   6  ar  
  6   4   7  ar  
  7   4  16  1   
  8   6   8  ar  
  9   6  17  1   
 10   7   8  ar  
 11   7   9  1   
 12   8  18  1   
 13   9  10  am  
 14   9  19  1   
 15  10  11  2   
 16  10  12  am  
 17  12  13  1   
 18  12  20  1   
 19  13  14  1   
 20  13  15  1   
 21  13  21  1   
 22  14  15  1   
 23  14  22  1   
 24  14  23  1   
 25  15  24  1   
 26  15  25  1   
@<TRIPOS>SUBSTRUCTURE
  1 ****   7 GROUP 4 **** **** 0

# MOE 2024.06 (io_trps.svl 2023.06)
