@<TRIPOS>MOLECULE
NONAME
35 36 1 0 0 
SMALL
USER_CHARGES


@<TRIPOS>ATOM
  1 F       -1.1430     1.0730     1.2740 F     1 <1>  -0.1900 
  2 C       -0.7030     2.1300     0.6440 C.ar  1 <1>   0.1900 
  3 C       -1.5220     2.7410    -0.2990 C.ar  1 <1>  -0.1440 
  4 C        0.5580     2.5970     0.9570 C.ar  1 <1>  -0.1500 
  5 C       -1.0410     3.8640    -0.9630 C.ar  1 <1>  -0.1500 
  6 C       -2.9030     2.1870    -0.6090 C.3   1 <1>   0.4870 
  7 C        0.9950     3.7180     0.2830 C.ar  1 <1>   0.1900 
  8 C        0.2220     4.3590    -0.6700 C.ar  1 <1>  -0.1500 
  9 N       -3.7270     2.1630     0.6350 N.4   1 <1>  -0.9590 
 10 F        2.1790     4.1920     0.5530 F     1 <1>  -0.1900 
 11 C       -4.9990     1.3910     0.4100 C.3   1 <1>   0.3430 
 12 C       -4.0490     3.5580     1.1050 C.3   1 <1>   0.3430 
 13 C       -6.0800     2.1820    -0.3790 C.3   1 <1>   0.2000 
 14 C       -5.1030     4.2830     0.2210 C.3   1 <1>   0.2000 
 15 O       -5.6090     3.4410    -0.7810 O.3   1 <1>  -0.5600 
 16 C       -7.3880     2.3530     0.4030 C.3   1 <1>  -0.2400 
 17 C       -4.5240     5.5020    -0.4920 C.3   1 <1>  -0.2400 
 18 H        1.1770     2.1120     1.6900 H     1 <1>   0.1500 
 19 H       -1.6310     4.3620    -1.7150 H     1 <1>   0.1500 
 20 H       -2.7960     1.1860    -0.9960 H     1 <1>   0.0800 
 21 H       -3.3850     2.7900    -1.3620 H     1 <1>   0.0800 
 22 H        0.6100     5.2280    -1.1730 H     1 <1>   0.1500 
 23 H       -3.1510     1.6870     1.3450 H     1 <1>   0.4500 
 24 H       -5.4200     1.1150     1.3630 H     1 <1>   0.0800 
 25 H       -4.7870     0.4720    -0.1110 H     1 <1>   0.0800 
 26 H       -3.1500     4.1530     1.1440 H     1 <1>   0.0800 
 27 H       -4.4350     3.5130     2.1090 H     1 <1>   0.0800 
 28 H       -6.3050     1.6420    -1.2830 H     1 <1>   0.0800 
 29 H       -5.9240     4.6110     0.8360 H     1 <1>   0.0800 
 30 H       -7.2260     2.8080     1.3620 H     1 <1>   0.0800 
 31 H       -7.8440     1.3920     0.5640 H     1 <1>   0.0800 
 32 H       -8.0760     2.9530    -0.1660 H     1 <1>   0.0800 
 33 H       -3.7450     5.2170    -1.1740 H     1 <1>   0.0800 
 34 H       -4.1230     6.2000     0.2210 H     1 <1>   0.0800 
 35 H       -5.3010     6.0010    -1.0440 H     1 <1>   0.0800 
@<TRIPOS>BOND
  1   1   2  1   
  2   2   3  ar  
  3   2   4  ar  
  4   3   5  ar  
  5   3   6  1   
  6   4   7  ar  
  7   4  18  1   
  8   5   8  ar  
  9   5  19  1   
 10   6   9  1   
 11   6  20  1   
 12   6  21  1   
 13   7   8  ar  
 14   7  10  1   
 15   8  22  1   
 16   9  11  1   
 17   9  12  1   
 18   9  23  1   
 19  11  13  1   
 20  11  24  1   
 21  11  25  1   
 22  12  14  1   
 23  12  26  1   
 24  12  27  1   
 25  13  15  1   
 26  13  16  1   
 27  13  28  1   
 28  14  15  1   
 29  14  17  1   
 30  14  29  1   
 31  16  30  1   
 32  16  31  1   
 33  16  32  1   
 34  17  33  1   
 35  17  34  1   
 36  17  35  1   
@<TRIPOS>SUBSTRUCTURE
  1 ****   6 GROUP 4 **** **** 0

# MOE 2024.06 (io_trps.svl 2023.06)
