@<TRIPOS>MOLECULE
NONAME
38 40 1 0 0 
SMALL
USER_CHARGES


@<TRIPOS>ATOM
  1 CL      -0.7920    -1.9120     2.9060 Cl    1 <1>  -0.1770 
  2 C       -1.3750    -2.3820     1.3260 C.ar  1 <1>   0.1770 
  3 C       -0.4850    -2.8280     0.3590 C.ar  1 <1>  -0.1440 
  4 C       -2.7310    -2.2970     1.0790 C.ar  1 <1>  -0.1500 
  5 C       -0.9890    -3.1920    -0.8790 C.ar  1 <1>  -0.1500 
  6 C        1.0080    -2.9180     0.6410 C.3   1 <1>  -0.0960 
  7 C       -3.2390    -2.6630    -0.1620 C.ar  1 <1>   0.1170 
  8 C       -2.3480    -3.1100    -1.1340 C.ar  1 <1>  -0.1500 
  9 N       -4.6260    -2.5820    -0.4240 N.am  1 <1>  -0.2370 
 10 C       -5.3920    -3.5730    -0.9750 C.2   1 <1>   0.5690 
 11 C       -5.4080    -1.4870    -0.1800 C.2   1 <1>   0.5690 
 12 O       -4.9740    -4.5970    -1.4630 O.2   1 <1>  -0.5700 
 13 C       -6.8820    -3.1900    -0.9790 C.3   1 <1>   0.2510 
 14 O       -5.0430    -0.4410     0.2910 O.2   1 <1>  -0.5700 
 15 C       -6.8390    -1.7040    -0.5970 C.3   1 <1>  -0.0990 
 16 N       -7.7510    -3.9180    -0.0070 N.3   1 <1>  -0.8100 
 17 C       -7.5180    -5.3840    -0.0240 C.3   1 <1>   0.1100 
 18 C       -9.1880    -3.6650    -0.2700 C.3   1 <1>   0.1100 
 19 C       -8.4780    -6.1240     0.9260 C.3   1 <1>   0.1200 
 20 C      -10.0850    -4.4470     0.7050 C.3   1 <1>   0.1200 
 21 O       -9.8070    -5.8130     0.6250 O.3   1 <1>  -0.5600 
 22 H       -3.3850    -1.9410     1.8530 H     1 <1>   0.1500 
 23 H       -0.3280    -3.5440    -1.6530 H     1 <1>   0.1500 
 24 H        1.3920    -1.9470     0.8980 H     1 <1>   0.0800 
 25 H        1.5430    -3.2800    -0.2190 H     1 <1>   0.0800 
 26 H        1.1860    -3.5890     1.4620 H     1 <1>   0.0800 
 27 H       -2.7190    -3.4030    -2.1000 H     1 <1>   0.1500 
 28 H       -7.2630    -3.3190    -1.9770 H     1 <1>   0.0800 
 29 H       -7.0540    -1.0830    -1.4460 H     1 <1>   0.0800 
 30 H       -7.4920    -1.4570     0.2190 H     1 <1>   0.0800 
 31 H       -6.5130    -5.5990     0.2930 H     1 <1>   0.0800 
 32 H       -7.6450    -5.7690    -1.0210 H     1 <1>   0.0800 
 33 H       -9.4380    -3.9600    -1.2750 H     1 <1>   0.0800 
 34 H       -9.4050    -2.6170    -0.1650 H     1 <1>   0.0800 
 35 H       -8.2820    -5.8500     1.9480 H     1 <1>   0.0800 
 36 H       -8.3570    -7.1870     0.8220 H     1 <1>   0.0800 
 37 H      -11.1210    -4.3080     0.4550 H     1 <1>   0.0800 
 38 H       -9.9230    -4.1190     1.7170 H     1 <1>   0.0800 
@<TRIPOS>BOND
  1   1   2  1   
  2   2   3  ar  
  3   2   4  ar  
  4   3   5  ar  
  5   3   6  1   
  6   4   7  ar  
  7   4  22  1   
  8   5   8  ar  
  9   5  23  1   
 10   6  24  1   
 11   6  25  1   
 12   6  26  1   
 13   7   8  ar  
 14   7   9  1   
 15   8  27  1   
 16   9  10  am  
 17   9  11  am  
 18  10  12  2   
 19  10  13  1   
 20  11  14  2   
 21  11  15  1   
 22  13  15  1   
 23  13  16  1   
 24  13  28  1   
 25  15  29  1   
 26  15  30  1   
 27  16  17  1   
 28  16  18  1   
 29  17  19  1   
 30  17  31  1   
 31  17  32  1   
 32  18  20  1   
 33  18  33  1   
 34  18  34  1   
 35  19  21  1   
 36  19  35  1   
 37  19  36  1   
 38  20  21  1   
 39  20  37  1   
 40  20  38  1   
@<TRIPOS>SUBSTRUCTURE
  1 ****   9 GROUP 4 **** **** 0

# MOE 2024.06 (io_trps.svl 2023.06)
