@<TRIPOS>MOLECULE
NONAME
33 33 1 0 0 
SMALL
USER_CHARGES


@<TRIPOS>ATOM
  1 S       -0.6120    -0.7020     0.3550 S.3   1 <1>  -0.2660 
  2 C        0.4410     0.6630     0.8860 C.1   1 <1>   0.5930 
  3 C       -2.3080    -0.0190     0.5940 C.3   1 <1>   0.0700 
  4 N        1.0750     1.5430     1.2280 N.1   1 <1>  -0.5570 
  5 C       -3.3170    -1.0890     0.1770 C.3   1 <1>  -0.1600 
  6 C       -4.7490    -0.5860     0.3500 C.3   1 <1>   0.1200 
  7 O       -5.6200    -1.6150    -0.0490 O.3   1 <1>  -0.3630 
  8 C       -6.9740    -1.4800     0.0010 C.ar  1 <1>   0.0830 
  9 C       -7.7570    -2.5670    -0.3920 C.ar  1 <1>  -0.1440 
 10 C       -7.5850    -0.3050     0.4320 C.ar  1 <1>  -0.1500 
 11 C       -9.1450    -2.4690    -0.3300 C.ar  1 <1>  -0.1440 
 12 C       -7.0880    -3.8550    -0.8760 C.3   1 <1>  -0.0960 
 13 C       -8.9630    -0.2070     0.4840 C.ar  1 <1>  -0.1430 
 14 C       -9.7330    -1.2900     0.1030 C.ar  1 <1>  -0.1500 
 15 C      -10.0560    -3.6250    -0.7210 C.3   1 <1>  -0.0970 
 16 C       -9.6340     1.0720     0.9510 C.3   1 <1>  -0.0970 
 17 H       -2.3870     0.8640    -0.0170 H     1 <1>   0.0800 
 18 H       -2.4060     0.2380     1.6350 H     1 <1>   0.0800 
 19 H       -3.1760    -1.9670     0.7820 H     1 <1>   0.0800 
 20 H       -3.1570    -1.3460    -0.8560 H     1 <1>   0.0800 
 21 H       -4.9330     0.2720    -0.2730 H     1 <1>   0.0800 
 22 H       -4.9520    -0.3540     1.3820 H     1 <1>   0.0800 
 23 H       -7.0040     0.5440     0.7320 H     1 <1>   0.1500 
 24 H       -6.1110    -3.6620    -1.2810 H     1 <1>   0.0800 
 25 H       -7.6610    -4.3220    -1.6540 H     1 <1>   0.0800 
 26 H       -6.9880    -4.5390    -0.0540 H     1 <1>   0.0800 
 27 H      -10.8040    -1.2120     0.1450 H     1 <1>   0.1500 
 28 H       -9.7460    -4.5260    -0.2240 H     1 <1>   0.0800 
 29 H      -10.0190    -3.7760    -1.7850 H     1 <1>   0.0800 
 30 H      -11.0750    -3.4260    -0.4420 H     1 <1>   0.0800 
 31 H       -8.9560     1.6690     1.5340 H     1 <1>   0.0800 
 32 H      -10.4900     0.8410     1.5590 H     1 <1>   0.0800 
 33 H       -9.9560     1.6440     0.1000 H     1 <1>   0.0800 
@<TRIPOS>BOND
  1   1   2  1   
  2   1   3  1   
  3   2   4  3   
  4   3   5  1   
  5   3  17  1   
  6   3  18  1   
  7   5   6  1   
  8   5  19  1   
  9   5  20  1   
 10   6   7  1   
 11   6  21  1   
 12   6  22  1   
 13   7   8  1   
 14   8   9  ar  
 15   8  10  ar  
 16   9  11  ar  
 17   9  12  1   
 18  10  13  ar  
 19  10  23  1   
 20  11  14  ar  
 21  11  15  1   
 22  12  24  1   
 23  12  25  1   
 24  12  26  1   
 25  13  14  ar  
 26  13  16  1   
 27  14  27  1   
 28  15  28  1   
 29  15  29  1   
 30  15  30  1   
 31  16  31  1   
 32  16  32  1   
 33  16  33  1   
@<TRIPOS>SUBSTRUCTURE
  1 ****   7 GROUP 4 **** **** 0

# MOE 2024.06 (io_trps.svl 2023.06)
