@<TRIPOS>MOLECULE
NONAME
57 60 1 0 0 
SMALL
USER_CHARGES


@<TRIPOS>ATOM
  1 O        0.2250    -0.8020    -1.4100 O.2   1 <1>  -0.5700 
  2 C       -0.0350    -1.6420    -0.5850 C.2   1 <1>   0.5690 
  3 N        0.8630    -2.1850     0.2890 N.am  1 <1>  -0.2370 
  4 C       -1.4140    -2.2770    -0.4410 C.3   1 <1>  -0.0190 
  5 C        2.2410    -1.8780     0.3100 C.ar  1 <1>   0.1170 
  6 C        0.2890    -3.2080     0.9850 C.2   1 <1>   0.5690 
  7 C       -2.5420    -1.3350     0.0760 C.3   1 <1>   0.0580 
  8 C       -1.1280    -3.4440     0.5330 C.3   1 <1>  -0.0990 
  9 C        3.1930    -2.7870    -0.1590 C.ar  1 <1>   0.0830 
 10 C        2.6730    -0.6540     0.8060 C.ar  1 <1>  -0.1500 
 11 O        0.7950    -3.8520     1.8690 O.2   1 <1>  -0.5700 
 12 C       -3.9460    -1.9390    -0.1390 C.2   1 <1>  -0.0380 
 13 C       -2.4610     0.0750    -0.5540 C.3   1 <1>  -0.1600 
 14 O        2.7860    -3.9800    -0.6620 O.3   1 <1>  -0.3630 
 15 C        4.5420    -2.4700    -0.1260 C.ar  1 <1>  -0.1500 
 16 C        4.0210    -0.3390     0.8440 C.ar  1 <1>  -0.1500 
 17 N       -4.0860    -3.2990     0.1380 N.pl3 1 <1>  -0.8380 
 18 C       -4.9880    -1.2000    -0.5530 C.2   1 <1>  -0.2880 
 19 C       -3.6960     0.9250    -0.2390 C.3   1 <1>  -0.1600 
 20 C        3.2630    -5.1370    -0.0110 C.3   1 <1>   0.0400 
 21 C        4.9640    -1.2510     0.3770 C.ar  1 <1>   0.0830 
 22 C       -4.7650    -3.6620     1.4220 C.3   1 <1>   0.2090 
 23 C       -4.4510    -4.2090    -0.9940 C.3   1 <1>   0.2090 
 24 C       -4.9520     0.2890    -0.8380 C.3   1 <1>  -0.0220 
 25 O        6.3030    -1.0220     0.3780 O.3   1 <1>  -0.3630 
 26 C       -6.2490    -4.0170     1.2230 C.3   1 <1>   0.1200 
 27 C       -5.9510    -4.5610    -1.0280 C.3   1 <1>   0.1200 
 28 C        6.8320     0.2050     0.8290 C.3   1 <1>   0.0400 
 29 O       -6.4070    -4.9850     0.2250 O.3   1 <1>  -0.5600 
 30 H       -1.6980    -2.6620    -1.4030 H     1 <1>   0.0800 
 31 H       -2.4160    -1.2090     1.1370 H     1 <1>   0.0800 
 32 H       -1.1930    -4.3900     0.0290 H     1 <1>   0.0800 
 33 H       -1.7760    -3.4480     1.3890 H     1 <1>   0.0800 
 34 H        1.9490     0.0560     1.1620 H     1 <1>   0.1500 
 35 H       -2.3670    -0.0150    -1.6230 H     1 <1>   0.0800 
 36 H       -1.5910     0.5900    -0.1860 H     1 <1>   0.0800 
 37 H        5.2730    -3.1600    -0.5000 H     1 <1>   0.1500 
 38 H        4.3150     0.6160     1.2370 H     1 <1>   0.1500 
 39 H       -5.9610    -1.6220    -0.7160 H     1 <1>   0.1500 
 40 H       -3.5710     1.9180    -0.6340 H     1 <1>   0.0800 
 41 H       -3.8100     1.0010     0.8290 H     1 <1>   0.0800 
 42 H        2.7390    -5.9870    -0.4100 H     1 <1>   0.0800 
 43 H        3.0670    -5.0480     1.0440 H     1 <1>   0.0800 
 44 H        4.3180    -5.2380    -0.1920 H     1 <1>   0.0800 
 45 H       -4.6870    -2.8410     2.1120 H     1 <1>   0.0800 
 46 H       -4.2600    -4.5060     1.8570 H     1 <1>   0.0800 
 47 H       -3.8850    -5.1190    -0.9010 H     1 <1>   0.0800 
 48 H       -4.1760    -3.7470    -1.9260 H     1 <1>   0.0800 
 49 H       -5.8220     0.7620    -0.4160 H     1 <1>   0.0800 
 50 H       -4.9680     0.4420    -1.9030 H     1 <1>   0.0800 
 51 H       -6.8110    -3.1420     0.9490 H     1 <1>   0.0800 
 52 H       -6.6570    -4.4160     2.1340 H     1 <1>   0.0800 
 53 H       -6.1250    -5.3590    -1.7270 H     1 <1>   0.0800 
 54 H       -6.5320    -3.7100    -1.3340 H     1 <1>   0.0800 
 55 H        7.9010     0.1660     0.7230 H     1 <1>   0.0800 
 56 H        6.5710     0.3380     1.8640 H     1 <1>   0.0800 
 57 H        6.4330     1.0000     0.2240 H     1 <1>   0.0800 
@<TRIPOS>BOND
  1   1   2  2   
  2   2   3  am  
  3   2   4  1   
  4   3   5  1   
  5   3   6  am  
  6   4   7  1   
  7   4   8  1   
  8   4  30  1   
  9   5   9  ar  
 10   5  10  ar  
 11   6   8  1   
 12   6  11  2   
 13   7  12  1   
 14   7  13  1   
 15   7  31  1   
 16   8  32  1   
 17   8  33  1   
 18   9  14  1   
 19   9  15  ar  
 20  10  16  ar  
 21  10  34  1   
 22  12  17  1   
 23  12  18  2   
 24  13  19  1   
 25  13  35  1   
 26  13  36  1   
 27  14  20  1   
 28  15  21  ar  
 29  15  37  1   
 30  16  21  ar  
 31  16  38  1   
 32  17  22  1   
 33  17  23  1   
 34  18  24  1   
 35  18  39  1   
 36  19  24  1   
 37  19  40  1   
 38  19  41  1   
 39  20  42  1   
 40  20  43  1   
 41  20  44  1   
 42  21  25  1   
 43  22  26  1   
 44  22  45  1   
 45  22  46  1   
 46  23  27  1   
 47  23  47  1   
 48  23  48  1   
 49  24  49  1   
 50  24  50  1   
 51  25  28  1   
 52  26  29  1   
 53  26  51  1   
 54  26  52  1   
 55  27  29  1   
 56  27  53  1   
 57  27  54  1   
 58  28  55  1   
 59  28  56  1   
 60  28  57  1   
@<TRIPOS>SUBSTRUCTURE
  1 ****   2 GROUP 4 **** **** 0

# MOE 2024.06 (io_trps.svl 2023.06)
