@<TRIPOS>MOLECULE
NONAME
38 39 1 0 0 
SMALL
USER_CHARGES


@<TRIPOS>ATOM
  1 BR       2.0500     1.0210    -3.0160 Br    1 <1>  -0.1110 
  2 C        3.5570     0.3930    -1.9960 C.ar  1 <1>   0.1110 
  3 C        3.3340    -0.4800    -0.9480 C.ar  1 <1>  -0.1500 
  4 C        4.8220     0.8310    -2.3380 C.ar  1 <1>  -0.1500 
  5 C        4.4190    -0.9320    -0.2140 C.ar  1 <1>  -0.1500 
  6 C        5.9000     0.3750    -1.5990 C.ar  1 <1>  -0.1500 
  7 C        5.7080    -0.5040    -0.5400 C.ar  1 <1>   0.0830 
  8 O        6.8210    -0.9010     0.1280 O.3   1 <1>  -0.3630 
  9 C        6.7330    -1.7990     1.2260 C.3   1 <1>   0.1810 
 10 C        8.1250    -2.0630     1.7690 C.2   1 <1>   0.6590 
 11 O        8.4750    -1.6910     2.8590 O.2   1 <1>  -0.5700 
 12 O        8.9750    -2.6540     0.9380 O.3   1 <1>  -0.4300 
 13 C       10.3500    -2.8130     1.2480 C.3   1 <1>   0.2000 
 14 C       11.0090    -1.4210     1.3830 C.3   1 <1>   0.3430 
 15 C       11.0000    -3.5720     0.0800 C.3   1 <1>  -0.1600 
 16 N       10.7410    -0.5580     0.1690 N.4   1 <1>  -0.9590 
 17 C       11.4630    -2.6330    -1.0580 C.3   1 <1>  -0.1600 
 18 C       10.6560    -1.3280    -1.1220 C.3   1 <1>   0.3430 
 19 C       11.7210     0.5650     0.0850 C.3   1 <1>   0.2630 
 20 H        2.3330    -0.7960    -0.7140 H     1 <1>   0.1500 
 21 H        4.9540     1.5120    -3.1600 H     1 <1>   0.1500 
 22 H        4.2330    -1.6090     0.5980 H     1 <1>   0.1500 
 23 H        6.8930     0.7020    -1.8450 H     1 <1>   0.1500 
 24 H        6.2940    -2.7190     0.8860 H     1 <1>   0.0800 
 25 H        6.1240    -1.3500     1.9890 H     1 <1>   0.0800 
 26 H       10.4270    -3.3760     2.1640 H     1 <1>   0.0800 
 27 H       12.0700    -1.5660     1.4950 H     1 <1>   0.0800 
 28 H       10.6490    -0.9340     2.2750 H     1 <1>   0.0800 
 29 H       10.3040    -4.3040    -0.2970 H     1 <1>   0.0800 
 30 H       11.8580    -4.1120     0.4430 H     1 <1>   0.0800 
 31 H        9.8010    -0.1530     0.3120 H     1 <1>   0.4500 
 32 H       11.3750    -3.1480    -1.9990 H     1 <1>   0.0800 
 33 H       12.5030    -2.3870    -0.9310 H     1 <1>   0.0800 
 34 H       10.9990    -0.7200    -1.9440 H     1 <1>   0.0800 
 35 H        9.6240    -1.5830    -1.3100 H     1 <1>   0.0800 
 36 H       12.7160     0.1810    -0.0710 H     1 <1>   0.0800 
 37 H       11.7110     1.1390     0.9970 H     1 <1>   0.0800 
 38 H       11.4710     1.2190    -0.7350 H     1 <1>   0.0800 
@<TRIPOS>BOND
  1   1   2  1   
  2   2   3  ar  
  3   2   4  ar  
  4   3   5  ar  
  5   3  20  1   
  6   4   6  ar  
  7   4  21  1   
  8   5   7  ar  
  9   5  22  1   
 10   6   7  ar  
 11   6  23  1   
 12   7   8  1   
 13   8   9  1   
 14   9  10  1   
 15   9  24  1   
 16   9  25  1   
 17  10  11  2   
 18  10  12  1   
 19  12  13  1   
 20  13  14  1   
 21  13  15  1   
 22  13  26  1   
 23  14  16  1   
 24  14  27  1   
 25  14  28  1   
 26  15  17  1   
 27  15  29  1   
 28  15  30  1   
 29  16  18  1   
 30  16  19  1   
 31  16  31  1   
 32  17  18  1   
 33  17  32  1   
 34  17  33  1   
 35  18  34  1   
 36  18  35  1   
 37  19  36  1   
 38  19  37  1   
 39  19  38  1   
@<TRIPOS>SUBSTRUCTURE
  1 ****   8 GROUP 4 **** **** 0

# MOE 2024.06 (io_trps.svl 2023.06)
