@<TRIPOS>MOLECULE
NONAME
53 55 1 0 0 
SMALL
USER_CHARGES


@<TRIPOS>ATOM
  1 O        0.8470    -0.5680     0.2750 O.2   1 <1>  -0.5700 
  2 C        0.3550    -1.2710    -0.5860 C.2   1 <1>   0.6900 
  3 N        1.1760    -1.9000    -1.4810 N.am  1 <1>  -0.6600 
  4 N       -0.9820    -1.5240    -0.6510 N.am  1 <1>  -0.5470 
  5 C        2.5490    -1.3610    -1.6800 C.3   1 <1>   0.1400 
  6 C        1.1250    -3.3830    -1.6030 C.3   1 <1>   0.1400 
  7 C       -2.0440    -1.2760     0.2290 C.ar  1 <1>   0.1170 
  8 C        3.4980    -1.9770    -0.6360 C.3   1 <1>   0.3430 
  9 C        2.0830    -4.0220    -0.5760 C.3   1 <1>   0.3430 
 10 C       -3.1600    -2.1420     0.2630 C.ar  1 <1>   0.0860 
 11 C       -2.0160    -0.1620     1.0650 C.ar  1 <1>  -0.1500 
 12 N        3.5010    -3.4940    -0.6700 N.4   1 <1>  -0.9590 
 13 C       -3.2690    -3.3180    -0.5860 C.2   1 <1>   0.6340 
 14 C       -4.1890    -1.8350     1.1640 C.ar  1 <1>  -0.1500 
 15 C       -3.0450     0.1110     1.9400 C.ar  1 <1>  -0.1500 
 16 C        4.3930    -4.0780     0.3830 C.3   1 <1>   0.4230 
 17 O       -2.3740    -3.7400    -1.2980 O.2   1 <1>  -0.5700 
 18 O       -4.4290    -3.9840    -0.5860 O.3   1 <1>  -0.4300 
 19 C       -4.1380    -0.7320     1.9910 C.ar  1 <1>  -0.1500 
 20 C        5.8310    -3.5440     0.2210 C.3   1 <1>  -0.1600 
 21 C        4.3880    -5.6170     0.2940 C.3   1 <1>  -0.1600 
 22 C       -4.6470    -5.1310    -1.3860 C.3   1 <1>   0.0400 
 23 C        6.8080    -4.1940     1.2120 C.3   1 <1>  -0.1600 
 24 C        5.3680    -6.2600     1.2860 C.3   1 <1>  -0.1600 
 25 C        6.7870    -5.7200     1.0950 C.3   1 <1>  -0.1600 
 26 H       -1.2160    -2.1850    -1.3970 H     1 <1>   0.3700 
 27 H        2.5380    -0.2900    -1.5680 H     1 <1>   0.0800 
 28 H        2.8880    -1.5830    -2.6770 H     1 <1>   0.0800 
 29 H        1.4010    -3.6740    -2.6020 H     1 <1>   0.0800 
 30 H        0.1290    -3.7460    -1.4230 H     1 <1>   0.0800 
 31 H        3.1880    -1.6360     0.3390 H     1 <1>   0.0800 
 32 H        4.4900    -1.5990    -0.8180 H     1 <1>   0.0800 
 33 H        2.0750    -5.0880    -0.7270 H     1 <1>   0.0800 
 34 H        1.6940    -3.8260     0.4100 H     1 <1>   0.0800 
 35 H       -1.1790     0.5130     1.0320 H     1 <1>   0.1500 
 36 H        3.8820    -3.7830    -1.5780 H     1 <1>   0.4500 
 37 H       -5.0540    -2.4730     1.2240 H     1 <1>   0.1500 
 38 H       -2.9980     0.9760     2.5790 H     1 <1>   0.1500 
 39 H        4.0310    -3.7910     1.3580 H     1 <1>   0.0800 
 40 H       -4.9450    -0.5240     2.6730 H     1 <1>   0.1500 
 41 H        5.8670    -2.4860     0.3990 H     1 <1>   0.0800 
 42 H        6.1800    -3.7400    -0.7780 H     1 <1>   0.0800 
 43 H        4.6600    -5.9250    -0.7000 H     1 <1>   0.0800 
 44 H        3.4140    -6.0090     0.5230 H     1 <1>   0.0800 
 45 H       -5.6520    -5.4750    -1.2200 H     1 <1>   0.0800 
 46 H       -3.9440    -5.8940    -1.1010 H     1 <1>   0.0800 
 47 H       -4.5130    -4.8660    -2.4200 H     1 <1>   0.0800 
 48 H        6.5470    -3.9110     2.2180 H     1 <1>   0.0800 
 49 H        7.8070    -3.8360     1.0240 H     1 <1>   0.0800 
 50 H        5.3730    -7.3290     1.1500 H     1 <1>   0.0800 
 51 H        5.0450    -6.0640     2.2950 H     1 <1>   0.0800 
 52 H        7.4380    -6.1460     1.8400 H     1 <1>   0.0800 
 53 H        7.1620    -6.0150     0.1290 H     1 <1>   0.0800 
@<TRIPOS>BOND
  1   1   2  2   
  2   2   3  am  
  3   2   4  am  
  4   3   5  1   
  5   3   6  1   
  6   4   7  1   
  7   4  26  1   
  8   5   8  1   
  9   5  27  1   
 10   5  28  1   
 11   6   9  1   
 12   6  29  1   
 13   6  30  1   
 14   7  10  ar  
 15   7  11  ar  
 16   8  12  1   
 17   8  31  1   
 18   8  32  1   
 19   9  12  1   
 20   9  33  1   
 21   9  34  1   
 22  10  13  1   
 23  10  14  ar  
 24  11  15  ar  
 25  11  35  1   
 26  12  16  1   
 27  12  36  1   
 28  13  17  2   
 29  13  18  1   
 30  14  19  ar  
 31  14  37  1   
 32  15  19  ar  
 33  15  38  1   
 34  16  20  1   
 35  16  21  1   
 36  16  39  1   
 37  18  22  1   
 38  19  40  1   
 39  20  23  1   
 40  20  41  1   
 41  20  42  1   
 42  21  24  1   
 43  21  43  1   
 44  21  44  1   
 45  22  45  1   
 46  22  46  1   
 47  22  47  1   
 48  23  25  1   
 49  23  48  1   
 50  23  49  1   
 51  24  25  1   
 52  24  50  1   
 53  24  51  1   
 54  25  52  1   
 55  25  53  1   
@<TRIPOS>SUBSTRUCTURE
  1 ****   2 GROUP 4 **** **** 0

# MOE 2024.06 (io_trps.svl 2023.06)
