@<TRIPOS>MOLECULE
NONAME
35 36 1 0 0 
SMALL
USER_CHARGES


@<TRIPOS>ATOM
  1 S        0.0710     0.0010    -0.4430 S.3   1 <1>  -0.0800 
  2 C       -1.5470    -0.6720    -0.2640 C.ar  1 <1>   0.2970 
  3 C        0.8470    -1.4540     0.2500 C.2   1 <1>  -0.0450 
  4 N       -2.6230    -0.0010    -0.6300 N.ar  1 <1>  -0.5670 
  5 C       -1.4700    -1.9390     0.2880 C.ar  1 <1>   0.0000 
  6 C       -0.1210    -2.3610     0.5710 C.2   1 <1>   0.0830 
  7 C        2.2690    -1.4800     0.3810 C.2   1 <1>   0.7150 
  8 C       -3.7520    -0.6600    -0.4300 C.ar  1 <1>   0.1670 
  9 C       -2.6710    -2.6050     0.4790 C.ar  1 <1>  -0.1500 
 10 N        0.1430    -3.5960     1.1280 N.pl3 1 <1>  -0.8830 
 11 O        2.8390    -2.4180     0.9190 O.2   1 <1>  -0.5700 
 12 N        3.0280    -0.4430    -0.0880 N.am  1 <1>  -0.7300 
 13 C       -3.8310    -1.9500     0.1130 C.ar  1 <1>  -0.1430 
 14 C       -5.0110     0.0830    -0.8400 C.3   1 <1>  -0.0970 
 15 C        4.4880    -0.3340    -0.0250 C.3   1 <1>   0.2200 
 16 C       -5.1660    -2.6580     0.3110 C.3   1 <1>  -0.0970 
 17 C        4.8360     0.9130     0.7790 C.3   1 <1>  -0.2400 
 18 C        5.0190    -0.2410    -1.4510 C.3   1 <1>  -0.2400 
 19 H       -2.6780    -3.5950     0.8950 H     1 <1>   0.1500 
 20 H       -0.5700    -4.1050     1.6560 H     1 <1>   0.4000 
 21 H        1.1160    -3.7930     1.4110 H     1 <1>   0.4000 
 22 H        2.5440     0.3350    -0.5340 H     1 <1>   0.3700 
 23 H       -4.7680     1.0750    -1.1780 H     1 <1>   0.0800 
 24 H       -5.6810     0.1670    -0.0050 H     1 <1>   0.0800 
 25 H       -5.4990    -0.4380    -1.6430 H     1 <1>   0.0800 
 26 H        4.9050    -1.2030     0.4590 H     1 <1>   0.0800 
 27 H       -5.7780    -2.1070     1.0030 H     1 <1>   0.0800 
 28 H       -5.0230    -3.6490     0.7030 H     1 <1>   0.0800 
 29 H       -5.6850    -2.7410    -0.6270 H     1 <1>   0.0800 
 30 H        4.4340     1.7950     0.3140 H     1 <1>   0.0800 
 31 H        5.9040     1.0180     0.8470 H     1 <1>   0.0800 
 32 H        4.4440     0.8260     1.7770 H     1 <1>   0.0800 
 33 H        4.6210     0.6210    -1.9540 H     1 <1>   0.0800 
 34 H        4.7540    -1.1280    -1.9980 H     1 <1>   0.0800 
 35 H        6.0910    -0.1640    -1.4360 H     1 <1>   0.0800 
@<TRIPOS>BOND
  1   1   2  1   
  2   1   3  1   
  3   2   4  ar  
  4   2   5  ar  
  5   3   6  2   
  6   3   7  1   
  7   4   8  ar  
  8   5   6  1   
  9   5   9  ar  
 10   6  10  1   
 11   7  11  2   
 12   7  12  am  
 13   8  13  ar  
 14   8  14  1   
 15   9  13  ar  
 16   9  19  1   
 17  10  20  1   
 18  10  21  1   
 19  12  15  1   
 20  12  22  1   
 21  13  16  1   
 22  14  23  1   
 23  14  24  1   
 24  14  25  1   
 25  15  17  1   
 26  15  18  1   
 27  15  26  1   
 28  16  27  1   
 29  16  28  1   
 30  16  29  1   
 31  17  30  1   
 32  17  31  1   
 33  17  32  1   
 34  18  33  1   
 35  18  34  1   
 36  18  35  1   
@<TRIPOS>SUBSTRUCTURE
  1 ****   3 GROUP 4 **** **** 0

# MOE 2024.06 (io_trps.svl 2023.06)
