@<TRIPOS>MOLECULE
NONAME
40 41 1 0 0 
SMALL
USER_CHARGES


@<TRIPOS>ATOM
  1 O       -0.2980    -0.4380    -0.1410 O.2   1 <1>  -0.5700 
  2 C       -0.1820    -1.6130     0.1160 C.2   1 <1>   0.5690 
  3 N        1.0430    -2.1670     0.3860 N.am  1 <1>  -0.6600 
  4 C       -1.4360    -2.4840     0.1340 C.3   1 <1>  -0.0990 
  5 C        1.3190    -3.6150     0.6370 C.3   1 <1>   0.1400 
  6 C        2.2810    -1.3280     0.4320 C.3   1 <1>   0.1400 
  7 C       -2.7580    -1.7040    -0.0100 C.3   1 <1>  -0.1600 
  8 C        2.4870    -4.1050    -0.2360 C.3   1 <1>   0.1200 
  9 C        3.3930    -1.9500    -0.4270 C.3   1 <1>   0.1200 
 10 C       -3.9680    -2.6390     0.0340 C.3   1 <1>   0.1200 
 11 O        3.6080    -3.2860    -0.0670 O.3   1 <1>  -0.5600 
 12 O       -5.1320    -1.8590    -0.0980 O.3   1 <1>  -0.3630 
 13 C       -6.3650    -2.4240    -0.0900 C.ar  1 <1>   0.0820 
 14 C       -6.5940    -3.7910     0.0410 C.ar  1 <1>  -0.1500 
 15 C       -7.4440    -1.5650    -0.2240 C.ar  1 <1>  -0.1500 
 16 C       -7.8900    -4.2790     0.0390 C.ar  1 <1>  -0.1500 
 17 C       -8.7370    -2.0570    -0.2260 C.ar  1 <1>  -0.1500 
 18 C       -8.9670    -3.4170    -0.0930 C.ar  1 <1>  -0.1440 
 19 C      -10.3850    -3.9570    -0.0970 C.3   1 <1>  -0.0970 
 20 H       -1.4550    -3.0220     1.0630 H     1 <1>   0.0800 
 21 H       -1.3590    -3.1900    -0.6720 H     1 <1>   0.0800 
 22 H        0.4550    -4.2180     0.4290 H     1 <1>   0.0800 
 23 H        1.5780    -3.7490     1.6730 H     1 <1>   0.0800 
 24 H        2.6190    -1.2540     1.4500 H     1 <1>   0.0800 
 25 H        2.0800    -0.3320     0.0790 H     1 <1>   0.0800 
 26 H       -2.7580    -1.1720    -0.9450 H     1 <1>   0.0800 
 27 H       -2.8360    -0.9870     0.7890 H     1 <1>   0.0800 
 28 H        2.2120    -4.1010    -1.2760 H     1 <1>   0.0800 
 29 H        2.7670    -5.1040     0.0440 H     1 <1>   0.0800 
 30 H        4.3160    -1.4170    -0.2810 H     1 <1>   0.0800 
 31 H        3.1310    -1.9090    -1.4700 H     1 <1>   0.0800 
 32 H       -4.0150    -3.1580     0.9750 H     1 <1>   0.0800 
 33 H       -3.9380    -3.3400    -0.7820 H     1 <1>   0.0800 
 34 H       -5.7850    -4.4850     0.1460 H     1 <1>   0.1500 
 35 H       -7.2620    -0.5110    -0.3260 H     1 <1>   0.1500 
 36 H       -8.0580    -5.3370     0.1400 H     1 <1>   0.1500 
 37 H       -9.5630    -1.3750    -0.3330 H     1 <1>   0.1500 
 38 H      -10.4510    -4.8450     0.5060 H     1 <1>   0.0800 
 39 H      -10.6800    -4.1970    -1.1030 H     1 <1>   0.0800 
 40 H      -11.0670    -3.2270     0.3000 H     1 <1>   0.0800 
@<TRIPOS>BOND
  1   1   2  2   
  2   2   3  am  
  3   2   4  1   
  4   3   5  1   
  5   3   6  1   
  6   4   7  1   
  7   4  20  1   
  8   4  21  1   
  9   5   8  1   
 10   5  22  1   
 11   5  23  1   
 12   6   9  1   
 13   6  24  1   
 14   6  25  1   
 15   7  10  1   
 16   7  26  1   
 17   7  27  1   
 18   8  11  1   
 19   8  28  1   
 20   8  29  1   
 21   9  11  1   
 22   9  30  1   
 23   9  31  1   
 24  10  12  1   
 25  10  32  1   
 26  10  33  1   
 27  12  13  1   
 28  13  14  ar  
 29  13  15  ar  
 30  14  16  ar  
 31  14  34  1   
 32  15  17  ar  
 33  15  35  1   
 34  16  18  ar  
 35  16  36  1   
 36  17  18  ar  
 37  17  37  1   
 38  18  19  1   
 39  19  38  1   
 40  19  39  1   
 41  19  40  1   
@<TRIPOS>SUBSTRUCTURE
  1 ****   7 GROUP 4 **** **** 0

# MOE 2024.06 (io_trps.svl 2023.06)
