@<TRIPOS>MOLECULE
NONAME
44 45 1 0 0 
SMALL
USER_CHARGES


@<TRIPOS>ATOM
  1 O        0.2240    -0.6060     2.5780 O.2   1 <1>  -0.5700 
  2 C       -0.0070    -1.7220     2.1550 C.2   1 <1>   0.5440 
  3 N        1.0320    -2.6320     2.0940 N.am  1 <1>  -0.6600 
  4 C       -1.3380    -2.0540     1.7050 C.ar  1 <1>   0.0860 
  5 C        0.9500    -3.9110     1.3270 C.3   1 <1>   0.1400 
  6 C        2.4350    -2.2130     2.3790 C.3   1 <1>   0.1400 
  7 C       -1.6460    -2.0990     0.3430 C.ar  1 <1>   0.0830 
  8 C       -2.3480    -2.3470     2.6200 C.ar  1 <1>  -0.1500 
  9 C        1.7200    -3.7730    -0.0020 C.3   1 <1>   0.3430 
 10 C        3.1890    -2.0390     1.0500 C.3   1 <1>   0.3430 
 11 O       -0.6770    -1.7790    -0.5500 O.3   1 <1>  -0.3630 
 12 C       -2.9170    -2.4800    -0.0940 C.ar  1 <1>   0.0830 
 13 C       -3.6130    -2.7030     2.1970 C.ar  1 <1>  -0.1500 
 14 N        3.1340    -3.2850     0.1970 N.4   1 <1>  -0.9590 
 15 C       -0.7930    -0.5040    -1.1470 C.3   1 <1>   0.0400 
 16 O       -3.1380    -2.5540    -1.4380 O.3   1 <1>  -0.3630 
 17 C       -3.9000    -2.7760     0.8450 C.ar  1 <1>  -0.1500 
 18 C        3.8050    -3.0900    -1.1050 C.3   1 <1>   0.4810 
 19 C       -4.4150    -2.8490    -1.9630 C.3   1 <1>   0.0400 
 20 C        5.2920    -3.0610    -0.8390 C.2   1 <1>  -0.2880 
 21 C        6.1400    -4.0610    -1.1030 C.2   1 <1>  -0.3000 
 22 H       -0.0730    -4.1750     1.1230 H     1 <1>   0.0800 
 23 H        1.3740    -4.7060     1.9150 H     1 <1>   0.0800 
 24 H        2.9170    -2.9570     2.9880 H     1 <1>   0.0800 
 25 H        2.4550    -1.2860     2.9270 H     1 <1>   0.0800 
 26 H       -2.1290    -2.2910     3.6730 H     1 <1>   0.1500 
 27 H        1.1860    -3.0780    -0.6300 H     1 <1>   0.0800 
 28 H        1.7260    -4.7260    -0.5040 H     1 <1>   0.0800 
 29 H        4.2140    -1.7810     1.2610 H     1 <1>   0.0800 
 30 H        2.7410    -1.2140     0.5200 H     1 <1>   0.0800 
 31 H       -4.3800    -2.9250     2.9210 H     1 <1>   0.1500 
 32 H        3.6670    -4.0180     0.6810 H     1 <1>   0.4500 
 33 H        0.0390    -0.3600    -1.8110 H     1 <1>   0.0800 
 34 H       -0.7830     0.2450    -0.3730 H     1 <1>   0.0800 
 35 H       -1.7150    -0.4530    -1.7000 H     1 <1>   0.0800 
 36 H       -4.8920    -3.0640     0.5500 H     1 <1>   0.1500 
 37 H        3.4770    -2.1780    -1.5800 H     1 <1>   0.0800 
 38 H        3.5820    -3.9180    -1.7580 H     1 <1>   0.0800 
 39 H       -4.3500    -2.8170    -3.0360 H     1 <1>   0.0800 
 40 H       -5.1150    -2.1080    -1.6180 H     1 <1>   0.0800 
 41 H       -4.7060    -3.8340    -1.6450 H     1 <1>   0.0800 
 42 H        5.6270    -2.1310    -0.4130 H     1 <1>   0.1500 
 43 H        7.2010    -4.0120    -0.9090 H     1 <1>   0.1500 
 44 H        5.8680    -5.0100    -1.5360 H     1 <1>   0.1500 
@<TRIPOS>BOND
  1   1   2  2   
  2   2   3  am  
  3   2   4  1   
  4   3   5  1   
  5   3   6  1   
  6   4   7  ar  
  7   4   8  ar  
  8   5   9  1   
  9   5  22  1   
 10   5  23  1   
 11   6  10  1   
 12   6  24  1   
 13   6  25  1   
 14   7  11  1   
 15   7  12  ar  
 16   8  13  ar  
 17   8  26  1   
 18   9  14  1   
 19   9  27  1   
 20   9  28  1   
 21  10  14  1   
 22  10  29  1   
 23  10  30  1   
 24  11  15  1   
 25  12  16  1   
 26  12  17  ar  
 27  13  17  ar  
 28  13  31  1   
 29  14  18  1   
 30  14  32  1   
 31  15  33  1   
 32  15  34  1   
 33  15  35  1   
 34  16  19  1   
 35  17  36  1   
 36  18  20  1   
 37  18  37  1   
 38  18  38  1   
 39  19  39  1   
 40  19  40  1   
 41  19  41  1   
 42  20  21  2   
 43  20  42  1   
 44  21  43  1   
 45  21  44  1   
@<TRIPOS>SUBSTRUCTURE
  1 ****  11 GROUP 4 **** **** 0

# MOE 2024.06 (io_trps.svl 2023.06)
