@<TRIPOS>MOLECULE
NONAME
44 47 1 0 0 
SMALL
USER_CHARGES


@<TRIPOS>ATOM
  1 O        0.1660     1.1880     1.3740 O.2   1 <1>  -0.5700 
  2 C        0.4730     2.0470     0.5870 C.2   1 <1>   0.5690 
  3 N        1.5470     2.0730    -0.2900 N.am  1 <1>  -0.2370 
  4 C       -0.2690     3.3370     0.4050 C.3   1 <1>  -0.0190 
  5 C        2.6690     1.2180    -0.2420 C.ar  1 <1>   0.1170 
  6 C        1.3400     3.0880    -1.2130 C.2   1 <1>   0.5690 
  7 C       -1.6280     3.9960     0.6760 C.3   1 <1>   0.1960 
  8 C       -0.1010     3.4990    -1.1080 C.3   1 <1>  -0.0190 
  9 C        3.9590     1.7320    -0.3130 C.ar  1 <1>  -0.1500 
 10 C        2.5070    -0.1600    -0.1250 C.ar  1 <1>  -0.1500 
 11 O        2.1210     3.5550    -2.0010 O.2   1 <1>  -0.5700 
 12 C       -1.2390     5.2980    -0.0180 C.2   1 <1>  -0.2760 
 13 C       -2.7140     3.6040    -0.3170 C.2   1 <1>  -0.2880 
 14 C       -1.0020     4.7190    -1.4050 C.3   1 <1>   0.1960 
 15 C        5.0620     0.8910    -0.2640 C.ar  1 <1>   0.0830 
 16 C        3.6030    -1.0040    -0.0840 C.ar  1 <1>  -0.1500 
 17 C       -1.1300     6.5530     0.4430 C.2   1 <1>  -0.2760 
 18 C       -2.3770     4.0770    -1.5200 C.2   1 <1>  -0.2880 
 19 O        6.3380     1.3520    -0.3390 O.3   1 <1>  -0.2330 
 20 C        4.8800    -0.4790    -0.1570 C.ar  1 <1>  -0.1500 
 21 C       -1.4050     6.9690     1.8820 C.3   1 <1>  -0.1020 
 22 C       -0.7170     7.7430    -0.4130 C.3   1 <1>  -0.1020 
 23 C        6.8160     2.4760     0.1890 C.2   1 <1>   0.6590 
 24 O        6.1790     3.2140     0.8930 O.2   1 <1>  -0.5700 
 25 C        8.2530     2.7840    -0.1520 C.3   1 <1>  -0.1790 
 26 H        0.4140     4.0080     0.9090 H     1 <1>   0.0800 
 27 H       -1.9280     4.0870     1.7040 H     1 <1>   0.0800 
 28 H       -0.5750     2.6710    -1.6120 H     1 <1>   0.0800 
 29 H        4.0960     2.7940    -0.4130 H     1 <1>   0.1500 
 30 H        1.5170    -0.5770    -0.0610 H     1 <1>   0.1500 
 31 H       -3.5770     3.0510     0.0110 H     1 <1>   0.1500 
 32 H       -0.7160     5.3760    -2.2070 H     1 <1>   0.0800 
 33 H        3.4600    -2.0670     0.0050 H     1 <1>   0.1500 
 34 H       -2.8840     4.0320    -2.4690 H     1 <1>   0.1500 
 35 H        5.7360    -1.1290    -0.1280 H     1 <1>   0.1500 
 36 H       -0.5250     7.4130     2.3110 H     1 <1>   0.0800 
 37 H       -1.6900     6.1360     2.4940 H     1 <1>   0.0800 
 38 H       -2.2020     7.6900     1.9090 H     1 <1>   0.0800 
 39 H       -1.5010     8.4790    -0.4210 H     1 <1>   0.0800 
 40 H       -0.5180     7.4580    -1.4280 H     1 <1>   0.0800 
 41 H        0.1740     8.1940    -0.0130 H     1 <1>   0.0800 
 42 H        8.3570     2.8780    -1.2170 H     1 <1>   0.0800 
 43 H        8.8850     1.9900     0.2000 H     1 <1>   0.0800 
 44 H        8.5480     3.7050     0.3150 H     1 <1>   0.0800 
@<TRIPOS>BOND
  1   1   2  2   
  2   2   3  am  
  3   2   4  1   
  4   3   5  1   
  5   3   6  am  
  6   4   7  1   
  7   4   8  1   
  8   4  26  1   
  9   5   9  ar  
 10   5  10  ar  
 11   6   8  1   
 12   6  11  2   
 13   7  12  1   
 14   7  13  1   
 15   7  27  1   
 16   8  14  1   
 17   8  28  1   
 18   9  15  ar  
 19   9  29  1   
 20  10  16  ar  
 21  10  30  1   
 22  12  14  1   
 23  12  17  2   
 24  13  18  2   
 25  13  31  1   
 26  14  18  1   
 27  14  32  1   
 28  15  19  1   
 29  15  20  ar  
 30  16  20  ar  
 31  16  33  1   
 32  17  21  1   
 33  17  22  1   
 34  18  34  1   
 35  19  23  1   
 36  20  35  1   
 37  21  36  1   
 38  21  37  1   
 39  21  38  1   
 40  22  39  1   
 41  22  40  1   
 42  22  41  1   
 43  23  24  2   
 44  23  25  1   
 45  25  42  1   
 46  25  43  1   
 47  25  44  1   
@<TRIPOS>SUBSTRUCTURE
  1 ****   3 GROUP 4 **** **** 0

# MOE 2024.06 (io_trps.svl 2023.06)
