@<TRIPOS>MOLECULE
NONAME
46 48 1 0 0 
SMALL
USER_CHARGES


@<TRIPOS>ATOM
  1 O       -0.0590     2.6680    -2.2980 O.2   1 <1>  -0.5700 
  2 C        0.3700     2.4140    -1.1970 C.2   1 <1>   0.5690 
  3 N       -0.4060     1.9000    -0.2130 N.am  1 <1>  -0.7300 
  4 C        1.8480     2.6640    -0.8830 C.3   1 <1>   0.1710 
  5 C       -1.8200     1.5150    -0.3110 C.3   1 <1>   0.2200 
  6 N        2.4060     1.7890     0.1920 N.3   1 <1>  -0.8100 
  7 C       -2.5460     2.0060     0.9350 C.3   1 <1>  -0.1600 
  8 C       -1.9190    -0.0010    -0.1980 C.3   1 <1>  -0.1600 
  9 C        3.7350     2.2720     0.6270 C.3   1 <1>   0.1100 
 10 C        2.5180     0.3840    -0.2720 C.3   1 <1>   0.1100 
 11 C       -2.2470     0.9720     2.0280 C.3   1 <1>  -0.1600 
 12 C       -1.8230    -0.3110     1.3000 C.3   1 <1>  -0.1600 
 13 C        4.3430     1.3990     1.7440 C.3   1 <1>   0.2090 
 14 C        3.0850    -0.5530     0.8120 C.3   1 <1>   0.2090 
 15 N        4.3670    -0.0490     1.3850 N.pl3 1 <1>  -0.8380 
 16 C        5.5570    -0.5890     0.9100 C.ar  1 <1>   0.1000 
 17 C        6.0330    -0.3090    -0.3670 C.ar  1 <1>  -0.1500 
 18 C        6.2980    -1.4320     1.7260 C.ar  1 <1>  -0.1500 
 19 C        7.2200    -0.8600    -0.8150 C.ar  1 <1>  -0.1500 
 20 C        7.4850    -1.9860     1.2830 C.ar  1 <1>  -0.1500 
 21 C        7.9480    -1.7000     0.0100 C.ar  1 <1>  -0.1500 
 22 H        0.0690     1.6540     0.6600 H     1 <1>   0.3700 
 23 H        1.9330     3.6920    -0.5800 H     1 <1>   0.0800 
 24 H        2.4170     2.5400    -1.7880 H     1 <1>   0.0800 
 25 H       -2.2540     1.8930    -1.2220 H     1 <1>   0.0800 
 26 H       -3.6020     2.0050     0.7340 H     1 <1>   0.0800 
 27 H       -2.2500     3.0030     1.2110 H     1 <1>   0.0800 
 28 H       -1.1650    -0.5020    -0.7790 H     1 <1>   0.0800 
 29 H       -2.8870    -0.3050    -0.5570 H     1 <1>   0.0800 
 30 H        3.6440     3.2790     0.9940 H     1 <1>   0.0800 
 31 H        4.4120     2.2840    -0.2090 H     1 <1>   0.0800 
 32 H        3.1540     0.3350    -1.1380 H     1 <1>   0.0800 
 33 H        1.5480     0.0180    -0.5600 H     1 <1>   0.0800 
 34 H       -3.1130     0.8060     2.6450 H     1 <1>   0.0800 
 35 H       -1.4390     1.3190     2.6500 H     1 <1>   0.0800 
 36 H       -0.8050    -0.5520     1.5570 H     1 <1>   0.0800 
 37 H       -2.4540    -1.1430     1.5630 H     1 <1>   0.0800 
 38 H        3.7620     1.5230     2.6410 H     1 <1>   0.0800 
 39 H        5.3450     1.7320     1.9520 H     1 <1>   0.0800 
 40 H        3.2420    -1.5310     0.3920 H     1 <1>   0.0800 
 41 H        2.3650    -0.6480     1.6060 H     1 <1>   0.0800 
 42 H        5.4710     0.3420    -1.0060 H     1 <1>   0.1500 
 43 H        5.9270    -1.6460     2.7110 H     1 <1>   0.1500 
 44 H        7.5780    -0.6360    -1.8050 H     1 <1>   0.1500 
 45 H        8.0470    -2.6380     1.9280 H     1 <1>   0.1500 
 46 H        8.8720    -2.1300    -0.3360 H     1 <1>   0.1500 
@<TRIPOS>BOND
  1   1   2  2   
  2   2   3  am  
  3   2   4  1   
  4   3   5  1   
  5   3  22  1   
  6   4   6  1   
  7   4  23  1   
  8   4  24  1   
  9   5   7  1   
 10   5   8  1   
 11   5  25  1   
 12   6   9  1   
 13   6  10  1   
 14   7  11  1   
 15   7  26  1   
 16   7  27  1   
 17   8  12  1   
 18   8  28  1   
 19   8  29  1   
 20   9  13  1   
 21   9  30  1   
 22   9  31  1   
 23  10  14  1   
 24  10  32  1   
 25  10  33  1   
 26  11  12  1   
 27  11  34  1   
 28  11  35  1   
 29  12  36  1   
 30  12  37  1   
 31  13  15  1   
 32  13  38  1   
 33  13  39  1   
 34  14  15  1   
 35  14  40  1   
 36  14  41  1   
 37  15  16  1   
 38  16  17  ar  
 39  16  18  ar  
 40  17  19  ar  
 41  17  42  1   
 42  18  20  ar  
 43  18  43  1   
 44  19  21  ar  
 45  19  44  1   
 46  20  21  ar  
 47  20  45  1   
 48  21  46  1   
@<TRIPOS>SUBSTRUCTURE
  1 ****  10 GROUP 4 **** **** 0

# MOE 2024.06 (io_trps.svl 2023.06)
