@<TRIPOS>MOLECULE
NONAME
34 35 1 0 0 
SMALL
USER_CHARGES


@<TRIPOS>ATOM
  1 CL       3.1580    -1.8970     2.6260 Cl    1 <1>  -0.1770 
  2 C        2.4390    -0.3320     2.3000 C.ar  1 <1>   0.1770 
  3 C        2.5670     0.2630     1.0390 C.ar  1 <1>   0.1990 
  4 C        1.7640     0.2880     3.3330 C.ar  1 <1>  -0.1500 
  5 N        3.2340    -0.3460    -0.0270 N.am  1 <1>  -0.6930 
  6 C        2.0040     1.5220     0.8510 C.ar  1 <1>  -0.1500 
  7 C        1.2110     1.5330     3.1080 C.ar  1 <1>   0.1770 
  8 S        2.5170    -1.6380    -0.9280 S.o2  1 <1>   1.3330 
  9 C        4.6460     0.0520    -0.3320 C.3   1 <1>   0.2570 
 10 C        1.3260     2.1580     1.8790 C.ar  1 <1>  -0.1500 
 11 CL       0.3520     2.3360     4.3990 Cl    1 <1>  -0.1770 
 12 O        1.4830    -2.2290    -0.1190 O.2   1 <1>  -0.6500 
 13 O        3.5880    -2.4260    -1.4870 O.2   1 <1>  -0.6500 
 14 C        1.7340    -0.7450    -2.2520 C.3   1 <1>  -0.1350 
 15 C        5.5820    -0.0060     0.8800 C.2   1 <1>   0.5690 
 16 O        5.7640     1.0020     1.5220 O.2   1 <1>  -0.5700 
 17 N        6.2120    -1.1530     1.2350 N.am  1 <1>  -0.5790 
 18 C        6.0610    -2.4800     0.6220 C.3   1 <1>   0.0490 
 19 C        7.2360    -3.4020     0.6660 C.3   1 <1>  -0.2000 
 20 C        6.8350    -2.7650    -0.6240 C.3   1 <1>  -0.2000 
 21 H        1.6740    -0.1870     4.2930 H     1 <1>   0.1500 
 22 H        2.0990     2.0060    -0.1040 H     1 <1>   0.1500 
 23 H        5.0550    -0.5640    -1.1100 H     1 <1>   0.0800 
 24 H        4.6430     1.0640    -0.6950 H     1 <1>   0.0800 
 25 H        0.8890     3.1310     1.7350 H     1 <1>   0.1500 
 26 H        1.2380    -1.4310    -2.9100 H     1 <1>   0.0800 
 27 H        2.4620    -0.1940    -2.8140 H     1 <1>   0.0800 
 28 H        1.0070    -0.0630    -1.8580 H     1 <1>   0.0800 
 29 H        6.7580    -1.1200     2.0960 H     1 <1>   0.3700 
 30 H        5.0720    -2.8980     0.7330 H     1 <1>   0.1000 
 31 H        7.0620    -4.4570     0.7830 H     1 <1>   0.1000 
 32 H        8.1440    -3.0750     1.1420 H     1 <1>   0.1000 
 33 H        7.4630    -1.9970    -1.0390 H     1 <1>   0.1000 
 34 H        6.3700    -3.3770    -1.3790 H     1 <1>   0.1000 
@<TRIPOS>BOND
  1   1   2  1   
  2   2   3  ar  
  3   2   4  ar  
  4   3   5  1   
  5   3   6  ar  
  6   4   7  ar  
  7   4  21  1   
  8   5   8  am  
  9   5   9  1   
 10   6  10  ar  
 11   6  22  1   
 12   7  10  ar  
 13   7  11  1   
 14   8  12  2   
 15   8  13  2   
 16   8  14  1   
 17   9  15  1   
 18   9  23  1   
 19   9  24  1   
 20  10  25  1   
 21  14  26  1   
 22  14  27  1   
 23  14  28  1   
 24  15  16  2   
 25  15  17  am  
 26  17  18  1   
 27  17  29  1   
 28  18  19  1   
 29  18  20  1   
 30  18  30  1   
 31  19  20  1   
 32  19  31  1   
 33  19  32  1   
 34  20  33  1   
 35  20  34  1   
@<TRIPOS>SUBSTRUCTURE
  1 ****   5 GROUP 4 **** **** 0

# MOE 2024.06 (io_trps.svl 2023.06)
