@<TRIPOS>MOLECULE
NONAME
40 42 1 0 0 
SMALL
USER_CHARGES


@<TRIPOS>ATOM
  1 O       -0.0700    -0.4260     2.2280 O.2   1 <1>  -0.5700 
  2 C        0.2740    -1.1110     1.2950 C.2   1 <1>   0.5690 
  3 N       -0.5850    -1.4320     0.2930 N.am  1 <1>  -0.7300 
  4 C        1.7110    -1.6210     1.2590 C.3   1 <1>   0.1810 
  5 C       -2.0150    -1.0580     0.2040 C.3   1 <1>   0.1400 
  6 O        1.9740    -2.3830     0.0890 O.3   1 <1>  -0.3620 
  7 C       -2.8770    -2.2910    -0.1020 C.3   1 <1>   0.2000 
  8 C        3.2520    -2.7690    -0.0830 C.ar  1 <1>   0.0820 
  9 O       -2.4100    -2.9390    -1.2430 O.3   1 <1>  -0.5600 
 10 C       -4.3310    -1.9770    -0.4190 C.3   1 <1>  -0.1600 
 11 C        4.1540    -1.9170    -0.7670 C.ar  1 <1>   0.0000 
 12 C        3.6490    -3.9850     0.4090 C.ar  1 <1>  -0.1500 
 13 C       -3.4180    -3.7180    -1.8040 C.3   1 <1>   0.1200 
 14 C       -4.7420    -3.1450    -1.2990 C.3   1 <1>  -0.1600 
 15 C        5.4980    -2.3360    -0.8940 C.ar  1 <1>   0.0000 
 16 C        3.7850    -0.6750    -1.3290 C.ar  1 <1>  -0.1500 
 17 C        4.9750    -4.3990     0.2670 C.ar  1 <1>  -0.1500 
 18 C        5.8770    -3.5880    -0.3670 C.ar  1 <1>  -0.1500 
 19 C        6.4160    -1.4910    -1.5490 C.ar  1 <1>  -0.1500 
 20 C        4.6970     0.1240    -1.9620 C.ar  1 <1>  -0.1500 
 21 C        6.0300    -0.2880    -2.0710 C.ar  1 <1>  -0.1500 
 22 H       -0.2690    -2.0640    -0.4540 H     1 <1>   0.3700 
 23 H        1.8900    -2.2450     2.1150 H     1 <1>   0.0800 
 24 H        2.3840    -0.7840     1.2810 H     1 <1>   0.0800 
 25 H       -2.1380    -0.3300    -0.5790 H     1 <1>   0.0800 
 26 H       -2.3360    -0.6130     1.1300 H     1 <1>   0.0800 
 27 H       -2.8200    -2.9910     0.7150 H     1 <1>   0.0800 
 28 H       -4.3940    -1.0570    -0.9740 H     1 <1>   0.0800 
 29 H       -4.9280    -1.8980     0.4720 H     1 <1>   0.0800 
 30 H        2.9440    -4.6260     0.9070 H     1 <1>   0.1500 
 31 H       -3.2800    -4.7350    -1.4800 H     1 <1>   0.0800 
 32 H       -3.3340    -3.6570    -2.8760 H     1 <1>   0.0800 
 33 H       -5.3700    -2.8310    -2.1140 H     1 <1>   0.0800 
 34 H       -5.2610    -3.8950    -0.7270 H     1 <1>   0.0800 
 35 H        2.7600    -0.3620    -1.2540 H     1 <1>   0.1500 
 36 H        5.2720    -5.3550     0.6610 H     1 <1>   0.1500 
 37 H        6.9000    -3.8990    -0.4760 H     1 <1>   0.1500 
 38 H        7.4380    -1.8130    -1.6340 H     1 <1>   0.1500 
 39 H        4.4040     1.0690    -2.3850 H     1 <1>   0.1500 
 40 H        6.7360     0.3530    -2.5700 H     1 <1>   0.1500 
@<TRIPOS>BOND
  1   1   2  2   
  2   2   3  am  
  3   2   4  1   
  4   3   5  1   
  5   3  22  1   
  6   4   6  1   
  7   4  23  1   
  8   4  24  1   
  9   5   7  1   
 10   5  25  1   
 11   5  26  1   
 12   6   8  1   
 13   7   9  1   
 14   7  10  1   
 15   7  27  1   
 16   8  11  ar  
 17   8  12  ar  
 18   9  13  1   
 19  10  14  1   
 20  10  28  1   
 21  10  29  1   
 22  11  15  ar  
 23  11  16  ar  
 24  12  17  ar  
 25  12  30  1   
 26  13  14  1   
 27  13  31  1   
 28  13  32  1   
 29  14  33  1   
 30  14  34  1   
 31  15  18  ar  
 32  15  19  ar  
 33  16  20  ar  
 34  16  35  1   
 35  17  18  ar  
 36  17  36  1   
 37  18  37  1   
 38  19  21  ar  
 39  19  38  1   
 40  20  21  ar  
 41  20  39  1   
 42  21  40  1   
@<TRIPOS>SUBSTRUCTURE
  1 ****   6 GROUP 4 **** **** 0

# MOE 2024.06 (io_trps.svl 2023.06)
