@<TRIPOS>MOLECULE
NONAME
46 48 1 0 0 
SMALL
USER_CHARGES


@<TRIPOS>ATOM
  1 CL       2.5610     1.3520     1.7290 Cl    1 <1>  -0.1770 
  2 C        3.3210    -0.1090     1.1540 C.ar  1 <1>   0.1770 
  3 C        3.9300    -0.9580     2.0580 C.ar  1 <1>  -0.1500 
  4 C        3.3050    -0.3940    -0.1980 C.ar  1 <1>  -0.1500 
  5 C        4.5360    -2.1150     1.5980 C.ar  1 <1>  -0.1500 
  6 C        3.9130    -1.5530    -0.6530 C.ar  1 <1>  -0.1500 
  7 C        4.5310    -2.4150     0.2420 C.ar  1 <1>  -0.1430 
  8 C        5.2240    -3.6800    -0.2620 C.3   1 <1>   0.0440 
  9 C        6.7060    -3.4730    -0.5330 C.2   1 <1>   0.5690 
 10 O        7.3840    -4.4450    -0.7610 O.2   1 <1>  -0.5700 
 11 N        7.2060    -2.1990    -0.4960 N.am  1 <1>  -0.5470 
 12 C        8.5030    -1.7190    -0.7170 C.ar  1 <1>   0.1170 
 13 C        8.8990    -0.5370    -0.1040 C.ar  1 <1>  -0.1500 
 14 C        9.4130    -2.3710    -1.5410 C.ar  1 <1>  -0.1500 
 15 C       10.1720    -0.0300    -0.2900 C.ar  1 <1>  -0.1500 
 16 C       10.6860    -1.8690    -1.7340 C.ar  1 <1>  -0.1500 
 17 C       11.0790    -0.6990    -1.1000 C.ar  1 <1>  -0.1430 
 18 C       12.4860    -0.1670    -1.2870 C.3   1 <1>   0.4860 
 19 N       13.2840    -0.5180    -0.0800 N.4   1 <1>  -0.9590 
 20 C       14.6280     0.1540    -0.0810 C.3   1 <1>   0.3430 
 21 C       13.4280    -2.0090     0.0800 C.3   1 <1>   0.3430 
 22 C       15.4880    -0.3050     1.1130 C.3   1 <1>   0.1200 
 23 C       14.3520    -2.3650     1.2600 C.3   1 <1>   0.1200 
 24 O       15.5760    -1.7000     1.1370 O.3   1 <1>  -0.5600 
 25 H        3.9260    -0.7140     3.1050 H     1 <1>   0.1500 
 26 H        2.8230     0.2820    -0.8810 H     1 <1>   0.1500 
 27 H        5.0110    -2.7780     2.3020 H     1 <1>   0.1500 
 28 H        3.9000    -1.7760    -1.7070 H     1 <1>   0.1500 
 29 H        4.7590    -4.0170    -1.1700 H     1 <1>   0.0800 
 30 H        5.1190    -4.4650     0.4640 H     1 <1>   0.0800 
 31 H        6.5190    -1.5000    -0.2070 H     1 <1>   0.3700 
 32 H        8.2030    -0.0120     0.5270 H     1 <1>   0.1500 
 33 H        9.1210    -3.2790    -2.0410 H     1 <1>   0.1500 
 34 H       10.4400     0.8910     0.2010 H     1 <1>   0.1500 
 35 H       11.3570    -2.4050    -2.3840 H     1 <1>   0.1500 
 36 H       12.4480     0.9030    -1.4120 H     1 <1>   0.0800 
 37 H       12.9310    -0.5990    -2.1690 H     1 <1>   0.0800 
 38 H       12.7490    -0.1860     0.7320 H     1 <1>   0.4500 
 39 H       14.5090     1.2240    -0.0420 H     1 <1>   0.0800 
 40 H       15.1570    -0.0900    -0.9880 H     1 <1>   0.0800 
 41 H       13.8470    -2.4340    -0.8170 H     1 <1>   0.0800 
 42 H       12.4610    -2.4600     0.2380 H     1 <1>   0.0800 
 43 H       15.0750     0.0330     2.0470 H     1 <1>   0.0800 
 44 H       16.4880     0.0830     1.0210 H     1 <1>   0.0800 
 45 H       14.5530    -3.4230     1.2670 H     1 <1>   0.0800 
 46 H       13.9030    -2.0980     2.2020 H     1 <1>   0.0800 
@<TRIPOS>BOND
  1   1   2  1   
  2   2   3  ar  
  3   2   4  ar  
  4   3   5  ar  
  5   3  25  1   
  6   4   6  ar  
  7   4  26  1   
  8   5   7  ar  
  9   5  27  1   
 10   6   7  ar  
 11   6  28  1   
 12   7   8  1   
 13   8   9  1   
 14   8  29  1   
 15   8  30  1   
 16   9  10  2   
 17   9  11  am  
 18  11  12  1   
 19  11  31  1   
 20  12  13  ar  
 21  12  14  ar  
 22  13  15  ar  
 23  13  32  1   
 24  14  16  ar  
 25  14  33  1   
 26  15  17  ar  
 27  15  34  1   
 28  16  17  ar  
 29  16  35  1   
 30  17  18  1   
 31  18  19  1   
 32  18  36  1   
 33  18  37  1   
 34  19  20  1   
 35  19  21  1   
 36  19  38  1   
 37  20  22  1   
 38  20  39  1   
 39  20  40  1   
 40  21  23  1   
 41  21  41  1   
 42  21  42  1   
 43  22  24  1   
 44  22  43  1   
 45  22  44  1   
 46  23  24  1   
 47  23  45  1   
 48  23  46  1   
@<TRIPOS>SUBSTRUCTURE
  1 ****  12 GROUP 4 **** **** 0

# MOE 2024.06 (io_trps.svl 2023.06)
