@<TRIPOS>MOLECULE
NONAME
53 57 1 0 0 
SMALL
USER_CHARGES


@<TRIPOS>ATOM
  1 F       -2.3450     0.0960     2.6150 F     1 <1>  -0.1900 
  2 C       -2.9640     0.3220     1.4890 C.ar  1 <1>   0.1900 
  3 C       -3.1280     1.6260     1.0700 C.ar  1 <1>  -0.1500 
  4 C       -3.4310    -0.7550     0.7620 C.ar  1 <1>  -0.1500 
  5 C       -3.7950     1.8940    -0.1250 C.ar  1 <1>   0.0860 
  6 C       -4.0840    -0.5060    -0.4320 C.ar  1 <1>  -0.1500 
  7 C       -3.9970     3.2610    -0.5750 C.2   1 <1>   0.5440 
  8 C       -4.2580     0.7990    -0.8650 C.ar  1 <1>  -0.1500 
  9 O       -3.2540     4.1550    -0.2160 O.2   1 <1>  -0.5700 
 10 N       -5.0680     3.6180    -1.3630 N.am  1 <1>  -0.6600 
 11 C       -6.4460     3.3950    -0.8510 C.3   1 <1>   0.1400 
 12 C       -4.9550     4.8360    -2.2150 C.3   1 <1>   0.1400 
 13 C       -6.9240     4.6380    -0.0700 C.3   1 <1>   0.3430 
 14 C       -5.4050     6.0720    -1.4170 C.3   1 <1>   0.3430 
 15 N       -6.8100     5.9250    -0.8630 N.4   1 <1>  -0.9590 
 16 C       -7.2840     7.1370    -0.1140 C.3   1 <1>   0.5030 
 17 C       -8.7540     6.9310     0.3260 C.3   1 <1>  -0.1600 
 18 C       -7.2340     8.3730    -1.0450 C.3   1 <1>  -0.1600 
 19 C       -6.4210     7.4170     1.1380 C.3   1 <1>  -0.1600 
 20 C       -9.2830     8.1760     1.0620 C.3   1 <1>  -0.0800 
 21 C       -7.7550     9.6260    -0.3160 C.3   1 <1>  -0.0800 
 22 C       -6.9430     8.6670     1.8750 C.3   1 <1>  -0.0800 
 23 C       -9.2100     9.3910     0.1230 C.3   1 <1>  -0.1600 
 24 C       -8.4050     8.4370     2.3000 C.3   1 <1>  -0.1600 
 25 C       -6.8830     9.8810     0.9280 C.3   1 <1>  -0.1600 
 26 H       -2.7380     2.4300     1.6690 H     1 <1>   0.1500 
 27 H       -3.2820    -1.7580     1.1230 H     1 <1>   0.1500 
 28 H       -4.4510    -1.3290    -1.0240 H     1 <1>   0.1500 
 29 H       -4.7570     0.9720    -1.8030 H     1 <1>   0.1500 
 30 H       -6.4640     2.5390    -0.1980 H     1 <1>   0.0800 
 31 H       -7.1100     3.1940    -1.6740 H     1 <1>   0.0800 
 32 H       -5.5550     4.7200    -3.1000 H     1 <1>   0.0800 
 33 H       -3.9320     4.9660    -2.5260 H     1 <1>   0.0800 
 34 H       -6.3280     4.7160     0.8240 H     1 <1>   0.0800 
 35 H       -7.9450     4.4760     0.2280 H     1 <1>   0.0800 
 36 H       -5.3440     6.9310    -2.0620 H     1 <1>   0.0800 
 37 H       -4.7070     6.2140    -0.6080 H     1 <1>   0.0800 
 38 H       -7.4380     5.8410    -1.6680 H     1 <1>   0.4500 
 39 H       -8.8450     6.1030     1.0030 H     1 <1>   0.0800 
 40 H       -9.3760     6.7420    -0.5300 H     1 <1>   0.0800 
 41 H       -6.2290     8.5860    -1.3560 H     1 <1>   0.0800 
 42 H       -7.8350     8.2050    -1.9210 H     1 <1>   0.0800 
 43 H       -5.3960     7.5900     0.8650 H     1 <1>   0.0800 
 44 H       -6.4530     6.5870     1.8180 H     1 <1>   0.0800 
 45 H      -10.3040     8.0180     1.3690 H     1 <1>   0.0800 
 46 H       -7.7080    10.4800    -0.9720 H     1 <1>   0.0800 
 47 H       -6.3380     8.8590     2.7460 H     1 <1>   0.0800 
 48 H       -9.5810    10.2650     0.6310 H     1 <1>   0.0800 
 49 H       -9.8350     9.2310    -0.7390 H     1 <1>   0.0800 
 50 H       -8.7690     9.3050     2.8250 H     1 <1>   0.0800 
 51 H       -8.4650     7.6050     2.9800 H     1 <1>   0.0800 
 52 H       -7.2360    10.7590     1.4430 H     1 <1>   0.0800 
 53 H       -5.8650    10.0710     0.6350 H     1 <1>   0.0800 
@<TRIPOS>BOND
  1   1   2  1   
  2   2   3  ar  
  3   2   4  ar  
  4   3   5  ar  
  5   3  26  1   
  6   4   6  ar  
  7   4  27  1   
  8   5   7  1   
  9   5   8  ar  
 10   6   8  ar  
 11   6  28  1   
 12   7   9  2   
 13   7  10  am  
 14   8  29  1   
 15  10  11  1   
 16  10  12  1   
 17  11  13  1   
 18  11  30  1   
 19  11  31  1   
 20  12  14  1   
 21  12  32  1   
 22  12  33  1   
 23  13  15  1   
 24  13  34  1   
 25  13  35  1   
 26  14  15  1   
 27  14  36  1   
 28  14  37  1   
 29  15  16  1   
 30  15  38  1   
 31  16  17  1   
 32  16  18  1   
 33  16  19  1   
 34  17  20  1   
 35  17  39  1   
 36  17  40  1   
 37  18  21  1   
 38  18  41  1   
 39  18  42  1   
 40  19  22  1   
 41  19  43  1   
 42  19  44  1   
 43  20  23  1   
 44  20  24  1   
 45  20  45  1   
 46  21  23  1   
 47  21  25  1   
 48  21  46  1   
 49  22  24  1   
 50  22  25  1   
 51  22  47  1   
 52  23  48  1   
 53  23  49  1   
 54  24  50  1   
 55  24  51  1   
 56  25  52  1   
 57  25  53  1   
@<TRIPOS>SUBSTRUCTURE
  1 ****  13 GROUP 4 **** **** 0

# MOE 2024.06 (io_trps.svl 2023.06)
