@<TRIPOS>MOLECULE
NONAME
50 53 1 0 0 
SMALL
USER_CHARGES


@<TRIPOS>ATOM
  1 S       -0.9560    -1.5700    -1.2920 S.3   1 <1>  -0.0800 
  2 C       -1.8010    -0.6960    -0.0210 C.2   1 <1>  -0.1400 
  3 C        0.1080    -2.3310    -0.1230 C.2   1 <1>  -0.1100 
  4 C       -1.2730    -0.9920     1.1820 C.2   1 <1>  -0.1500 
  5 C       -2.9330     0.2290    -0.4320 C.3   1 <1>   0.2900 
  6 C       -0.1880    -1.9240     1.1240 C.2   1 <1>  -0.1500 
  7 N       -4.2610    -0.3980    -0.2030 N.3   1 <1>  -0.8100 
  8 C       -5.4740     0.4500    -0.4790 C.3   1 <1>   0.1900 
  9 C       -4.3390    -1.7010    -0.9220 C.3   1 <1>   0.1100 
 10 C       -5.3590     1.8990     0.1060 C.3   1 <1>  -0.0800 
 11 C       -6.7510    -0.3160     0.0200 C.3   1 <1>   0.4230 
 12 C       -5.7380    -2.3490    -0.9140 C.3   1 <1>   0.3430 
 13 C       -6.6740     2.5270     0.6360 C.3   1 <1>  -0.1600 
 14 C       -4.7680     2.8660    -0.9500 C.3   1 <1>  -0.1600 
 15 N       -6.5740    -1.7890     0.1890 N.4   1 <1>  -0.9590 
 16 C       -7.9770    -0.2120    -0.8900 C.3   1 <1>  -0.1600 
 17 C       -6.4470     3.9320     1.2120 C.3   1 <1>  -0.1600 
 18 C       -4.5220     4.2680    -0.3780 C.3   1 <1>  -0.1600 
 19 C       -7.9290    -2.3820     0.2530 C.3   1 <1>   0.3430 
 20 C       -8.8020    -1.4730    -0.6100 C.3   1 <1>  -0.1600 
 21 C       -5.8160     4.8680     0.1770 C.3   1 <1>  -0.1600 
 22 H        0.8530    -3.0100    -0.4990 H     1 <1>   0.1500 
 23 H       -1.6030    -0.5890     2.1240 H     1 <1>   0.1500 
 24 H       -2.8190     0.4970    -1.4680 H     1 <1>   0.0800 
 25 H       -2.8380     1.1190     0.1630 H     1 <1>   0.0800 
 26 H        0.3170    -2.2400     2.0210 H     1 <1>   0.1500 
 27 H       -5.5620     0.5490    -1.5480 H     1 <1>   0.0800 
 28 H       -3.6590    -2.3960    -0.4590 H     1 <1>   0.0800 
 29 H       -4.0230    -1.5790    -1.9450 H     1 <1>   0.0800 
 30 H       -4.6990     1.8590     0.9560 H     1 <1>   0.0800 
 31 H       -7.0210     0.0710     0.9860 H     1 <1>   0.0800 
 32 H       -5.6340    -3.4160    -0.8060 H     1 <1>   0.0800 
 33 H       -6.2160    -2.1580    -1.8600 H     1 <1>   0.0800 
 34 H       -7.0960     1.9380     1.4280 H     1 <1>   0.0800 
 35 H       -7.3930     2.6040    -0.1610 H     1 <1>   0.0800 
 36 H       -5.4500     2.9500    -1.7790 H     1 <1>   0.0800 
 37 H       -3.8390     2.5060    -1.3460 H     1 <1>   0.0800 
 38 H       -6.0350    -1.9190     1.0560 H     1 <1>   0.4500 
 39 H       -7.6750    -0.1950    -1.9230 H     1 <1>   0.0800 
 40 H       -8.5430     0.6790    -0.6860 H     1 <1>   0.0800 
 41 H       -5.8000     3.8680     2.0710 H     1 <1>   0.0800 
 42 H       -7.3850     4.3460     1.5400 H     1 <1>   0.0800 
 43 H       -4.1330     4.9110    -1.1490 H     1 <1>   0.0800 
 44 H       -3.7870     4.2130     0.4070 H     1 <1>   0.0800 
 45 H       -8.2870    -2.3590     1.2700 H     1 <1>   0.0800 
 46 H       -7.9370    -3.4000    -0.1020 H     1 <1>   0.0800 
 47 H       -9.0660    -1.9690    -1.5280 H     1 <1>   0.0800 
 48 H       -9.7100    -1.2370    -0.0810 H     1 <1>   0.0800 
 49 H       -5.6070     5.8210     0.6310 H     1 <1>   0.0800 
 50 H       -6.5110     5.0320    -0.6290 H     1 <1>   0.0800 
@<TRIPOS>BOND
  1   1   2  1   
  2   1   3  1   
  3   2   4  2   
  4   2   5  1   
  5   3   6  2   
  6   3  22  1   
  7   4   6  1   
  8   4  23  1   
  9   5   7  1   
 10   5  24  1   
 11   5  25  1   
 12   6  26  1   
 13   7   8  1   
 14   7   9  1   
 15   8  10  1   
 16   8  11  1   
 17   8  27  1   
 18   9  12  1   
 19   9  28  1   
 20   9  29  1   
 21  10  13  1   
 22  10  14  1   
 23  10  30  1   
 24  11  15  1   
 25  11  16  1   
 26  11  31  1   
 27  12  15  1   
 28  12  32  1   
 29  12  33  1   
 30  13  17  1   
 31  13  34  1   
 32  13  35  1   
 33  14  18  1   
 34  14  36  1   
 35  14  37  1   
 36  15  19  1   
 37  15  38  1   
 38  16  20  1   
 39  16  39  1   
 40  16  40  1   
 41  17  21  1   
 42  17  41  1   
 43  17  42  1   
 44  18  21  1   
 45  18  43  1   
 46  18  44  1   
 47  19  20  1   
 48  19  45  1   
 49  19  46  1   
 50  20  47  1   
 51  20  48  1   
 52  21  49  1   
 53  21  50  1   
@<TRIPOS>SUBSTRUCTURE
  1 ****   7 GROUP 4 **** **** 0

# MOE 2024.06 (io_trps.svl 2023.06)
