@<TRIPOS>MOLECULE
NONAME
49 50 1 0 0 
SMALL
USER_CHARGES


@<TRIPOS>ATOM
  1 S        0.1940     0.4250     0.6930 S.o2  1 <1>   1.3330 
  2 O        1.2100     0.0880     1.6580 O.2   1 <1>  -0.6500 
  3 O       -0.8210     1.4020     1.0070 O.2   1 <1>  -0.6500 
  4 N       -0.6230    -1.0350     0.2590 N.am  1 <1>  -0.6930 
  5 C        0.9660     0.9190    -0.8330 C.3   1 <1>  -0.1350 
  6 C        0.1330    -2.0460    -0.3260 C.ar  1 <1>   0.1990 
  7 C       -1.7560    -1.3730     1.1880 C.3   1 <1>   0.3370 
  8 C        0.0730    -2.2390    -1.7000 C.ar  1 <1>  -0.1500 
  9 C        0.9930    -2.8420     0.4210 C.ar  1 <1>  -0.1500 
 10 C       -1.8170    -2.8180     1.7630 C.2   1 <1>   0.5690 
 11 C       -3.0790    -0.8820     0.5740 C.3   1 <1>  -0.2400 
 12 C        0.8510    -3.2040    -2.3150 C.ar  1 <1>  -0.1500 
 13 C        1.7680    -3.8100    -0.1900 C.ar  1 <1>  -0.1500 
 14 O       -1.4110    -2.9370     2.8990 O.2   1 <1>  -0.5700 
 15 N       -2.3420    -3.9170     1.1030 N.am  1 <1>  -0.6600 
 16 C        1.7020    -3.9970    -1.5620 C.ar  1 <1>  -0.1430 
 17 C       -2.6130    -3.9940    -0.3600 C.3   1 <1>   0.1400 
 18 C       -2.6820    -5.1430     1.8870 C.3   1 <1>   0.1400 
 19 C        2.5550    -5.0620    -2.2270 C.3   1 <1>  -0.0970 
 20 C       -1.8540    -5.1350    -1.0530 C.3   1 <1>  -0.1600 
 21 C       -1.5720    -6.1880     1.7440 C.3   1 <1>  -0.1600 
 22 C       -2.3790    -6.5360    -0.7090 C.3   1 <1>  -0.1600 
 23 C       -1.7460    -7.1440     0.5520 C.3   1 <1>  -0.1600 
 24 H        1.4780     1.8510    -0.6980 H     1 <1>   0.0800 
 25 H        0.2260     1.0390    -1.6000 H     1 <1>   0.0800 
 26 H        1.6770     0.1800    -1.1460 H     1 <1>   0.0800 
 27 H       -1.6200    -0.7690     2.0700 H     1 <1>   0.0800 
 28 H       -0.5860    -1.6260    -2.2860 H     1 <1>   0.1500 
 29 H        1.0560    -2.6960     1.4860 H     1 <1>   0.1500 
 30 H       -3.2260    -1.2540    -0.4200 H     1 <1>   0.0800 
 31 H       -3.0880     0.1920     0.5390 H     1 <1>   0.0800 
 32 H       -3.9000    -1.1990     1.1900 H     1 <1>   0.0800 
 33 H        0.7920    -3.3370    -3.3820 H     1 <1>   0.1500 
 34 H        2.4250    -4.4160     0.4090 H     1 <1>   0.1500 
 35 H       -2.3090    -3.0840    -0.8330 H     1 <1>   0.0800 
 36 H       -3.6720    -4.1090    -0.5170 H     1 <1>   0.0800 
 37 H       -3.6290    -5.5400     1.5670 H     1 <1>   0.0800 
 38 H       -2.7820    -4.8860     2.9280 H     1 <1>   0.0800 
 39 H        2.1140    -5.3760    -3.1560 H     1 <1>   0.0800 
 40 H        2.6430    -5.9210    -1.5860 H     1 <1>   0.0800 
 41 H        3.5370    -4.6710    -2.4220 H     1 <1>   0.0800 
 42 H       -0.8040    -5.0630    -0.8380 H     1 <1>   0.0800 
 43 H       -1.9690    -4.9920    -2.1130 H     1 <1>   0.0800 
 44 H       -1.5440    -6.7780     2.6430 H     1 <1>   0.0800 
 45 H       -0.6250    -5.6790     1.6760 H     1 <1>   0.0800 
 46 H       -2.1670    -7.1970    -1.5330 H     1 <1>   0.0800 
 47 H       -3.4490    -6.5030    -0.6020 H     1 <1>   0.0800 
 48 H       -2.3540    -7.9770     0.8590 H     1 <1>   0.0800 
 49 H       -0.7760    -7.5380     0.3000 H     1 <1>   0.0800 
@<TRIPOS>BOND
  1   1   2  2   
  2   1   3  2   
  3   1   4  am  
  4   1   5  1   
  5   4   6  1   
  6   4   7  1   
  7   5  24  1   
  8   5  25  1   
  9   5  26  1   
 10   6   8  ar  
 11   6   9  ar  
 12   7  10  1   
 13   7  11  1   
 14   7  27  1   
 15   8  12  ar  
 16   8  28  1   
 17   9  13  ar  
 18   9  29  1   
 19  10  14  2   
 20  10  15  am  
 21  11  30  1   
 22  11  31  1   
 23  11  32  1   
 24  12  16  ar  
 25  12  33  1   
 26  13  16  ar  
 27  13  34  1   
 28  15  17  1   
 29  15  18  1   
 30  16  19  1   
 31  17  20  1   
 32  17  35  1   
 33  17  36  1   
 34  18  21  1   
 35  18  37  1   
 36  18  38  1   
 37  19  39  1   
 38  19  40  1   
 39  19  41  1   
 40  20  22  1   
 41  20  42  1   
 42  20  43  1   
 43  21  23  1   
 44  21  44  1   
 45  21  45  1   
 46  22  23  1   
 47  22  46  1   
 48  22  47  1   
 49  23  48  1   
 50  23  49  1   
@<TRIPOS>SUBSTRUCTURE
  1 ****   6 GROUP 4 **** **** 0

# MOE 2024.06 (io_trps.svl 2023.06)
