@<TRIPOS>MOLECULE
NONAME
43 45 1 0 0 
SMALL
USER_CHARGES


@<TRIPOS>ATOM
  1 O       -0.6800     1.0230    -1.5850 O.2   1 <1>  -0.5700 
  2 C       -0.8420    -0.1360    -1.2760 C.2   1 <1>   0.5690 
  3 N       -1.9290    -0.5300    -0.5340 N.am  1 <1>  -0.6600 
  4 C        0.2060    -1.1330    -1.7590 C.3   1 <1>   0.0440 
  5 C       -2.2080    -1.9300    -0.0700 C.3   1 <1>   0.1400 
  6 C       -2.9400     0.4610    -0.0450 C.3   1 <1>   0.1400 
  7 C        0.9650    -1.8270    -0.6300 C.ar  1 <1>  -0.1440 
  8 C       -3.6540    -2.3550    -0.3790 C.3   1 <1>   0.2090 
  9 C       -4.3760     0.0140    -0.3690 C.3   1 <1>   0.2090 
 10 C        1.1780    -3.1970    -0.6680 C.ar  1 <1>  -0.1500 
 11 C        1.4500    -1.0950     0.4430 C.ar  1 <1>  -0.1500 
 12 N       -4.6420    -1.3620     0.1410 N.pl3 1 <1>  -0.8380 
 13 C        1.8560    -3.8370     0.3570 C.ar  1 <1>  -0.1440 
 14 C        2.1280    -1.7270     1.4690 C.ar  1 <1>  -0.1500 
 15 C       -5.9670    -1.7450     0.1920 C.ar  1 <1>   0.4100 
 16 C        2.3280    -3.0960     1.4270 C.ar  1 <1>  -0.1500 
 17 C        2.0770    -5.3380     0.3050 C.3   1 <1>  -0.0970 
 18 N       -6.4110    -2.5410    -0.7730 N.ar  1 <1>  -0.6200 
 19 C       -6.7720    -1.2780     1.2280 C.ar  1 <1>  -0.1500 
 20 C       -7.6890    -2.8760    -0.7020 C.ar  1 <1>   0.1600 
 21 C       -8.0990    -1.6340     1.2900 C.ar  1 <1>  -0.1500 
 22 C       -8.5630    -2.4600     0.2870 C.ar  1 <1>  -0.1500 
 23 H        0.9180    -0.6090    -2.3710 H     1 <1>   0.0800 
 24 H       -0.2820    -1.8550    -2.3850 H     1 <1>   0.0800 
 25 H       -2.0500    -1.9810     0.9930 H     1 <1>   0.0800 
 26 H       -1.5440    -2.6320    -0.5340 H     1 <1>   0.0800 
 27 H       -2.7690     1.4260    -0.4870 H     1 <1>   0.0800 
 28 H       -2.8390     0.5640     1.0210 H     1 <1>   0.0800 
 29 H       -3.8490    -3.3150     0.0670 H     1 <1>   0.0800 
 30 H       -3.7770    -2.4540    -1.4440 H     1 <1>   0.0800 
 31 H       -4.5210     0.0310    -1.4360 H     1 <1>   0.0800 
 32 H       -5.0720     0.7050     0.0720 H     1 <1>   0.0800 
 33 H        0.8150    -3.7750    -1.4990 H     1 <1>   0.1500 
 34 H        1.3010    -0.0290     0.4850 H     1 <1>   0.1500 
 35 H        2.5000    -1.1540     2.3000 H     1 <1>   0.1500 
 36 H        2.8560    -3.5780     2.2320 H     1 <1>   0.1500 
 37 H        1.2040    -5.8470     0.6700 H     1 <1>   0.0800 
 38 H        2.9200    -5.6170     0.9110 H     1 <1>   0.0800 
 39 H        2.2680    -5.6520    -0.7050 H     1 <1>   0.0800 
 40 H       -6.3340    -0.6440     1.9740 H     1 <1>   0.1500 
 41 H       -8.0620    -3.5210    -1.4790 H     1 <1>   0.1500 
 42 H       -8.7430    -1.2880     2.0800 H     1 <1>   0.1500 
 43 H       -9.5890    -2.7780     0.2720 H     1 <1>   0.1500 
@<TRIPOS>BOND
  1   1   2  2   
  2   2   3  am  
  3   2   4  1   
  4   3   5  1   
  5   3   6  1   
  6   4   7  1   
  7   4  23  1   
  8   4  24  1   
  9   5   8  1   
 10   5  25  1   
 11   5  26  1   
 12   6   9  1   
 13   6  27  1   
 14   6  28  1   
 15   7  10  ar  
 16   7  11  ar  
 17   8  12  1   
 18   8  29  1   
 19   8  30  1   
 20   9  12  1   
 21   9  31  1   
 22   9  32  1   
 23  10  13  ar  
 24  10  33  1   
 25  11  14  ar  
 26  11  34  1   
 27  12  15  1   
 28  13  16  ar  
 29  13  17  1   
 30  14  16  ar  
 31  14  35  1   
 32  15  18  ar  
 33  15  19  ar  
 34  16  36  1   
 35  17  37  1   
 36  17  38  1   
 37  17  39  1   
 38  18  20  ar  
 39  19  21  ar  
 40  19  40  1   
 41  20  22  ar  
 42  20  41  1   
 43  21  22  ar  
 44  21  42  1   
 45  22  43  1   
@<TRIPOS>SUBSTRUCTURE
  1 ****   5 GROUP 4 **** **** 0

# MOE 2024.06 (io_trps.svl 2023.06)
