@<TRIPOS>MOLECULE
NONAME
49 51 1 0 0 
SMALL
USER_CHARGES


@<TRIPOS>ATOM
  1 N        0.0540     0.0680     0.5680 N.3   1 <1>  -0.8100 
  2 C       -1.2070     0.7730     0.9100 C.3   1 <1>   0.1900 
  3 C       -0.0270    -1.3600     0.9590 C.3   1 <1>   0.1100 
  4 C        1.2680     0.7000     1.1470 C.3   1 <1>   0.2540 
  5 C       -2.4620     0.0600     0.3050 C.3   1 <1>   0.4230 
  6 C       -1.1550     2.2390     0.4530 C.3   1 <1>  -0.2400 
  7 C       -1.2000    -2.0730     0.2690 C.3   1 <1>   0.3430 
  8 C        2.5320    -0.0440     0.7400 C.ar  1 <1>  -0.1440 
  9 N       -2.5240    -1.4150     0.5530 N.4   1 <1>  -0.9590 
 10 C       -2.6200     0.1670    -1.2120 C.3   1 <1>  -0.1600 
 11 C        2.8690    -0.1600    -0.5990 C.ar  1 <1>  -0.1500 
 12 C        3.3570    -0.6170     1.6950 C.ar  1 <1>  -0.1500 
 13 C       -3.5650    -1.9280    -0.3720 C.3   1 <1>   0.3430 
 14 C       -3.4880    -1.0320    -1.6080 C.3   1 <1>  -0.1600 
 15 C        4.0120    -0.8420    -0.9780 C.ar  1 <1>  -0.1500 
 16 C        4.4990    -1.3000     1.3140 C.ar  1 <1>  -0.1500 
 17 C        4.8390    -1.4200    -0.0250 C.ar  1 <1>  -0.1440 
 18 C        6.1060    -2.1730    -0.4260 C.3   1 <1>   0.0630 
 19 C        7.0880    -1.2430    -1.1470 C.3   1 <1>  -0.2400 
 20 C        5.7710    -3.3880    -1.2970 C.3   1 <1>  -0.2400 
 21 H       -1.3240     0.7690     1.9810 H     1 <1>   0.0800 
 22 H       -0.1180    -1.4500     2.0280 H     1 <1>   0.0800 
 23 H        0.8720    -1.8740     0.6630 H     1 <1>   0.0800 
 24 H        1.1890     0.7330     2.2200 H     1 <1>   0.0800 
 25 H        1.3690     1.7080     0.7870 H     1 <1>   0.0800 
 26 H       -3.3350     0.5120     0.7450 H     1 <1>   0.0800 
 27 H       -0.8300     2.3100    -0.5700 H     1 <1>   0.0800 
 28 H       -0.4910     2.8130     1.0740 H     1 <1>   0.0800 
 29 H       -2.1270     2.6920     0.5360 H     1 <1>   0.0800 
 30 H       -1.2270    -3.1020     0.5860 H     1 <1>   0.0800 
 31 H       -1.0110    -2.0600    -0.7920 H     1 <1>   0.0800 
 32 H       -2.7780    -1.5850     1.5330 H     1 <1>   0.4500 
 33 H       -1.6550     0.1000    -1.6860 H     1 <1>   0.0800 
 34 H       -3.0730     1.1010    -1.4920 H     1 <1>   0.0800 
 35 H        2.2370     0.2810    -1.3490 H     1 <1>   0.1500 
 36 H        3.1200    -0.5360     2.7410 H     1 <1>   0.1500 
 37 H       -4.5380    -1.8240     0.0820 H     1 <1>   0.0800 
 38 H       -3.4020    -2.9650    -0.6220 H     1 <1>   0.0800 
 39 H       -3.0480    -1.5650    -2.4330 H     1 <1>   0.0800 
 40 H       -4.4790    -0.7210    -1.8930 H     1 <1>   0.0800 
 41 H        4.2550    -0.9190    -2.0230 H     1 <1>   0.1500 
 42 H        5.1270    -1.7360     2.0710 H     1 <1>   0.1500 
 43 H        6.5910    -2.5320     0.4650 H     1 <1>   0.0800 
 44 H        6.6730    -0.8910    -2.0740 H     1 <1>   0.0800 
 45 H        8.0070    -1.7610    -1.3550 H     1 <1>   0.0800 
 46 H        7.3070    -0.3930    -0.5260 H     1 <1>   0.0800 
 47 H        5.3220    -3.0830    -2.2250 H     1 <1>   0.0800 
 48 H        5.0810    -4.0290    -0.7770 H     1 <1>   0.0800 
 49 H        6.6620    -3.9490    -1.5130 H     1 <1>   0.0800 
@<TRIPOS>BOND
  1   1   2  1   
  2   1   3  1   
  3   1   4  1   
  4   2   5  1   
  5   2   6  1   
  6   2  21  1   
  7   3   7  1   
  8   3  22  1   
  9   3  23  1   
 10   4   8  1   
 11   4  24  1   
 12   4  25  1   
 13   5   9  1   
 14   5  10  1   
 15   5  26  1   
 16   6  27  1   
 17   6  28  1   
 18   6  29  1   
 19   7   9  1   
 20   7  30  1   
 21   7  31  1   
 22   8  11  ar  
 23   8  12  ar  
 24   9  13  1   
 25   9  32  1   
 26  10  14  1   
 27  10  33  1   
 28  10  34  1   
 29  11  15  ar  
 30  11  35  1   
 31  12  16  ar  
 32  12  36  1   
 33  13  14  1   
 34  13  37  1   
 35  13  38  1   
 36  14  39  1   
 37  14  40  1   
 38  15  17  ar  
 39  15  41  1   
 40  16  17  ar  
 41  16  42  1   
 42  17  18  1   
 43  18  19  1   
 44  18  20  1   
 45  18  43  1   
 46  19  44  1   
 47  19  45  1   
 48  19  46  1   
 49  20  47  1   
 50  20  48  1   
 51  20  49  1   
@<TRIPOS>SUBSTRUCTURE
  1 ****   1 GROUP 4 **** **** 0

# MOE 2024.06 (io_trps.svl 2023.06)
