@<TRIPOS>MOLECULE
NONAME
48 50 1 0 0 
SMALL
USER_CHARGES


@<TRIPOS>ATOM
  1 S       -0.5400     0.1830     0.3790 S.o2  1 <1>   1.4470 
  2 O       -1.1600     0.0040     1.6750 O.2   1 <1>  -0.6500 
  3 O       -0.4390    -0.9460    -0.5190 O.2   1 <1>  -0.6500 
  4 N       -1.4500     1.3640    -0.4250 N.am  1 <1>  -0.8490 
  5 C        1.0860     0.9680     0.5590 C.ar  1 <1>  -0.0090 
  6 C       -2.7300     0.8080    -0.9020 C.3   1 <1>   0.1960 
  7 C       -1.7110     2.5430     0.4260 C.3   1 <1>   0.1960 
  8 C        1.7600     1.4710    -0.5460 C.ar  1 <1>  -0.1500 
  9 C        1.6950     1.0930     1.8000 C.ar  1 <1>  -0.1500 
 10 C       -3.5810     1.8370    -1.6750 C.3   1 <1>   0.2090 
 11 C       -2.5020     3.6410    -0.3100 C.3   1 <1>   0.2090 
 12 C        2.9960     2.0870    -0.4320 C.ar  1 <1>  -0.1440 
 13 C        2.9290     1.7050     1.9300 C.ar  1 <1>  -0.1500 
 14 N       -3.7560     3.1180    -0.9280 N.pl3 1 <1>  -0.8380 
 15 C        3.5870     2.2060     0.8200 C.ar  1 <1>  -0.1430 
 16 C        3.6770     2.6150    -1.6870 C.3   1 <1>  -0.0970 
 17 C       -4.9580     3.3360    -0.2550 C.ar  1 <1>   0.1000 
 18 C        4.9440     2.8710     1.0010 C.3   1 <1>  -0.0970 
 19 C       -5.8670     4.2920    -0.7110 C.ar  1 <1>  -0.1430 
 20 C       -5.2710     2.6040     0.8860 C.ar  1 <1>  -0.1500 
 21 C       -7.0550     4.4980    -0.0290 C.ar  1 <1>  -0.1500 
 22 C       -5.5630     5.1120    -1.9570 C.3   1 <1>  -0.0970 
 23 C       -6.4570     2.8130     1.5630 C.ar  1 <1>  -0.1500 
 24 C       -7.3530     3.7630     1.1050 C.ar  1 <1>  -0.1500 
 25 H       -3.3010     0.4390    -0.0670 H     1 <1>   0.0800 
 26 H       -2.5370    -0.0250    -1.5560 H     1 <1>   0.0800 
 27 H       -0.7770     2.9640     0.7560 H     1 <1>   0.0800 
 28 H       -2.2650     2.2510     1.3020 H     1 <1>   0.0800 
 29 H        1.2960     1.3730    -1.5130 H     1 <1>   0.1500 
 30 H        1.2000     0.7080     2.6760 H     1 <1>   0.1500 
 31 H       -4.5470     1.4130    -1.8860 H     1 <1>   0.0800 
 32 H       -3.1030     2.0480    -2.6150 H     1 <1>   0.0800 
 33 H       -1.8840     4.0620    -1.0830 H     1 <1>   0.0800 
 34 H       -2.7480     4.4290     0.3810 H     1 <1>   0.0800 
 35 H        3.3740     1.7850     2.9070 H     1 <1>   0.1500 
 36 H        3.0720     2.4410    -2.5590 H     1 <1>   0.0800 
 37 H        4.6210     2.1200    -1.8300 H     1 <1>   0.0800 
 38 H        3.8450     3.6730    -1.5990 H     1 <1>   0.0800 
 39 H        5.6910     2.3450     0.4340 H     1 <1>   0.0800 
 40 H        5.2420     2.8680     2.0340 H     1 <1>   0.0800 
 41 H        4.9030     3.8910     0.6640 H     1 <1>   0.0800 
 42 H       -4.5800     1.8680     1.2460 H     1 <1>   0.1500 
 43 H       -7.7590     5.2340    -0.3760 H     1 <1>   0.1500 
 44 H       -5.4230     4.4550    -2.7960 H     1 <1>   0.0800 
 45 H       -4.6590     5.6740    -1.8060 H     1 <1>   0.0800 
 46 H       -6.3610     5.7950    -2.1810 H     1 <1>   0.0800 
 47 H       -6.6850     2.2390     2.4440 H     1 <1>   0.1500 
 48 H       -8.2780     3.9300     1.6290 H     1 <1>   0.1500 
@<TRIPOS>BOND
  1   1   2  2   
  2   1   3  2   
  3   1   4  am  
  4   1   5  1   
  5   4   6  1   
  6   4   7  1   
  7   5   8  ar  
  8   5   9  ar  
  9   6  10  1   
 10   6  25  1   
 11   6  26  1   
 12   7  11  1   
 13   7  27  1   
 14   7  28  1   
 15   8  12  ar  
 16   8  29  1   
 17   9  13  ar  
 18   9  30  1   
 19  10  14  1   
 20  10  31  1   
 21  10  32  1   
 22  11  14  1   
 23  11  33  1   
 24  11  34  1   
 25  12  15  ar  
 26  12  16  1   
 27  13  15  ar  
 28  13  35  1   
 29  14  17  1   
 30  15  18  1   
 31  16  36  1   
 32  16  37  1   
 33  16  38  1   
 34  17  19  ar  
 35  17  20  ar  
 36  18  39  1   
 37  18  40  1   
 38  18  41  1   
 39  19  21  ar  
 40  19  22  1   
 41  20  23  ar  
 42  20  42  1   
 43  21  24  ar  
 44  21  43  1   
 45  22  44  1   
 46  22  45  1   
 47  22  46  1   
 48  23  24  ar  
 49  23  47  1   
 50  24  48  1   
@<TRIPOS>SUBSTRUCTURE
  1 ****   7 GROUP 4 **** **** 0

# MOE 2024.06 (io_trps.svl 2023.06)
