@<TRIPOS>MOLECULE
NONAME
57 59 1 0 0 
SMALL
USER_CHARGES


@<TRIPOS>ATOM
  1 F        0.6320     2.2830     1.4020 F     1 <1>  -0.1900 
  2 C        0.2340     3.3270     0.7110 C.ar  1 <1>   0.1900 
  3 C        1.1410     3.9810    -0.1320 C.ar  1 <1>   0.1000 
  4 C       -1.0790     3.7290     0.8560 C.ar  1 <1>  -0.1500 
  5 N        2.4790     3.6020    -0.3090 N.pl3 1 <1>  -0.8380 
  6 C        0.6630     5.0800    -0.8340 C.ar  1 <1>  -0.1500 
  7 C       -1.5240     4.8280     0.1410 C.ar  1 <1>  -0.1500 
  8 C        2.6790     2.2890    -0.9940 C.3   1 <1>   0.2090 
  9 C        3.3600     3.8280     0.8790 C.3   1 <1>   0.2090 
 10 C       -0.6510     5.5000    -0.7020 C.ar  1 <1>  -0.1500 
 11 C        4.1720     2.0220    -1.2790 C.3   1 <1>   0.3430 
 12 C        4.8360     3.5050     0.5680 C.3   1 <1>   0.3430 
 13 N        5.0220     2.1310    -0.0390 N.4   1 <1>  -0.9590 
 14 C        6.4660     1.8760    -0.3590 C.3   1 <1>   0.3430 
 15 C        7.3460     1.6710     0.8950 C.3   1 <1>   0.1400 
 16 N        8.5700     2.5120     0.8380 N.am  1 <1>  -0.7300 
 17 C        8.5700     3.8690     0.8080 C.2   1 <1>   0.6900 
 18 O        7.5100     4.4590     0.7460 O.2   1 <1>  -0.5700 
 19 N        9.7670     4.5070     0.8260 N.am  1 <1>  -0.5470 
 20 C       10.1100     5.8720     0.8040 C.ar  1 <1>   0.1170 
 21 C       11.3940     6.2220     0.3700 C.ar  1 <1>   0.0830 
 22 C        9.2400     6.8780     1.2060 C.ar  1 <1>  -0.1500 
 23 O       12.2210     5.1960     0.0000 O.3   1 <1>  -0.3630 
 24 C       11.7820     7.5580     0.3310 C.ar  1 <1>  -0.1500 
 25 C        9.6280     8.2040     1.1650 C.ar  1 <1>  -0.1500 
 26 C       13.5230     5.4420    -0.4890 C.3   1 <1>   0.0400 
 27 C       10.8940     8.5530     0.7280 C.ar  1 <1>   0.0830 
 28 O       11.1860     9.8820     0.7190 O.3   1 <1>  -0.3620 
 29 C       12.4340    10.3530     0.2620 C.3   1 <1>   0.0400 
 30 H       -1.7400     3.1950     1.5150 H     1 <1>   0.1500 
 31 H        1.3330     5.6080    -1.4890 H     1 <1>   0.1500 
 32 H       -2.5430     5.1610     0.2380 H     1 <1>   0.1500 
 33 H        2.1370     2.2950    -1.9240 H     1 <1>   0.0800 
 34 H        2.2800     1.4950    -0.3870 H     1 <1>   0.0800 
 35 H        3.0260     3.2210     1.7020 H     1 <1>   0.0800 
 36 H        3.2830     4.8590     1.1810 H     1 <1>   0.0800 
 37 H       -0.9970     6.3550    -1.2570 H     1 <1>   0.1500 
 38 H        4.5070     2.7410    -2.0090 H     1 <1>   0.0800 
 39 H        4.2740     1.0400    -1.7100 H     1 <1>   0.0800 
 40 H        5.4100     3.5910     1.4760 H     1 <1>   0.0800 
 41 H        5.2080     4.2530    -0.1130 H     1 <1>   0.0800 
 42 H        4.6800     1.4400     0.6400 H     1 <1>   0.4500 
 43 H        6.8540     2.7120    -0.9190 H     1 <1>   0.0800 
 44 H        6.5470     0.9970    -0.9770 H     1 <1>   0.0800 
 45 H        7.6370     0.6360     0.9570 H     1 <1>   0.0800 
 46 H        6.8010     1.9230     1.7880 H     1 <1>   0.0800 
 47 H        9.4450     2.0540     1.1060 H     1 <1>   0.3700 
 48 H       10.5790     3.9220     0.6400 H     1 <1>   0.3700 
 49 H        8.2550     6.6350     1.5570 H     1 <1>   0.1500 
 50 H       12.7620     7.8260    -0.0020 H     1 <1>   0.1500 
 51 H        8.9490     8.9790     1.4740 H     1 <1>   0.1500 
 52 H       13.9750     4.4960    -0.7290 H     1 <1>   0.0800 
 53 H       14.0960     5.9350     0.2760 H     1 <1>   0.0800 
 54 H       13.4550     6.0490    -1.3740 H     1 <1>   0.0800 
 55 H       12.4310    11.4260     0.3330 H     1 <1>   0.0800 
 56 H       12.5650    10.0560    -0.7630 H     1 <1>   0.0800 
 57 H       13.2100     9.9490     0.8870 H     1 <1>   0.0800 
@<TRIPOS>BOND
  1   1   2  1   
  2   2   3  ar  
  3   2   4  ar  
  4   3   5  1   
  5   3   6  ar  
  6   4   7  ar  
  7   4  30  1   
  8   5   8  1   
  9   5   9  1   
 10   6  10  ar  
 11   6  31  1   
 12   7  10  ar  
 13   7  32  1   
 14   8  11  1   
 15   8  33  1   
 16   8  34  1   
 17   9  12  1   
 18   9  35  1   
 19   9  36  1   
 20  10  37  1   
 21  11  13  1   
 22  11  38  1   
 23  11  39  1   
 24  12  13  1   
 25  12  40  1   
 26  12  41  1   
 27  13  14  1   
 28  13  42  1   
 29  14  15  1   
 30  14  43  1   
 31  14  44  1   
 32  15  16  1   
 33  15  45  1   
 34  15  46  1   
 35  16  17  am  
 36  16  47  1   
 37  17  18  2   
 38  17  19  am  
 39  19  20  1   
 40  19  48  1   
 41  20  21  ar  
 42  20  22  ar  
 43  21  23  1   
 44  21  24  ar  
 45  22  25  ar  
 46  22  49  1   
 47  23  26  1   
 48  24  27  ar  
 49  24  50  1   
 50  25  27  ar  
 51  25  51  1   
 52  26  52  1   
 53  26  53  1   
 54  26  54  1   
 55  27  28  1   
 56  28  29  1   
 57  29  55  1   
 58  29  56  1   
 59  29  57  1   
@<TRIPOS>SUBSTRUCTURE
  1 ****  18 GROUP 4 **** **** 0

# MOE 2024.06 (io_trps.svl 2023.06)
