@<TRIPOS>MOLECULE
NONAME
47 49 1 0 0 
SMALL
USER_CHARGES


@<TRIPOS>ATOM
  1 S        0.1260    -0.5780     1.3300 S.o2  1 <1>   1.4470 
  2 O       -0.3820     0.7540     1.5770 O.2   1 <1>  -0.6500 
  3 O        0.0960    -1.5430     2.4100 O.2   1 <1>  -0.6500 
  4 N       -0.7990    -1.2500     0.0770 N.am  1 <1>  -0.8490 
  5 C        1.8050    -0.4810     0.6200 C.ar  1 <1>  -0.0090 
  6 C       -0.4640    -2.6580    -0.1620 C.3   1 <1>   0.1960 
  7 C       -2.2330    -1.0930     0.3360 C.3   1 <1>   0.1960 
  8 C        2.1280     0.3220    -0.4770 C.ar  1 <1>  -0.1440 
  9 C        2.8200    -1.2500     1.1780 C.ar  1 <1>  -0.1500 
 10 C       -1.2020    -3.1740    -1.4010 C.3   1 <1>  -0.1600 
 11 C       -3.0470    -1.5600    -0.8760 C.3   1 <1>  -0.1600 
 12 C        3.4240     0.3360    -0.9690 C.ar  1 <1>  -0.1500 
 13 C        1.0900     1.2040    -1.1620 C.3   1 <1>  -0.0970 
 14 C        4.1280    -1.2630     0.6970 C.ar  1 <1>   0.0860 
 15 C       -2.7180    -3.0100    -1.2510 C.3   1 <1>  -0.1600 
 16 C        4.4070    -0.4410    -0.3920 C.ar  1 <1>  -0.1500 
 17 C        5.1420    -2.1040     1.3110 C.2   1 <1>   0.5440 
 18 O        5.0450    -2.4500     2.4710 O.2   1 <1>  -0.5700 
 19 N        6.2160    -2.5470     0.5960 N.am  1 <1>  -0.7300 
 20 C        7.2820    -3.4180     1.1400 C.3   1 <1>   0.3200 
 21 C        8.6100    -3.1150     0.4670 C.2   1 <1>  -0.0400 
 22 O        9.5880    -3.9910     0.6000 O.3   1 <1>  -0.2800 
 23 C        9.0210    -2.0670    -0.2830 C.2   1 <1>  -0.1500 
 24 C       10.6330    -3.5300    -0.0560 C.2   1 <1>  -0.0100 
 25 C       10.3500    -2.3410    -0.6280 C.2   1 <1>  -0.1500 
 26 H       -0.7320    -3.2530     0.6970 H     1 <1>   0.0800 
 27 H        0.5970    -2.7580    -0.3220 H     1 <1>   0.0800 
 28 H       -2.4600    -0.0550     0.5210 H     1 <1>   0.0800 
 29 H       -2.5110    -1.6580     1.2120 H     1 <1>   0.0800 
 30 H        2.5930    -1.8720     2.0300 H     1 <1>   0.1500 
 31 H       -0.9630    -4.2110    -1.5530 H     1 <1>   0.0800 
 32 H       -0.8590    -2.6260    -2.2620 H     1 <1>   0.0800 
 33 H       -2.8300    -0.9110    -1.7060 H     1 <1>   0.0800 
 34 H       -4.0960    -1.4720    -0.6560 H     1 <1>   0.0800 
 35 H        3.6760     0.9600    -1.8100 H     1 <1>   0.1500 
 36 H        0.7090     1.9360    -0.4730 H     1 <1>   0.0800 
 37 H        0.2720     0.6110    -1.5290 H     1 <1>   0.0800 
 38 H        1.5160     1.7290    -1.9980 H     1 <1>   0.0800 
 39 H       -3.0740    -3.6690    -0.4770 H     1 <1>   0.0800 
 40 H       -3.2120    -3.2750    -2.1700 H     1 <1>   0.0800 
 41 H        5.4050    -0.3990    -0.7890 H     1 <1>   0.1500 
 42 H        6.2590    -2.4040    -0.4120 H     1 <1>   0.3700 
 43 H        7.0180    -4.4450     0.9580 H     1 <1>   0.0800 
 44 H        7.3780    -3.2750     2.2030 H     1 <1>   0.0800 
 45 H        8.4770    -1.1860    -0.5700 H     1 <1>   0.1500 
 46 H       11.5390    -4.1110    -0.0650 H     1 <1>   0.1500 
 47 H       10.9860    -1.7120    -1.2250 H     1 <1>   0.1500 
@<TRIPOS>BOND
  1   1   2  2   
  2   1   3  2   
  3   1   4  am  
  4   1   5  1   
  5   4   6  1   
  6   4   7  1   
  7   5   8  ar  
  8   5   9  ar  
  9   6  10  1   
 10   6  26  1   
 11   6  27  1   
 12   7  11  1   
 13   7  28  1   
 14   7  29  1   
 15   8  12  ar  
 16   8  13  1   
 17   9  14  ar  
 18   9  30  1   
 19  10  15  1   
 20  10  31  1   
 21  10  32  1   
 22  11  15  1   
 23  11  33  1   
 24  11  34  1   
 25  12  16  ar  
 26  12  35  1   
 27  13  36  1   
 28  13  37  1   
 29  13  38  1   
 30  14  16  ar  
 31  14  17  1   
 32  15  39  1   
 33  15  40  1   
 34  16  41  1   
 35  17  18  2   
 36  17  19  am  
 37  19  20  1   
 38  19  42  1   
 39  20  21  1   
 40  20  43  1   
 41  20  44  1   
 42  21  22  1   
 43  21  23  2   
 44  22  24  1   
 45  23  25  1   
 46  23  45  1   
 47  24  25  2   
 48  24  46  1   
 49  25  47  1   
@<TRIPOS>SUBSTRUCTURE
  1 ****  14 GROUP 4 **** **** 0

# MOE 2024.06 (io_trps.svl 2023.06)
