@<TRIPOS>MOLECULE
NONAME
30 30 1 0 0 
SMALL
USER_CHARGES


@<TRIPOS>ATOM
  1 CL      -0.3360    -0.2600     0.5740 Cl    1 <1>  -0.1770 
  2 C        1.2140    -0.9970     0.2600 C.ar  1 <1>   0.1770 
  3 C        1.5650    -2.1480     0.9440 C.ar  1 <1>  -0.1500 
  4 C        2.0640    -0.4190    -0.6660 C.ar  1 <1>  -0.1500 
  5 C        2.7950    -2.7370     0.6980 C.ar  1 <1>  -0.1500 
  6 C        3.2930    -1.0070    -0.9130 C.ar  1 <1>  -0.1500 
  7 C        3.6500    -2.1590    -0.2310 C.ar  1 <1>   0.1020 
  8 S        5.2660    -2.8570    -0.6110 S.3   1 <1>  -0.3320 
  9 C        5.4590    -4.3690     0.4610 C.3   1 <1>   0.1310 
 10 C        6.8070    -5.0440     0.2510 C.2   1 <1>   0.5690 
 11 O        7.1410    -5.9040     1.0280 O.2   1 <1>  -0.5700 
 12 N        7.6010    -4.6720    -0.7880 N.am  1 <1>  -0.7300 
 13 C        8.9170    -5.2700    -1.1140 C.3   1 <1>   0.1400 
 14 C       10.0050    -4.6400    -0.2460 C.3   1 <1>   0.0700 
 15 S       11.6130    -5.2580    -0.8170 S.3   1 <1>  -0.4600 
 16 C       12.7700    -4.5820     0.4030 C.3   1 <1>  -0.0100 
 17 H        0.8810    -2.5720     1.6580 H     1 <1>   0.1500 
 18 H        1.7640     0.4760    -1.1830 H     1 <1>   0.1500 
 19 H        3.0610    -3.6290     1.2320 H     1 <1>   0.1500 
 20 H        3.9720    -0.5760    -1.6280 H     1 <1>   0.1500 
 21 H        4.6680    -5.0480     0.2070 H     1 <1>   0.0800 
 22 H        5.3670    -4.0520     1.4820 H     1 <1>   0.0800 
 23 H        7.2850    -3.9030    -1.3870 H     1 <1>   0.3700 
 24 H        9.1360    -5.1050    -2.1550 H     1 <1>   0.0800 
 25 H        8.8860    -6.3310    -0.9320 H     1 <1>   0.0800 
 26 H        9.8920    -4.9290     0.7840 H     1 <1>   0.0800 
 27 H       10.0210    -3.5700    -0.3460 H     1 <1>   0.0800 
 28 H       13.7580    -4.9060     0.1310 H     1 <1>   0.0800 
 29 H       12.4940    -4.9640     1.3690 H     1 <1>   0.0800 
 30 H       12.6970    -3.5090     0.3730 H     1 <1>   0.0800 
@<TRIPOS>BOND
  1   1   2  1   
  2   2   3  ar  
  3   2   4  ar  
  4   3   5  ar  
  5   3  17  1   
  6   4   6  ar  
  7   4  18  1   
  8   5   7  ar  
  9   5  19  1   
 10   6   7  ar  
 11   6  20  1   
 12   7   8  1   
 13   8   9  1   
 14   9  10  1   
 15   9  21  1   
 16   9  22  1   
 17  10  11  2   
 18  10  12  am  
 19  12  13  1   
 20  12  23  1   
 21  13  14  1   
 22  13  24  1   
 23  13  25  1   
 24  14  15  1   
 25  14  26  1   
 26  14  27  1   
 27  15  16  1   
 28  16  28  1   
 29  16  29  1   
 30  16  30  1   
@<TRIPOS>SUBSTRUCTURE
  1 ****   8 GROUP 4 **** **** 0

# MOE 2024.06 (io_trps.svl 2023.06)
