@<TRIPOS>MOLECULE
NONAME
41 42 1 0 0 
SMALL
USER_CHARGES


@<TRIPOS>ATOM
  1 O        0.8020     0.6700    -0.9250 O.2   1 <1>  -0.5700 
  2 C        0.7480     1.3170     0.0890 C.2   1 <1>   0.5690 
  3 N       -0.2400     1.0870     0.9730 N.am  1 <1>  -0.8000 
  4 C        1.7880     2.3960     0.3800 C.3   1 <1>  -0.0190 
  5 C        1.5940     3.6160    -0.5380 C.3   1 <1>  -0.1600 
  6 C        3.2240     1.8540     0.2390 C.3   1 <1>  -0.1600 
  7 C        2.6510     4.6930    -0.2810 C.3   1 <1>   0.1400 
  8 C        4.2680     2.9450     0.4890 C.3   1 <1>   0.1400 
  9 N        4.0120     4.1020    -0.4140 N.am  1 <1>  -0.6600 
 10 C        4.9360     4.6340    -1.2880 C.2   1 <1>   0.5690 
 11 O        4.6780     5.6000    -1.9700 O.2   1 <1>  -0.5700 
 12 C        6.3180     4.0110    -1.4740 C.3   1 <1>   0.1810 
 13 O        7.0880     4.0750    -0.2820 O.3   1 <1>  -0.3630 
 14 C        8.3100     3.4890    -0.2090 C.ar  1 <1>   0.0830 
 15 C        8.9410     2.8710    -1.2860 C.ar  1 <1>  -0.1500 
 16 C        8.9420     3.5200     1.0240 C.ar  1 <1>  -0.1500 
 17 C       10.1860     2.2910    -1.1150 C.ar  1 <1>  -0.1500 
 18 C       10.1880     2.9400     1.1940 C.ar  1 <1>  -0.1500 
 19 C       10.8160     2.3180     0.1190 C.ar  1 <1>   0.0830 
 20 O       12.0350     1.7230     0.1940 O.3   1 <1>  -0.3630 
 21 C       12.7680     1.7130     1.3990 C.3   1 <1>   0.0400 
 22 H       -0.9300     0.3650     0.7620 H     1 <1>   0.3700 
 23 H       -0.3630     1.5940     1.8480 H     1 <1>   0.3700 
 24 H        1.6570     2.7200     1.3970 H     1 <1>   0.0800 
 25 H        0.6160     4.0360    -0.3840 H     1 <1>   0.0800 
 26 H        1.6560     3.3090    -1.5690 H     1 <1>   0.0800 
 27 H        3.3670     1.4580    -0.7520 H     1 <1>   0.0800 
 28 H        3.3760     1.0490     0.9350 H     1 <1>   0.0800 
 29 H        2.5390     5.0930     0.7120 H     1 <1>   0.0800 
 30 H        2.5140     5.5010    -0.9800 H     1 <1>   0.0800 
 31 H        5.2490     2.5320     0.3360 H     1 <1>   0.0800 
 32 H        4.2100     3.2820     1.5100 H     1 <1>   0.0800 
 33 H        6.8470     4.5450    -2.2420 H     1 <1>   0.0800 
 34 H        6.2060     2.9820    -1.7580 H     1 <1>   0.0800 
 35 H        8.4890     2.8330    -2.2590 H     1 <1>   0.1500 
 36 H        8.4520     4.0040     1.8490 H     1 <1>   0.1500 
 37 H       10.6810     1.8110    -1.9400 H     1 <1>   0.1500 
 38 H       10.6480     2.9820     2.1620 H     1 <1>   0.1500 
 39 H       13.6940     1.1970     1.2220 H     1 <1>   0.0800 
 40 H       12.1980     1.1930     2.1500 H     1 <1>   0.0800 
 41 H       12.9660     2.7270     1.6970 H     1 <1>   0.0800 
@<TRIPOS>BOND
  1   1   2  2   
  2   2   3  am  
  3   2   4  1   
  4   3  22  1   
  5   3  23  1   
  6   4   5  1   
  7   4   6  1   
  8   4  24  1   
  9   5   7  1   
 10   5  25  1   
 11   5  26  1   
 12   6   8  1   
 13   6  27  1   
 14   6  28  1   
 15   7   9  1   
 16   7  29  1   
 17   7  30  1   
 18   8   9  1   
 19   8  31  1   
 20   8  32  1   
 21   9  10  am  
 22  10  11  2   
 23  10  12  1   
 24  12  13  1   
 25  12  33  1   
 26  12  34  1   
 27  13  14  1   
 28  14  15  ar  
 29  14  16  ar  
 30  15  17  ar  
 31  15  35  1   
 32  16  18  ar  
 33  16  36  1   
 34  17  19  ar  
 35  17  37  1   
 36  18  19  ar  
 37  18  38  1   
 38  19  20  1   
 39  20  21  1   
 40  21  39  1   
 41  21  40  1   
 42  21  41  1   
@<TRIPOS>SUBSTRUCTURE
  1 ****  13 GROUP 4 **** **** 0

# MOE 2024.06 (io_trps.svl 2023.06)
