@<TRIPOS>MOLECULE
NONAME
51 53 1 0 0 
SMALL
USER_CHARGES


@<TRIPOS>ATOM
  1 S       -0.2480     0.2300    -0.1520 S.o2  1 <1>   1.0900 
  2 O       -0.3000     0.2680     1.2930 O.2   1 <1>  -0.6500 
  3 O       -0.7230     1.3500    -0.9380 O.2   1 <1>  -0.6500 
  4 C       -1.1200    -1.2430    -0.7030 C.3   1 <1>   0.0890 
  5 C        1.4380    -0.1440    -0.6550 C.3   1 <1>   0.0890 
  6 C       -2.6130    -1.2220    -0.4020 C.ar  1 <1>  -0.1440 
  7 C        2.4480     0.9420    -0.3120 C.ar  1 <1>  -0.1440 
  8 C       -3.1420    -2.0080     0.6090 C.ar  1 <1>  -0.1500 
  9 C       -3.4600    -0.4070    -1.1370 C.ar  1 <1>  -0.1500 
 10 C        3.3540     0.7600     0.7230 C.ar  1 <1>  -0.1500 
 11 C        2.4710     2.1260    -1.0350 C.ar  1 <1>  -0.1500 
 12 C       -4.4980    -1.9770     0.8780 C.ar  1 <1>  -0.1500 
 13 C       -4.8140    -0.3810    -0.8610 C.ar  1 <1>  -0.1500 
 14 C        4.2770     1.7460     1.0240 C.ar  1 <1>  -0.1500 
 15 C        3.3940     3.1120    -0.7330 C.ar  1 <1>  -0.1500 
 16 C       -5.3640    -1.1560     0.1590 C.ar  1 <1>   0.0860 
 17 C        4.2990     2.9210     0.2960 C.ar  1 <1>  -0.1500 
 18 C       -6.7830    -1.1080     0.4610 C.2   1 <1>   0.5440 
 19 O       -7.3880    -2.1460     0.6600 O.2   1 <1>  -0.5700 
 20 N       -7.4890     0.0750     0.4880 N.am  1 <1>  -0.6600 
 21 C       -7.1260     1.3240     1.2210 C.3   1 <1>   0.2200 
 22 C       -8.8500     0.1240    -0.1040 C.3   1 <1>   0.1400 
 23 C       -7.1390     2.4960     0.2300 C.3   1 <1>  -0.1600 
 24 C       -5.8050     1.2540     1.9910 C.3   1 <1>  -0.2400 
 25 C       -8.9130     1.2790    -1.1110 C.3   1 <1>  -0.1600 
 26 C       -8.5000     2.6160    -0.4760 C.3   1 <1>  -0.1600 
 27 H       -0.6900    -2.1070    -0.2350 H     1 <1>   0.0800 
 28 H       -0.9980    -1.3550    -1.7630 H     1 <1>   0.0800 
 29 H        1.4670    -0.2960    -1.7170 H     1 <1>   0.0800 
 30 H        1.7530    -1.0580    -0.1910 H     1 <1>   0.0800 
 31 H       -2.5060    -2.6460     1.1970 H     1 <1>   0.1500 
 32 H       -3.0700     0.2190    -1.9230 H     1 <1>   0.1500 
 33 H        3.3460    -0.1450     1.3050 H     1 <1>   0.1500 
 34 H        1.7660     2.2930    -1.8320 H     1 <1>   0.1500 
 35 H       -4.9060    -2.5930     1.6620 H     1 <1>   0.1500 
 36 H       -5.4640     0.2530    -1.4380 H     1 <1>   0.1500 
 37 H        4.9770     1.6000     1.8290 H     1 <1>   0.1500 
 38 H        3.4040     4.0280    -1.2960 H     1 <1>   0.1500 
 39 H        5.0160     3.6880     0.5310 H     1 <1>   0.1500 
 40 H       -7.9010     1.4970     1.9490 H     1 <1>   0.0800 
 41 H       -9.5730     0.2680     0.6800 H     1 <1>   0.0800 
 42 H       -9.0730    -0.8050    -0.6020 H     1 <1>   0.0800 
 43 H       -6.3610     2.3540    -0.4980 H     1 <1>   0.0800 
 44 H       -6.9320     3.4110     0.7560 H     1 <1>   0.0800 
 45 H       -4.9610     1.2320     1.3270 H     1 <1>   0.0800 
 46 H       -5.7890     0.3920     2.6340 H     1 <1>   0.0800 
 47 H       -5.7070     2.1270     2.6090 H     1 <1>   0.0800 
 48 H       -9.9120     1.3560    -1.5000 H     1 <1>   0.0800 
 49 H       -8.2580     1.0520    -1.9340 H     1 <1>   0.0800 
 50 H       -8.4520     3.3800    -1.2320 H     1 <1>   0.0800 
 51 H       -9.2460     2.9090     0.2440 H     1 <1>   0.0800 
@<TRIPOS>BOND
  1   1   2  2   
  2   1   3  2   
  3   1   4  1   
  4   1   5  1   
  5   4   6  1   
  6   4  27  1   
  7   4  28  1   
  8   5   7  1   
  9   5  29  1   
 10   5  30  1   
 11   6   8  ar  
 12   6   9  ar  
 13   7  10  ar  
 14   7  11  ar  
 15   8  12  ar  
 16   8  31  1   
 17   9  13  ar  
 18   9  32  1   
 19  10  14  ar  
 20  10  33  1   
 21  11  15  ar  
 22  11  34  1   
 23  12  16  ar  
 24  12  35  1   
 25  13  16  ar  
 26  13  36  1   
 27  14  17  ar  
 28  14  37  1   
 29  15  17  ar  
 30  15  38  1   
 31  16  18  1   
 32  17  39  1   
 33  18  19  2   
 34  18  20  am  
 35  20  21  1   
 36  20  22  1   
 37  21  23  1   
 38  21  24  1   
 39  21  40  1   
 40  22  25  1   
 41  22  41  1   
 42  22  42  1   
 43  23  26  1   
 44  23  43  1   
 45  23  44  1   
 46  24  45  1   
 47  24  46  1   
 48  24  47  1   
 49  25  26  1   
 50  25  48  1   
 51  25  49  1   
 52  26  50  1   
 53  26  51  1   
@<TRIPOS>SUBSTRUCTURE
  1 ****   9 GROUP 4 **** **** 0

# MOE 2024.06 (io_trps.svl 2023.06)
