@<TRIPOS>MOLECULE
NONAME
44 45 1 0 0 
SMALL
USER_CHARGES


@<TRIPOS>ATOM
  1 O        1.0400    -5.0150     0.4960 O.2   1 <1>  -0.5700 
  2 C        0.4040    -4.2220    -0.1740 C.2   1 <1>   0.5440 
  3 N        1.1340    -3.3580    -0.9580 N.am  1 <1>  -0.6600 
  4 C       -1.0440    -4.1380    -0.0730 C.ar  1 <1>   0.0860 
  5 C        2.3920    -3.8140    -1.6350 C.3   1 <1>   0.1400 
  6 C        1.0030    -1.8920    -0.7780 C.3   1 <1>   0.1400 
  7 C       -1.7070    -4.5130     1.0960 C.ar  1 <1>  -0.1500 
  8 C       -1.8290    -3.6820    -1.1320 C.ar  1 <1>  -0.1500 
  9 C        3.5970    -3.9490    -0.6770 C.3   1 <1>   0.3430 
 10 C        1.7110    -1.4550     0.5120 C.3   1 <1>  -0.1600 
 11 C       -3.0820    -4.4200     1.2090 C.ar  1 <1>  -0.1500 
 12 C       -3.2050    -3.5860    -1.0240 C.ar  1 <1>  -0.1500 
 13 N        3.3430    -3.3310     0.6630 N.4   1 <1>  -0.9590 
 14 C        3.1890    -1.8500     0.6130 C.3   1 <1>   0.3430 
 15 C       -3.8410    -3.9540     0.1490 C.ar  1 <1>  -0.1430 
 16 C        4.3360    -3.7790     1.6780 C.3   1 <1>   0.2630 
 17 C       -5.3540    -3.8510     0.2720 C.3   1 <1>  -0.0170 
 18 C       -5.7600    -2.4760     0.8130 C.3   1 <1>  -0.1600 
 19 C       -7.2810    -2.3490     0.9470 C.3   1 <1>  -0.2400 
 20 H        2.6410    -3.1300    -2.4280 H     1 <1>   0.0800 
 21 H        2.2120    -4.7720    -2.0940 H     1 <1>   0.0800 
 22 H       -0.0390    -1.6240    -0.7210 H     1 <1>   0.0800 
 23 H        1.4230    -1.3810    -1.6290 H     1 <1>   0.0800 
 24 H       -1.1350    -4.8850     1.9280 H     1 <1>   0.1500 
 25 H       -1.3580    -3.4000    -2.0570 H     1 <1>   0.1500 
 26 H        4.4750    -3.5210    -1.1310 H     1 <1>   0.0800 
 27 H        3.7830    -5.0020    -0.5410 H     1 <1>   0.0800 
 28 H        1.1770    -1.8390     1.3640 H     1 <1>   0.0800 
 29 H        1.6500    -0.3830     0.5710 H     1 <1>   0.0800 
 30 H       -3.5620    -4.7150     2.1270 H     1 <1>   0.1500 
 31 H       -3.7830    -3.2260    -1.8580 H     1 <1>   0.1500 
 32 H        2.4120    -3.7330     0.9150 H     1 <1>   0.4500 
 33 H        3.5920    -1.4190     1.5150 H     1 <1>   0.0800 
 34 H        3.7390    -1.4470    -0.2220 H     1 <1>   0.0800 
 35 H        5.3210    -3.4250     1.4240 H     1 <1>   0.0800 
 36 H        4.3540    -4.8560     1.7280 H     1 <1>   0.0800 
 37 H        4.0700    -3.3990     2.6510 H     1 <1>   0.0800 
 38 H       -5.7140    -4.6220     0.9310 H     1 <1>   0.0800 
 39 H       -5.8050    -4.0110    -0.6920 H     1 <1>   0.0800 
 40 H       -5.3950    -1.7100     0.1490 H     1 <1>   0.0800 
 41 H       -5.3030    -2.3230     1.7760 H     1 <1>   0.0800 
 42 H       -7.7560    -2.4750    -0.0110 H     1 <1>   0.0800 
 43 H       -7.5370    -1.3750     1.3280 H     1 <1>   0.0800 
 44 H       -7.6640    -3.0910     1.6250 H     1 <1>   0.0800 
@<TRIPOS>BOND
  1   1   2  2   
  2   2   3  am  
  3   2   4  1   
  4   3   5  1   
  5   3   6  1   
  6   4   7  ar  
  7   4   8  ar  
  8   5   9  1   
  9   5  20  1   
 10   5  21  1   
 11   6  10  1   
 12   6  22  1   
 13   6  23  1   
 14   7  11  ar  
 15   7  24  1   
 16   8  12  ar  
 17   8  25  1   
 18   9  13  1   
 19   9  26  1   
 20   9  27  1   
 21  10  14  1   
 22  10  28  1   
 23  10  29  1   
 24  11  15  ar  
 25  11  30  1   
 26  12  15  ar  
 27  12  31  1   
 28  13  14  1   
 29  13  16  1   
 30  13  32  1   
 31  14  33  1   
 32  14  34  1   
 33  15  17  1   
 34  16  35  1   
 35  16  36  1   
 36  16  37  1   
 37  17  18  1   
 38  17  38  1   
 39  17  39  1   
 40  18  19  1   
 41  18  40  1   
 42  18  41  1   
 43  19  42  1   
 44  19  43  1   
 45  19  44  1   
@<TRIPOS>SUBSTRUCTURE
  1 ****   4 GROUP 4 **** **** 0

# MOE 2024.06 (io_trps.svl 2023.06)
