@<TRIPOS>MOLECULE
NONAME
39 41 1 0 0 
SMALL
USER_CHARGES


@<TRIPOS>ATOM
  1 CL       0.8680     1.5380     2.5990 Cl    1 <1>  -0.1770 
  2 C        1.8840     1.5300     1.1790 C.ar  1 <1>   0.1770 
  3 C        3.1010     0.8820     1.2230 C.ar  1 <1>  -0.1500 
  4 C        1.4500     2.1750     0.0350 C.ar  1 <1>  -0.1500 
  5 C        3.9160     0.8700     0.1000 C.ar  1 <1>   0.1000 
  6 C        2.2590     2.1670    -1.0890 C.ar  1 <1>  -0.1500 
  7 N        5.1400     0.2140     0.1490 N.pl3 1 <1>  -0.8380 
  8 C        3.4820     1.5180    -1.0540 C.ar  1 <1>  -0.1500 
  9 C        6.3590     1.0720     0.0910 C.3   1 <1>   0.2090 
 10 C        5.2400    -1.0610    -0.6170 C.3   1 <1>   0.2090 
 11 C        7.6080     0.2690     0.5080 C.3   1 <1>   0.3430 
 12 C        6.4980    -1.8500    -0.1940 C.3   1 <1>   0.3430 
 13 N        7.7590    -1.0220    -0.2700 N.4   1 <1>  -0.9590 
 14 C        8.9510    -1.8000     0.1750 C.3   1 <1>   0.4860 
 15 C       10.1970    -0.9700    -0.0420 C.ar  1 <1>  -0.1430 
 16 C       10.7150    -0.8130    -1.3200 C.ar  1 <1>   0.1600 
 17 C       10.8370    -0.3520     1.0170 C.ar  1 <1>  -0.1500 
 18 N       11.7730    -0.0850    -1.6180 N.ar  1 <1>  -0.6200 
 19 C       11.9530     0.4000     0.7190 C.ar  1 <1>  -0.1500 
 20 C       12.3730     0.5030    -0.5960 C.ar  1 <1>   0.1600 
 21 H        3.4160     0.3900     2.1230 H     1 <1>   0.1500 
 22 H        0.4970     2.6720     0.0300 H     1 <1>   0.1500 
 23 H        1.9340     2.6650    -1.9870 H     1 <1>   0.1500 
 24 H        4.1030     1.5160    -1.9290 H     1 <1>   0.1500 
 25 H        6.2340     1.9100     0.7580 H     1 <1>   0.0800 
 26 H        6.4860     1.4590    -0.9050 H     1 <1>   0.0800 
 27 H        5.2740    -0.8490    -1.6710 H     1 <1>   0.0800 
 28 H        4.3630    -1.6560    -0.4270 H     1 <1>   0.0800 
 29 H        7.5250     0.0480     1.5590 H     1 <1>   0.0800 
 30 H        8.4800     0.8870     0.3690 H     1 <1>   0.0800 
 31 H        6.5890    -2.7220    -0.8210 H     1 <1>   0.0800 
 32 H        6.3490    -2.1870     0.8190 H     1 <1>   0.0800 
 33 H        7.9070    -0.7560    -1.2510 H     1 <1>   0.4500 
 34 H        9.0300    -2.7160    -0.3890 H     1 <1>   0.0800 
 35 H        8.8590    -2.0530     1.2200 H     1 <1>   0.0800 
 36 H       10.2400    -1.3060    -2.1520 H     1 <1>   0.1500 
 37 H       10.5000    -0.4450     2.0360 H     1 <1>   0.1500 
 38 H       12.5020     0.9050     1.4950 H     1 <1>   0.1500 
 39 H       13.2460     1.0950    -0.8180 H     1 <1>   0.1500 
@<TRIPOS>BOND
  1   1   2  1   
  2   2   3  ar  
  3   2   4  ar  
  4   3   5  ar  
  5   3  21  1   
  6   4   6  ar  
  7   4  22  1   
  8   5   7  1   
  9   5   8  ar  
 10   6   8  ar  
 11   6  23  1   
 12   7   9  1   
 13   7  10  1   
 14   8  24  1   
 15   9  11  1   
 16   9  25  1   
 17   9  26  1   
 18  10  12  1   
 19  10  27  1   
 20  10  28  1   
 21  11  13  1   
 22  11  29  1   
 23  11  30  1   
 24  12  13  1   
 25  12  31  1   
 26  12  32  1   
 27  13  14  1   
 28  13  33  1   
 29  14  15  1   
 30  14  34  1   
 31  14  35  1   
 32  15  16  ar  
 33  15  17  ar  
 34  16  18  ar  
 35  16  36  1   
 36  17  19  ar  
 37  17  37  1   
 38  18  20  ar  
 39  19  20  ar  
 40  19  38  1   
 41  20  39  1   
@<TRIPOS>SUBSTRUCTURE
  1 ****   9 GROUP 4 **** **** 0

# MOE 2024.06 (io_trps.svl 2023.06)
