@<TRIPOS>MOLECULE
NONAME
38 40 1 0 0 
SMALL
USER_CHARGES


@<TRIPOS>ATOM
  1 S        0.3690     1.0570    -2.8710 S.3   1 <1>  -0.0800 
  2 C        0.8270     1.6240    -1.2650 C.ar  1 <1>   0.0400 
  3 C       -1.1810     1.8720    -2.7670 C.2   1 <1>  -0.1100 
  4 C       -0.1880     2.3990    -0.7210 C.ar  1 <1>   0.0000 
  5 C        2.0220     1.3620    -0.6230 C.ar  1 <1>  -0.1500 
  6 C       -1.3490     2.5080    -1.5840 C.2   1 <1>  -0.0860 
  7 C        0.0460     2.9630     0.5340 C.ar  1 <1>  -0.1500 
  8 C        2.2200     1.9170     0.6280 C.ar  1 <1>  -0.1500 
  9 C       -2.5460     3.2210    -1.2010 C.2   1 <1>   0.7160 
 10 C        1.2350     2.7170     1.1990 C.ar  1 <1>  -0.1500 
 11 O       -3.0750     3.9860    -1.9840 O.2   1 <1>  -0.5700 
 12 N       -3.1790     3.0130     0.0090 N.am  1 <1>  -0.6600 
 13 C       -4.1780     4.0070     0.5000 C.3   1 <1>   0.1400 
 14 C       -3.0640     1.7390     0.7660 C.3   1 <1>   0.1400 
 15 C       -5.5260     3.8370    -0.2260 C.3   1 <1>   0.3430 
 16 C       -4.4370     1.0950     0.9980 C.3   1 <1>  -0.1600 
 17 N       -6.2490     2.5480     0.0840 N.4   1 <1>  -0.9590 
 18 C       -5.4320     1.3150    -0.1480 C.3   1 <1>   0.3430 
 19 C       -7.5020     2.4840    -0.7280 C.3   1 <1>   0.2630 
 20 H       -1.8320     1.7900    -3.6200 H     1 <1>   0.1500 
 21 H        2.7710     0.7490    -1.0910 H     1 <1>   0.1500 
 22 H       -0.6940     3.5980     0.9870 H     1 <1>   0.1500 
 23 H        3.1390     1.7360     1.1600 H     1 <1>   0.1500 
 24 H        1.4080     3.1520     2.1690 H     1 <1>   0.1500 
 25 H       -3.8040     4.9960     0.2940 H     1 <1>   0.0800 
 26 H       -4.3040     3.9240     1.5650 H     1 <1>   0.0800 
 27 H       -2.5760     1.9200     1.7090 H     1 <1>   0.0800 
 28 H       -2.4500     1.0450     0.2150 H     1 <1>   0.0800 
 29 H       -5.3430     3.9040    -1.2870 H     1 <1>   0.0800 
 30 H       -6.1580     4.6670     0.0420 H     1 <1>   0.0800 
 31 H       -4.8520     1.4310     1.9310 H     1 <1>   0.0800 
 32 H       -4.2740     0.0370     1.1020 H     1 <1>   0.0800 
 33 H       -6.5100     2.5600     1.0790 H     1 <1>   0.4500 
 34 H       -6.0910     0.4630    -0.1870 H     1 <1>   0.0800 
 35 H       -4.9110     1.3780    -1.0900 H     1 <1>   0.0800 
 36 H       -7.2650     2.4680    -1.7800 H     1 <1>   0.0800 
 37 H       -8.1230     3.3430    -0.5290 H     1 <1>   0.0800 
 38 H       -8.0610     1.5950    -0.4870 H     1 <1>   0.0800 
@<TRIPOS>BOND
  1   1   2  1   
  2   1   3  1   
  3   2   4  ar  
  4   2   5  ar  
  5   3   6  2   
  6   3  20  1   
  7   4   6  1   
  8   4   7  ar  
  9   5   8  ar  
 10   5  21  1   
 11   6   9  1   
 12   7  10  ar  
 13   7  22  1   
 14   8  10  ar  
 15   8  23  1   
 16   9  11  2   
 17   9  12  am  
 18  10  24  1   
 19  12  13  1   
 20  12  14  1   
 21  13  15  1   
 22  13  25  1   
 23  13  26  1   
 24  14  16  1   
 25  14  27  1   
 26  14  28  1   
 27  15  17  1   
 28  15  29  1   
 29  15  30  1   
 30  16  18  1   
 31  16  31  1   
 32  16  32  1   
 33  17  18  1   
 34  17  19  1   
 35  17  33  1   
 36  18  34  1   
 37  18  35  1   
 38  19  36  1   
 39  19  37  1   
 40  19  38  1   
@<TRIPOS>SUBSTRUCTURE
  1 ****   9 GROUP 4 **** **** 0

# MOE 2024.06 (io_trps.svl 2023.06)
