@<TRIPOS>MOLECULE
NONAME
45 47 1 0 0 
SMALL
USER_CHARGES


@<TRIPOS>ATOM
  1 S        0.0170    -0.3320     0.4940 S.3   1 <1>  -0.0800 
  2 C       -0.1940     1.3750     0.1200 C.2   1 <1>   0.1040 
  3 C        1.7550    -0.1580     0.5170 C.2   1 <1>  -0.1400 
  4 N       -1.4650     1.9100    -0.0360 N.am  1 <1>  -0.4940 
  5 C        1.0180     2.0170     0.0420 C.2   1 <1>  -0.0860 
  6 C        2.1210     1.1000     0.2500 C.2   1 <1>  -0.1810 
  7 C        2.6570    -1.3390     0.8040 C.3   1 <1>   0.3000 
  8 C       -2.7320     1.3610    -0.0590 C.2   1 <1>   0.5440 
  9 C        1.1350     3.4330    -0.1950 C.2   1 <1>   0.8060 
 10 C        3.6140     1.4010     0.2110 C.3   1 <1>   0.0210 
 11 O        3.9760    -0.8810     0.9870 O.3   1 <1>  -0.5600 
 12 O       -2.8840     0.1610    -0.1440 O.2   1 <1>  -0.5700 
 13 C       -3.8880     2.2320    -0.0200 C.ar  1 <1>   0.0860 
 14 O        0.1660     4.1540    -0.3700 O.2   1 <1>  -0.5700 
 15 O        2.3480     3.9950    -0.2150 O.3   1 <1>  -0.4300 
 16 C        4.4660     0.1050     0.1140 C.3   1 <1>   0.2800 
 17 C       -3.8660     3.4550     0.6540 C.ar  1 <1>   0.1600 
 18 C       -5.0780     1.8880    -0.6490 C.ar  1 <1>  -0.1500 
 19 C        2.5270     5.3780    -0.4300 C.3   1 <1>   0.1200 
 20 C        4.4980    -0.4630    -1.3140 C.3   1 <1>  -0.2400 
 21 C        5.8990     0.3780     0.5720 C.3   1 <1>  -0.2400 
 22 N       -4.8650     4.3200     0.7300 N.ar  1 <1>  -0.6200 
 23 C       -6.1340     2.7700    -0.5790 C.ar  1 <1>  -0.1500 
 24 C        4.0240     5.6680    -0.3970 C.3   1 <1>  -0.2400 
 25 C       -5.9780     3.9590     0.1110 C.ar  1 <1>   0.1600 
 26 H       -1.4420     2.9190    -0.2170 H     1 <1>   0.3700 
 27 H        2.6410    -2.0430    -0.0080 H     1 <1>   0.0800 
 28 H        2.3550    -1.8340     1.7100 H     1 <1>   0.0800 
 29 H        3.8770     1.9440     1.1000 H     1 <1>   0.0800 
 30 H        3.8490     2.0210    -0.6350 H     1 <1>   0.0800 
 31 H       -2.9640     3.7360     1.1700 H     1 <1>   0.1500 
 32 H       -5.1640     0.9520    -1.1750 H     1 <1>   0.1500 
 33 H        2.0120     5.9150     0.3500 H     1 <1>   0.0800 
 34 H        2.1040     5.6340    -1.3870 H     1 <1>   0.0800 
 35 H        3.5060    -0.5950    -1.7050 H     1 <1>   0.0800 
 36 H        5.0160    -1.4050    -1.3280 H     1 <1>   0.0800 
 37 H        5.0150     0.2160    -1.9670 H     1 <1>   0.0800 
 38 H        5.9050     0.7190     1.5920 H     1 <1>   0.0800 
 39 H        6.3530     1.1330    -0.0440 H     1 <1>   0.0800 
 40 H        6.4880    -0.5190     0.5040 H     1 <1>   0.0800 
 41 H       -7.0710     2.5420    -1.0540 H     1 <1>   0.1500 
 42 H        4.4350     5.3980     0.5590 H     1 <1>   0.0800 
 43 H        4.1930     6.7180    -0.5560 H     1 <1>   0.0800 
 44 H        4.5270     5.1200    -1.1740 H     1 <1>   0.0800 
 45 H       -6.8070     4.6450     0.1600 H     1 <1>   0.1500 
@<TRIPOS>BOND
  1   1   2  1   
  2   1   3  1   
  3   2   4  1   
  4   2   5  2   
  5   3   6  2   
  6   3   7  1   
  7   4   8  am  
  8   4  26  1   
  9   5   6  1   
 10   5   9  1   
 11   6  10  1   
 12   7  11  1   
 13   7  27  1   
 14   7  28  1   
 15   8  12  2   
 16   8  13  1   
 17   9  14  2   
 18   9  15  1   
 19  10  16  1   
 20  10  29  1   
 21  10  30  1   
 22  11  16  1   
 23  13  17  ar  
 24  13  18  ar  
 25  15  19  1   
 26  16  20  1   
 27  16  21  1   
 28  17  22  ar  
 29  17  31  1   
 30  18  23  ar  
 31  18  32  1   
 32  19  24  1   
 33  19  33  1   
 34  19  34  1   
 35  20  35  1   
 36  20  36  1   
 37  20  37  1   
 38  21  38  1   
 39  21  39  1   
 40  21  40  1   
 41  22  25  ar  
 42  23  25  ar  
 43  23  41  1   
 44  24  42  1   
 45  24  43  1   
 46  24  44  1   
 47  25  45  1   
@<TRIPOS>SUBSTRUCTURE
  1 ****   2 GROUP 4 **** **** 0

# MOE 2024.06 (io_trps.svl 2023.06)
