@<TRIPOS>MOLECULE
NONAME
27 28 1 0 0 
SMALL
USER_CHARGES


@<TRIPOS>ATOM
  1 S        0.1400    -2.3270     1.8340 S.3   1 <1>  -0.3710 
  2 C       -0.4950    -2.0540     0.2170 C.2   1 <1>   0.6510 
  3 C        1.5140    -1.1470     1.6160 C.3   1 <1>   0.0700 
  4 N        0.1510    -1.2170    -0.4680 N.2   1 <1>  -0.6960 
  5 N       -1.6110    -2.7970    -0.0590 N.am  1 <1>  -0.4900 
  6 C        1.3230    -0.6110     0.1870 C.3   1 <1>   0.0860 
  7 C       -2.3590    -2.8840    -1.1950 C.2   1 <1>   0.5690 
  8 O       -2.1140    -2.2760    -2.2050 O.2   1 <1>  -0.5700 
  9 C       -3.5800    -3.7920    -1.1990 C.3   1 <1>   0.1310 
 10 S       -3.6220    -4.9110     0.2900 S.3   1 <1>  -0.2860 
 11 C       -5.1520    -5.8200     0.0510 C.2   1 <1>   0.2430 
 12 N       -5.9490    -5.6270    -0.9390 N.2   1 <1>  -0.3380 
 13 N       -5.5660    -6.7650     0.8930 N.pl3 1 <1>   0.0480 
 14 N       -6.9610    -6.4840    -0.7620 N.2   1 <1>  -0.3380 
 15 C       -6.7150    -7.1440     0.3210 C.2   1 <1>   0.0370 
 16 C       -4.9300    -7.2640     2.1260 C.3   1 <1>   0.0160 
 17 H        2.4390    -1.6820     1.7320 H     1 <1>   0.0800 
 18 H        1.4170    -0.3750     2.3590 H     1 <1>   0.0800 
 19 H       -1.9020    -3.3870     0.7150 H     1 <1>   0.3700 
 20 H        2.1990    -0.8250    -0.4010 H     1 <1>   0.0800 
 21 H        1.1920     0.4570     0.2140 H     1 <1>   0.0800 
 22 H       -3.5740    -4.4210    -2.0700 H     1 <1>   0.0800 
 23 H       -4.4810    -3.2060    -1.1850 H     1 <1>   0.0800 
 24 H       -7.3500    -7.9110     0.7270 H     1 <1>   0.1500 
 25 H       -3.9530    -7.6460     1.8920 H     1 <1>   0.0800 
 26 H       -5.5290    -8.0470     2.5530 H     1 <1>   0.0800 
 27 H       -4.8400    -6.4570     2.8310 H     1 <1>   0.0800 
@<TRIPOS>BOND
  1   1   2  1   
  2   1   3  1   
  3   2   4  2   
  4   2   5  1   
  5   3   6  1   
  6   3  17  1   
  7   3  18  1   
  8   4   6  1   
  9   5   7  am  
 10   5  19  1   
 11   6  20  1   
 12   6  21  1   
 13   7   8  2   
 14   7   9  1   
 15   9  10  1   
 16   9  22  1   
 17   9  23  1   
 18  10  11  1   
 19  11  12  2   
 20  11  13  1   
 21  12  14  1   
 22  13  15  1   
 23  13  16  1   
 24  14  15  2   
 25  15  24  1   
 26  16  25  1   
 27  16  26  1   
 28  16  27  1   
@<TRIPOS>SUBSTRUCTURE
  1 ****  10 GROUP 4 **** **** 0

# MOE 2024.06 (io_trps.svl 2023.06)
