@<TRIPOS>MOLECULE
NONAME
40 41 1 0 0 
SMALL
USER_CHARGES


@<TRIPOS>ATOM
  1 O        0.2290     0.9290    -1.0020 O.2   1 <1>  -0.5700 
  2 C       -0.0170     1.7260    -0.1160 C.2   1 <1>   0.6900 
  3 N        0.9690     2.4910     0.4380 N.am  1 <1>  -0.6600 
  4 N       -1.2800     1.9360     0.3520 N.am  1 <1>  -0.5470 
  5 C        2.2980     1.9420     0.8250 C.3   1 <1>   0.2200 
  6 C        1.0170     3.9310     0.0760 C.3   1 <1>   0.1400 
  7 C       -2.5430     1.4190     0.0130 C.ar  1 <1>   0.1170 
  8 C        3.2750     2.0920    -0.3480 C.3   1 <1>  -0.1600 
  9 C        2.2110     0.4980     1.3260 C.3   1 <1>  -0.2400 
 10 C        1.9840     4.1310    -1.0990 C.3   1 <1>  -0.1600 
 11 C       -3.7000     2.1130     0.3890 C.ar  1 <1>  -0.1440 
 12 C       -2.6720     0.2150    -0.6710 C.ar  1 <1>  -0.1500 
 13 C        3.3770     3.5570    -0.8010 C.3   1 <1>  -0.1600 
 14 C       -4.9560     1.5890     0.0850 C.ar  1 <1>  -0.1440 
 15 C       -3.5560     3.4450     1.1320 C.3   1 <1>  -0.0970 
 16 C       -3.9140    -0.2970    -0.9800 C.ar  1 <1>  -0.1500 
 17 C       -5.0510     0.3880    -0.6020 C.ar  1 <1>  -0.1500 
 18 C       -6.2560     2.2800     0.4760 C.3   1 <1>  -0.0970 
 19 H       -1.2880     2.6150     1.1020 H     1 <1>   0.3700 
 20 H        2.6660     2.5380     1.6440 H     1 <1>   0.0800 
 21 H        1.3470     4.5000     0.9280 H     1 <1>   0.0800 
 22 H        0.0360     4.2750    -0.2050 H     1 <1>   0.0800 
 23 H        2.9350     1.4810    -1.1680 H     1 <1>   0.0800 
 24 H        4.2470     1.7390    -0.0560 H     1 <1>   0.0800 
 25 H        1.9550    -0.1740     0.5260 H     1 <1>   0.0800 
 26 H        1.4770     0.4190     2.1070 H     1 <1>   0.0800 
 27 H        3.1630     0.1940     1.7220 H     1 <1>   0.0800 
 28 H        2.0630     5.1800    -1.3220 H     1 <1>   0.0800 
 29 H        1.5740     3.6430    -1.9670 H     1 <1>   0.0800 
 30 H       -1.7980    -0.3360    -0.9640 H     1 <1>   0.1500 
 31 H        3.9930     3.6230    -1.6820 H     1 <1>   0.0800 
 32 H        3.8440     4.1380    -0.0240 H     1 <1>   0.0800 
 33 H       -2.8480     4.0750     0.6250 H     1 <1>   0.0800 
 34 H       -3.2120     3.2640     2.1350 H     1 <1>   0.0800 
 35 H       -4.4760     3.9920     1.1880 H     1 <1>   0.0800 
 36 H       -3.9940    -1.2280    -1.5130 H     1 <1>   0.1500 
 37 H       -6.0130    -0.0270    -0.8480 H     1 <1>   0.1500 
 38 H       -6.2720     2.4650     1.5350 H     1 <1>   0.0800 
 39 H       -7.1090     1.6710     0.2340 H     1 <1>   0.0800 
 40 H       -6.3500     3.2120    -0.0500 H     1 <1>   0.0800 
@<TRIPOS>BOND
  1   1   2  2   
  2   2   3  am  
  3   2   4  am  
  4   3   5  1   
  5   3   6  1   
  6   4   7  1   
  7   4  19  1   
  8   5   8  1   
  9   5   9  1   
 10   5  20  1   
 11   6  10  1   
 12   6  21  1   
 13   6  22  1   
 14   7  11  ar  
 15   7  12  ar  
 16   8  13  1   
 17   8  23  1   
 18   8  24  1   
 19   9  25  1   
 20   9  26  1   
 21   9  27  1   
 22  10  13  1   
 23  10  28  1   
 24  10  29  1   
 25  11  14  ar  
 26  11  15  1   
 27  12  16  ar  
 28  12  30  1   
 29  13  31  1   
 30  13  32  1   
 31  14  17  ar  
 32  14  18  1   
 33  15  33  1   
 34  15  34  1   
 35  15  35  1   
 36  16  17  ar  
 37  16  36  1   
 38  17  37  1   
 39  18  38  1   
 40  18  39  1   
 41  18  40  1   
@<TRIPOS>SUBSTRUCTURE
  1 ****   4 GROUP 4 **** **** 0

# MOE 2024.06 (io_trps.svl 2023.06)
