@<TRIPOS>MOLECULE
NONAME
40 41 1 0 0 
SMALL
USER_CHARGES


@<TRIPOS>ATOM
  1 O        0.2940     1.0370     1.4900 O.2   1 <1>  -0.5700 
  2 C        0.2900     1.8570     0.6010 C.2   1 <1>   0.5690 
  3 N        1.3870     2.1150    -0.1500 N.am  1 <1>  -0.7300 
  4 C       -0.9890     2.6350     0.2950 C.3   1 <1>  -0.0190 
  5 C        2.7470     1.5700     0.0300 C.3   1 <1>   0.1140 
  6 C       -1.4140     3.5080     1.4910 C.3   1 <1>  -0.1600 
  7 C       -2.1350     1.6940    -0.1240 C.3   1 <1>  -0.1600 
  8 C        3.7950     2.5520    -0.5610 C.2   1 <1>   0.9060 
  9 C        2.8000     0.1820    -0.6390 C.3   1 <1>  -0.0170 
 10 C       -2.7050     4.2850     1.1960 C.3   1 <1>  -0.1600 
 11 C       -3.4260     2.4710    -0.4200 C.3   1 <1>  -0.1600 
 12 O        3.4760     3.1190    -1.6360 O.co2 1 <1>  -0.9000 
 13 O        4.8430     2.7750     0.0870 O.co2 1 <1>  -0.9000 
 14 C        4.0000    -0.7340    -0.4030 C.ar  1 <1>  -0.1440 
 15 C       -3.8380     3.3380     0.7780 C.3   1 <1>  -0.1600 
 16 C        5.0360    -0.4160     0.4990 C.ar  1 <1>  -0.1500 
 17 C        4.0530    -1.9560    -1.1030 C.ar  1 <1>  -0.1500 
 18 C        6.1090    -1.3050     0.6910 C.ar  1 <1>  -0.1500 
 19 C        5.1240    -2.8470    -0.9100 C.ar  1 <1>  -0.1500 
 20 C        6.1540    -2.5220    -0.0120 C.ar  1 <1>  -0.1500 
 21 H        1.3690     2.8350    -0.8630 H     1 <1>   0.3700 
 22 H       -0.7830     3.2910    -0.5320 H     1 <1>   0.0800 
 23 H        2.9510     1.4650     1.0950 H     1 <1>   0.0800 
 24 H       -0.6220     4.1990     1.7280 H     1 <1>   0.0800 
 25 H       -1.5650     2.8780     2.3510 H     1 <1>   0.0800 
 26 H       -2.3180     0.9880     0.6680 H     1 <1>   0.0800 
 27 H       -1.8390     1.1380    -0.9960 H     1 <1>   0.0800 
 28 H        2.7040     0.3390    -1.7140 H     1 <1>   0.0800 
 29 H        1.9210    -0.3710    -0.3110 H     1 <1>   0.0800 
 30 H       -2.5220     4.9930     0.4050 H     1 <1>   0.0800 
 31 H       -3.0000     4.8370     2.0710 H     1 <1>   0.0800 
 32 H       -4.2170     1.7790    -0.6520 H     1 <1>   0.0800 
 33 H       -3.2740     3.1010    -1.2800 H     1 <1>   0.0800 
 34 H       -4.7130     3.9110     0.5260 H     1 <1>   0.0800 
 35 H       -4.0890     2.6990     1.6080 H     1 <1>   0.0800 
 36 H        5.0270     0.5140     1.0490 H     1 <1>   0.1500 
 37 H        3.2640    -2.2110    -1.7950 H     1 <1>   0.1500 
 38 H        6.9000    -1.0440     1.3780 H     1 <1>   0.1500 
 39 H        5.1540    -3.7790    -1.4540 H     1 <1>   0.1500 
 40 H        6.9800    -3.2010     0.1370 H     1 <1>   0.1500 
@<TRIPOS>BOND
  1   1   2  2   
  2   2   3  am  
  3   2   4  1   
  4   3   5  1   
  5   3  21  1   
  6   4   6  1   
  7   4   7  1   
  8   4  22  1   
  9   5   8  1   
 10   5   9  1   
 11   5  23  1   
 12   6  10  1   
 13   6  24  1   
 14   6  25  1   
 15   7  11  1   
 16   7  26  1   
 17   7  27  1   
 18   8  12  ar  
 19   8  13  ar  
 20   9  14  1   
 21   9  28  1   
 22   9  29  1   
 23  10  15  1   
 24  10  30  1   
 25  10  31  1   
 26  11  15  1   
 27  11  32  1   
 28  11  33  1   
 29  14  16  ar  
 30  14  17  ar  
 31  15  34  1   
 32  15  35  1   
 33  16  18  ar  
 34  16  36  1   
 35  17  19  ar  
 36  17  37  1   
 37  18  20  ar  
 38  18  38  1   
 39  19  20  ar  
 40  19  39  1   
 41  20  40  1   
@<TRIPOS>SUBSTRUCTURE
  1 ****   3 GROUP 4 **** **** 0

# MOE 2024.06 (io_trps.svl 2023.06)
