@<TRIPOS>MOLECULE
NONAME
53 55 1 0 0 
SMALL
USER_CHARGES


@<TRIPOS>ATOM
  1 N       -0.4680    -0.3950     0.2810 N.4   1 <1>  -0.9590 
  2 C        0.7070     0.5050     0.3930 C.3   1 <1>   0.4230 
  3 C       -0.1220    -1.8470     0.4270 C.3   1 <1>   0.3430 
  4 C       -1.3610    -0.1900    -0.9090 C.3   1 <1>   0.3430 
  5 C        1.5570     0.5110    -0.8840 C.3   1 <1>  -0.1600 
  6 C        0.2580     1.9280     0.7750 C.3   1 <1>  -0.1600 
  7 C       -1.3940    -2.7310     0.4410 C.3   1 <1>   0.1100 
  8 C       -2.6510    -1.0360    -0.7790 C.3   1 <1>   0.1100 
  9 C        2.8640     1.3030    -0.6700 C.3   1 <1>  -0.0800 
 10 C        1.2790     3.0100     0.3720 C.3   1 <1>  -0.1600 
 11 N       -2.6340    -1.9220     0.4160 N.3   1 <1>  -0.8100 
 12 C        2.7070     2.4500     0.3520 C.3   1 <1>  -0.1600 
 13 C        4.0100     0.3770    -0.2420 C.3   1 <1>  -0.2400 
 14 C       -3.8340    -2.7680     0.4900 C.3   1 <1>   0.2480 
 15 C       -5.0450    -1.8790     0.6700 C.2   1 <1>  -0.2880 
 16 C       -6.0800    -1.7990    -0.1850 C.2   1 <1>  -0.1780 
 17 C       -7.2590    -0.9650    -0.0910 C.ar  1 <1>   0.0280 
 18 C       -7.5010    -0.1280     0.9970 C.ar  1 <1>  -0.1500 
 19 C       -8.2030    -0.9760    -1.1160 C.ar  1 <1>  -0.1500 
 20 C       -8.6320     0.6670     1.0570 C.ar  1 <1>  -0.1500 
 21 C       -9.3360    -0.1850    -1.0630 C.ar  1 <1>  -0.1500 
 22 C       -9.5530     0.6400     0.0260 C.ar  1 <1>  -0.1500 
 23 H       -1.0990    -0.2230     1.0800 H     1 <1>   0.4500 
 24 H        1.3380     0.1470     1.1910 H     1 <1>   0.0800 
 25 H        0.5170    -2.1590    -0.3820 H     1 <1>   0.0800 
 26 H        0.4170    -2.0010     1.3470 H     1 <1>   0.0800 
 27 H       -1.6340     0.8480    -1.0000 H     1 <1>   0.0800 
 28 H       -0.8420    -0.4720    -1.8100 H     1 <1>   0.0800 
 29 H        1.7880    -0.4900    -1.2000 H     1 <1>   0.0800 
 30 H        1.0050     0.9910    -1.6730 H     1 <1>   0.0800 
 31 H       -0.6850     2.1810     0.3250 H     1 <1>   0.0800 
 32 H        0.1320     1.9580     1.8430 H     1 <1>   0.0800 
 33 H       -1.3810    -3.3410     1.3290 H     1 <1>   0.0800 
 34 H       -1.3730    -3.3950    -0.4070 H     1 <1>   0.0800 
 35 H       -2.7800    -1.6220    -1.6730 H     1 <1>   0.0800 
 36 H       -3.4890    -0.3620    -0.7160 H     1 <1>   0.0800 
 37 H        3.1380     1.7370    -1.6190 H     1 <1>   0.0800 
 38 H        1.0430     3.3840    -0.6110 H     1 <1>   0.0800 
 39 H        1.2190     3.8410     1.0540 H     1 <1>   0.0800 
 40 H        2.9520     2.1050     1.3440 H     1 <1>   0.0800 
 41 H        3.4030     3.2370     0.1120 H     1 <1>   0.0800 
 42 H        3.7870    -0.1140     0.6900 H     1 <1>   0.0800 
 43 H        4.9160     0.9440    -0.1180 H     1 <1>   0.0800 
 44 H        4.1910    -0.3730    -0.9920 H     1 <1>   0.0800 
 45 H       -3.9310    -3.3630    -0.4030 H     1 <1>   0.0800 
 46 H       -3.7630    -3.4310     1.3360 H     1 <1>   0.0800 
 47 H       -4.9790    -1.3020     1.5740 H     1 <1>   0.1500 
 48 H       -6.0710    -2.4150    -1.0670 H     1 <1>   0.1500 
 49 H       -6.8040    -0.0920     1.8120 H     1 <1>   0.1500 
 50 H       -8.0520    -1.6110    -1.9690 H     1 <1>   0.1500 
 51 H       -8.7970     1.3050     1.9070 H     1 <1>   0.1500 
 52 H      -10.0500    -0.2100    -1.8670 H     1 <1>   0.1500 
 53 H      -10.4330     1.2580     0.0710 H     1 <1>   0.1500 
@<TRIPOS>BOND
  1   1   2  1   
  2   1   3  1   
  3   1   4  1   
  4   1  23  1   
  5   2   5  1   
  6   2   6  1   
  7   2  24  1   
  8   3   7  1   
  9   3  25  1   
 10   3  26  1   
 11   4   8  1   
 12   4  27  1   
 13   4  28  1   
 14   5   9  1   
 15   5  29  1   
 16   5  30  1   
 17   6  10  1   
 18   6  31  1   
 19   6  32  1   
 20   7  11  1   
 21   7  33  1   
 22   7  34  1   
 23   8  11  1   
 24   8  35  1   
 25   8  36  1   
 26   9  12  1   
 27   9  13  1   
 28   9  37  1   
 29  10  12  1   
 30  10  38  1   
 31  10  39  1   
 32  11  14  1   
 33  12  40  1   
 34  12  41  1   
 35  13  42  1   
 36  13  43  1   
 37  13  44  1   
 38  14  15  1   
 39  14  45  1   
 40  14  46  1   
 41  15  16  2   
 42  15  47  1   
 43  16  17  1   
 44  16  48  1   
 45  17  18  ar  
 46  17  19  ar  
 47  18  20  ar  
 48  18  49  1   
 49  19  21  ar  
 50  19  50  1   
 51  20  22  ar  
 52  20  51  1   
 53  21  22  ar  
 54  21  52  1   
 55  22  53  1   
@<TRIPOS>SUBSTRUCTURE
  1 ****   8 GROUP 4 **** **** 0

# MOE 2024.06 (io_trps.svl 2023.06)
