@<TRIPOS>MOLECULE
NONAME
40 41 1 0 0 
SMALL
USER_CHARGES


@<TRIPOS>ATOM
  1 CL      -3.8940     0.9660    -3.7290 Cl    1 <1>  -0.1770 
  2 C       -3.8500     0.4030    -2.0780 C.ar  1 <1>   0.1770 
  3 C       -4.6350    -0.6720    -1.7110 C.ar  1 <1>  -0.1500 
  4 C       -3.0300     1.0440    -1.1690 C.ar  1 <1>  -0.1500 
  5 C       -4.6160    -1.1330    -0.4000 C.ar  1 <1>   0.1170 
  6 C       -2.9990     0.5900     0.1390 C.ar  1 <1>  -0.1500 
  7 N       -5.4210    -2.2320    -0.0620 N.am  1 <1>  -0.5470 
  8 C       -3.7840    -0.4880     0.5140 C.ar  1 <1>  -0.1500 
  9 C       -5.8640    -2.6880     1.1500 C.2   1 <1>   0.5690 
 10 O       -5.6670    -2.1230     2.1980 O.2   1 <1>  -0.5700 
 11 C       -6.7040    -3.9680     1.1680 C.3   1 <1>   0.1710 
 12 N       -8.0480    -3.8320     0.5260 N.3   1 <1>  -0.8100 
 13 C       -8.7800    -5.1210     0.5670 C.3   1 <1>   0.1100 
 14 C       -8.8420    -2.7720     1.2080 C.3   1 <1>   0.1100 
 15 C      -10.2050    -5.0250    -0.0340 C.3   1 <1>   0.3430 
 16 C      -10.2990    -2.6730     0.6940 C.3   1 <1>   0.3430 
 17 N      -10.5430    -3.6220    -0.4450 N.4   1 <1>  -0.9590 
 18 C      -11.8900    -3.5140    -1.0590 C.3   1 <1>   0.3430 
 19 C      -12.0130    -2.1880    -1.7990 C.3   1 <1>  -0.2400 
 20 H       -5.2570    -1.1390    -2.4500 H     1 <1>   0.1500 
 21 H       -2.4300     1.8790    -1.4800 H     1 <1>   0.1500 
 22 H       -2.3660     1.0730     0.8630 H     1 <1>   0.1500 
 23 H       -5.7890    -2.7530    -0.8570 H     1 <1>   0.3700 
 24 H       -3.7380    -0.8270     1.5340 H     1 <1>   0.1500 
 25 H       -6.8220    -4.2730     2.1940 H     1 <1>   0.0800 
 26 H       -6.1450    -4.7370     0.6640 H     1 <1>   0.0800 
 27 H       -8.8570    -5.4630     1.5860 H     1 <1>   0.0800 
 28 H       -8.2240    -5.8660     0.0220 H     1 <1>   0.0800 
 29 H       -8.3680    -1.8150     1.0590 H     1 <1>   0.0800 
 30 H       -8.8610    -2.9510     2.2700 H     1 <1>   0.0800 
 31 H      -10.9170    -5.3770     0.6950 H     1 <1>   0.0800 
 32 H      -10.2660    -5.6790    -0.8890 H     1 <1>   0.0800 
 33 H      -10.4850    -1.6600     0.3800 H     1 <1>   0.0800 
 34 H      -10.9740    -2.8920     1.5050 H     1 <1>   0.0800 
 35 H       -9.8220    -3.3770    -1.1400 H     1 <1>   0.4500 
 36 H      -12.6530    -3.5900    -0.3010 H     1 <1>   0.0800 
 37 H      -12.0310    -4.3190    -1.7630 H     1 <1>   0.0800 
 38 H      -11.9810    -1.3540    -1.1220 H     1 <1>   0.0800 
 39 H      -12.9610    -2.1570    -2.3080 H     1 <1>   0.0800 
 40 H      -11.2380    -2.0880    -2.5380 H     1 <1>   0.0800 
@<TRIPOS>BOND
  1   1   2  1   
  2   2   3  ar  
  3   2   4  ar  
  4   3   5  ar  
  5   3  20  1   
  6   4   6  ar  
  7   4  21  1   
  8   5   7  1   
  9   5   8  ar  
 10   6   8  ar  
 11   6  22  1   
 12   7   9  am  
 13   7  23  1   
 14   8  24  1   
 15   9  10  2   
 16   9  11  1   
 17  11  12  1   
 18  11  25  1   
 19  11  26  1   
 20  12  13  1   
 21  12  14  1   
 22  13  15  1   
 23  13  27  1   
 24  13  28  1   
 25  14  16  1   
 26  14  29  1   
 27  14  30  1   
 28  15  17  1   
 29  15  31  1   
 30  15  32  1   
 31  16  17  1   
 32  16  33  1   
 33  16  34  1   
 34  17  18  1   
 35  17  35  1   
 36  18  19  1   
 37  18  36  1   
 38  18  37  1   
 39  19  38  1   
 40  19  39  1   
 41  19  40  1   
@<TRIPOS>SUBSTRUCTURE
  1 ****   7 GROUP 4 **** **** 0

# MOE 2024.06 (io_trps.svl 2023.06)
