@<TRIPOS>MOLECULE
NONAME
53 54 1 0 0 
SMALL
USER_CHARGES


@<TRIPOS>ATOM
  1 O       -0.7410    -1.2170     1.2320 O.2   1 <1>  -0.5700 
  2 C       -0.6130    -1.9780     0.3020 C.2   1 <1>   0.5690 
  3 N        0.5960    -2.3440    -0.2180 N.am  1 <1>  -0.5470 
  4 C       -1.8690    -2.5730    -0.3470 C.3   1 <1>  -0.0190 
  5 C        1.9290    -2.0170     0.1020 C.ar  1 <1>   0.1170 
  6 C       -2.7530    -1.4800    -0.9690 C.3   1 <1>  -0.2400 
  7 C       -2.6850    -3.4020     0.6580 C.3   1 <1>  -0.2400 
  8 C        2.9440    -2.5220    -0.7170 C.ar  1 <1>   0.0820 
  9 C        2.2860    -1.2250     1.1870 C.ar  1 <1>  -0.1500 
 10 O        2.5590    -3.3050    -1.7730 O.3   1 <1>  -0.3620 
 11 C        4.2750    -2.2270    -0.4450 C.ar  1 <1>  -0.1500 
 12 C        3.6130    -0.9370     1.4500 C.ar  1 <1>  -0.1500 
 13 C        3.5070    -3.8980    -2.6330 C.3   1 <1>   0.0400 
 14 C        4.6260    -1.4340     0.6390 C.ar  1 <1>   0.1170 
 15 N        5.9870    -1.1580     0.8600 N.am  1 <1>  -0.5470 
 16 C        6.6690    -0.7550     1.9760 C.2   1 <1>   0.5690 
 17 O        6.1530    -0.5680     3.0510 O.2   1 <1>  -0.5700 
 18 C        8.1720    -0.5410     1.8580 C.3   1 <1>   0.1810 
 19 O        8.6380    -0.8660     0.5530 O.3   1 <1>  -0.3630 
 20 C        9.9480    -0.7310     0.2260 C.ar  1 <1>   0.0820 
 21 C       10.9300    -0.3090     1.1170 C.ar  1 <1>  -0.1500 
 22 C       10.3000    -1.0350    -1.0790 C.ar  1 <1>  -0.1500 
 23 C       12.2440    -0.1970     0.6960 C.ar  1 <1>  -0.1500 
 24 C       11.6140    -0.9220    -1.4950 C.ar  1 <1>  -0.1500 
 25 C       12.5950    -0.5030    -0.6100 C.ar  1 <1>  -0.1440 
 26 C       14.0390    -0.3770    -1.0670 C.3   1 <1>  -0.0170 
 27 C       14.3100     1.0300    -1.6020 C.3   1 <1>  -0.2400 
 28 H        0.5580    -2.9700    -1.0230 H     1 <1>   0.3700 
 29 H       -1.5600    -3.2320    -1.1390 H     1 <1>   0.0800 
 30 H       -3.0990    -0.8030    -0.2060 H     1 <1>   0.0800 
 31 H       -3.6060    -1.9150    -1.4590 H     1 <1>   0.0800 
 32 H       -2.1910    -0.9150    -1.6920 H     1 <1>   0.0800 
 33 H       -3.0320    -2.7760     1.4620 H     1 <1>   0.0800 
 34 H       -2.0740    -4.1830     1.0760 H     1 <1>   0.0800 
 35 H       -3.5360    -3.8510     0.1770 H     1 <1>   0.0800 
 36 H        1.5330    -0.8240     1.8390 H     1 <1>   0.1500 
 37 H        5.0620    -2.6070    -1.0650 H     1 <1>   0.1500 
 38 H        3.8520    -0.3170     2.2950 H     1 <1>   0.1500 
 39 H        2.9770    -4.4760    -3.3680 H     1 <1>   0.0800 
 40 H        4.1480    -4.5430    -2.0570 H     1 <1>   0.0800 
 41 H        4.0730    -3.1230    -3.1190 H     1 <1>   0.0800 
 42 H        6.6020    -1.3070     0.0580 H     1 <1>   0.3700 
 43 H        8.6760    -1.1720     2.5670 H     1 <1>   0.0800 
 44 H        8.3990     0.4910     2.0540 H     1 <1>   0.0800 
 45 H       10.7010    -0.0630     2.1360 H     1 <1>   0.1500 
 46 H        9.5430    -1.3600    -1.7690 H     1 <1>   0.1500 
 47 H       12.9980     0.1320     1.3900 H     1 <1>   0.1500 
 48 H       11.8730    -1.1600    -2.5120 H     1 <1>   0.1500 
 49 H       14.2410    -1.1010    -1.8370 H     1 <1>   0.0800 
 50 H       14.7000    -0.5850    -0.2440 H     1 <1>   0.0800 
 51 H       13.6660     1.2400    -2.4370 H     1 <1>   0.0800 
 52 H       15.3330     1.1140    -1.9250 H     1 <1>   0.0800 
 53 H       14.1280     1.7610    -0.8350 H     1 <1>   0.0800 
@<TRIPOS>BOND
  1   1   2  2   
  2   2   3  am  
  3   2   4  1   
  4   3   5  1   
  5   3  28  1   
  6   4   6  1   
  7   4   7  1   
  8   4  29  1   
  9   5   8  ar  
 10   5   9  ar  
 11   6  30  1   
 12   6  31  1   
 13   6  32  1   
 14   7  33  1   
 15   7  34  1   
 16   7  35  1   
 17   8  10  1   
 18   8  11  ar  
 19   9  12  ar  
 20   9  36  1   
 21  10  13  1   
 22  11  14  ar  
 23  11  37  1   
 24  12  14  ar  
 25  12  38  1   
 26  13  39  1   
 27  13  40  1   
 28  13  41  1   
 29  14  15  1   
 30  15  16  am  
 31  15  42  1   
 32  16  17  2   
 33  16  18  1   
 34  18  19  1   
 35  18  43  1   
 36  18  44  1   
 37  19  20  1   
 38  20  21  ar  
 39  20  22  ar  
 40  21  23  ar  
 41  21  45  1   
 42  22  24  ar  
 43  22  46  1   
 44  23  25  ar  
 45  23  47  1   
 46  24  25  ar  
 47  24  48  1   
 48  25  26  1   
 49  26  27  1   
 50  26  49  1   
 51  26  50  1   
 52  27  51  1   
 53  27  52  1   
 54  27  53  1   
@<TRIPOS>SUBSTRUCTURE
  1 ****  15 GROUP 4 **** **** 0

# MOE 2024.06 (io_trps.svl 2023.06)
