@<TRIPOS>MOLECULE
NONAME
28 28 1 0 0 
SMALL
USER_CHARGES


@<TRIPOS>ATOM
  1 CL       0.2800    -1.0270    -1.8560 Cl    1 <1>  -0.1770 
  2 C        1.6290    -1.4250    -0.8230 C.ar  1 <1>   0.1770 
  3 C        2.6770    -0.5350    -0.6970 C.ar  1 <1>  -0.1500 
  4 C        1.6200    -2.6320    -0.1480 C.ar  1 <1>  -0.1500 
  5 C        3.7520    -0.8480     0.1270 C.ar  1 <1>   0.1990 
  6 C        2.6900    -2.9540     0.6710 C.ar  1 <1>  -0.1500 
  7 N        4.8220     0.0250     0.2900 N.am  1 <1>  -0.6930 
  8 C        3.7430    -2.0650     0.8020 C.ar  1 <1>  -0.1500 
  9 S        6.3450    -0.3180    -0.4800 S.o2  1 <1>   1.3330 
 10 C        4.5140     1.4390     0.7340 C.3   1 <1>   0.1700 
 11 O        6.3550    -1.7360    -0.7630 O.2   1 <1>  -0.6500 
 12 O        7.4190     0.2160     0.3240 O.2   1 <1>  -0.6500 
 13 C        6.2960     0.5140    -2.0540 C.3   1 <1>  -0.1350 
 14 C        4.7060     2.5330    -0.3490 C.2   1 <1>   0.9060 
 15 C        5.2310     1.7180     2.0650 C.3   1 <1>  -0.2400 
 16 O        5.5720     3.4070    -0.2230 O.co2 1 <1>  -0.9000 
 17 O        4.0010     2.4820    -1.3670 O.co2 1 <1>  -0.9000 
 18 H        2.6610     0.3950    -1.2370 H     1 <1>   0.1500 
 19 H        0.7910    -3.3060    -0.2660 H     1 <1>   0.1500 
 20 H        2.7060    -3.8900     1.2010 H     1 <1>   0.1500 
 21 H        4.5830    -2.3060     1.4290 H     1 <1>   0.1500 
 22 H        3.4640     1.4770     0.9560 H     1 <1>   0.0800 
 23 H        5.3450     0.3620    -2.5270 H     1 <1>   0.0800 
 24 H        7.0680     0.1350    -2.6920 H     1 <1>   0.0800 
 25 H        6.4540     1.5670    -1.9330 H     1 <1>   0.0800 
 26 H        6.2890     1.8180     1.9090 H     1 <1>   0.0800 
 27 H        5.0390     0.9300     2.7690 H     1 <1>   0.0800 
 28 H        4.8750     2.6470     2.4710 H     1 <1>   0.0800 
@<TRIPOS>BOND
  1   1   2  1   
  2   2   3  ar  
  3   2   4  ar  
  4   3   5  ar  
  5   3  18  1   
  6   4   6  ar  
  7   4  19  1   
  8   5   7  1   
  9   5   8  ar  
 10   6   8  ar  
 11   6  20  1   
 12   7   9  am  
 13   7  10  1   
 14   8  21  1   
 15   9  11  2   
 16   9  12  2   
 17   9  13  1   
 18  10  14  1   
 19  10  15  1   
 20  10  22  1   
 21  13  23  1   
 22  13  24  1   
 23  13  25  1   
 24  14  16  ar  
 25  14  17  ar  
 26  15  26  1   
 27  15  27  1   
 28  15  28  1   
@<TRIPOS>SUBSTRUCTURE
  1 ****   7 GROUP 4 **** **** 0

# MOE 2024.06 (io_trps.svl 2023.06)
