@<TRIPOS>MOLECULE
NONAME
34 35 1 0 0 
SMALL
USER_CHARGES


@<TRIPOS>ATOM
  1 O       -0.0770    -0.4330    -0.9910 O.2   1 <1>  -0.5700 
  2 C        0.0230    -1.5320    -0.4800 C.2   1 <1>   0.6900 
  3 N       -1.0740    -2.3450    -0.3780 N.am  1 <1>  -0.6600 
  4 N        1.2200    -1.9970    -0.0150 N.am  1 <1>  -0.5470 
  5 C       -2.4150    -1.9080    -0.8260 C.3   1 <1>   0.1400 
  6 C       -1.1600    -3.5930     0.4120 C.3   1 <1>   0.1400 
  7 C        2.4830    -1.3930     0.0930 C.ar  1 <1>   0.1170 
  8 C       -3.3900    -2.7860    -0.0490 C.3   1 <1>  -0.1600 
  9 C       -2.6040    -4.0570     0.2560 C.3   1 <1>  -0.1600 
 10 C        3.6450    -2.1730     0.0290 C.ar  1 <1>  -0.1440 
 11 C        2.6000    -0.0200     0.2940 C.ar  1 <1>  -0.1500 
 12 C        4.8820    -1.5550     0.1710 C.ar  1 <1>  -0.1500 
 13 C        3.5210    -3.6850    -0.2030 C.3   1 <1>  -0.0170 
 14 C        3.8350     0.5810     0.4290 C.ar  1 <1>  -0.1500 
 15 C        4.9800    -0.1890     0.3690 C.ar  1 <1>  -0.1500 
 16 C        4.8360    -4.4450    -0.4110 C.3   1 <1>  -0.2400 
 17 H        1.1980    -2.9850     0.1930 H     1 <1>   0.3700 
 18 H       -2.5020    -2.0840    -1.8840 H     1 <1>   0.0800 
 19 H       -2.5720    -0.8620    -0.6200 H     1 <1>   0.0800 
 20 H       -0.9460    -3.3730     1.4440 H     1 <1>   0.0800 
 21 H       -0.4720    -4.3340     0.0410 H     1 <1>   0.0800 
 22 H       -4.2860    -2.9790    -0.6110 H     1 <1>   0.0800 
 23 H       -3.6510    -2.2860     0.8680 H     1 <1>   0.0800 
 24 H       -2.9610    -4.5580     1.1380 H     1 <1>   0.0800 
 25 H       -2.6660    -4.7320    -0.5800 H     1 <1>   0.0800 
 26 H        1.7140     0.5870     0.3480 H     1 <1>   0.1500 
 27 H        5.7960    -2.1170     0.1300 H     1 <1>   0.1500 
 28 H        2.9110    -3.8450    -1.0750 H     1 <1>   0.0800 
 29 H        3.0120    -4.1190     0.6400 H     1 <1>   0.0800 
 30 H        3.9030     1.6440     0.5810 H     1 <1>   0.1500 
 31 H        5.9450     0.2730     0.4750 H     1 <1>   0.1500 
 32 H        5.3720    -4.0420    -1.2520 H     1 <1>   0.0800 
 33 H        4.6320    -5.4830    -0.6050 H     1 <1>   0.0800 
 34 H        5.4530    -4.3820     0.4690 H     1 <1>   0.0800 
@<TRIPOS>BOND
  1   1   2  2   
  2   2   3  am  
  3   2   4  am  
  4   3   5  1   
  5   3   6  1   
  6   4   7  1   
  7   4  17  1   
  8   5   8  1   
  9   5  18  1   
 10   5  19  1   
 11   6   9  1   
 12   6  20  1   
 13   6  21  1   
 14   7  10  ar  
 15   7  11  ar  
 16   8   9  1   
 17   8  22  1   
 18   8  23  1   
 19   9  24  1   
 20   9  25  1   
 21  10  12  ar  
 22  10  13  1   
 23  11  14  ar  
 24  11  26  1   
 25  12  15  ar  
 26  12  27  1   
 27  13  16  1   
 28  13  28  1   
 29  13  29  1   
 30  14  15  ar  
 31  14  30  1   
 32  15  31  1   
 33  16  32  1   
 34  16  33  1   
 35  16  34  1   
@<TRIPOS>SUBSTRUCTURE
  1 ****   4 GROUP 4 **** **** 0

# MOE 2024.06 (io_trps.svl 2023.06)
