@<TRIPOS>MOLECULE
NONAME
34 34 1 0 0 
SMALL
USER_CHARGES


@<TRIPOS>ATOM
  1 O        0.6410     1.4140     1.8460 O.2   1 <1>  -0.5700 
  2 C        1.0540     1.7420     0.7610 C.2   1 <1>   0.5690 
  3 N        1.9960     1.0320     0.0990 N.am  1 <1>  -0.7300 
  4 C        0.5040     2.9940     0.1050 C.3   1 <1>  -0.0990 
  5 C        2.6930    -0.1440     0.6360 C.3   1 <1>   0.3640 
  6 C       -0.4100     2.6820    -1.0910 C.3   1 <1>  -0.2400 
  7 C        4.1820     0.0270     0.3550 C.ar  1 <1>  -0.1440 
  8 C        2.1340    -1.4320     0.0090 C.3   1 <1>  -0.1600 
  9 C        5.0620     0.2010     1.4130 C.ar  1 <1>  -0.1500 
 10 C        4.6870     0.0220    -0.9400 C.ar  1 <1>  -0.1500 
 11 C        0.6620    -1.6960     0.3650 C.3   1 <1>  -0.2400 
 12 C        6.4180     0.3610     1.1840 C.ar  1 <1>  -0.1500 
 13 C        6.0420     0.1820    -1.1680 C.ar  1 <1>  -0.1500 
 14 C        6.9160     0.3510    -0.1080 C.ar  1 <1>  -0.1440 
 15 C        8.4030     0.5280    -0.3580 C.3   1 <1>  -0.0970 
 16 H        2.3780     1.3780    -0.7780 H     1 <1>   0.3700 
 17 H        1.3260     3.6070    -0.2140 H     1 <1>   0.0800 
 18 H       -0.0520     3.5470     0.8410 H     1 <1>   0.0800 
 19 H        2.5380    -0.1890     1.7020 H     1 <1>   0.0800 
 20 H        0.1310     2.1500    -1.8530 H     1 <1>   0.0800 
 21 H       -0.7940     3.5940    -1.5110 H     1 <1>   0.0800 
 22 H       -1.2390     2.0750    -0.7700 H     1 <1>   0.0800 
 23 H        2.7240    -2.2580     0.3660 H     1 <1>   0.0800 
 24 H        2.2390    -1.3980    -1.0590 H     1 <1>   0.0800 
 25 H        4.6950     0.2160     2.4240 H     1 <1>   0.1500 
 26 H        4.0300    -0.1060    -1.7810 H     1 <1>   0.1500 
 27 H        0.5330    -1.7160     1.4340 H     1 <1>   0.0800 
 28 H        0.3470    -2.6420    -0.0380 H     1 <1>   0.0800 
 29 H        0.0300    -0.9250    -0.0390 H     1 <1>   0.0800 
 30 H        7.0830     0.4960     2.0190 H     1 <1>   0.1500 
 31 H        6.4150     0.1750    -2.1770 H     1 <1>   0.1500 
 32 H        8.6300     1.5720    -0.4680 H     1 <1>   0.0800 
 33 H        8.6980     0.0110    -1.2530 H     1 <1>   0.0800 
 34 H        8.9710     0.1320     0.4650 H     1 <1>   0.0800 
@<TRIPOS>BOND
  1   1   2  2   
  2   2   3  am  
  3   2   4  1   
  4   3   5  1   
  5   3  16  1   
  6   4   6  1   
  7   4  17  1   
  8   4  18  1   
  9   5   7  1   
 10   5   8  1   
 11   5  19  1   
 12   6  20  1   
 13   6  21  1   
 14   6  22  1   
 15   7   9  ar  
 16   7  10  ar  
 17   8  11  1   
 18   8  23  1   
 19   8  24  1   
 20   9  12  ar  
 21   9  25  1   
 22  10  13  ar  
 23  10  26  1   
 24  11  27  1   
 25  11  28  1   
 26  11  29  1   
 27  12  14  ar  
 28  12  30  1   
 29  13  14  ar  
 30  13  31  1   
 31  14  15  1   
 32  15  32  1   
 33  15  33  1   
 34  15  34  1   
@<TRIPOS>SUBSTRUCTURE
  1 ****   7 GROUP 4 **** **** 0

# MOE 2024.06 (io_trps.svl 2023.06)
