@<TRIPOS>MOLECULE
NONAME
48 51 1 0 0 
SMALL
USER_CHARGES


@<TRIPOS>ATOM
  1 CL      -0.5530     1.3620     2.3690 Cl    1 <1>  -0.1850 
  2 C       -1.4620     2.2770     1.1960 C.ar  1 <1>   0.1690 
  3 C       -2.7700     1.9240     0.9370 C.ar  1 <1>  -0.1580 
  4 C       -0.8600     3.3400     0.5490 C.ar  1 <1>  -0.1580 
  5 C       -3.5050     2.6480     0.0080 C.ar  1 <1>   0.3040 
  6 C       -1.5850     4.0610    -0.3830 C.ar  1 <1>  -0.1580 
  7 N       -4.8370     2.3110    -0.2560 N.pl3 1 <1>  -0.5800 
  8 C       -2.8990     3.7140    -0.6510 C.ar  1 <1>  -0.1580 
  9 C       -5.9160     3.0980    -0.2350 C.cat 1 <1>   1.0690 
 10 C       -5.2650     0.9460    -0.7030 C.3   1 <1>   0.1600 
 11 N       -6.1570     4.3630     0.0930 N.pl3 1 <1>  -0.7040 
 12 N       -7.0160     2.4950    -0.6090 N.pl3 1 <1>  -0.7670 
 13 C       -6.7880     1.0820    -0.9580 C.3   1 <1>   0.3480 
 14 C       -7.5010     4.5670    -0.0870 C.2   1 <1>   0.4200 
 15 C       -8.0650     3.4150    -0.5230 C.2   1 <1>   0.2700 
 16 N       -8.2230     5.7230     0.1320 N.am  1 <1>  -0.4420 
 17 C       -9.4720     3.3710    -0.7720 C.2   1 <1>   0.6990 
 18 C       -9.5970     5.6890    -0.0830 C.2   1 <1>   0.6860 
 19 C       -7.5630     6.9690     0.6230 C.3   1 <1>   0.0520 
 20 O      -10.0080     2.3390    -1.1390 O.2   1 <1>  -0.5750 
 21 N      -10.2010     4.5330    -0.5690 N.am  1 <1>  -0.4260 
 22 O      -10.2680     6.6670     0.1690 O.2   1 <1>  -0.5750 
 23 C      -11.6670     4.5490    -0.8750 C.3   1 <1>   0.1320 
 24 C      -12.4870     4.2560     0.3810 C.3   1 <1>   0.1120 
 25 O      -13.8280     4.2250     0.0190 O.3   1 <1>  -0.5650 
 26 C      -14.6930     4.0040     1.0810 C.3   1 <1>   0.1120 
 27 C      -16.1110     3.9970     0.5250 C.3   1 <1>  -0.2470 
 28 H       -3.2030     1.0940     1.4640 H     1 <1>   0.1420 
 29 H        0.1630     3.5930     0.7720 H     1 <1>   0.1420 
 30 H       -1.1190     4.8860    -0.8980 H     1 <1>   0.1420 
 31 H       -3.4430     4.2740    -1.3900 H     1 <1>   0.1420 
 32 H       -5.0720     0.2150     0.0640 H     1 <1>   0.0720 
 33 H       -4.7500     0.6630    -1.6050 H     1 <1>   0.0720 
 34 H       -5.4670     5.0220     0.4440 H     1 <1>   0.4440 
 35 H       -7.3580     0.4290    -0.3180 H     1 <1>   0.0720 
 36 H       -7.0350     0.8950    -1.9900 H     1 <1>   0.0720 
 37 H       -6.5780     7.0670     0.2020 H     1 <1>   0.0720 
 38 H       -7.4950     6.9440     1.6970 H     1 <1>   0.0720 
 39 H       -8.1340     7.8360     0.3370 H     1 <1>   0.0720 
 40 H      -11.8970     3.8140    -1.6260 H     1 <1>   0.0720 
 41 H      -11.9470     5.5150    -1.2600 H     1 <1>   0.0720 
 42 H      -12.3480     5.0340     1.1120 H     1 <1>   0.0720 
 43 H      -12.2260     3.2950     0.7900 H     1 <1>   0.0720 
 44 H      -14.5710     4.7960     1.8000 H     1 <1>   0.0720 
 45 H      -14.4570     3.0540     1.5310 H     1 <1>   0.0720 
 46 H      -16.3320     4.9440     0.0680 H     1 <1>   0.0720 
 47 H      -16.8120     3.8260     1.3210 H     1 <1>   0.0720 
 48 H      -16.2170     3.2130    -0.2030 H     1 <1>   0.0720 
@<TRIPOS>BOND
  1   1   2  1   
  2   2   3  ar  
  3   2   4  ar  
  4   3   5  ar  
  5   3  28  1   
  6   4   6  ar  
  7   4  29  1   
  8   5   7  1   
  9   5   8  ar  
 10   6   8  ar  
 11   6  30  1   
 12   7   9  ar  
 13   7  10  1   
 14   8  31  1   
 15   9  11  ar  
 16   9  12  ar  
 17  10  13  1   
 18  10  32  1   
 19  10  33  1   
 20  11  14  1   
 21  11  34  1   
 22  12  13  1   
 23  12  15  1   
 24  13  35  1   
 25  13  36  1   
 26  14  15  2   
 27  14  16  1   
 28  15  17  1   
 29  16  18  am  
 30  16  19  1   
 31  17  20  2   
 32  17  21  am  
 33  18  21  am  
 34  18  22  2   
 35  19  37  1   
 36  19  38  1   
 37  19  39  1   
 38  21  23  1   
 39  23  24  1   
 40  23  40  1   
 41  23  41  1   
 42  24  25  1   
 43  24  42  1   
 44  24  43  1   
 45  25  26  1   
 46  26  27  1   
 47  26  44  1   
 48  26  45  1   
 49  27  46  1   
 50  27  47  1   
 51  27  48  1   
@<TRIPOS>SUBSTRUCTURE
  1 ****  15 GROUP 4 **** **** 0

# MOE 2024.06 (io_trps.svl 2023.06)
