@<TRIPOS>MOLECULE
NONAME
41 42 1 0 0 
SMALL
USER_CHARGES


@<TRIPOS>ATOM
  1 O        0.4800     0.3940     0.1890 O.2   1 <1>  -0.5700 
  2 C        0.2450     1.5560    -0.0160 C.2   1 <1>   0.6590 
  3 O       -0.9780     2.0580     0.0320 O.3   1 <1>  -0.4300 
  4 C        1.3520     2.5400    -0.3520 C.3   1 <1>  -0.0190 
  5 C       -2.0960     1.2550     0.3390 C.3   1 <1>   0.1200 
  6 C        2.6210     1.7630    -0.7530 C.3   1 <1>   0.3430 
  7 C        1.6260     3.5220     0.8040 C.3   1 <1>  -0.1600 
  8 C       -3.3350     2.1430     0.3170 C.3   1 <1>  -0.2400 
  9 N        3.8900     2.4940    -0.4120 N.4   1 <1>  -0.9590 
 10 C        2.7500     4.5130     0.4370 C.3   1 <1>  -0.1600 
 11 C        3.7690     3.9700    -0.5740 C.3   1 <1>   0.3430 
 12 C        5.0590     1.9290    -1.1390 C.3   1 <1>   0.4860 
 13 C        6.3250     2.5240    -0.5540 C.ar  1 <1>  -0.1440 
 14 C        6.7660     2.1260     0.7030 C.ar  1 <1>  -0.1500 
 15 C        7.0490     3.4730    -1.2660 C.ar  1 <1>  -0.1500 
 16 C        7.9090     2.6840     1.2460 C.ar  1 <1>  -0.1500 
 17 C        8.1940     4.0300    -0.7240 C.ar  1 <1>  -0.1500 
 18 C        8.6170     3.6350     0.5340 C.ar  1 <1>   0.0820 
 19 O        9.7210     4.1650     1.0780 O.3   1 <1>  -0.5330 
 20 H        1.0190     3.1000    -1.2070 H     1 <1>   0.0800 
 21 H       -1.9500     0.8210     1.3140 H     1 <1>   0.0800 
 22 H       -2.1690     0.4720    -0.3980 H     1 <1>   0.0800 
 23 H        2.5790     1.5660    -1.8120 H     1 <1>   0.0800 
 24 H        2.6330     0.8100    -0.2480 H     1 <1>   0.0800 
 25 H        1.9120     2.9620     1.6790 H     1 <1>   0.0800 
 26 H        0.7290     4.0670     1.0510 H     1 <1>   0.0800 
 27 H       -3.2470     2.9250     1.0510 H     1 <1>   0.0800 
 28 H       -4.2050     1.5560     0.5480 H     1 <1>   0.0800 
 29 H       -3.4670     2.5770    -0.6580 H     1 <1>   0.0800 
 30 H        4.0810     2.3440     0.5870 H     1 <1>   0.4500 
 31 H        3.2650     4.8120     1.3340 H     1 <1>   0.0800 
 32 H        2.3170     5.4060     0.0200 H     1 <1>   0.0800 
 33 H        3.4400     4.1960    -1.5760 H     1 <1>   0.0800 
 34 H        4.7210     4.4520    -0.4130 H     1 <1>   0.0800 
 35 H        4.9940     2.1590    -2.1900 H     1 <1>   0.0800 
 36 H        5.0870     0.8580    -1.0240 H     1 <1>   0.0800 
 37 H        6.2370     1.3810     1.2720 H     1 <1>   0.1500 
 38 H        6.7340     3.7870    -2.2470 H     1 <1>   0.1500 
 39 H        8.2640     2.3870     2.2180 H     1 <1>   0.1500 
 40 H        8.7520     4.7640    -1.2770 H     1 <1>   0.1500 
 41 H       10.1780     4.8030     0.5010 H     1 <1>   0.4500 
@<TRIPOS>BOND
  1   1   2  2   
  2   2   3  1   
  3   2   4  1   
  4   3   5  1   
  5   4   6  1   
  6   4   7  1   
  7   4  20  1   
  8   5   8  1   
  9   5  21  1   
 10   5  22  1   
 11   6   9  1   
 12   6  23  1   
 13   6  24  1   
 14   7  10  1   
 15   7  25  1   
 16   7  26  1   
 17   8  27  1   
 18   8  28  1   
 19   8  29  1   
 20   9  11  1   
 21   9  12  1   
 22   9  30  1   
 23  10  11  1   
 24  10  31  1   
 25  10  32  1   
 26  11  33  1   
 27  11  34  1   
 28  12  13  1   
 29  12  35  1   
 30  12  36  1   
 31  13  14  ar  
 32  13  15  ar  
 33  14  16  ar  
 34  14  37  1   
 35  15  17  ar  
 36  15  38  1   
 37  16  18  ar  
 38  16  39  1   
 39  17  18  ar  
 40  17  40  1   
 41  18  19  1   
 42  19  41  1   
@<TRIPOS>SUBSTRUCTURE
  1 ****   9 GROUP 4 **** **** 0

# MOE 2024.06 (io_trps.svl 2023.06)
