@<TRIPOS>MOLECULE
NONAME
56 58 1 0 0 
SMALL
USER_CHARGES


@<TRIPOS>ATOM
  1 S       -0.3750     0.5190     0.6100 S.3   1 <1>  -0.0800 
  2 C        0.2990    -1.0840     0.4030 C.2   1 <1>   0.1040 
  3 C        1.1740     1.2770     0.3060 C.2   1 <1>  -0.1400 
  4 N       -0.5140    -2.2050     0.5090 N.am  1 <1>  -0.4940 
  5 C        1.6410    -1.0200     0.1370 C.2   1 <1>  -0.0860 
  6 C        2.1150     0.3500     0.0330 C.2   1 <1>  -0.1810 
  7 C        1.1920     2.7920     0.4070 C.3   1 <1>   0.0200 
  8 C       -1.8270    -2.3800     0.8730 C.2   1 <1>   0.5690 
  9 C        2.4400    -2.2150     0.0150 C.2   1 <1>   0.8060 
 10 C        3.5500     0.6960    -0.3750 C.3   1 <1>   0.0210 
 11 C        2.5530     3.2930     0.9050 C.3   1 <1>  -0.1600 
 12 O       -2.5300    -1.4910     1.2910 O.2   1 <1>  -0.5700 
 13 C       -2.4080    -3.8000     0.7260 C.3   1 <1>   0.1710 
 14 O        1.9490    -3.3120    -0.2030 O.2   1 <1>  -0.5700 
 15 O        3.7650    -2.1440     0.1840 O.3   1 <1>  -0.4300 
 16 C        3.6750     2.0520    -1.0860 C.3   1 <1>  -0.1600 
 17 C        3.6600     3.2800    -0.1600 C.3   1 <1>  -0.1600 
 18 N       -3.8780    -3.8840     0.4740 N.3   1 <1>  -0.8100 
 19 C        4.5910    -3.2840     0.1080 C.3   1 <1>   0.1200 
 20 C       -4.3110    -3.1450    -0.7400 C.3   1 <1>   0.1100 
 21 C       -4.3980    -5.2680     0.4680 C.3   1 <1>   0.1100 
 22 C        6.0330    -2.8330     0.3170 C.3   1 <1>  -0.2400 
 23 C       -5.8520    -3.1420    -0.8970 C.3   1 <1>   0.3430 
 24 C       -5.9400    -5.3050     0.2930 C.3   1 <1>   0.3430 
 25 N       -6.5090    -3.9180     0.2080 N.4   1 <1>  -0.9590 
 26 C       -7.9980    -3.8740     0.1660 C.3   1 <1>   0.2630 
 27 H       -0.0120    -3.0660     0.2670 H     1 <1>   0.3700 
 28 H        0.4450     3.0910     1.1210 H     1 <1>   0.0800 
 29 H        0.9370     3.2330    -0.5410 H     1 <1>   0.0800 
 30 H        3.8870    -0.0370    -1.0840 H     1 <1>   0.0800 
 31 H        4.2000     0.6530     0.4810 H     1 <1>   0.0800 
 32 H        2.8540     2.6870     1.7420 H     1 <1>   0.0800 
 33 H        2.4420     4.3010     1.2670 H     1 <1>   0.0800 
 34 H       -2.1880    -4.3230     1.6400 H     1 <1>   0.0800 
 35 H       -1.8890    -4.3000    -0.0720 H     1 <1>   0.0800 
 36 H        2.8850     2.1360    -1.8130 H     1 <1>   0.0800 
 37 H        4.6020     2.0650    -1.6330 H     1 <1>   0.0800 
 38 H        4.6100     3.3550     0.3400 H     1 <1>   0.0800 
 39 H        3.5570     4.1570    -0.7760 H     1 <1>   0.0800 
 40 H        4.4650    -3.7350    -0.8620 H     1 <1>   0.0800 
 41 H        4.2880    -3.9780     0.8740 H     1 <1>   0.0800 
 42 H       -3.8620    -3.5810    -1.6160 H     1 <1>   0.0800 
 43 H       -3.9810    -2.1210    -0.6840 H     1 <1>   0.0800 
 44 H       -4.1450    -5.7470     1.3990 H     1 <1>   0.0800 
 45 H       -3.9360    -5.8320    -0.3250 H     1 <1>   0.0800 
 46 H        6.3200    -2.1350    -0.4480 H     1 <1>   0.0800 
 47 H        6.6900    -3.6830     0.2670 H     1 <1>   0.0800 
 48 H        6.1420    -2.3740     1.2840 H     1 <1>   0.0800 
 49 H       -6.1120    -3.5650    -1.8540 H     1 <1>   0.0800 
 50 H       -6.1970    -2.1220    -0.8830 H     1 <1>   0.0800 
 51 H       -6.3720    -5.8280     1.1300 H     1 <1>   0.0800 
 52 H       -6.1810    -5.8580    -0.5990 H     1 <1>   0.0800 
 53 H       -6.1490    -3.4530     1.0610 H     1 <1>   0.4500 
 54 H       -8.3620    -4.3520    -0.7280 H     1 <1>   0.0800 
 55 H       -8.3400    -2.8520     0.1770 H     1 <1>   0.0800 
 56 H       -8.4090    -4.3810     1.0240 H     1 <1>   0.0800 
@<TRIPOS>BOND
  1   1   2  1   
  2   1   3  1   
  3   2   4  1   
  4   2   5  2   
  5   3   6  2   
  6   3   7  1   
  7   4   8  am  
  8   4  27  1   
  9   5   6  1   
 10   5   9  1   
 11   6  10  1   
 12   7  11  1   
 13   7  28  1   
 14   7  29  1   
 15   8  12  2   
 16   8  13  1   
 17   9  14  2   
 18   9  15  1   
 19  10  16  1   
 20  10  30  1   
 21  10  31  1   
 22  11  17  1   
 23  11  32  1   
 24  11  33  1   
 25  13  18  1   
 26  13  34  1   
 27  13  35  1   
 28  15  19  1   
 29  16  17  1   
 30  16  36  1   
 31  16  37  1   
 32  17  38  1   
 33  17  39  1   
 34  18  20  1   
 35  18  21  1   
 36  19  22  1   
 37  19  40  1   
 38  19  41  1   
 39  20  23  1   
 40  20  42  1   
 41  20  43  1   
 42  21  24  1   
 43  21  44  1   
 44  21  45  1   
 45  22  46  1   
 46  22  47  1   
 47  22  48  1   
 48  23  25  1   
 49  23  49  1   
 50  23  50  1   
 51  24  25  1   
 52  24  51  1   
 53  24  52  1   
 54  25  26  1   
 55  25  53  1   
 56  26  54  1   
 57  26  55  1   
 58  26  56  1   
@<TRIPOS>SUBSTRUCTURE
  1 ****   4 GROUP 4 **** **** 0

# MOE 2024.06 (io_trps.svl 2023.06)
