@<TRIPOS>MOLECULE
NONAME
25 25 1 0 0 
SMALL
USER_CHARGES


@<TRIPOS>ATOM
  1 O       -2.3860    -1.3700    -0.9660 O.3   1 <1>  -0.6800 
  2 C       -3.6770    -0.8380    -0.9320 C.3   1 <1>   0.2000 
  3 C       -3.6150     0.6800    -0.5810 C.3   1 <1>   0.4230 
  4 C       -4.4940    -1.6430     0.0840 C.3   1 <1>  -0.1600 
  5 N       -2.3730     0.9650     0.1810 N.4   1 <1>  -0.9060 
  6 C       -4.8260     1.1660     0.2360 C.3   1 <1>  -0.1600 
  7 C       -5.9420    -1.1250     0.1840 C.3   1 <1>  -0.1600 
  8 C       -1.8640     2.3590     0.0560 C.3   1 <1>   0.2630 
  9 C       -6.0940     0.3780    -0.1200 C.3   1 <1>  -0.1600 
 10 H       -2.4160    -2.3140    -1.2380 H     1 <1>   0.4000 
 11 H       -4.1150    -0.9570    -1.9100 H     1 <1>   0.0800 
 12 H       -3.5920     1.2160    -1.5160 H     1 <1>   0.0800 
 13 H       -4.5140    -2.6840    -0.1910 H     1 <1>   0.0800 
 14 H       -4.0310    -1.5630     1.0530 H     1 <1>   0.0800 
 15 H       -2.5120     0.6880     1.1580 H     1 <1>   0.4500 
 16 H       -1.6990     0.2720    -0.1980 H     1 <1>   0.4500 
 17 H       -4.6460     1.0420     1.2910 H     1 <1>   0.0800 
 18 H       -4.9920     2.2110     0.0430 H     1 <1>   0.0800 
 19 H       -6.5690    -1.6750    -0.4990 H     1 <1>   0.0800 
 20 H       -6.3100    -1.3280     1.1760 H     1 <1>   0.0800 
 21 H       -2.5840     3.0570     0.4530 H     1 <1>   0.0800 
 22 H       -1.6820     2.5990    -0.9790 H     1 <1>   0.0800 
 23 H       -0.9400     2.4680     0.6010 H     1 <1>   0.0800 
 24 H       -6.9370     0.7680     0.4270 H     1 <1>   0.0800 
 25 H       -6.3100     0.5090    -1.1680 H     1 <1>   0.0800 
@<TRIPOS>BOND
  1   1   2  1   
  2   1  10  1   
  3   2   3  1   
  4   2   4  1   
  5   2  11  1   
  6   3   5  1   
  7   3   6  1   
  8   3  12  1   
  9   4   7  1   
 10   4  13  1   
 11   4  14  1   
 12   5   8  1   
 13   5  15  1   
 14   5  16  1   
 15   6   9  1   
 16   6  17  1   
 17   6  18  1   
 18   7   9  1   
 19   7  19  1   
 20   7  20  1   
 21   8  21  1   
 22   8  22  1   
 23   8  23  1   
 24   9  24  1   
 25   9  25  1   
@<TRIPOS>SUBSTRUCTURE
  1 ****   3 GROUP 4 **** **** 0

# MOE 2024.06 (io_trps.svl 2023.06)
