@<TRIPOS>MOLECULE
NONAME
46 47 1 0 0 
SMALL
USER_CHARGES


@<TRIPOS>ATOM
  1 O        1.1520     0.7320     0.1380 O.2   1 <1>  -0.5700 
  2 C        0.4950     1.2410    -0.7480 C.2   1 <1>   0.6900 
  3 N       -0.8410     1.4630    -0.6280 N.am  1 <1>  -0.5470 
  4 N        1.1220     1.6560    -1.8770 N.am  1 <1>  -0.7300 
  5 C       -1.7030     1.1670     0.4400 C.ar  1 <1>   0.1170 
  6 C        2.5370     1.3370    -2.2420 C.3   1 <1>   0.1400 
  7 C       -2.7380     2.0470     0.7790 C.ar  1 <1>  -0.1430 
  8 C       -1.5520    -0.0140     1.1600 C.ar  1 <1>  -0.1500 
  9 C        3.5550     2.2600    -1.5360 C.3   1 <1>   0.3430 
 10 C       -3.5870     1.7150     1.8280 C.ar  1 <1>  -0.1500 
 11 C       -2.9100     3.3530    -0.0110 C.3   1 <1>  -0.0170 
 12 C       -2.4000    -0.3290     2.2020 C.ar  1 <1>  -0.1500 
 13 N        3.5350     2.0810    -0.0550 N.4   1 <1>  -0.9590 
 14 C       -3.4200     0.5390     2.5370 C.ar  1 <1>  -0.1500 
 15 C       -3.9200     4.3550     0.5610 C.3   1 <1>  -0.2400 
 16 C        3.7730     3.3490     0.6840 C.3   1 <1>   0.3430 
 17 C        4.4100     0.9670     0.4070 C.3   1 <1>   0.3430 
 18 C        3.5170     3.1260     2.1760 C.3   1 <1>  -0.1600 
 19 C        4.1740     0.7120     1.8970 C.3   1 <1>  -0.1600 
 20 C        4.3730     1.9820     2.7350 C.3   1 <1>  -0.1600 
 21 H       -1.2610     2.0260    -1.3590 H     1 <1>   0.3700 
 22 H        0.5250     1.9190    -2.6640 H     1 <1>   0.3700 
 23 H        2.6490     1.4470    -3.3070 H     1 <1>   0.0800 
 24 H        2.7480     0.3090    -1.9990 H     1 <1>   0.0800 
 25 H       -0.7670    -0.7010     0.9020 H     1 <1>   0.1500 
 26 H        3.3060     3.2790    -1.7830 H     1 <1>   0.0800 
 27 H        4.5450     2.0620    -1.9110 H     1 <1>   0.0800 
 28 H       -4.3950     2.3590     2.1210 H     1 <1>   0.1500 
 29 H       -3.2090     3.1090    -1.0150 H     1 <1>   0.0800 
 30 H       -1.9570     3.8500    -0.0600 H     1 <1>   0.0800 
 31 H       -2.2680    -1.2460     2.7500 H     1 <1>   0.1500 
 32 H        2.5690     1.7680     0.1840 H     1 <1>   0.4500 
 33 H       -4.0850     0.2990     3.3490 H     1 <1>   0.1500 
 34 H       -4.9140     3.9440     0.5430 H     1 <1>   0.0800 
 35 H       -3.9190     5.2540    -0.0290 H     1 <1>   0.0800 
 36 H       -3.6600     4.6140     1.5730 H     1 <1>   0.0800 
 37 H        3.1090     4.1170     0.3210 H     1 <1>   0.0800 
 38 H        4.7900     3.6740     0.5370 H     1 <1>   0.0800 
 39 H        5.4440     1.2220     0.2430 H     1 <1>   0.0800 
 40 H        4.1840     0.0690    -0.1440 H     1 <1>   0.0800 
 41 H        2.4730     2.9070     2.3260 H     1 <1>   0.0800 
 42 H        3.7360     4.0320     2.7120 H     1 <1>   0.0800 
 43 H        4.8520    -0.0510     2.2370 H     1 <1>   0.0800 
 44 H        3.1740     0.3370     2.0350 H     1 <1>   0.0800 
 45 H        4.1000     1.7890     3.7590 H     1 <1>   0.0800 
 46 H        5.4120     2.2670     2.7190 H     1 <1>   0.0800 
@<TRIPOS>BOND
  1   1   2  2   
  2   2   3  am  
  3   2   4  am  
  4   3   5  1   
  5   3  21  1   
  6   4   6  1   
  7   4  22  1   
  8   5   7  ar  
  9   5   8  ar  
 10   6   9  1   
 11   6  23  1   
 12   6  24  1   
 13   7  10  ar  
 14   7  11  1   
 15   8  12  ar  
 16   8  25  1   
 17   9  13  1   
 18   9  26  1   
 19   9  27  1   
 20  10  14  ar  
 21  10  28  1   
 22  11  15  1   
 23  11  29  1   
 24  11  30  1   
 25  12  14  ar  
 26  12  31  1   
 27  13  16  1   
 28  13  17  1   
 29  13  32  1   
 30  14  33  1   
 31  15  34  1   
 32  15  35  1   
 33  15  36  1   
 34  16  18  1   
 35  16  37  1   
 36  16  38  1   
 37  17  19  1   
 38  17  39  1   
 39  17  40  1   
 40  18  20  1   
 41  18  41  1   
 42  18  42  1   
 43  19  20  1   
 44  19  43  1   
 45  19  44  1   
 46  20  45  1   
 47  20  46  1   
@<TRIPOS>SUBSTRUCTURE
  1 ****   1 GROUP 4 **** **** 0

# MOE 2024.06 (io_trps.svl 2023.06)
