@<TRIPOS>MOLECULE
NONAME
43 45 1 0 0 
SMALL
USER_CHARGES


@<TRIPOS>ATOM
  1 O       -0.3680    -0.2670    -0.1900 O.2   1 <1>  -0.5700 
  2 C       -0.4860    -1.4400     0.1100 C.2   1 <1>   0.7800 
  3 O        0.5940    -2.2230     0.1480 O.3   1 <1>  -0.4300 
  4 N       -1.6940    -2.0070     0.4110 N.am  1 <1>  -0.6600 
  5 C        1.8720    -1.7060    -0.1410 C.3   1 <1>   0.1200 
  6 C       -2.9670    -1.2330     0.3800 C.3   1 <1>   0.1400 
  7 C       -1.8870    -3.4510     0.7190 C.3   1 <1>   0.1400 
  8 C        2.8830    -2.8420    -0.0150 C.3   1 <1>  -0.2400 
  9 C       -3.9870    -1.9020    -0.5570 C.3   1 <1>   0.1100 
 10 C       -2.9220    -4.0690    -0.2360 C.3   1 <1>   0.1100 
 11 N       -4.2030    -3.3300    -0.2200 N.3   1 <1>  -0.8100 
 12 C       -5.1940    -3.9840    -1.1130 C.3   1 <1>   0.2900 
 13 C       -6.6140    -3.4300    -1.0070 C.2   1 <1>   0.2980 
 14 O       -6.9050    -2.3310    -1.6540 O.3   1 <1>  -0.0190 
 15 N       -7.5800    -3.9510    -0.3660 N.2   1 <1>  -0.5650 
 16 N       -8.1570    -2.1270    -1.3910 N.2   1 <1>  -0.4100 
 17 C       -8.5600    -3.0790    -0.6260 C.2   1 <1>   0.4620 
 18 C       -9.9050    -3.2270    -0.0930 C.ar  1 <1>   0.0540 
 19 C      -10.2370    -4.2580     0.7900 C.ar  1 <1>  -0.1500 
 20 C      -10.9250    -2.3400    -0.4440 C.ar  1 <1>  -0.1500 
 21 C      -11.5170    -4.3970     1.2950 C.ar  1 <1>  -0.1500 
 22 C      -12.2080    -2.4730     0.0570 C.ar  1 <1>  -0.1500 
 23 C      -12.5070    -3.5030     0.9290 C.ar  1 <1>  -0.1500 
 24 H        2.0870    -0.9170     0.5600 H     1 <1>   0.0800 
 25 H        1.8600    -1.3070    -1.1420 H     1 <1>   0.0800 
 26 H       -2.7880    -0.2240     0.0510 H     1 <1>   0.0800 
 27 H       -3.3760    -1.1900     1.3740 H     1 <1>   0.0800 
 28 H       -2.2370    -3.5500     1.7320 H     1 <1>   0.0800 
 29 H       -0.9590    -3.9880     0.6340 H     1 <1>   0.0800 
 30 H        2.8740    -3.2340     0.9860 H     1 <1>   0.0800 
 31 H        3.8690    -2.4740    -0.2310 H     1 <1>   0.0800 
 32 H        2.6480    -3.6250    -0.7130 H     1 <1>   0.0800 
 33 H       -3.6410    -1.8100    -1.5730 H     1 <1>   0.0800 
 34 H       -4.9140    -1.3620    -0.4680 H     1 <1>   0.0800 
 35 H       -3.0940    -5.0890     0.0620 H     1 <1>   0.0800 
 36 H       -2.5130    -4.0740    -1.2330 H     1 <1>   0.0800 
 37 H       -5.2450    -5.0280    -0.8580 H     1 <1>   0.0800 
 38 H       -4.8670    -3.9110    -2.1350 H     1 <1>   0.0800 
 39 H       -9.4790    -4.9610     1.0870 H     1 <1>   0.1500 
 40 H      -10.7100    -1.5310    -1.1210 H     1 <1>   0.1500 
 41 H      -11.7430    -5.2010     1.9730 H     1 <1>   0.1500 
 42 H      -12.9740    -1.7730    -0.2310 H     1 <1>   0.1500 
 43 H      -13.5040    -3.6100     1.3200 H     1 <1>   0.1500 
@<TRIPOS>BOND
  1   1   2  2   
  2   2   3  1   
  3   2   4  am  
  4   3   5  1   
  5   4   6  1   
  6   4   7  1   
  7   5   8  1   
  8   5  24  1   
  9   5  25  1   
 10   6   9  1   
 11   6  26  1   
 12   6  27  1   
 13   7  10  1   
 14   7  28  1   
 15   7  29  1   
 16   8  30  1   
 17   8  31  1   
 18   8  32  1   
 19   9  11  1   
 20   9  33  1   
 21   9  34  1   
 22  10  11  1   
 23  10  35  1   
 24  10  36  1   
 25  11  12  1   
 26  12  13  1   
 27  12  37  1   
 28  12  38  1   
 29  13  14  1   
 30  13  15  2   
 31  14  16  1   
 32  15  17  1   
 33  16  17  2   
 34  17  18  1   
 35  18  19  ar  
 36  18  20  ar  
 37  19  21  ar  
 38  19  39  1   
 39  20  22  ar  
 40  20  40  1   
 41  21  23  ar  
 42  21  41  1   
 43  22  23  ar  
 44  22  42  1   
 45  23  43  1   
@<TRIPOS>SUBSTRUCTURE
  1 ****  11 GROUP 4 **** **** 0

# MOE 2024.06 (io_trps.svl 2023.06)
