@<TRIPOS>MOLECULE
NONAME
52 56 1 0 0 
SMALL
USER_CHARGES


@<TRIPOS>ATOM
  1 O       -6.5520     3.4610    -0.7640 O.3   1 <1>  -0.6830 
  2 C       -7.8530     3.0710    -0.4310 C.3   1 <1>   0.1940 
  3 C       -8.6690     4.3250     0.0010 C.3   1 <1>  -0.0080 
  4 C       -7.7880     1.9380     0.6250 C.3   1 <1>   0.3490 
  5 C       -8.6560     5.3840    -1.1380 C.3   1 <1>  -0.1670 
  6 C       -8.1020     4.9870     1.2850 C.3   1 <1>  -0.1670 
  7 C      -10.1530     3.9480     0.2670 C.3   1 <1>  -0.1670 
  8 N       -7.1670     0.6790     0.1120 N.pl3 1 <1>  -0.7670 
  9 C       -9.4780     6.6270    -0.7560 C.3   1 <1>  -0.0870 
 10 C       -8.9250     6.2300     1.6720 C.3   1 <1>  -0.0870 
 11 C      -10.9820     5.1850     0.6540 C.3   1 <1>  -0.0870 
 12 C       -5.8730     0.4280    -0.0820 C.cat 1 <1>   1.0690 
 13 C       -7.8480    -0.5150    -0.0800 C.ar  1 <1>   0.3030 
 14 C       -8.8840     7.2500     0.5200 C.3   1 <1>  -0.1670 
 15 C      -10.9340     6.2100    -0.4920 C.3   1 <1>  -0.1670 
 16 C      -10.3850     5.8150     1.9250 C.3   1 <1>  -0.1670 
 17 N       -4.9380     1.3400    -0.0190 N.pl3 1 <1>  -0.8390 
 18 N       -5.6590    -0.8590    -0.3570 N.pl3 1 <1>  -0.7670 
 19 C       -6.9010    -1.4810    -0.3700 C.ar  1 <1>   0.3030 
 20 C       -9.2000    -0.8430    -0.0280 C.ar  1 <1>  -0.1160 
 21 C       -4.3840    -1.5700    -0.6250 C.3   1 <1>   0.2680 
 22 C       -7.2770    -2.7980    -0.6110 C.ar  1 <1>  -0.1160 
 23 C       -9.5750    -2.1510    -0.2670 C.ar  1 <1>  -0.1570 
 24 C       -8.6190    -3.1250    -0.5560 C.ar  1 <1>  -0.1570 
 25 H       -6.6090     4.2820    -1.3010 H     1 <1>   0.3950 
 26 H       -8.3030     2.6730    -1.3240 H     1 <1>   0.0730 
 27 H       -8.7780     1.7070     0.9670 H     1 <1>   0.0730 
 28 H       -7.2340     2.2830     1.4810 H     1 <1>   0.0730 
 29 H       -9.0600     4.9600    -2.0410 H     1 <1>   0.0730 
 30 H       -7.6530     5.7090    -1.3490 H     1 <1>   0.0730 
 31 H       -7.0790     5.2820     1.1320 H     1 <1>   0.0730 
 32 H       -8.1240     4.2980     2.1090 H     1 <1>   0.0730 
 33 H      -10.2350     3.2420     1.0710 H     1 <1>   0.0730 
 34 H      -10.5820     3.4990    -0.6120 H     1 <1>   0.0730 
 35 H       -9.4490     7.3460    -1.5580 H     1 <1>   0.0730 
 36 H       -8.5160     6.6760     2.5620 H     1 <1>   0.0730 
 37 H      -12.0040     4.8980     0.8370 H     1 <1>   0.0730 
 38 H       -9.4470     8.1270     0.7910 H     1 <1>   0.0730 
 39 H       -7.8690     7.5580     0.3390 H     1 <1>   0.0730 
 40 H      -11.3610     5.7840    -1.3830 H     1 <1>   0.0730 
 41 H      -11.5180     7.0750    -0.2310 H     1 <1>   0.0730 
 42 H      -10.9630     6.6780     2.2080 H     1 <1>   0.0730 
 43 H      -10.4310     5.1130     2.7390 H     1 <1>   0.0730 
 44 H       -3.9580     1.1670    -0.2030 H     1 <1>   0.4450 
 45 H       -5.2410     2.3230    -0.0700 H     1 <1>   0.4450 
 46 H       -9.9390    -0.0950     0.1910 H     1 <1>   0.1430 
 47 H       -3.5420    -0.9110    -0.5120 H     1 <1>   0.0730 
 48 H       -4.3880    -1.9580    -1.6300 H     1 <1>   0.0730 
 49 H       -4.2740    -2.3900     0.0640 H     1 <1>   0.0730 
 50 H       -6.5380    -3.5460    -0.8350 H     1 <1>   0.1430 
 51 H      -10.6170    -2.4300    -0.2320 H     1 <1>   0.1430 
 52 H       -8.9370    -4.1390    -0.7390 H     1 <1>   0.1430 
@<TRIPOS>BOND
  1   1   2  1   
  2   1  25  1   
  3   2   3  1   
  4   2   4  1   
  5   2  26  1   
  6   3   5  1   
  7   3   6  1   
  8   3   7  1   
  9   4   8  1   
 10   4  27  1   
 11   4  28  1   
 12   5   9  1   
 13   5  29  1   
 14   5  30  1   
 15   6  10  1   
 16   6  31  1   
 17   6  32  1   
 18   7  11  1   
 19   7  33  1   
 20   7  34  1   
 21   8  12  ar  
 22   8  13  1   
 23   9  14  1   
 24   9  15  1   
 25   9  35  1   
 26  10  14  1   
 27  10  16  1   
 28  10  36  1   
 29  11  15  1   
 30  11  16  1   
 31  11  37  1   
 32  12  17  ar  
 33  12  18  ar  
 34  13  19  ar  
 35  13  20  ar  
 36  14  38  1   
 37  14  39  1   
 38  15  40  1   
 39  15  41  1   
 40  16  42  1   
 41  16  43  1   
 42  17  44  1   
 43  17  45  1   
 44  18  19  1   
 45  18  21  1   
 46  19  22  ar  
 47  20  23  ar  
 48  20  46  1   
 49  21  47  1   
 50  21  48  1   
 51  21  49  1   
 52  22  24  ar  
 53  22  50  1   
 54  23  24  ar  
 55  23  51  1   
 56  24  52  1   
@<TRIPOS>SUBSTRUCTURE
  1 ****   4 GROUP 4 **** **** 0

# MOE 2024.06 (io_trps.svl 2023.06)
