@<TRIPOS>MOLECULE
NONAME
37 38 1 0 0 
SMALL
USER_CHARGES


@<TRIPOS>ATOM
  1 O       -0.4680     0.3480     0.2970 O.2   1 <1>  -0.5700 
  2 C       -0.9350     1.4720     0.3290 C.2   1 <1>   0.5440 
  3 N       -0.0940     2.5440     0.5610 N.am  1 <1>  -0.6600 
  4 C       -2.3580     1.6440     0.1190 C.ar  1 <1>   0.0860 
  5 C        1.3260     2.3500     0.9730 C.3   1 <1>   0.1400 
  6 C       -0.4560     3.9590     0.2640 C.3   1 <1>   0.1400 
  7 C       -3.1640     2.2890     1.0590 C.ar  1 <1>  -0.1500 
  8 C       -2.9760     1.1630    -1.0350 C.ar  1 <1>  -0.1500 
  9 C        2.2600     2.8880    -0.1160 C.3   1 <1>  -0.1600 
 10 C        0.4680     4.5120    -0.8260 C.3   1 <1>  -0.1600 
 11 C       -4.5200     2.4630     0.8540 C.ar  1 <1>  -0.1500 
 12 C       -4.3300     1.3320    -1.2480 C.ar  1 <1>  -0.1500 
 13 C        1.9490     4.3520    -0.4540 C.3   1 <1>  -0.1600 
 14 C       -5.1150     1.9840    -0.3110 C.ar  1 <1>   0.0830 
 15 O       -6.4300     2.1110    -0.5950 O.3   1 <1>  -0.3630 
 16 C       -7.3320     2.7060     0.3080 C.3   1 <1>   0.2580 
 17 C       -8.7140     2.6670    -0.3130 C.2   1 <1>  -0.2880 
 18 C       -9.7960     2.1030     0.2340 C.2   1 <1>  -0.3000 
 19 H        1.5360     1.3080     1.1470 H     1 <1>   0.0800 
 20 H        1.4960     2.8790     1.8940 H     1 <1>   0.0800 
 21 H       -0.3510     4.5420     1.1630 H     1 <1>   0.0800 
 22 H       -1.4750     4.0360    -0.0700 H     1 <1>   0.0800 
 23 H       -2.7080     2.6530     1.9640 H     1 <1>   0.1500 
 24 H       -2.3750     0.6470    -1.7650 H     1 <1>   0.1500 
 25 H        2.1470     2.2770    -0.9950 H     1 <1>   0.0800 
 26 H        3.2790     2.7990     0.2150 H     1 <1>   0.0800 
 27 H        0.2470     5.5530    -0.9860 H     1 <1>   0.0800 
 28 H        0.2690     3.9900    -1.7460 H     1 <1>   0.0800 
 29 H       -5.0950     2.9670     1.6080 H     1 <1>   0.1500 
 30 H       -4.7920     0.9570    -2.1440 H     1 <1>   0.1500 
 31 H        2.5680     4.6760    -1.2730 H     1 <1>   0.0800 
 32 H        2.1730     4.9710     0.3980 H     1 <1>   0.0800 
 33 H       -7.0240     3.7230     0.4770 H     1 <1>   0.0800 
 34 H       -7.3090     2.1500     1.2290 H     1 <1>   0.0800 
 35 H       -8.7360     3.1540    -1.2730 H     1 <1>   0.1500 
 36 H      -10.7650     2.0900    -0.2350 H     1 <1>   0.1500 
 37 H       -9.8080     1.6050     1.1880 H     1 <1>   0.1500 
@<TRIPOS>BOND
  1   1   2  2   
  2   2   3  am  
  3   2   4  1   
  4   3   5  1   
  5   3   6  1   
  6   4   7  ar  
  7   4   8  ar  
  8   5   9  1   
  9   5  19  1   
 10   5  20  1   
 11   6  10  1   
 12   6  21  1   
 13   6  22  1   
 14   7  11  ar  
 15   7  23  1   
 16   8  12  ar  
 17   8  24  1   
 18   9  13  1   
 19   9  25  1   
 20   9  26  1   
 21  10  13  1   
 22  10  27  1   
 23  10  28  1   
 24  11  14  ar  
 25  11  29  1   
 26  12  14  ar  
 27  12  30  1   
 28  13  31  1   
 29  13  32  1   
 30  14  15  1   
 31  15  16  1   
 32  16  17  1   
 33  16  33  1   
 34  16  34  1   
 35  17  18  2   
 36  17  35  1   
 37  18  36  1   
 38  18  37  1   
@<TRIPOS>SUBSTRUCTURE
  1 ****   4 GROUP 4 **** **** 0

# MOE 2024.06 (io_trps.svl 2023.06)
