@<TRIPOS>MOLECULE
NONAME
47 48 1 0 0 
SMALL
USER_CHARGES


@<TRIPOS>ATOM
  1 O       -6.8140     7.7360    -1.4010 O.2   1 <1>  -0.5700 
  2 C       -6.3150     7.8750    -0.3090 C.2   1 <1>   0.6590 
  3 O       -5.3010     7.1470     0.1230 O.3   1 <1>  -0.4300 
  4 C       -6.8650     8.9060     0.6610 C.3   1 <1>  -0.0190 
  5 C       -4.7100     6.1420    -0.6670 C.3   1 <1>   0.1200 
  6 C       -8.3610     8.6190     0.8200 C.3   1 <1>   0.3430 
  7 C       -6.5960    10.3530     0.1710 C.3   1 <1>  -0.1600 
  8 C       -3.7340     5.3640     0.2090 C.3   1 <1>  -0.2400 
  9 N       -9.0740     9.1560    -0.3850 N.4   1 <1>  -0.9590 
 10 C       -7.8450    11.2460     0.3000 C.3   1 <1>  -0.1600 
 11 C       -9.0900    10.6540    -0.3870 C.3   1 <1>   0.3430 
 12 C      -10.4390     8.5750    -0.5800 C.3   1 <1>   0.3430 
 13 C      -10.3910     7.2520    -1.3520 C.3   1 <1>  -0.0990 
 14 C       -9.7950     6.1520    -0.5100 C.2   1 <1>   0.5690 
 15 O      -10.1550     6.0830     0.6380 O.2   1 <1>  -0.5700 
 16 N       -8.8480     5.3460    -1.0720 N.am  1 <1>  -0.5470 
 17 C       -8.0080     4.3680    -0.5170 C.ar  1 <1>   0.1170 
 18 C       -7.3250     3.5210    -1.3840 C.ar  1 <1>  -0.1500 
 19 C       -7.7960     4.2200     0.8510 C.ar  1 <1>  -0.1500 
 20 C       -6.4490     2.5650    -0.9050 C.ar  1 <1>  -0.1500 
 21 C       -6.9210     3.2640     1.3340 C.ar  1 <1>  -0.1500 
 22 C       -6.2440     2.4360     0.4570 C.ar  1 <1>  -0.1500 
 23 H       -6.3960     8.7550     1.6170 H     1 <1>   0.0800 
 24 H       -4.2020     6.6110    -1.4930 H     1 <1>   0.0800 
 25 H       -5.4830     5.4930    -1.0390 H     1 <1>   0.0800 
 26 H       -8.7390     9.0950     1.7090 H     1 <1>   0.0800 
 27 H       -8.5010     7.5570     0.9240 H     1 <1>   0.0800 
 28 H       -6.2940    10.3420    -0.8640 H     1 <1>   0.0800 
 29 H       -5.7800    10.7790     0.7320 H     1 <1>   0.0800 
 30 H       -2.9670     6.0170     0.5850 H     1 <1>   0.0800 
 31 H       -3.2690     4.5870    -0.3700 H     1 <1>   0.0800 
 32 H       -4.2580     4.9080     1.0300 H     1 <1>   0.0800 
 33 H       -8.4830     8.8580    -1.1850 H     1 <1>   0.4500 
 34 H       -7.6430    12.2190    -0.1160 H     1 <1>   0.0800 
 35 H       -8.0660    11.3970     1.3430 H     1 <1>   0.0800 
 36 H       -9.9700    11.0160     0.1200 H     1 <1>   0.0800 
 37 H       -9.1300    11.0020    -1.4080 H     1 <1>   0.0800 
 38 H      -11.0410     9.2680    -1.1440 H     1 <1>   0.0800 
 39 H      -10.9170     8.4220     0.3760 H     1 <1>   0.0800 
 40 H       -9.8500     7.3760    -2.2710 H     1 <1>   0.0800 
 41 H      -11.3970     6.9620    -1.5950 H     1 <1>   0.0800 
 42 H       -8.6900     5.4860    -2.0690 H     1 <1>   0.3700 
 43 H       -7.4750     3.6050    -2.4450 H     1 <1>   0.1500 
 44 H       -8.3090     4.8460     1.5550 H     1 <1>   0.1500 
 45 H       -5.9270     1.9170    -1.5880 H     1 <1>   0.1500 
 46 H       -6.7680     3.1610     2.3950 H     1 <1>   0.1500 
 47 H       -5.5630     1.6910     0.8340 H     1 <1>   0.1500 
@<TRIPOS>BOND
  1   1   2  2   
  2   2   3  1   
  3   2   4  1   
  4   3   5  1   
  5   4   6  1   
  6   4   7  1   
  7   4  23  1   
  8   5   8  1   
  9   5  24  1   
 10   5  25  1   
 11   6   9  1   
 12   6  26  1   
 13   6  27  1   
 14   7  10  1   
 15   7  28  1   
 16   7  29  1   
 17   8  30  1   
 18   8  31  1   
 19   8  32  1   
 20   9  11  1   
 21   9  12  1   
 22   9  33  1   
 23  10  11  1   
 24  10  34  1   
 25  10  35  1   
 26  11  36  1   
 27  11  37  1   
 28  12  13  1   
 29  12  38  1   
 30  12  39  1   
 31  13  14  1   
 32  13  40  1   
 33  13  41  1   
 34  14  15  2   
 35  14  16  am  
 36  16  17  1   
 37  16  42  1   
 38  17  18  ar  
 39  17  19  ar  
 40  18  20  ar  
 41  18  43  1   
 42  19  21  ar  
 43  19  44  1   
 44  20  22  ar  
 45  20  45  1   
 46  21  22  ar  
 47  21  46  1   
 48  22  47  1   
@<TRIPOS>SUBSTRUCTURE
  1 ****   2 GROUP 4 **** **** 0

# MOE 2024.06 (io_trps.svl 2023.06)
