@<TRIPOS>MOLECULE
NONAME
43 44 1 0 0 
SMALL
USER_CHARGES


@<TRIPOS>ATOM
  1 CL       0.8020    -0.7460     1.6890 Cl    1 <1>  -0.1770 
  2 C        2.2780    -0.2820     0.8630 C.ar  1 <1>   0.1770 
  3 C        2.8540     0.9500     1.1460 C.ar  1 <1>  -0.1440 
  4 C        2.8410    -1.1560    -0.0580 C.ar  1 <1>  -0.1440 
  5 C        4.0220     1.3090     0.4890 C.ar  1 <1>  -0.1500 
  6 C        2.2190     1.8960     2.1560 C.3   1 <1>  -0.0960 
  7 C        4.0070    -0.7780    -0.7040 C.ar  1 <1>  -0.1500 
  8 C        2.2000    -2.5020    -0.3630 C.3   1 <1>  -0.0960 
  9 C        4.6030     0.4440    -0.4360 C.ar  1 <1>   0.0830 
 10 O        5.7460     0.7210    -1.1120 O.3   1 <1>  -0.3630 
 11 C        6.5100     1.8730    -0.8270 C.3   1 <1>   0.1200 
 12 C        7.7680     1.8630    -1.7080 C.3   1 <1>   0.2000 
 13 O        8.3510     0.5910    -1.6660 O.3   1 <1>  -0.6800 
 14 C        8.8200     2.9180    -1.2890 C.3   1 <1>   0.3430 
 15 N        9.8710     2.3170    -0.4060 N.4   1 <1>  -0.9590 
 16 C        9.4900     2.2450     1.0460 C.3   1 <1>   0.3430 
 17 C       11.2200     2.9520    -0.5900 C.3   1 <1>   0.3430 
 18 C       10.6310     1.6580     1.8990 C.3   1 <1>   0.1200 
 19 C       12.2710     2.3300     0.3500 C.3   1 <1>   0.1200 
 20 O       11.8170     2.3630     1.6730 O.3   1 <1>  -0.5600 
 21 H        4.4580     2.2640     0.7080 H     1 <1>   0.1500 
 22 H        2.1670     1.4220     3.1200 H     1 <1>   0.0800 
 23 H        1.2220     2.1500     1.8430 H     1 <1>   0.0800 
 24 H        2.7860     2.8040     2.2530 H     1 <1>   0.0800 
 25 H        4.4650    -1.4320    -1.4240 H     1 <1>   0.1500 
 26 H        1.2050    -2.3570    -0.7440 H     1 <1>   0.0800 
 27 H        2.1440    -3.0940     0.5330 H     1 <1>   0.0800 
 28 H        2.7690    -3.0460    -1.0960 H     1 <1>   0.0800 
 29 H        6.7650     1.8540     0.2160 H     1 <1>   0.0800 
 30 H        5.9090     2.7410    -1.0390 H     1 <1>   0.0800 
 31 H        7.4660     2.0530    -2.7250 H     1 <1>   0.0800 
 32 H        7.6410    -0.0790    -1.8110 H     1 <1>   0.4000 
 33 H        8.3470     3.7590    -0.8100 H     1 <1>   0.0800 
 34 H        9.2860     3.2800    -2.1900 H     1 <1>   0.0800 
 35 H        9.9210     1.3350    -0.7450 H     1 <1>   0.4500 
 36 H        8.6130     1.6310     1.1660 H     1 <1>   0.0800 
 37 H        9.2650     3.2320     1.4140 H     1 <1>   0.0800 
 38 H       11.1590     4.0070    -0.3760 H     1 <1>   0.0800 
 39 H       11.5460     2.8380    -1.6110 H     1 <1>   0.0800 
 40 H       10.7930     0.6190     1.6680 H     1 <1>   0.0800 
 41 H       10.3940     1.7430     2.9450 H     1 <1>   0.0800 
 42 H       13.1880     2.8920     0.3050 H     1 <1>   0.0800 
 43 H       12.4800     1.3100     0.0790 H     1 <1>   0.0800 
@<TRIPOS>BOND
  1   1   2  1   
  2   2   3  ar  
  3   2   4  ar  
  4   3   5  ar  
  5   3   6  1   
  6   4   7  ar  
  7   4   8  1   
  8   5   9  ar  
  9   5  21  1   
 10   6  22  1   
 11   6  23  1   
 12   6  24  1   
 13   7   9  ar  
 14   7  25  1   
 15   8  26  1   
 16   8  27  1   
 17   8  28  1   
 18   9  10  1   
 19  10  11  1   
 20  11  12  1   
 21  11  29  1   
 22  11  30  1   
 23  12  13  1   
 24  12  14  1   
 25  12  31  1   
 26  13  32  1   
 27  14  15  1   
 28  14  33  1   
 29  14  34  1   
 30  15  16  1   
 31  15  17  1   
 32  15  35  1   
 33  16  18  1   
 34  16  36  1   
 35  16  37  1   
 36  17  19  1   
 37  17  38  1   
 38  17  39  1   
 39  18  20  1   
 40  18  40  1   
 41  18  41  1   
 42  19  20  1   
 43  19  42  1   
 44  19  43  1   
@<TRIPOS>SUBSTRUCTURE
  1 ****  11 GROUP 4 **** **** 0

# MOE 2024.06 (io_trps.svl 2023.06)
