@<TRIPOS>MOLECULE
NONAME
33 34 1 0 0 
SMALL
USER_CHARGES


@<TRIPOS>ATOM
  1 CL      -1.3960    -1.4820     3.0350 Cl    1 <1>  -0.1770 
  2 C       -2.1160    -1.5750     1.4450 C.ar  1 <1>   0.1770 
  3 C       -1.4910    -2.2790     0.4250 C.ar  1 <1>  -0.1440 
  4 C       -3.3220    -0.9290     1.2410 C.ar  1 <1>  -0.1500 
  5 C       -2.0990    -2.3200    -0.8210 C.ar  1 <1>  -0.1500 
  6 C       -0.1560    -2.9880     0.6370 C.3   1 <1>   0.0890 
  7 C       -3.9220    -0.9820    -0.0050 C.ar  1 <1>  -0.1500 
  8 C       -3.3080    -1.6760    -1.0340 C.ar  1 <1>  -0.1500 
  9 S        1.2540    -2.0550     0.0290 S.o2  1 <1>   1.3330 
 10 O        1.4150    -0.8330     0.7840 O.2   1 <1>  -0.6500 
 11 O        1.2390    -2.0280    -1.4150 O.2   1 <1>  -0.6500 
 12 N        2.5480    -3.0610     0.3780 N.am  1 <1>  -0.9140 
 13 C        3.7210    -2.3990     0.9110 C.3   1 <1>   0.2760 
 14 C        4.4510    -1.6340    -0.1920 C.3   1 <1>  -0.1600 
 15 C        4.7290    -3.4800     1.2840 C.3   1 <1>  -0.1600 
 16 C        5.2420    -2.6850    -0.9780 C.3   1 <1>  -0.1600 
 17 C        5.4330    -3.8690    -0.0230 C.3   1 <1>  -0.1600 
 18 H       -3.7820    -0.3910     2.0510 H     1 <1>   0.1500 
 19 H       -1.6340    -2.8460    -1.6390 H     1 <1>   0.1500 
 20 H       -0.1890    -3.9320     0.1310 H     1 <1>   0.0800 
 21 H       -0.0120    -3.1980     1.6770 H     1 <1>   0.0800 
 22 H       -4.8600    -0.4820    -0.1750 H     1 <1>   0.1500 
 23 H       -3.7710    -1.7140    -2.0050 H     1 <1>   0.1500 
 24 H        2.8380    -3.4110    -0.5330 H     1 <1>   0.4200 
 25 H        3.4710    -1.7820     1.7610 H     1 <1>   0.0800 
 26 H        5.1460    -0.9580     0.2760 H     1 <1>   0.0800 
 27 H        3.7970    -1.0520    -0.8170 H     1 <1>   0.0800 
 28 H        4.2650    -4.3190     1.7720 H     1 <1>   0.0800 
 29 H        5.4520    -3.0520     1.9550 H     1 <1>   0.0800 
 30 H        6.1870    -2.2860    -1.3080 H     1 <1>   0.0800 
 31 H        4.6790    -2.9980    -1.8410 H     1 <1>   0.0800 
 32 H        4.9740    -4.7500    -0.4390 H     1 <1>   0.0800 
 33 H        6.4760    -4.0710     0.1510 H     1 <1>   0.0800 
@<TRIPOS>BOND
  1   1   2  1   
  2   2   3  ar  
  3   2   4  ar  
  4   3   5  ar  
  5   3   6  1   
  6   4   7  ar  
  7   4  18  1   
  8   5   8  ar  
  9   5  19  1   
 10   6   9  1   
 11   6  20  1   
 12   6  21  1   
 13   7   8  ar  
 14   7  22  1   
 15   8  23  1   
 16   9  10  2   
 17   9  11  2   
 18   9  12  am  
 19  12  13  1   
 20  12  24  1   
 21  13  14  1   
 22  13  15  1   
 23  13  25  1   
 24  14  16  1   
 25  14  26  1   
 26  14  27  1   
 27  15  17  1   
 28  15  28  1   
 29  15  29  1   
 30  16  17  1   
 31  16  30  1   
 32  16  31  1   
 33  17  32  1   
 34  17  33  1   
@<TRIPOS>SUBSTRUCTURE
  1 ****   9 GROUP 4 **** **** 0

# MOE 2024.06 (io_trps.svl 2023.06)
