@<TRIPOS>MOLECULE
NONAME
37 38 1 0 0 
SMALL
USER_CHARGES


@<TRIPOS>ATOM
  1 CL      -0.8280     0.2760     2.5370 Cl    1 <1>  -0.1770 
  2 C       -2.0390    -0.5820     1.6220 C.ar  1 <1>   0.1770 
  3 C       -2.9930    -1.3270     2.2900 C.ar  1 <1>  -0.1500 
  4 C       -2.0290    -0.5050     0.2430 C.ar  1 <1>  -0.1500 
  5 C       -3.9560    -2.0060     1.5620 C.ar  1 <1>  -0.1500 
  6 C       -2.9930    -1.1850    -0.4830 C.ar  1 <1>  -0.1500 
  7 C       -3.9630    -1.9340     0.1730 C.ar  1 <1>  -0.1430 
  8 C       -5.0250    -2.6670    -0.6260 C.3   1 <1>   0.4870 
  9 N       -6.3270    -1.9730    -0.4570 N.4   1 <1>  -0.9590 
 10 C       -7.4870    -2.6870    -1.0820 C.3   1 <1>   0.3430 
 11 C       -6.3120    -0.5260    -0.8570 C.3   1 <1>   0.3430 
 12 C       -8.8240    -1.9690    -0.7660 C.3   1 <1>   0.1100 
 13 C       -7.6630     0.1560    -0.5280 C.3   1 <1>   0.1100 
 14 N       -8.6390    -0.7720     0.0960 N.3   1 <1>  -0.8100 
 15 C       -9.9170    -0.0760     0.3650 C.3   1 <1>   0.1100 
 16 C      -10.8000    -0.8590     1.3450 C.3   1 <1>   0.1200 
 17 O      -11.9610    -0.1400     1.5800 O.3   1 <1>  -0.6800 
 18 H       -2.9720    -1.3720     3.3650 H     1 <1>   0.1500 
 19 H       -1.2700     0.0790    -0.2490 H     1 <1>   0.1500 
 20 H       -4.6900    -2.5890     2.0930 H     1 <1>   0.1500 
 21 H       -2.9700    -1.1230    -1.5580 H     1 <1>   0.1500 
 22 H       -5.0980    -3.6830    -0.2720 H     1 <1>   0.0800 
 23 H       -4.7490    -2.6890    -1.6680 H     1 <1>   0.0800 
 24 H       -6.5580    -1.9330     0.5460 H     1 <1>   0.4500 
 25 H       -7.5410    -3.6970    -0.7090 H     1 <1>   0.0800 
 26 H       -7.3590    -2.7380    -2.1500 H     1 <1>   0.0800 
 27 H       -6.1150    -0.4350    -1.9120 H     1 <1>   0.0800 
 28 H       -5.5270    -0.0080    -0.3310 H     1 <1>   0.0800 
 29 H       -9.4770    -2.6720    -0.2790 H     1 <1>   0.0800 
 30 H       -9.2960    -1.6830    -1.6920 H     1 <1>   0.0800 
 31 H       -8.0770     0.5690    -1.4330 H     1 <1>   0.0800 
 32 H       -7.4760     0.9780     0.1430 H     1 <1>   0.0800 
 33 H      -10.4530     0.0820    -0.5560 H     1 <1>   0.0800 
 34 H       -9.7060     0.8830     0.8060 H     1 <1>   0.0800 
 35 H      -10.2980    -1.0100     2.2850 H     1 <1>   0.0800 
 36 H      -11.0930    -1.8060     0.9300 H     1 <1>   0.0800 
 37 H      -11.7840     0.6440     2.1370 H     1 <1>   0.4000 
@<TRIPOS>BOND
  1   1   2  1   
  2   2   3  ar  
  3   2   4  ar  
  4   3   5  ar  
  5   3  18  1   
  6   4   6  ar  
  7   4  19  1   
  8   5   7  ar  
  9   5  20  1   
 10   6   7  ar  
 11   6  21  1   
 12   7   8  1   
 13   8   9  1   
 14   8  22  1   
 15   8  23  1   
 16   9  10  1   
 17   9  11  1   
 18   9  24  1   
 19  10  12  1   
 20  10  25  1   
 21  10  26  1   
 22  11  13  1   
 23  11  27  1   
 24  11  28  1   
 25  12  14  1   
 26  12  29  1   
 27  12  30  1   
 28  13  14  1   
 29  13  31  1   
 30  13  32  1   
 31  14  15  1   
 32  15  16  1   
 33  15  33  1   
 34  15  34  1   
 35  16  17  1   
 36  16  35  1   
 37  16  36  1   
 38  17  37  1   
@<TRIPOS>SUBSTRUCTURE
  1 ****   9 GROUP 4 **** **** 0

# MOE 2024.06 (io_trps.svl 2023.06)
