@<TRIPOS>MOLECULE
NONAME
42 44 1 0 0 
SMALL
USER_CHARGES


@<TRIPOS>ATOM
  1 O       -0.2210     0.2720    -0.6130 O.2   1 <1>  -0.5700 
  2 C       -0.5430     1.3890    -0.2600 C.2   1 <1>   0.7800 
  3 O       -1.8270     1.7380    -0.2300 O.3   1 <1>  -0.4300 
  4 N        0.3210     2.3610     0.1350 N.am  1 <1>  -0.5470 
  5 C       -2.8310     0.8230    -0.6070 C.3   1 <1>   0.1200 
  6 C        1.7230     2.3990     0.2520 C.ar  1 <1>   0.1170 
  7 C       -4.1820     1.5170    -0.4650 C.3   1 <1>  -0.2400 
  8 C        2.2960     3.4120     0.9950 C.ar  1 <1>  -0.1500 
  9 C        2.5620     1.4550    -0.3680 C.ar  1 <1>  -0.1500 
 10 C        3.6790     3.4840     1.1250 C.ar  1 <1>   0.2270 
 11 C        3.9310     1.5170    -0.2440 C.ar  1 <1>  -0.1500 
 12 N        4.4200     4.3960     1.8090 N.2   1 <1>  -0.5650 
 13 C        4.4930     2.5480     0.5160 C.ar  1 <1>  -0.1520 
 14 C        5.6350     4.0180     1.6160 C.2   1 <1>   0.0360 
 15 N        5.7700     2.9070     0.8440 N.pl3 1 <1>   0.0480 
 16 C        7.0620     2.2730     0.4770 C.3   1 <1>   0.1760 
 17 C        7.2850     2.3070    -1.0440 C.3   1 <1>  -0.1600 
 18 C        7.1560     0.8430     1.0360 C.3   1 <1>  -0.1600 
 19 C        8.6180     1.6450    -1.4220 C.3   1 <1>  -0.1600 
 20 C        8.4900     0.1860     0.6510 C.3   1 <1>  -0.1600 
 21 C        8.7060     0.2160    -0.8690 C.3   1 <1>  -0.1600 
 22 H       -0.1660     3.1980     0.4420 H     1 <1>   0.3700 
 23 H       -2.7680    -0.0380     0.0390 H     1 <1>   0.0800 
 24 H       -2.6550     0.5230    -1.6260 H     1 <1>   0.0800 
 25 H       -4.3380     1.8190     0.5550 H     1 <1>   0.0800 
 26 H       -4.9680     0.8400    -0.7460 H     1 <1>   0.0800 
 27 H       -4.2260     2.3780    -1.1080 H     1 <1>   0.0800 
 28 H        1.7050     4.1590     1.4870 H     1 <1>   0.1500 
 29 H        2.1280     0.6670    -0.9560 H     1 <1>   0.1500 
 30 H        4.5550     0.7850    -0.7240 H     1 <1>   0.1500 
 31 H        6.4920     4.5260     2.0230 H     1 <1>   0.1500 
 32 H        7.8440     2.8530     0.9340 H     1 <1>   0.0800 
 33 H        7.2860     3.3280    -1.3850 H     1 <1>   0.0800 
 34 H        6.4880     1.7870    -1.5440 H     1 <1>   0.0800 
 35 H        6.3520     0.2430     0.6500 H     1 <1>   0.0800 
 36 H        7.0710     0.8690     2.1090 H     1 <1>   0.0800 
 37 H        9.4330     2.2290    -1.0290 H     1 <1>   0.0800 
 38 H        8.7180     1.6220    -2.4940 H     1 <1>   0.0800 
 39 H        8.5020    -0.8340     0.9960 H     1 <1>   0.0800 
 40 H        9.3000     0.7060     1.1350 H     1 <1>   0.0800 
 41 H        9.6700    -0.2020    -1.1030 H     1 <1>   0.0800 
 42 H        7.9600    -0.3970    -1.3460 H     1 <1>   0.0800 
@<TRIPOS>BOND
  1   1   2  2   
  2   2   3  1   
  3   2   4  am  
  4   3   5  1   
  5   4   6  1   
  6   4  22  1   
  7   5   7  1   
  8   5  23  1   
  9   5  24  1   
 10   6   8  ar  
 11   6   9  ar  
 12   7  25  1   
 13   7  26  1   
 14   7  27  1   
 15   8  10  ar  
 16   8  28  1   
 17   9  11  ar  
 18   9  29  1   
 19  10  12  1   
 20  10  13  ar  
 21  11  13  ar  
 22  11  30  1   
 23  12  14  2   
 24  13  15  1   
 25  14  15  1   
 26  14  31  1   
 27  15  16  1   
 28  16  17  1   
 29  16  18  1   
 30  16  32  1   
 31  17  19  1   
 32  17  33  1   
 33  17  34  1   
 34  18  20  1   
 35  18  35  1   
 36  18  36  1   
 37  19  21  1   
 38  19  37  1   
 39  19  38  1   
 40  20  21  1   
 41  20  39  1   
 42  20  40  1   
 43  21  41  1   
 44  21  42  1   
@<TRIPOS>SUBSTRUCTURE
  1 ****  11 GROUP 4 **** **** 0

# MOE 2024.06 (io_trps.svl 2023.06)
