@<TRIPOS>MOLECULE
NONAME
45 48 1 0 0 
SMALL
USER_CHARGES


@<TRIPOS>ATOM
  1 CL      -0.0870     0.6590     0.8920 Cl    1 <1>  -0.1770 
  2 C       -1.4020     1.7730     0.6190 C.ar  1 <1>   0.1770 
  3 C       -2.4760     1.3780    -0.1560 C.ar  1 <1>  -0.1500 
  4 C       -1.3520     3.0340     1.1800 C.ar  1 <1>  -0.1500 
  5 C       -3.5190     2.2630    -0.3710 C.ar  1 <1>  -0.1500 
  6 C       -2.3990     3.9130     0.9610 C.ar  1 <1>  -0.1500 
  7 C       -3.5000     3.5420     0.1870 C.ar  1 <1>  -0.0230 
  8 N       -4.5700     4.4610    -0.0250 N.pl3 1 <1>   0.5930 
  9 N       -4.3610     5.8110    -0.1520 N.2   1 <1>  -0.7070 
 10 C       -5.9170     4.1890    -0.1180 C.ar  1 <1>   0.1050 
 11 C       -5.5280     6.3310    -0.3200 C.2   1 <1>   0.1390 
 12 N       -6.5860     3.0240    -0.0360 N.ar  1 <1>  -0.5670 
 13 C       -6.5550     5.3800    -0.3130 C.ar  1 <1>   0.0000 
 14 C       -7.8860     3.1330    -0.1630 C.ar  1 <1>   0.4700 
 15 C       -7.9490     5.3670    -0.4420 C.ar  1 <1>   0.4100 
 16 N       -8.6130     4.2400    -0.3640 N.ar  1 <1>  -0.6200 
 17 N       -8.6440     6.5290    -0.6570 N.pl3 1 <1>  -0.8690 
 18 C      -10.1020     6.6100    -0.8860 C.3   1 <1>   0.2090 
 19 C      -10.5980     7.9780    -0.4270 C.3   1 <1>  -0.1600 
 20 C      -12.1050     8.1060    -0.6510 C.3   1 <1>   0.1400 
 21 N      -12.5470     9.4670    -0.2790 N.am  1 <1>  -0.6600 
 22 C      -12.7030    10.4950    -1.1420 C.2   1 <1>   0.5690 
 23 C      -12.8580     9.8300     1.1120 C.3   1 <1>   0.1400 
 24 O      -12.4960    10.4580    -2.3300 O.2   1 <1>  -0.5700 
 25 C      -13.1640    11.7310    -0.4220 C.3   1 <1>  -0.0990 
 26 C      -13.4720    11.2330     1.0020 C.3   1 <1>  -0.1600 
 27 H       -2.4920     0.3920    -0.5840 H     1 <1>   0.1500 
 28 H       -0.5050     3.3200     1.7770 H     1 <1>   0.1500 
 29 H       -4.3520     1.9510    -0.9780 H     1 <1>   0.1500 
 30 H       -2.3610     4.9000     1.3930 H     1 <1>   0.1500 
 31 H       -5.7010     7.3860    -0.4500 H     1 <1>   0.1500 
 32 H       -8.4540     2.2190    -0.0990 H     1 <1>   0.1500 
 33 H       -8.1280     7.3800    -0.8850 H     1 <1>   0.4000 
 34 H      -10.6050     5.8330    -0.3340 H     1 <1>   0.0800 
 35 H      -10.3040     6.4710    -1.9360 H     1 <1>   0.0800 
 36 H      -10.0980     8.7430    -0.9940 H     1 <1>   0.0800 
 37 H      -10.3790     8.1000     0.6180 H     1 <1>   0.0800 
 38 H      -12.6400     7.3790    -0.0640 H     1 <1>   0.0800 
 39 H      -12.3330     7.9380    -1.6910 H     1 <1>   0.0800 
 40 H      -11.9490     9.8500     1.6900 H     1 <1>   0.0800 
 41 H      -13.5550     9.1300     1.5430 H     1 <1>   0.0800 
 42 H      -14.0330    12.1440    -0.9010 H     1 <1>   0.0800 
 43 H      -12.3660    12.4510    -0.4200 H     1 <1>   0.0800 
 44 H      -13.0750    11.8940     1.7520 H     1 <1>   0.0800 
 45 H      -14.5370    11.1590     1.1370 H     1 <1>   0.0800 
@<TRIPOS>BOND
  1   1   2  1   
  2   2   3  ar  
  3   2   4  ar  
  4   3   5  ar  
  5   3  27  1   
  6   4   6  ar  
  7   4  28  1   
  8   5   7  ar  
  9   5  29  1   
 10   6   7  ar  
 11   6  30  1   
 12   7   8  1   
 13   8   9  1   
 14   8  10  1   
 15   9  11  2   
 16  10  12  ar  
 17  10  13  ar  
 18  11  13  1   
 19  11  31  1   
 20  12  14  ar  
 21  13  15  ar  
 22  14  16  ar  
 23  14  32  1   
 24  15  16  ar  
 25  15  17  1   
 26  17  18  1   
 27  17  33  1   
 28  18  19  1   
 29  18  34  1   
 30  18  35  1   
 31  19  20  1   
 32  19  36  1   
 33  19  37  1   
 34  20  21  1   
 35  20  38  1   
 36  20  39  1   
 37  21  22  am  
 38  21  23  1   
 39  22  24  2   
 40  22  25  1   
 41  23  26  1   
 42  23  40  1   
 43  23  41  1   
 44  25  26  1   
 45  25  42  1   
 46  25  43  1   
 47  26  44  1   
 48  26  45  1   
@<TRIPOS>SUBSTRUCTURE
  1 ****  15 GROUP 4 **** **** 0

# MOE 2024.06 (io_trps.svl 2023.06)
