@<TRIPOS>MOLECULE
NONAME
26 26 1 0 0 
SMALL
USER_CHARGES


@<TRIPOS>ATOM
  1 CL      -2.0930     1.0850    -1.9860 Cl    1 <1>  -0.1770 
  2 C       -1.1590     2.2180    -1.0420 C.ar  1 <1>   0.1770 
  3 C        0.0160     2.7220    -1.5580 C.ar  1 <1>  -0.1500 
  4 C       -1.6120     2.5860     0.2100 C.ar  1 <1>  -0.1500 
  5 C        0.7890     3.6220    -0.8230 C.ar  1 <1>   0.0860 
  6 C       -0.8700     3.4890     0.9470 C.ar  1 <1>  -0.1500 
  7 C        0.3080     4.0190     0.4370 C.ar  1 <1>   0.0830 
  8 C        2.0430     4.0730    -1.3800 C.2   1 <1>   0.5440 
  9 O        0.9390     4.9180     1.2270 O.3   1 <1>  -0.3630 
 10 O        2.0610     4.8190    -2.3370 O.2   1 <1>  -0.5700 
 11 N        3.2520     3.6850    -0.8920 N.am  1 <1>  -0.7300 
 12 C        1.3470     6.1620     0.6940 C.3   1 <1>   0.0400 
 13 C        3.5320     2.7920     0.2490 C.3   1 <1>   0.1400 
 14 C        4.3580     3.5580     1.2740 C.3   1 <1>  -0.2400 
 15 H        0.3440     2.4150    -2.5350 H     1 <1>   0.1500 
 16 H       -2.5280     2.1730     0.5930 H     1 <1>   0.1500 
 17 H       -1.2040     3.7970     1.9230 H     1 <1>   0.1500 
 18 H        4.0640     4.0680    -1.3800 H     1 <1>   0.3700 
 19 H        1.3490     6.8830     1.4910 H     1 <1>   0.0800 
 20 H        0.6570     6.4670    -0.0740 H     1 <1>   0.0800 
 21 H        2.3390     6.0670     0.2930 H     1 <1>   0.0800 
 22 H        4.0790     1.9320    -0.1000 H     1 <1>   0.0800 
 23 H        2.6140     2.4540     0.6990 H     1 <1>   0.0800 
 24 H        5.2850     3.8900     0.8410 H     1 <1>   0.0800 
 25 H        4.5810     2.9180     2.1080 H     1 <1>   0.0800 
 26 H        3.8050     4.4060     1.6370 H     1 <1>   0.0800 
@<TRIPOS>BOND
  1   1   2  1   
  2   2   3  ar  
  3   2   4  ar  
  4   3   5  ar  
  5   3  15  1   
  6   4   6  ar  
  7   4  16  1   
  8   5   7  ar  
  9   5   8  1   
 10   6   7  ar  
 11   6  17  1   
 12   7   9  1   
 13   8  10  2   
 14   8  11  am  
 15   9  12  1   
 16  11  13  1   
 17  11  18  1   
 18  12  19  1   
 19  12  20  1   
 20  12  21  1   
 21  13  14  1   
 22  13  22  1   
 23  13  23  1   
 24  14  24  1   
 25  14  25  1   
 26  14  26  1   
@<TRIPOS>SUBSTRUCTURE
  1 ****   5 GROUP 4 **** **** 0

# MOE 2024.06 (io_trps.svl 2023.06)
