@<TRIPOS>MOLECULE
NONAME
36 37 1 0 0 
SMALL
USER_CHARGES


@<TRIPOS>ATOM
  1 O       -5.0110     4.3490     0.8570 O.2   1 <1>  -0.5700 
  2 C       -5.0050     3.4160     0.1190 C.2   1 <1>   0.4480 
  3 C       -3.7420     2.6730    -0.2880 C.3   1 <1>  -0.0190 
  4 C       -6.2890     2.8350    -0.4130 C.3   1 <1>  -0.0990 
  5 C       -3.9050     1.2200     0.1670 C.3   1 <1>   0.3430 
  6 C       -2.4570     3.2820     0.3030 C.3   1 <1>  -0.2400 
  7 C       -6.3900     1.3900     0.0550 C.3   1 <1>   0.3430 
  8 N       -5.1740     0.6120    -0.3620 N.4   1 <1>  -0.9590 
  9 C       -5.2550    -0.8180     0.0840 C.3   1 <1>   0.3430 
 10 C       -6.3350    -1.6020    -0.6640 C.3   1 <1>  -0.0170 
 11 C       -6.2610    -3.0490    -0.2200 C.ar  1 <1>  -0.1440 
 12 C       -5.4590    -3.9510    -0.9040 C.ar  1 <1>  -0.1500 
 13 C       -6.9850    -3.4800     0.8830 C.ar  1 <1>  -0.1500 
 14 C       -5.3760    -5.2670    -0.4850 C.ar  1 <1>  -0.1500 
 15 C       -6.9000    -4.7960     1.3010 C.ar  1 <1>  -0.1500 
 16 C       -6.0950    -5.6900     0.6190 C.ar  1 <1>  -0.1500 
 17 H       -3.6570     2.7010    -1.3600 H     1 <1>   0.0800 
 18 H       -6.3100     2.8950    -1.4860 H     1 <1>   0.0800 
 19 H       -7.1210     3.3980    -0.0290 H     1 <1>   0.0800 
 20 H       -3.9150     1.1960     1.2460 H     1 <1>   0.0800 
 21 H       -3.0540     0.6490    -0.1700 H     1 <1>   0.0800 
 22 H       -2.4920     3.2830     1.3800 H     1 <1>   0.0800 
 23 H       -2.3510     4.3040    -0.0240 H     1 <1>   0.0800 
 24 H       -1.5870     2.7360    -0.0160 H     1 <1>   0.0800 
 25 H       -7.2800     0.9450    -0.3600 H     1 <1>   0.0800 
 26 H       -6.4780     1.3750     1.1310 H     1 <1>   0.0800 
 27 H       -5.1210     0.6100    -1.3910 H     1 <1>   0.4500 
 28 H       -5.4520    -0.8650     1.1430 H     1 <1>   0.0800 
 29 H       -4.3090    -1.3040    -0.0930 H     1 <1>   0.0800 
 30 H       -6.1710    -1.5490    -1.7260 H     1 <1>   0.0800 
 31 H       -7.3150    -1.2190    -0.4440 H     1 <1>   0.0800 
 32 H       -4.8950    -3.6460    -1.7680 H     1 <1>   0.1500 
 33 H       -7.6220    -2.8040     1.4270 H     1 <1>   0.1500 
 34 H       -4.7540    -5.9660    -1.0170 H     1 <1>   0.1500 
 35 H       -7.4630    -5.1290     2.1560 H     1 <1>   0.1500 
 36 H       -6.0310    -6.7140     0.9440 H     1 <1>   0.1500 
@<TRIPOS>BOND
  1   1   2  2   
  2   2   3  1   
  3   2   4  1   
  4   3   5  1   
  5   3   6  1   
  6   3  17  1   
  7   4   7  1   
  8   4  18  1   
  9   4  19  1   
 10   5   8  1   
 11   5  20  1   
 12   5  21  1   
 13   6  22  1   
 14   6  23  1   
 15   6  24  1   
 16   7   8  1   
 17   7  25  1   
 18   7  26  1   
 19   8   9  1   
 20   8  27  1   
 21   9  10  1   
 22   9  28  1   
 23   9  29  1   
 24  10  11  1   
 25  10  30  1   
 26  10  31  1   
 27  11  12  ar  
 28  11  13  ar  
 29  12  14  ar  
 30  12  32  1   
 31  13  15  ar  
 32  13  33  1   
 33  14  16  ar  
 34  14  34  1   
 35  15  16  ar  
 36  15  35  1   
 37  16  36  1   
@<TRIPOS>SUBSTRUCTURE
  1 ****   9 GROUP 4 **** **** 0

# MOE 2024.06 (io_trps.svl 2023.06)
