@<TRIPOS>MOLECULE
NONAME
38 39 1 0 0 
SMALL
USER_CHARGES


@<TRIPOS>ATOM
  1 CL      -0.0430    -0.5260    -0.5080 Cl    1 <1>  -0.1770 
  2 C       -0.5200    -2.0810     0.1460 C.ar  1 <1>   0.1770 
  3 C        0.2120    -3.2350    -0.1420 C.ar  1 <1>   0.1170 
  4 C       -1.6590    -2.1270     0.9290 C.ar  1 <1>  -0.1500 
  5 N        1.3780    -3.2500    -0.9130 N.am  1 <1>  -0.5470 
  6 C       -0.2500    -4.4440     0.3630 C.ar  1 <1>  -0.1500 
  7 C       -2.0970    -3.3420     1.4320 C.ar  1 <1>  -0.1500 
  8 C        2.5990    -2.7370    -0.5890 C.2   1 <1>   0.5690 
  9 C       -1.3920    -4.4990     1.1440 C.ar  1 <1>  -0.1500 
 10 O        2.7390    -1.9470     0.3180 O.2   1 <1>  -0.5700 
 11 C        3.7950    -3.1960    -1.4390 C.3   1 <1>  -0.0190 
 12 C        4.1780    -4.6800    -1.2040 C.3   1 <1>  -0.1860 
 13 C        5.0450    -2.3070    -1.2730 C.3   1 <1>  -0.0220 
 14 C        3.0410    -5.6450    -1.5180 C.2   1 <1>   0.9060 
 15 C        4.7150    -4.8700     0.2250 C.3   1 <1>  -0.0220 
 16 C        5.9230    -2.6800    -0.0780 C.2   1 <1>  -0.2760 
 17 O        2.8880    -6.6700    -0.8510 O.co2 1 <1>  -0.9000 
 18 O        2.2500    -5.3440    -2.4220 O.co2 1 <1>  -0.9000 
 19 C        5.7620    -3.8240     0.6060 C.2   1 <1>  -0.2760 
 20 C        6.9520    -1.5910     0.2020 C.3   1 <1>  -0.1020 
 21 C        6.5390    -4.2640     1.8410 C.3   1 <1>  -0.1020 
 22 H       -2.1950    -1.2200     1.1360 H     1 <1>   0.1500 
 23 H        1.4420    -4.0290    -1.6000 H     1 <1>   0.3700 
 24 H        0.3020    -5.3450     0.1390 H     1 <1>   0.1500 
 25 H       -2.9830    -3.3870     2.0420 H     1 <1>   0.1500 
 26 H       -1.7260    -5.4480     1.5260 H     1 <1>   0.1500 
 27 H        3.4830    -3.0940    -2.4630 H     1 <1>   0.0800 
 28 H        4.9690    -4.9300    -1.8850 H     1 <1>   0.0800 
 29 H        4.7310    -1.2810    -1.1930 H     1 <1>   0.0800 
 30 H        5.6440    -2.3930    -2.1620 H     1 <1>   0.0800 
 31 H        5.1410    -5.8560     0.2910 H     1 <1>   0.0800 
 32 H        3.9000    -4.8220     0.9270 H     1 <1>   0.0800 
 33 H        7.5100    -1.3780    -0.6920 H     1 <1>   0.0800 
 34 H        7.6530    -1.8670     0.9630 H     1 <1>   0.0800 
 35 H        6.4490    -0.6940     0.5160 H     1 <1>   0.0800 
 36 H        5.8490    -4.5000     2.6320 H     1 <1>   0.0800 
 37 H        7.2030    -3.5090     2.2070 H     1 <1>   0.0800 
 38 H        7.1150    -5.1430     1.6140 H     1 <1>   0.0800 
@<TRIPOS>BOND
  1   1   2  1   
  2   2   3  ar  
  3   2   4  ar  
  4   3   5  1   
  5   3   6  ar  
  6   4   7  ar  
  7   4  22  1   
  8   5   8  am  
  9   5  23  1   
 10   6   9  ar  
 11   6  24  1   
 12   7   9  ar  
 13   7  25  1   
 14   8  10  2   
 15   8  11  1   
 16   9  26  1   
 17  11  12  1   
 18  11  13  1   
 19  11  27  1   
 20  12  14  1   
 21  12  15  1   
 22  12  28  1   
 23  13  16  1   
 24  13  29  1   
 25  13  30  1   
 26  14  17  ar  
 27  14  18  ar  
 28  15  19  1   
 29  15  31  1   
 30  15  32  1   
 31  16  19  2   
 32  16  20  1   
 33  19  21  1   
 34  20  33  1   
 35  20  34  1   
 36  20  35  1   
 37  21  36  1   
 38  21  37  1   
 39  21  38  1   
@<TRIPOS>SUBSTRUCTURE
  1 ****   8 GROUP 4 **** **** 0

# MOE 2024.06 (io_trps.svl 2023.06)
