@<TRIPOS>MOLECULE
NONAME
42 43 1 0 0 
SMALL
USER_CHARGES


@<TRIPOS>ATOM
  1 O        0.2720     1.0070    -1.6270 O.2   1 <1>  -0.5700 
  2 C        0.1390     2.2110    -1.5710 C.2   1 <1>   0.5690 
  3 N        1.0890     3.0050    -0.9640 N.am  1 <1>  -0.6600 
  4 C       -1.1090     2.7720    -2.2600 C.3   1 <1>   0.1810 
  5 C        2.3220     2.3850    -0.3970 C.3   1 <1>   0.1400 
  6 C        1.1040     4.4920    -1.0530 C.3   1 <1>   0.1400 
  7 O       -1.8690     3.6690    -1.4610 O.3   1 <1>  -0.3620 
  8 C        2.0490     1.6660     0.9300 C.3   1 <1>  -0.1600 
  9 C        0.5480     5.1740     0.2030 C.3   1 <1>  -0.1600 
 10 C       -2.6170     3.2590    -0.4000 C.ar  1 <1>   0.0820 
 11 C        2.0650     2.5570     2.1810 C.3   1 <1>  -0.1600 
 12 C        1.3400     4.9350     1.4970 C.3   1 <1>  -0.1600 
 13 C       -3.4300     4.2090     0.2150 C.ar  1 <1>  -0.1440 
 14 C       -2.5970     1.9540     0.0880 C.ar  1 <1>  -0.1500 
 15 C        0.9640     3.6270     2.2180 C.3   1 <1>  -0.1600 
 16 C       -4.2010     3.8480     1.3090 C.ar  1 <1>  -0.1500 
 17 C       -3.4880     5.6390    -0.3040 C.3   1 <1>  -0.0970 
 18 C       -3.3700     1.6050     1.1800 C.ar  1 <1>  -0.1500 
 19 C       -4.1720     2.5520     1.7920 C.ar  1 <1>  -0.1500 
 20 H       -1.7550     1.9680    -2.5610 H     1 <1>   0.0800 
 21 H       -0.8070     3.3060    -3.1400 H     1 <1>   0.0800 
 22 H        3.0930     3.1230    -0.2620 H     1 <1>   0.0800 
 23 H        2.6870     1.6630    -1.1080 H     1 <1>   0.0800 
 24 H        0.5210     4.8080    -1.8990 H     1 <1>   0.0800 
 25 H        2.1110     4.8290    -1.2250 H     1 <1>   0.0800 
 26 H        2.8200     0.9270     1.0560 H     1 <1>   0.0800 
 27 H        1.1170     1.1330     0.8710 H     1 <1>   0.0800 
 28 H       -0.4790     4.8960     0.3480 H     1 <1>   0.0800 
 29 H        0.5530     6.2320     0.0090 H     1 <1>   0.0800 
 30 H        3.0320     3.0120     2.3010 H     1 <1>   0.0800 
 31 H        1.9190     1.9110     3.0300 H     1 <1>   0.0800 
 32 H        1.1040     5.7450     2.1660 H     1 <1>   0.0800 
 33 H        2.3970     4.9910     1.3050 H     1 <1>   0.0800 
 34 H       -1.9880     1.1920    -0.3590 H     1 <1>   0.1500 
 35 H        0.7870     3.8680     3.2520 H     1 <1>   0.0800 
 36 H        0.0410     3.2200     1.8370 H     1 <1>   0.0800 
 37 H       -4.8300     4.5740     1.7920 H     1 <1>   0.1500 
 38 H       -3.7710     5.6380    -1.3410 H     1 <1>   0.0800 
 39 H       -2.5230     6.1020    -0.2100 H     1 <1>   0.0800 
 40 H       -4.2040     6.2230     0.2450 H     1 <1>   0.0800 
 41 H       -3.3470     0.5970     1.5530 H     1 <1>   0.1500 
 42 H       -4.7720     2.2800     2.6420 H     1 <1>   0.1500 
@<TRIPOS>BOND
  1   1   2  2   
  2   2   3  am  
  3   2   4  1   
  4   3   5  1   
  5   3   6  1   
  6   4   7  1   
  7   4  20  1   
  8   4  21  1   
  9   5   8  1   
 10   5  22  1   
 11   5  23  1   
 12   6   9  1   
 13   6  24  1   
 14   6  25  1   
 15   7  10  1   
 16   8  11  1   
 17   8  26  1   
 18   8  27  1   
 19   9  12  1   
 20   9  28  1   
 21   9  29  1   
 22  10  13  ar  
 23  10  14  ar  
 24  11  15  1   
 25  11  30  1   
 26  11  31  1   
 27  12  15  1   
 28  12  32  1   
 29  12  33  1   
 30  13  16  ar  
 31  13  17  1   
 32  14  18  ar  
 33  14  34  1   
 34  15  35  1   
 35  15  36  1   
 36  16  19  ar  
 37  16  37  1   
 38  17  38  1   
 39  17  39  1   
 40  17  40  1   
 41  18  19  ar  
 42  18  41  1   
 43  19  42  1   
@<TRIPOS>SUBSTRUCTURE
  1 ****  10 GROUP 4 **** **** 0

# MOE 2024.06 (io_trps.svl 2023.06)
