@<TRIPOS>MOLECULE
NONAME
42 44 1 0 0 
SMALL
USER_CHARGES


@<TRIPOS>ATOM
  1 CL       0.4640    -1.9820    -2.1690 Cl    1 <1>  -0.1770 
  2 C        1.5700    -0.7070    -1.7130 C.ar  1 <1>   0.1770 
  3 C        2.7820    -1.0280    -1.1540 C.ar  1 <1>  -0.1500 
  4 C        1.1820     0.6190    -1.9360 C.ar  1 <1>  -0.1500 
  5 C        3.6480     0.0090    -0.7970 C.ar  1 <1>   0.0000 
  6 C        2.0290     1.6460    -1.5890 C.ar  1 <1>  -0.1500 
  7 C        3.2660     1.3330    -1.0160 C.ar  1 <1>  -0.1520 
  8 C        4.9370     0.0610    -0.2240 C.2   1 <1>  -0.1810 
  9 N        4.2830     2.1510    -0.5900 N.pl3 1 <1>   0.0330 
 10 C        5.2850     1.3600    -0.1030 C.2   1 <1>  -0.3320 
 11 C        5.8310    -1.1020     0.1620 C.3   1 <1>   0.0210 
 12 C        6.6080     1.8610     0.4690 C.3   1 <1>   0.1610 
 13 C        7.0610    -0.6100     0.9520 C.3   1 <1>  -0.1600 
 14 C        7.0730     3.1740    -0.1910 C.2   1 <1>   0.5690 
 15 C        7.6350     0.7070     0.3830 C.3   1 <1>  -0.1600 
 16 O        7.8910     3.1140    -1.0830 O.2   1 <1>  -0.5700 
 17 N        6.5520     4.3920     0.2060 N.am  1 <1>  -0.6600 
 18 C        6.9340     5.6390    -0.5110 C.3   1 <1>   0.1400 
 19 C        5.6520     4.5960     1.3750 C.3   1 <1>   0.1400 
 20 C        5.8950     5.9380    -1.5890 C.3   1 <1>  -0.2400 
 21 C        6.4910     4.8660     2.6220 C.3   1 <1>  -0.2400 
 22 H        3.0680    -2.0490    -0.9900 H     1 <1>   0.1500 
 23 H        0.2220     0.8120    -2.3780 H     1 <1>   0.1500 
 24 H        1.7550     2.6730    -1.7520 H     1 <1>   0.1500 
 25 H        4.3200     3.1710    -0.6970 H     1 <1>   0.2700 
 26 H        6.1560    -1.5890    -0.7400 H     1 <1>   0.0800 
 27 H        5.2770    -1.8120     0.7500 H     1 <1>   0.0800 
 28 H        6.4580     2.0510     1.5140 H     1 <1>   0.0800 
 29 H        7.8180    -1.3740     0.9410 H     1 <1>   0.0800 
 30 H        6.7720    -0.4480     1.9760 H     1 <1>   0.0800 
 31 H        8.5250     0.9830     0.9200 H     1 <1>   0.0800 
 32 H        7.9060     0.5510    -0.6470 H     1 <1>   0.0800 
 33 H        7.9030     5.5220    -0.9670 H     1 <1>   0.0800 
 34 H        6.9960     6.4590     0.1840 H     1 <1>   0.0800 
 35 H        5.0290     3.7340     1.5350 H     1 <1>   0.0800 
 36 H        5.0010     5.4340     1.1890 H     1 <1>   0.0800 
 37 H        5.8530     5.1250    -2.2910 H     1 <1>   0.0800 
 38 H        6.1760     6.8290    -2.1200 H     1 <1>   0.0800 
 39 H        4.9250     6.0920    -1.1530 H     1 <1>   0.0800 
 40 H        7.1460     4.0380     2.8240 H     1 <1>   0.0800 
 41 H        5.8450     5.0030     3.4700 H     1 <1>   0.0800 
 42 H        7.0780     5.7580     2.4960 H     1 <1>   0.0800 
@<TRIPOS>BOND
  1   1   2  1   
  2   2   3  ar  
  3   2   4  ar  
  4   3   5  ar  
  5   3  22  1   
  6   4   6  ar  
  7   4  23  1   
  8   5   7  ar  
  9   5   8  1   
 10   6   7  ar  
 11   6  24  1   
 12   7   9  1   
 13   8  10  2   
 14   8  11  1   
 15   9  10  1   
 16   9  25  1   
 17  10  12  1   
 18  11  13  1   
 19  11  26  1   
 20  11  27  1   
 21  12  14  1   
 22  12  15  1   
 23  12  28  1   
 24  13  15  1   
 25  13  29  1   
 26  13  30  1   
 27  14  16  2   
 28  14  17  am  
 29  15  31  1   
 30  15  32  1   
 31  17  18  1   
 32  17  19  1   
 33  18  20  1   
 34  18  33  1   
 35  18  34  1   
 36  19  21  1   
 37  19  35  1   
 38  19  36  1   
 39  20  37  1   
 40  20  38  1   
 41  20  39  1   
 42  21  40  1   
 43  21  41  1   
 44  21  42  1   
@<TRIPOS>SUBSTRUCTURE
  1 ****  10 GROUP 4 **** **** 0

# MOE 2024.06 (io_trps.svl 2023.06)
