@<TRIPOS>MOLECULE
NONAME
31 33 1 0 0 
SMALL
USER_CHARGES


@<TRIPOS>ATOM
  1 O       -0.1830     0.1480    -0.4280 O.2   1 <1>  -0.5700 
  2 C       -0.6570     1.1790     0.0110 C.2   1 <1>   0.7800 
  3 O        0.0950     2.2840     0.1200 O.3   1 <1>  -0.2330 
  4 N       -1.9690     1.2620     0.4040 N.am  1 <1>  -0.6600 
  5 C        1.4370     2.3660    -0.0860 C.ar  1 <1>   0.0820 
  6 C       -2.8950     0.0950     0.3190 C.3   1 <1>   0.1400 
  7 C       -2.6140     2.5050     0.9190 C.3   1 <1>   0.1400 
  8 C        2.3160     1.3790     0.3570 C.ar  1 <1>  -0.1500 
  9 C        1.9180     3.5010    -0.7390 C.ar  1 <1>  -0.1500 
 10 C       -4.2100     0.4980    -0.3690 C.3   1 <1>   0.1200 
 11 C       -3.9450     2.7620     0.1930 C.3   1 <1>   0.1200 
 12 C        3.6620     1.5650     0.1190 C.ar  1 <1>   0.0820 
 13 C        3.2780     3.6660    -0.9690 C.ar  1 <1>  -0.1500 
 14 O       -4.7640     1.6290     0.2440 O.3   1 <1>  -0.5600 
 15 O        4.6790     0.7620     0.4480 O.3   1 <1>  -0.3630 
 16 C        4.1300     2.6740    -0.5260 C.ar  1 <1>   0.0820 
 17 C        5.8680     1.3910    -0.0260 C.3   1 <1>   0.4000 
 18 O        5.4630     2.6170    -0.6330 O.3   1 <1>  -0.3630 
 19 H       -3.1100    -0.2580     1.3120 H     1 <1>   0.0800 
 20 H       -2.4410    -0.7120    -0.2290 H     1 <1>   0.0800 
 21 H       -1.9700     3.3570     0.7870 H     1 <1>   0.0800 
 22 H       -2.8040     2.3920     1.9720 H     1 <1>   0.0800 
 23 H        1.9750     0.4990     0.8690 H     1 <1>   0.1500 
 24 H        1.2250     4.2540    -1.0680 H     1 <1>   0.1500 
 25 H       -4.9260    -0.3000    -0.2960 H     1 <1>   0.0800 
 26 H       -4.0400     0.7160    -1.4100 H     1 <1>   0.0800 
 27 H       -3.7710     3.0160    -0.8390 H     1 <1>   0.0800 
 28 H       -4.4750     3.5710     0.6630 H     1 <1>   0.0800 
 29 H        3.6680     4.5320    -1.4730 H     1 <1>   0.1500 
 30 H        6.3390     0.7630    -0.7610 H     1 <1>   0.0800 
 31 H        6.5220     1.5970     0.8020 H     1 <1>   0.0800 
@<TRIPOS>BOND
  1   1   2  2   
  2   2   3  1   
  3   2   4  am  
  4   3   5  1   
  5   4   6  1   
  6   4   7  1   
  7   5   8  ar  
  8   5   9  ar  
  9   6  10  1   
 10   6  19  1   
 11   6  20  1   
 12   7  11  1   
 13   7  21  1   
 14   7  22  1   
 15   8  12  ar  
 16   8  23  1   
 17   9  13  ar  
 18   9  24  1   
 19  10  14  1   
 20  10  25  1   
 21  10  26  1   
 22  11  14  1   
 23  11  27  1   
 24  11  28  1   
 25  12  15  1   
 26  12  16  ar  
 27  13  16  ar  
 28  13  29  1   
 29  15  17  1   
 30  16  18  1   
 31  17  18  1   
 32  17  30  1   
 33  17  31  1   
@<TRIPOS>SUBSTRUCTURE
  1 ****   3 GROUP 4 **** **** 0

# MOE 2024.06 (io_trps.svl 2023.06)
