@<TRIPOS>MOLECULE
NONAME
42 44 1 0 0 
SMALL
USER_CHARGES


@<TRIPOS>ATOM
  1 O        0.1020    -1.5180     2.2760 O.3   1 <1>  -0.6800 
  2 C        0.3480    -2.1730     1.0890 C.3   1 <1>   0.7670 
  3 C        1.8010    -1.9540     0.8140 C.1   1 <1>  -0.2000 
  4 C       -0.0280    -3.6450     1.3440 C.ar  1 <1>  -0.1440 
  5 C       -0.4780    -1.5460    -0.0510 C.ar  1 <1>  -0.1440 
  6 C        2.9560    -1.7710     0.5790 C.1   1 <1>  -0.2000 
  7 C        0.9060    -4.6790     1.3710 C.ar  1 <1>  -0.1500 
  8 C       -1.3650    -3.9650     1.5640 C.ar  1 <1>  -0.1500 
  9 C       -1.0310    -0.2710     0.0430 C.ar  1 <1>  -0.1500 
 10 C       -0.6710    -2.2600    -1.2290 C.ar  1 <1>  -0.1500 
 11 C        4.4000    -1.5150     0.2700 C.3   1 <1>   0.5750 
 12 C        0.5120    -5.9860     1.6060 C.ar  1 <1>  -0.1500 
 13 C       -1.7600    -5.2690     1.7980 C.ar  1 <1>  -0.1500 
 14 C       -1.7590     0.2670    -1.0040 C.ar  1 <1>  -0.1500 
 15 C       -1.3990    -1.7240    -2.2780 C.ar  1 <1>  -0.1500 
 16 O        4.6680    -1.4870     1.6080 O.3   1 <1>  -0.6800 
 17 C        4.6220     0.0430     0.1660 C.3   1 <1>  -0.1950 
 18 C        4.1780    -1.6540    -1.2610 C.3   1 <1>  -0.2400 
 19 C       -0.8210    -6.2830     1.8190 C.ar  1 <1>  -0.1500 
 20 C       -1.9450    -0.4590    -2.1660 C.ar  1 <1>  -0.1500 
 21 C        5.9210     0.5820    -0.3860 C.3   1 <1>  -0.2000 
 22 C        5.5160     0.9480     0.9980 C.3   1 <1>  -0.2000 
 23 H        0.5860    -2.0120     2.9590 H     1 <1>   0.4000 
 24 H        1.9540    -4.4910     1.2120 H     1 <1>   0.1500 
 25 H       -2.1090    -3.1850     1.5520 H     1 <1>   0.1500 
 26 H       -0.8970     0.3160     0.9350 H     1 <1>   0.1500 
 27 H       -0.2530    -3.2470    -1.3380 H     1 <1>   0.1500 
 28 H        1.2460    -6.7730     1.6230 H     1 <1>   0.1500 
 29 H       -2.7990    -5.4940     1.9640 H     1 <1>   0.1500 
 30 H       -2.1810     1.2530    -0.9130 H     1 <1>   0.1500 
 31 H       -1.5400    -2.2930    -3.1800 H     1 <1>   0.1500 
 32 H        4.1330    -0.7610     1.9710 H     1 <1>   0.4000 
 33 H        3.7240     0.5430    -0.1610 H     1 <1>   0.1000 
 34 H        3.8960    -2.6650    -1.5010 H     1 <1>   0.0800 
 35 H        5.0920    -1.4770    -1.7980 H     1 <1>   0.0800 
 36 H        3.4200    -1.0080    -1.6770 H     1 <1>   0.0800 
 37 H       -1.1260    -7.2990     2.0010 H     1 <1>   0.1500 
 38 H       -2.5110    -0.0410    -2.9790 H     1 <1>   0.1500 
 39 H        5.8810     1.3300    -1.1600 H     1 <1>   0.1000 
 40 H        6.7660    -0.0770    -0.4960 H     1 <1>   0.1000 
 41 H        6.1240     0.5630     1.8000 H     1 <1>   0.1000 
 42 H        5.1950     1.9580     1.1860 H     1 <1>   0.1000 
@<TRIPOS>BOND
  1   1   2  1   
  2   1  23  1   
  3   2   3  1   
  4   2   4  1   
  5   2   5  1   
  6   3   6  3   
  7   4   7  ar  
  8   4   8  ar  
  9   5   9  ar  
 10   5  10  ar  
 11   6  11  1   
 12   7  12  ar  
 13   7  24  1   
 14   8  13  ar  
 15   8  25  1   
 16   9  14  ar  
 17   9  26  1   
 18  10  15  ar  
 19  10  27  1   
 20  11  16  1   
 21  11  17  1   
 22  11  18  1   
 23  12  19  ar  
 24  12  28  1   
 25  13  19  ar  
 26  13  29  1   
 27  14  20  ar  
 28  14  30  1   
 29  15  20  ar  
 30  15  31  1   
 31  16  32  1   
 32  17  21  1   
 33  17  22  1   
 34  17  33  1   
 35  18  34  1   
 36  18  35  1   
 37  18  36  1   
 38  19  37  1   
 39  20  38  1   
 40  21  22  1   
 41  21  39  1   
 42  21  40  1   
 43  22  41  1   
 44  22  42  1   
@<TRIPOS>SUBSTRUCTURE
  1 ****   3 GROUP 4 **** **** 0

# MOE 2024.06 (io_trps.svl 2023.06)
