@<TRIPOS>MOLECULE
NONAME
55 56 1 0 0 
SMALL
USER_CHARGES


@<TRIPOS>ATOM
  1 O        0.9670     2.2590     3.0640 O.2   1 <1>  -0.5700 
  2 C        0.0680     1.7430     2.4470 C.2   1 <1>   0.5690 
  3 N        0.3060     1.0280     1.3160 N.am  1 <1>  -0.7300 
  4 C       -1.3660     1.9190     2.9270 C.3   1 <1>   0.0440 
  5 C        1.6160     0.8760     0.6820 C.3   1 <1>   0.2200 
  6 C       -2.3830     1.3830     1.9210 C.ar  1 <1>  -0.1440 
  7 C        1.7460     1.9290    -0.4130 C.3   1 <1>  -0.1600 
  8 C        1.7180    -0.5170     0.0730 C.3   1 <1>  -0.1600 
  9 C       -2.5930     2.0550     0.7280 C.ar  1 <1>  -0.1500 
 10 C       -3.0810     0.2130     2.1670 C.ar  1 <1>  -0.1500 
 11 C        3.0670     1.8040    -1.1790 C.3   1 <1>   0.5030 
 12 C        3.0380    -0.7180    -0.6830 C.3   1 <1>   0.5030 
 13 C       -3.4680     1.5670    -0.2270 C.ar  1 <1>   0.0830 
 14 C       -3.9640    -0.2870     1.2250 C.ar  1 <1>  -0.1500 
 15 N        3.3140     0.4100    -1.5890 N.4   1 <1>  -0.9060 
 16 C        4.2540     2.3350    -0.3710 C.3   1 <1>  -0.2400 
 17 C        2.9820     2.6040    -2.4770 C.3   1 <1>  -0.2400 
 18 C        4.2190    -0.9310     0.2680 C.3   1 <1>  -0.2400 
 19 C        2.9270    -1.9470    -1.5830 C.3   1 <1>  -0.2400 
 20 O       -3.5560     2.3160    -1.3610 O.3   1 <1>  -0.3630 
 21 C       -4.1640     0.3720     0.0130 C.ar  1 <1>   0.0830 
 22 C       -4.7980     2.4850    -2.0100 C.3   1 <1>   0.0400 
 23 O       -4.9990    -0.1300    -0.9430 O.3   1 <1>  -0.3630 
 24 C       -5.7510    -1.3070    -0.7430 C.3   1 <1>   0.0400 
 25 H       -0.5130     0.6740     0.8090 H     1 <1>   0.3700 
 26 H       -1.5430     2.9660     3.0930 H     1 <1>   0.0800 
 27 H       -1.4700     1.4170     3.8710 H     1 <1>   0.0800 
 28 H        2.3810     1.0160     1.4290 H     1 <1>   0.0800 
 29 H        1.6840     2.9080     0.0310 H     1 <1>   0.0800 
 30 H        0.9200     1.8310    -1.0960 H     1 <1>   0.0800 
 31 H        0.8910    -0.6670    -0.6000 H     1 <1>   0.0800 
 32 H        1.6380    -1.2520     0.8550 H     1 <1>   0.0800 
 33 H       -2.0710     2.9730     0.5220 H     1 <1>   0.1500 
 34 H       -2.9390    -0.3220     3.0910 H     1 <1>   0.1500 
 35 H       -4.4800    -1.1980     1.4580 H     1 <1>   0.1500 
 36 H        4.2860     0.3400    -1.8960 H     1 <1>   0.4500 
 37 H        2.7400     0.2550    -2.4190 H     1 <1>   0.4500 
 38 H        4.2930     1.9290     0.6200 H     1 <1>   0.0800 
 39 H        4.1600     3.4010    -0.2530 H     1 <1>   0.0800 
 40 H        5.1870     2.1450    -0.8710 H     1 <1>   0.0800 
 41 H        2.1780     2.2560    -3.1010 H     1 <1>   0.0800 
 42 H        3.9050     2.5530    -3.0290 H     1 <1>   0.0800 
 43 H        2.7920     3.6400    -2.2560 H     1 <1>   0.0800 
 44 H        4.2760    -0.1790     1.0290 H     1 <1>   0.0800 
 45 H        5.1510    -0.9680    -0.2670 H     1 <1>   0.0800 
 46 H        4.1030    -1.8700     0.7820 H     1 <1>   0.0800 
 47 H        2.1260    -1.8430    -2.2940 H     1 <1>   0.0800 
 48 H        2.7170    -2.8200    -0.9880 H     1 <1>   0.0800 
 49 H        3.8470    -2.1280    -2.1110 H     1 <1>   0.0800 
 50 H       -4.7500     3.3840    -2.5970 H     1 <1>   0.0800 
 51 H       -5.5750     2.5670    -1.2700 H     1 <1>   0.0800 
 52 H       -4.9710     1.6410    -2.6530 H     1 <1>   0.0800 
 53 H       -6.3410    -1.4800    -1.6250 H     1 <1>   0.0800 
 54 H       -6.3970    -1.1690     0.1060 H     1 <1>   0.0800 
 55 H       -5.0780    -2.1310    -0.5880 H     1 <1>   0.0800 
@<TRIPOS>BOND
  1   1   2  2   
  2   2   3  am  
  3   2   4  1   
  4   3   5  1   
  5   3  25  1   
  6   4   6  1   
  7   4  26  1   
  8   4  27  1   
  9   5   7  1   
 10   5   8  1   
 11   5  28  1   
 12   6   9  ar  
 13   6  10  ar  
 14   7  11  1   
 15   7  29  1   
 16   7  30  1   
 17   8  12  1   
 18   8  31  1   
 19   8  32  1   
 20   9  13  ar  
 21   9  33  1   
 22  10  14  ar  
 23  10  34  1   
 24  11  15  1   
 25  11  16  1   
 26  11  17  1   
 27  12  15  1   
 28  12  18  1   
 29  12  19  1   
 30  13  20  1   
 31  13  21  ar  
 32  14  21  ar  
 33  14  35  1   
 34  15  36  1   
 35  15  37  1   
 36  16  38  1   
 37  16  39  1   
 38  16  40  1   
 39  17  41  1   
 40  17  42  1   
 41  17  43  1   
 42  18  44  1   
 43  18  45  1   
 44  18  46  1   
 45  19  47  1   
 46  19  48  1   
 47  19  49  1   
 48  20  22  1   
 49  21  23  1   
 50  22  50  1   
 51  22  51  1   
 52  22  52  1   
 53  23  24  1   
 54  24  53  1   
 55  24  54  1   
 56  24  55  1   
@<TRIPOS>SUBSTRUCTURE
  1 ****   3 GROUP 4 **** **** 0

# MOE 2024.06 (io_trps.svl 2023.06)
