@<TRIPOS>MOLECULE
NONAME
46 48 1 0 0 
SMALL
USER_CHARGES


@<TRIPOS>ATOM
  1 F       -0.8070     2.0540    -1.6890 F     1 <1>  -0.1900 
  2 C       -0.7420     2.4730    -0.4490 C.ar  1 <1>   0.1900 
  3 C       -1.9100     2.4740     0.3200 C.ar  1 <1>   0.1170 
  4 C        0.4850     2.8920     0.0250 C.ar  1 <1>  -0.1500 
  5 N       -3.1160     2.0270    -0.2600 N.am  1 <1>  -0.5470 
  6 C       -1.8040     2.9330     1.6350 C.ar  1 <1>  -0.1500 
  7 C        0.5330     3.3330     1.3320 C.ar  1 <1>   0.1900 
  8 C       -4.3630     1.8000     0.2560 C.2   1 <1>   0.5690 
  9 C       -0.5870     3.3610     2.1440 C.ar  1 <1>  -0.1500 
 10 F        1.6760     3.7370     1.8190 F     1 <1>  -0.1900 
 11 O       -4.6400     1.9620     1.4190 O.2   1 <1>  -0.5700 
 12 C       -5.4440     1.3020    -0.7030 C.3   1 <1>  -0.0190 
 13 C       -6.7560     2.0980    -0.5550 C.3   1 <1>  -0.1600 
 14 C       -5.7100    -0.2010    -0.4990 C.3   1 <1>  -0.1600 
 15 C       -7.8540     1.5650    -1.4790 C.3   1 <1>   0.1400 
 16 C       -6.8080    -0.7140    -1.4350 C.3   1 <1>   0.1400 
 17 N       -8.0370     0.1040    -1.2520 N.am  1 <1>  -0.6600 
 18 C       -9.2390    -0.4640    -0.8730 C.2   1 <1>   0.5440 
 19 O       -9.3220    -1.6740    -0.7740 O.2   1 <1>  -0.5700 
 20 C      -10.4040     0.3520    -0.5920 C.ar  1 <1>   0.0860 
 21 C      -10.6870     0.8300     0.6920 C.ar  1 <1>  -0.1430 
 22 C      -11.2730     0.6940    -1.6280 C.ar  1 <1>  -0.1500 
 23 C      -11.7940     1.6350     0.9100 C.ar  1 <1>  -0.1500 
 24 C       -9.7850     0.4630     1.8640 C.3   1 <1>  -0.0970 
 25 C      -12.3770     1.4960    -1.4070 C.ar  1 <1>  -0.1500 
 26 C      -12.6370     1.9700    -0.1350 C.ar  1 <1>  -0.1500 
 27 H        1.3640     2.8780    -0.5910 H     1 <1>   0.1500 
 28 H       -3.0150     1.8000    -1.2500 H     1 <1>   0.3700 
 29 H       -2.6680     2.9630     2.2740 H     1 <1>   0.1500 
 30 H       -0.5060     3.7130     3.1580 H     1 <1>   0.1500 
 31 H       -5.0930     1.4420    -1.7100 H     1 <1>   0.0800 
 32 H       -6.5780     3.1350    -0.7760 H     1 <1>   0.0800 
 33 H       -7.1040     2.0410     0.4620 H     1 <1>   0.0800 
 34 H       -6.0130    -0.3820     0.5180 H     1 <1>   0.0800 
 35 H       -4.8080    -0.7600    -0.6740 H     1 <1>   0.0800 
 36 H       -7.5760     1.7240    -2.5070 H     1 <1>   0.0800 
 37 H       -8.7660     2.1060    -1.2960 H     1 <1>   0.0800 
 38 H       -7.0020    -1.7520    -1.2210 H     1 <1>   0.0800 
 39 H       -6.4880    -0.6420    -2.4600 H     1 <1>   0.0800 
 40 H      -11.0710     0.3200    -2.6160 H     1 <1>   0.1500 
 41 H      -12.0110     2.0040     1.8970 H     1 <1>   0.1500 
 42 H       -8.7870     0.8220     1.6930 H     1 <1>   0.0800 
 43 H       -9.7500    -0.6070     1.9750 H     1 <1>   0.0800 
 44 H      -10.1470     0.8870     2.7820 H     1 <1>   0.0800 
 45 H      -13.0340     1.7490    -2.2210 H     1 <1>   0.1500 
 46 H      -13.4950     2.5950     0.0430 H     1 <1>   0.1500 
@<TRIPOS>BOND
  1   1   2  1   
  2   2   3  ar  
  3   2   4  ar  
  4   3   5  1   
  5   3   6  ar  
  6   4   7  ar  
  7   4  27  1   
  8   5   8  am  
  9   5  28  1   
 10   6   9  ar  
 11   6  29  1   
 12   7   9  ar  
 13   7  10  1   
 14   8  11  2   
 15   8  12  1   
 16   9  30  1   
 17  12  13  1   
 18  12  14  1   
 19  12  31  1   
 20  13  15  1   
 21  13  32  1   
 22  13  33  1   
 23  14  16  1   
 24  14  34  1   
 25  14  35  1   
 26  15  17  1   
 27  15  36  1   
 28  15  37  1   
 29  16  17  1   
 30  16  38  1   
 31  16  39  1   
 32  17  18  am  
 33  18  19  2   
 34  18  20  1   
 35  20  21  ar  
 36  20  22  ar  
 37  21  23  ar  
 38  21  24  1   
 39  22  25  ar  
 40  22  40  1   
 41  23  26  ar  
 42  23  41  1   
 43  24  42  1   
 44  24  43  1   
 45  24  44  1   
 46  25  26  ar  
 47  25  45  1   
 48  26  46  1   
@<TRIPOS>SUBSTRUCTURE
  1 ****  12 GROUP 4 **** **** 0

# MOE 2024.06 (io_trps.svl 2023.06)
