@<TRIPOS>MOLECULE
NONAME
45 47 1 0 0 
SMALL
USER_CHARGES


@<TRIPOS>ATOM
  1 O       -0.0150    -0.4940     0.2870 O.3   1 <1>  -0.3630 
  2 C       -1.2280    -1.0740     0.4560 C.ar  1 <1>   0.0830 
  3 C        0.8830    -0.9280    -0.7120 C.3   1 <1>   0.2640 
  4 C       -1.9820    -0.6280     1.5270 C.ar  1 <1>  -0.1500 
  5 C       -1.7380    -2.0690    -0.3710 C.ar  1 <1>  -0.1500 
  6 C        2.1490    -0.0880    -0.6410 C.ar  1 <1>  -0.1440 
  7 C       -3.2340    -1.1590     1.7760 C.ar  1 <1>  -0.1500 
  8 C       -2.9930    -2.6000    -0.1230 C.ar  1 <1>  -0.1500 
  9 C        2.0900     1.2790    -0.8660 C.ar  1 <1>  -0.1500 
 10 C        3.3730    -0.6770    -0.3580 C.ar  1 <1>  -0.1500 
 11 C       -3.7510    -2.1450     0.9470 C.ar  1 <1>  -0.1430 
 12 C        3.2390     2.0480    -0.8150 C.ar  1 <1>  -0.1500 
 13 C        4.5230     0.0920    -0.3060 C.ar  1 <1>  -0.1500 
 14 C       -5.1330    -2.7130     1.2100 C.3   1 <1>   0.4860 
 15 C        4.4570     1.4550    -0.5360 C.ar  1 <1>  -0.1500 
 16 N       -6.0820    -2.1480     0.2130 N.4   1 <1>  -0.9590 
 17 C       -6.2150    -0.6660     0.3550 C.3   1 <1>   0.3430 
 18 C       -7.4020    -2.8390     0.2640 C.3   1 <1>   0.3430 
 19 C       -7.0890    -0.1170    -0.7750 C.3   1 <1>  -0.1600 
 20 C       -8.2940    -2.3300    -0.8690 C.3   1 <1>  -0.1600 
 21 C       -8.4600    -0.8050    -0.8220 C.3   1 <1>  -0.1600 
 22 H        0.4130    -0.8010    -1.6710 H     1 <1>   0.0800 
 23 H        1.1020    -1.9670    -0.5410 H     1 <1>   0.0800 
 24 H       -1.5740     0.1370     2.1650 H     1 <1>   0.1500 
 25 H       -1.1750    -2.4410    -1.2070 H     1 <1>   0.1500 
 26 H       -3.7910    -0.7930     2.6230 H     1 <1>   0.1500 
 27 H       -3.3630    -3.3750    -0.7740 H     1 <1>   0.1500 
 28 H        1.1440     1.7470    -1.0780 H     1 <1>   0.1500 
 29 H        3.4390    -1.7350    -0.1740 H     1 <1>   0.1500 
 30 H        3.1840     3.1080    -0.9910 H     1 <1>   0.1500 
 31 H        5.4700    -0.3700    -0.0860 H     1 <1>   0.1500 
 32 H       -5.4490    -2.4650     2.2100 H     1 <1>   0.0800 
 33 H       -5.0960    -3.7860     1.1200 H     1 <1>   0.0800 
 34 H        5.3510     2.0520    -0.4960 H     1 <1>   0.1500 
 35 H       -5.6700    -2.3120    -0.7130 H     1 <1>   0.4500 
 36 H       -5.2440    -0.1990     0.3100 H     1 <1>   0.0800 
 37 H       -6.6640    -0.4280     1.3050 H     1 <1>   0.0800 
 38 H       -7.8800    -2.6440     1.2110 H     1 <1>   0.0800 
 39 H       -7.2690    -3.9040     0.1630 H     1 <1>   0.0800 
 40 H       -6.5800    -0.2470    -1.7140 H     1 <1>   0.0800 
 41 H       -7.2270     0.9400    -0.6290 H     1 <1>   0.0800 
 42 H       -9.2620    -2.7940    -0.7910 H     1 <1>   0.0800 
 43 H       -7.8740    -2.6240    -1.8160 H     1 <1>   0.0800 
 44 H       -9.0080    -0.4690    -1.6870 H     1 <1>   0.0800 
 45 H       -9.0290    -0.5320     0.0510 H     1 <1>   0.0800 
@<TRIPOS>BOND
  1   1   2  1   
  2   1   3  1   
  3   2   4  ar  
  4   2   5  ar  
  5   3   6  1   
  6   3  22  1   
  7   3  23  1   
  8   4   7  ar  
  9   4  24  1   
 10   5   8  ar  
 11   5  25  1   
 12   6   9  ar  
 13   6  10  ar  
 14   7  11  ar  
 15   7  26  1   
 16   8  11  ar  
 17   8  27  1   
 18   9  12  ar  
 19   9  28  1   
 20  10  13  ar  
 21  10  29  1   
 22  11  14  1   
 23  12  15  ar  
 24  12  30  1   
 25  13  15  ar  
 26  13  31  1   
 27  14  16  1   
 28  14  32  1   
 29  14  33  1   
 30  15  34  1   
 31  16  17  1   
 32  16  18  1   
 33  16  35  1   
 34  17  19  1   
 35  17  36  1   
 36  17  37  1   
 37  18  20  1   
 38  18  38  1   
 39  18  39  1   
 40  19  21  1   
 41  19  40  1   
 42  19  41  1   
 43  20  21  1   
 44  20  42  1   
 45  20  43  1   
 46  21  44  1   
 47  21  45  1   
@<TRIPOS>SUBSTRUCTURE
  1 ****   2 GROUP 4 **** **** 0

# MOE 2024.06 (io_trps.svl 2023.06)
