@<TRIPOS>MOLECULE
NONAME
42 44 1 0 0 
SMALL
USER_CHARGES


@<TRIPOS>ATOM
  1 S       -1.2070    -0.7750    -1.8660 S.3   1 <1>  -0.2860 
  2 C       -1.4620    -1.5570    -0.2670 C.2   1 <1>   0.2420 
  3 C        0.5820    -1.0810    -2.2610 C.3   1 <1>   0.1310 
  4 N       -0.7620    -2.5260     0.1770 N.2   1 <1>  -0.3380 
  5 N       -2.4000    -1.1790     0.5910 N.pl3 1 <1>   0.5930 
  6 C        1.4070     0.1290    -1.8350 C.2   1 <1>   0.5690 
  7 N       -1.2700    -2.7740     1.3800 N.2   1 <1>   0.0000 
  8 N       -2.2450    -1.9760     1.6450 N.2   1 <1>  -0.4180 
  9 C       -3.3370    -0.1120     0.4960 C.ar  1 <1>  -0.0230 
 10 O        1.6220     0.9600    -2.6870 O.2   1 <1>  -0.5700 
 11 N        1.8770     0.2920    -0.5520 N.am  1 <1>  -0.6600 
 12 C       -4.6570    -0.3680     0.1160 C.ar  1 <1>  -0.1430 
 13 C       -2.9400     1.2000     0.7730 C.ar  1 <1>  -0.1430 
 14 C        1.8550    -0.7400     0.5320 C.3   1 <1>   0.1400 
 15 C        2.4650     1.5970    -0.1130 C.3   1 <1>   0.1400 
 16 C       -5.5580     0.6790     0.0150 C.ar  1 <1>  -0.1500 
 17 C       -5.1330    -1.7820    -0.1950 C.3   1 <1>  -0.0970 
 18 C       -3.8570     2.2310     0.6640 C.ar  1 <1>  -0.1500 
 19 C       -1.5110     1.5320     1.1910 C.3   1 <1>  -0.0970 
 20 C        3.1920    -0.7890     1.2930 C.3   1 <1>   0.1200 
 21 C        3.7730     1.3870     0.6650 C.3   1 <1>   0.1200 
 22 C       -5.1610     1.9740     0.2870 C.ar  1 <1>  -0.1500 
 23 O        3.5750     0.4870     1.7160 O.3   1 <1>  -0.5600 
 24 H        0.6410    -1.2000    -3.3270 H     1 <1>   0.0800 
 25 H        0.8930    -1.9890    -1.7860 H     1 <1>   0.0800 
 26 H        1.6760    -1.7160     0.1280 H     1 <1>   0.0800 
 27 H        1.0660    -0.5110     1.2270 H     1 <1>   0.0800 
 28 H        1.7600     2.1050     0.5210 H     1 <1>   0.0800 
 29 H        2.6610     2.2330    -0.9590 H     1 <1>   0.0800 
 30 H       -6.5780     0.4950    -0.2770 H     1 <1>   0.1500 
 31 H       -4.5690    -2.1940    -1.0130 H     1 <1>   0.0800 
 32 H       -6.1730    -1.7890    -0.4680 H     1 <1>   0.0800 
 33 H       -5.0100    -2.4130     0.6690 H     1 <1>   0.0800 
 34 H       -3.5650     3.2460     0.8710 H     1 <1>   0.1500 
 35 H       -1.2040     0.9080     2.0120 H     1 <1>   0.0800 
 36 H       -1.4320     2.5560     1.5080 H     1 <1>   0.0800 
 37 H       -0.8390     1.3850     0.3650 H     1 <1>   0.0800 
 38 H        3.9690    -1.1920     0.6680 H     1 <1>   0.0800 
 39 H        3.0970    -1.4090     2.1670 H     1 <1>   0.0800 
 40 H        4.1070     2.3180     1.0870 H     1 <1>   0.0800 
 41 H        4.5430     1.0050     0.0170 H     1 <1>   0.0800 
 42 H       -5.8680     2.7820     0.2050 H     1 <1>   0.1500 
@<TRIPOS>BOND
  1   1   2  1   
  2   1   3  1   
  3   2   4  2   
  4   2   5  1   
  5   3   6  1   
  6   3  24  1   
  7   3  25  1   
  8   4   7  1   
  9   5   8  1   
 10   5   9  1   
 11   6  10  2   
 12   6  11  am  
 13   7   8  2   
 14   9  12  ar  
 15   9  13  ar  
 16  11  14  1   
 17  11  15  1   
 18  12  16  ar  
 19  12  17  1   
 20  13  18  ar  
 21  13  19  1   
 22  14  20  1   
 23  14  26  1   
 24  14  27  1   
 25  15  21  1   
 26  15  28  1   
 27  15  29  1   
 28  16  22  ar  
 29  16  30  1   
 30  17  31  1   
 31  17  32  1   
 32  17  33  1   
 33  18  22  ar  
 34  18  34  1   
 35  19  35  1   
 36  19  36  1   
 37  19  37  1   
 38  20  23  1   
 39  20  38  1   
 40  20  39  1   
 41  21  23  1   
 42  21  40  1   
 43  21  41  1   
 44  22  42  1   
@<TRIPOS>SUBSTRUCTURE
  1 ****   2 GROUP 4 **** **** 0

# MOE 2024.06 (io_trps.svl 2023.06)
