@<TRIPOS>MOLECULE
NONAME
40 41 1 0 0 
SMALL
USER_CHARGES


@<TRIPOS>ATOM
  1 N       -0.0730    -0.3140    -0.8300 N.pl3 1 <1>  -0.8380 
  2 C       -1.1940     0.4100    -0.4240 C.ar  1 <1>   0.1000 
  3 C        1.1710     0.3930    -1.2590 C.3   1 <1>   0.2090 
  4 C        0.0960    -1.6960    -0.2940 C.3   1 <1>   0.2090 
  5 C       -1.0980     1.5090     0.4250 C.ar  1 <1>  -0.1500 
  6 C       -2.4530     0.0230    -0.8650 C.ar  1 <1>  -0.1500 
  7 C        2.2870     0.2780    -0.1980 C.3   1 <1>   0.3430 
  8 C        1.2210    -1.7530     0.7610 C.3   1 <1>   0.3430 
  9 C       -2.2290     2.1970     0.8230 C.ar  1 <1>  -0.1500 
 10 C       -3.5880     0.7070    -0.4690 C.ar  1 <1>  -0.1500 
 11 N        2.5050    -1.1380     0.2710 N.4   1 <1>  -0.9590 
 12 C       -3.4770     1.7970     0.3770 C.ar  1 <1>  -0.1500 
 13 C        3.5860    -1.2320     1.2750 C.3   1 <1>   0.4810 
 14 C        4.8870    -0.9190     0.5580 C.2   1 <1>  -0.2760 
 15 C        5.3860    -1.7410    -0.3780 C.2   1 <1>  -0.2880 
 16 C        5.5240     0.3820     1.0440 C.3   1 <1>  -0.1020 
 17 C        6.6660    -1.5980    -1.1910 C.3   1 <1>  -0.1020 
 18 H        1.5110    -0.0330    -2.1870 H     1 <1>   0.0800 
 19 H        0.9530     1.4310    -1.4450 H     1 <1>   0.0800 
 20 H       -0.8260    -2.0260     0.1550 H     1 <1>   0.0800 
 21 H        0.3210    -2.3650    -1.1070 H     1 <1>   0.0800 
 22 H       -0.1410     1.8300     0.7840 H     1 <1>   0.1500 
 23 H       -2.5390    -0.8160    -1.5300 H     1 <1>   0.1500 
 24 H        2.0160     0.8960     0.6410 H     1 <1>   0.0800 
 25 H        3.2010     0.6690    -0.6140 H     1 <1>   0.0800 
 26 H        1.3870    -2.7810     1.0380 H     1 <1>   0.0800 
 27 H        0.8800    -1.2250     1.6370 H     1 <1>   0.0800 
 28 H       -2.1460     3.0460     1.4800 H     1 <1>   0.1500 
 29 H       -4.5560     0.3970    -0.8210 H     1 <1>   0.1500 
 30 H        2.8390    -1.6680    -0.5430 H     1 <1>   0.4500 
 31 H       -4.3590     2.3320     0.6850 H     1 <1>   0.1500 
 32 H        3.4170    -0.5470     2.0900 H     1 <1>   0.0800 
 33 H        3.6360    -2.2340     1.6690 H     1 <1>   0.0800 
 34 H        4.8860    -2.6570    -0.6510 H     1 <1>   0.1500 
 35 H        5.7520     0.3110     2.0940 H     1 <1>   0.0800 
 36 H        4.8610     1.2150     0.8960 H     1 <1>   0.0800 
 37 H        6.4410     0.6050     0.5340 H     1 <1>   0.0800 
 38 H        6.4340    -1.5910    -2.2410 H     1 <1>   0.0800 
 39 H        7.3140    -2.4350    -0.9950 H     1 <1>   0.0800 
 40 H        7.2090    -0.7010    -0.9650 H     1 <1>   0.0800 
@<TRIPOS>BOND
  1   1   2  1   
  2   1   3  1   
  3   1   4  1   
  4   2   5  ar  
  5   2   6  ar  
  6   3   7  1   
  7   3  18  1   
  8   3  19  1   
  9   4   8  1   
 10   4  20  1   
 11   4  21  1   
 12   5   9  ar  
 13   5  22  1   
 14   6  10  ar  
 15   6  23  1   
 16   7  11  1   
 17   7  24  1   
 18   7  25  1   
 19   8  11  1   
 20   8  26  1   
 21   8  27  1   
 22   9  12  ar  
 23   9  28  1   
 24  10  12  ar  
 25  10  29  1   
 26  11  13  1   
 27  11  30  1   
 28  12  31  1   
 29  13  14  1   
 30  13  32  1   
 31  13  33  1   
 32  14  15  2   
 33  14  16  1   
 34  15  17  1   
 35  15  34  1   
 36  16  35  1   
 37  16  36  1   
 38  16  37  1   
 39  17  38  1   
 40  17  39  1   
 41  17  40  1   
@<TRIPOS>SUBSTRUCTURE
  1 ****   7 GROUP 4 **** **** 0

# MOE 2024.06 (io_trps.svl 2023.06)
