@<TRIPOS>MOLECULE
NONAME
37 39 1 0 0 
SMALL
USER_CHARGES


@<TRIPOS>ATOM
  1 S       -0.5870    -0.8070     1.1410 S.o2  1 <1>   1.4470 
  2 O       -0.3720     0.6180     1.2560 O.2   1 <1>  -0.6500 
  3 O       -1.4970    -1.4650     2.0550 O.2   1 <1>  -0.6500 
  4 N       -1.1800    -1.0840    -0.4220 N.am  1 <1>  -0.8490 
  5 C        1.0150    -1.6590     1.1220 C.ar  1 <1>  -0.0090 
  6 C       -2.3240    -0.2100    -0.7220 C.3   1 <1>   0.1960 
  7 C       -1.5710    -2.4870    -0.6410 C.3   1 <1>   0.1960 
  8 C        1.9650    -1.3800     0.1710 C.ar  1 <1>  -0.1500 
  9 C        1.3180    -2.6370     2.0860 C.ar  1 <1>  -0.1500 
 10 C       -2.8660    -0.4710    -2.1400 C.3   1 <1>   0.1200 
 11 C       -2.1180    -2.6890    -2.0660 C.3   1 <1>   0.1200 
 12 C        3.2090    -2.0380     0.1250 C.ar  1 <1>   0.0000 
 13 C        2.5170    -3.2960     2.0730 C.ar  1 <1>  -0.1500 
 14 O       -3.1910    -1.8230    -2.3060 O.3   1 <1>  -0.5600 
 15 C        3.4910    -3.0190     1.0960 C.ar  1 <1>   0.0000 
 16 C        4.1810    -1.7540    -0.8560 C.ar  1 <1>  -0.1500 
 17 C        4.7340    -3.6800     1.0470 C.ar  1 <1>  -0.1500 
 18 C        5.3830    -2.4090    -0.8840 C.ar  1 <1>  -0.1430 
 19 C        5.6570    -3.3840     0.0830 C.ar  1 <1>  -0.1500 
 20 C        6.4320    -2.1050    -1.9390 C.3   1 <1>  -0.0970 
 21 H       -2.0200     0.8200    -0.6510 H     1 <1>   0.0800 
 22 H       -3.1130    -0.3740    -0.0060 H     1 <1>   0.0800 
 23 H       -2.3300    -2.7800     0.0650 H     1 <1>   0.0800 
 24 H       -0.7170    -3.1280    -0.5010 H     1 <1>   0.0800 
 25 H        1.7610    -0.6310    -0.5750 H     1 <1>   0.1500 
 26 H        0.5840    -2.8610     2.8420 H     1 <1>   0.1500 
 27 H       -2.1310    -0.2000    -2.8780 H     1 <1>   0.0800 
 28 H       -3.7580     0.1050    -2.3090 H     1 <1>   0.0800 
 29 H       -2.4750    -3.6960    -2.1890 H     1 <1>   0.0800 
 30 H       -1.3510    -2.5000    -2.7960 H     1 <1>   0.0800 
 31 H        2.7360    -4.0420     2.8170 H     1 <1>   0.1500 
 32 H        3.9530    -1.0010    -1.5890 H     1 <1>   0.1500 
 33 H        4.9470    -4.4270     1.7900 H     1 <1>   0.1500 
 34 H        6.6030    -3.8960     0.0570 H     1 <1>   0.1500 
 35 H        6.0890    -1.3420    -2.6130 H     1 <1>   0.0800 
 36 H        6.6480    -2.9930    -2.5070 H     1 <1>   0.0800 
 37 H        7.3360    -1.7650    -1.4670 H     1 <1>   0.0800 
@<TRIPOS>BOND
  1   1   2  2   
  2   1   3  2   
  3   1   4  am  
  4   1   5  1   
  5   4   6  1   
  6   4   7  1   
  7   5   8  ar  
  8   5   9  ar  
  9   6  10  1   
 10   6  21  1   
 11   6  22  1   
 12   7  11  1   
 13   7  23  1   
 14   7  24  1   
 15   8  12  ar  
 16   8  25  1   
 17   9  13  ar  
 18   9  26  1   
 19  10  14  1   
 20  10  27  1   
 21  10  28  1   
 22  11  14  1   
 23  11  29  1   
 24  11  30  1   
 25  12  15  ar  
 26  12  16  ar  
 27  13  15  ar  
 28  13  31  1   
 29  15  17  ar  
 30  16  18  ar  
 31  16  32  1   
 32  17  19  ar  
 33  17  33  1   
 34  18  19  ar  
 35  18  20  1   
 36  19  34  1   
 37  20  35  1   
 38  20  36  1   
 39  20  37  1   
@<TRIPOS>SUBSTRUCTURE
  1 ****   8 GROUP 4 **** **** 0

# MOE 2024.06 (io_trps.svl 2023.06)
