@<TRIPOS>MOLECULE
NONAME
39 40 1 0 0 
SMALL
USER_CHARGES


@<TRIPOS>ATOM
  1 F       -0.1830    -0.1720    -0.8000 F     1 <1>  -0.1900 
  2 C       -1.1490     0.6580    -0.4980 C.ar  1 <1>   0.1900 
  3 C       -0.8910     1.9500    -0.0210 C.ar  1 <1>   0.0830 
  4 C       -2.4370     0.1870    -0.6760 C.ar  1 <1>  -0.1500 
  5 O        0.3290     2.5200     0.1950 O.3   1 <1>  -0.3630 
  6 C       -1.9820     2.7550     0.2710 C.ar  1 <1>  -0.1500 
  7 C       -3.5080     1.0120    -0.3770 C.ar  1 <1>  -0.1500 
  8 C        1.5440     1.8450    -0.0480 C.3   1 <1>   0.1200 
  9 C       -3.2780     2.2940     0.0960 C.ar  1 <1>  -0.1500 
 10 C        2.6880     2.7900     0.3050 C.3   1 <1>   0.1200 
 11 O        3.8990     2.1370     0.0660 O.3   1 <1>  -0.5600 
 12 C        5.0260     2.8960     0.3480 C.3   1 <1>   0.1200 
 13 C        6.2490     2.0210     0.0490 C.3   1 <1>   0.3430 
 14 N        7.5440     2.7240     0.3240 N.4   1 <1>  -0.9590 
 15 C        7.8150     3.8730    -0.5770 C.3   1 <1>   0.3430 
 16 C        8.7100     1.8180     0.1780 C.3   1 <1>   0.3430 
 17 C        9.3200     4.0830    -0.4810 C.3   1 <1>  -0.1600 
 18 C        9.8980     2.7560     0.0170 C.3   1 <1>  -0.1600 
 19 H       -2.5970    -0.8100    -1.0440 H     1 <1>   0.1500 
 20 H       -1.8120     3.7510     0.6390 H     1 <1>   0.1500 
 21 H       -4.5160     0.6590    -0.5110 H     1 <1>   0.1500 
 22 H        1.5830     1.5810    -1.0900 H     1 <1>   0.0800 
 23 H        1.5760     0.9690     0.5750 H     1 <1>   0.0800 
 24 H       -4.1100     2.9360     0.3300 H     1 <1>   0.1500 
 25 H        2.6350     3.0560     1.3470 H     1 <1>   0.0800 
 26 H        2.6400     3.6710    -0.3130 H     1 <1>   0.0800 
 27 H        4.9980     3.1720     1.3890 H     1 <1>   0.0800 
 28 H        5.0090     3.7700    -0.2800 H     1 <1>   0.0800 
 29 H        6.2130     1.7190    -0.9840 H     1 <1>   0.0800 
 30 H        6.1850     1.1370     0.6620 H     1 <1>   0.0800 
 31 H        7.5500     3.0700     1.2930 H     1 <1>   0.4500 
 32 H        7.2700     4.7550    -0.2800 H     1 <1>   0.0800 
 33 H        7.5530     3.6130    -1.5900 H     1 <1>   0.0800 
 34 H        8.6000     1.2220    -0.7130 H     1 <1>   0.0800 
 35 H        8.8240     1.1700     1.0330 H     1 <1>   0.0800 
 36 H        9.5360     4.8740     0.2170 H     1 <1>   0.0800 
 37 H        9.7220     4.3590    -1.4410 H     1 <1>   0.0800 
 38 H       10.6110     2.3430    -0.6770 H     1 <1>   0.0800 
 39 H       10.3880     2.8910     0.9670 H     1 <1>   0.0800 
@<TRIPOS>BOND
  1   1   2  1   
  2   2   3  ar  
  3   2   4  ar  
  4   3   5  1   
  5   3   6  ar  
  6   4   7  ar  
  7   4  19  1   
  8   5   8  1   
  9   6   9  ar  
 10   6  20  1   
 11   7   9  ar  
 12   7  21  1   
 13   8  10  1   
 14   8  22  1   
 15   8  23  1   
 16   9  24  1   
 17  10  11  1   
 18  10  25  1   
 19  10  26  1   
 20  11  12  1   
 21  12  13  1   
 22  12  27  1   
 23  12  28  1   
 24  13  14  1   
 25  13  29  1   
 26  13  30  1   
 27  14  15  1   
 28  14  16  1   
 29  14  31  1   
 30  15  17  1   
 31  15  32  1   
 32  15  33  1   
 33  16  18  1   
 34  16  34  1   
 35  16  35  1   
 36  17  18  1   
 37  17  36  1   
 38  17  37  1   
 39  18  38  1   
 40  18  39  1   
@<TRIPOS>SUBSTRUCTURE
  1 ****  10 GROUP 4 **** **** 0

# MOE 2024.06 (io_trps.svl 2023.06)
