@<TRIPOS>MOLECULE
NONAME
39 40 1 0 0 
SMALL
USER_CHARGES


@<TRIPOS>ATOM
  1 F       -1.2030     0.4380     2.2730 F     1 <1>  -0.3400 
  2 C       -2.3380     0.3190     1.5840 C.3   1 <1>   1.0200 
  3 F       -2.5460    -0.9950     1.4950 F     1 <1>  -0.3400 
  4 F       -3.2680     0.7680     2.4110 F     1 <1>  -0.3400 
  5 C       -2.2570     1.0200     0.1930 C.3   1 <1>   0.6800 
  6 F       -3.1550     0.5480    -0.6800 F     1 <1>  -0.3400 
  7 F       -1.1030     0.6360    -0.3830 F     1 <1>  -0.3400 
  8 C       -2.2890     2.5730     0.2330 C.3   1 <1>   0.6800 
  9 F       -1.3520     2.9950     1.0920 F     1 <1>  -0.3400 
 10 F       -1.8170     3.0210    -0.9400 F     1 <1>  -0.3400 
 11 C       -3.6020     3.3970     0.5560 C.3   1 <1>   0.5800 
 12 O       -3.9880     3.3400     1.8940 O.3   1 <1>  -0.6800 
 13 N       -4.7880     3.0790    -0.3000 N.am  1 <1>  -0.2980 
 14 C       -3.4090     4.9030     0.2580 C.3   1 <1>  -0.0990 
 15 N       -5.0120     4.0920    -1.2160 N.2   1 <1>  -0.5120 
 16 C       -5.6570     2.0260    -0.0670 C.2   1 <1>   0.5690 
 17 C       -4.2860     5.0800    -0.9500 C.2   1 <1>   0.3280 
 18 O       -5.3940     1.1170     0.6860 O.2   1 <1>  -0.5700 
 19 C       -6.9920     1.9770    -0.7940 C.3   1 <1>   0.0440 
 20 C       -4.2470     6.3810    -1.7180 C.3   1 <1>  -0.1790 
 21 C       -8.0330     2.8530    -0.1080 C.ar  1 <1>  -0.1440 
 22 C       -8.3850     4.0820    -0.6440 C.ar  1 <1>  -0.1500 
 23 C       -8.6310     2.4260     1.0670 C.ar  1 <1>  -0.1500 
 24 C       -9.3300     4.8740    -0.0140 C.ar  1 <1>  -0.1500 
 25 C       -9.5770     3.2160     1.6980 C.ar  1 <1>  -0.1500 
 26 C       -9.9270     4.4410     1.1560 C.ar  1 <1>  -0.1500 
 27 H       -3.2880     3.6910     2.4760 H     1 <1>   0.4000 
 28 H       -2.3940     5.1750     0.0360 H     1 <1>   0.0800 
 29 H       -3.7800     5.5280     1.0500 H     1 <1>   0.0800 
 30 H       -7.3400     0.9610    -0.8070 H     1 <1>   0.0800 
 31 H       -6.8580     2.2810    -1.8150 H     1 <1>   0.0800 
 32 H       -4.5230     7.1950    -1.0740 H     1 <1>   0.0800 
 33 H       -4.9400     6.3390    -2.5390 H     1 <1>   0.0800 
 34 H       -3.2600     6.5510    -2.1060 H     1 <1>   0.0800 
 35 H       -7.9200     4.4290    -1.5500 H     1 <1>   0.1500 
 36 H       -8.3570     1.4780     1.4980 H     1 <1>   0.1500 
 37 H       -9.5990     5.8260    -0.4350 H     1 <1>   0.1500 
 38 H      -10.0370     2.8790     2.6100 H     1 <1>   0.1500 
 39 H      -10.6620     5.0550     1.6470 H     1 <1>   0.1500 
@<TRIPOS>BOND
  1   1   2  1   
  2   2   3  1   
  3   2   4  1   
  4   2   5  1   
  5   5   6  1   
  6   5   7  1   
  7   5   8  1   
  8   8   9  1   
  9   8  10  1   
 10   8  11  1   
 11  11  12  1   
 12  11  13  1   
 13  11  14  1   
 14  12  27  1   
 15  13  15  1   
 16  13  16  am  
 17  14  17  1   
 18  14  28  1   
 19  14  29  1   
 20  15  17  2   
 21  16  18  2   
 22  16  19  1   
 23  17  20  1   
 24  19  21  1   
 25  19  30  1   
 26  19  31  1   
 27  20  32  1   
 28  20  33  1   
 29  20  34  1   
 30  21  22  ar  
 31  21  23  ar  
 32  22  24  ar  
 33  22  35  1   
 34  23  25  ar  
 35  23  36  1   
 36  24  26  ar  
 37  24  37  1   
 38  25  26  ar  
 39  25  38  1   
 40  26  39  1   
@<TRIPOS>SUBSTRUCTURE
  1 ****  13 GROUP 4 **** **** 0

# MOE 2024.06 (io_trps.svl 2023.06)
