@<TRIPOS>MOLECULE
NONAME
33 35 1 0 0 
SMALL
USER_CHARGES


@<TRIPOS>ATOM
  1 O       -1.1840    -0.2300    -2.2800 O.2   1 <1>  -0.5700 
  2 C       -1.7110    -0.4670    -1.2140 C.2   1 <1>   0.5690 
  3 N       -1.6760    -1.7310    -0.6660 N.am  1 <1>  -0.6600 
  4 C       -2.4980     0.6480    -0.5680 C.3   1 <1>  -0.1250 
  5 C       -2.4760    -2.0870     0.5410 C.3   1 <1>   0.5800 
  6 C       -1.0290    -2.8540    -1.4060 C.3   1 <1>   0.0600 
  7 C       -1.5570     1.6160     0.0940 C.2   1 <1>   0.9060 
  8 C       -3.5390     0.1390     0.4360 C.3   1 <1>   0.0630 
  9 O       -3.6510    -2.7180     0.0700 O.3   1 <1>  -0.3630 
 10 C       -2.8790    -0.8680     1.3720 C.3   1 <1>  -0.1600 
 11 C       -1.7380    -3.0890     1.4300 C.3   1 <1>  -0.2400 
 12 O       -1.8640     2.8130     0.0740 O.co2 1 <1>  -0.9000 
 13 O       -0.5800     1.2090     0.7350 O.co2 1 <1>  -0.9000 
 14 C       -4.6790    -0.5720    -0.2880 C.ar  1 <1>  -0.1440 
 15 C       -4.6640    -1.9600    -0.4270 C.ar  1 <1>   0.0820 
 16 C       -5.7360     0.1520    -0.8130 C.ar  1 <1>  -0.1500 
 17 C       -5.7030    -2.6050    -1.0780 C.ar  1 <1>  -0.1500 
 18 C       -6.7730    -0.4950    -1.4640 C.ar  1 <1>  -0.1500 
 19 C       -6.7580    -1.8740    -1.5970 C.ar  1 <1>  -0.1500 
 20 H       -3.0000     1.1900    -1.3450 H     1 <1>   0.0800 
 21 H       -0.7220    -2.5440    -2.3900 H     1 <1>   0.0800 
 22 H       -1.7240    -3.6690    -1.5120 H     1 <1>   0.0800 
 23 H       -0.1590    -3.1860    -0.8700 H     1 <1>   0.0800 
 24 H       -3.9250     0.9680     1.0040 H     1 <1>   0.0800 
 25 H       -2.0190    -0.4480     1.8590 H     1 <1>   0.0800 
 26 H       -3.5710    -1.1650     2.1390 H     1 <1>   0.0800 
 27 H       -2.3060    -3.2700     2.3240 H     1 <1>   0.0800 
 28 H       -0.7840    -2.6820     1.7130 H     1 <1>   0.0800 
 29 H       -1.5950    -4.0250     0.9250 H     1 <1>   0.0800 
 30 H       -5.7500     1.2250    -0.7160 H     1 <1>   0.1500 
 31 H       -5.6770    -3.6740    -1.1750 H     1 <1>   0.1500 
 32 H       -7.5890     0.0760    -1.8700 H     1 <1>   0.1500 
 33 H       -7.5620    -2.3760    -2.1040 H     1 <1>   0.1500 
@<TRIPOS>BOND
  1   1   2  2   
  2   2   3  am  
  3   2   4  1   
  4   3   5  1   
  5   3   6  1   
  6   4   7  1   
  7   4   8  1   
  8   4  20  1   
  9   5   9  1   
 10   5  10  1   
 11   5  11  1   
 12   6  21  1   
 13   6  22  1   
 14   6  23  1   
 15   7  12  ar  
 16   7  13  ar  
 17   8  10  1   
 18   8  14  1   
 19   8  24  1   
 20   9  15  1   
 21  10  25  1   
 22  10  26  1   
 23  11  27  1   
 24  11  28  1   
 25  11  29  1   
 26  14  15  ar  
 27  14  16  ar  
 28  15  17  ar  
 29  16  18  ar  
 30  16  30  1   
 31  17  19  ar  
 32  17  31  1   
 33  18  19  ar  
 34  18  32  1   
 35  19  33  1   
@<TRIPOS>SUBSTRUCTURE
  1 ****   8 GROUP 4 **** **** 0

# MOE 2024.06 (io_trps.svl 2023.06)
