@<TRIPOS>MOLECULE
NONAME
43 46 1 0 0 
SMALL
USER_CHARGES


@<TRIPOS>ATOM
  1 O        3.0510    -0.2850     1.3070 O.3   1 <1>  -0.6800 
  2 C        2.1450     0.3590     0.4670 C.3   1 <1>   0.2000 
  3 C        2.8130     0.4580    -0.9180 C.3   1 <1>   0.3430 
  4 C        1.8780     1.7590     1.0550 C.3   1 <1>  -0.1600 
  5 N        4.1240     1.1440    -0.7170 N.4   1 <1>  -0.9590 
  6 C        2.5930     2.8910     0.2800 C.3   1 <1>  -0.1600 
  7 C        4.0140     2.5490    -0.2030 C.3   1 <1>   0.3430 
  8 C        5.0740     0.9910    -1.8460 C.3   1 <1>   0.4860 
  9 C        6.4310     1.5100    -1.4110 C.ar  1 <1>  -0.1440 
 10 C        7.1870     0.7970    -0.4860 C.ar  1 <1>  -0.1500 
 11 C        6.9200     2.7050    -1.9280 C.ar  1 <1>  -0.1500 
 12 C        8.4100     1.3000    -0.0870 C.ar  1 <1>  -0.1440 
 13 C        8.1480     3.1990    -1.5210 C.ar  1 <1>  -0.1500 
 14 C        8.8960     2.4920    -0.5910 C.ar  1 <1>   0.0000 
 15 C        9.4030     0.7050     0.9030 C.3   1 <1>   0.1270 
 16 C       10.1740     2.7720    -0.0040 C.ar  1 <1>   0.0000 
 17 C       10.5030     1.7540     0.8740 C.ar  1 <1>  -0.1440 
 18 C       11.0480     3.8350    -0.1820 C.ar  1 <1>  -0.1500 
 19 C       11.6900     1.7730     1.5820 C.ar  1 <1>  -0.1500 
 20 C       12.2400     3.8630     0.5240 C.ar  1 <1>  -0.1500 
 21 C       12.5600     2.8370     1.4030 C.ar  1 <1>  -0.1500 
 22 H        2.6380    -0.4740     2.1770 H     1 <1>   0.4000 
 23 H        1.2430    -0.2290     0.4240 H     1 <1>   0.0800 
 24 H        2.1890     1.0150    -1.5980 H     1 <1>   0.0800 
 25 H        2.9590    -0.5350    -1.3100 H     1 <1>   0.0800 
 26 H        2.1690     1.7910     2.0920 H     1 <1>   0.0800 
 27 H        0.8200     1.9530     1.0220 H     1 <1>   0.0800 
 28 H        4.5190     0.6150     0.0800 H     1 <1>   0.4500 
 29 H        2.6330     3.7760     0.8910 H     1 <1>   0.0800 
 30 H        2.0040     3.1460    -0.5840 H     1 <1>   0.0800 
 31 H        4.2970     3.2480    -0.9730 H     1 <1>   0.0800 
 32 H        4.7070     2.6730     0.6150 H     1 <1>   0.0800 
 33 H        4.7270     1.5450    -2.7020 H     1 <1>   0.0800 
 34 H        5.1610    -0.0470    -2.1200 H     1 <1>   0.0800 
 35 H        6.8410    -0.1370    -0.0770 H     1 <1>   0.1500 
 36 H        6.3540     3.2650    -2.6530 H     1 <1>   0.1500 
 37 H        8.5300     4.1230    -1.9180 H     1 <1>   0.1500 
 38 H        9.7700    -0.2460     0.5620 H     1 <1>   0.0800 
 39 H        8.9750     0.6230     1.8850 H     1 <1>   0.0800 
 40 H       10.7990     4.6280    -0.8630 H     1 <1>   0.1500 
 41 H       11.9360     0.9770     2.2620 H     1 <1>   0.1500 
 42 H       12.9230     4.6840     0.3910 H     1 <1>   0.1500 
 43 H       13.4880     2.8680     1.9470 H     1 <1>   0.1500 
@<TRIPOS>BOND
  1   1   2  1   
  2   1  22  1   
  3   2   3  1   
  4   2   4  1   
  5   2  23  1   
  6   3   5  1   
  7   3  24  1   
  8   3  25  1   
  9   4   6  1   
 10   4  26  1   
 11   4  27  1   
 12   5   7  1   
 13   5   8  1   
 14   5  28  1   
 15   6   7  1   
 16   6  29  1   
 17   6  30  1   
 18   7  31  1   
 19   7  32  1   
 20   8   9  1   
 21   8  33  1   
 22   8  34  1   
 23   9  10  ar  
 24   9  11  ar  
 25  10  12  ar  
 26  10  35  1   
 27  11  13  ar  
 28  11  36  1   
 29  12  14  ar  
 30  12  15  1   
 31  13  14  ar  
 32  13  37  1   
 33  14  16  1   
 34  15  17  1   
 35  15  38  1   
 36  15  39  1   
 37  16  17  ar  
 38  16  18  ar  
 39  17  19  ar  
 40  18  20  ar  
 41  18  40  1   
 42  19  21  ar  
 43  19  41  1   
 44  20  21  ar  
 45  20  42  1   
 46  21  43  1   
@<TRIPOS>SUBSTRUCTURE
  1 ****  10 GROUP 4 **** **** 0

# MOE 2024.06 (io_trps.svl 2023.06)
