@<TRIPOS>MOLECULE
NONAME
31 31 1 0 0 
SMALL
USER_CHARGES


@<TRIPOS>ATOM
  1 O       -0.2980     0.0680    -0.9260 O.2   1 <1>  -0.5700 
  2 C       -0.1310     1.1710    -0.4620 C.2   1 <1>   0.5690 
  3 N        1.0870     1.6890    -0.1290 N.am  1 <1>  -0.5470 
  4 C       -1.3600     2.0480    -0.2310 C.3   1 <1>   0.1810 
  5 C        2.4120     1.2120    -0.1880 C.ar  1 <1>   0.1170 
  6 O       -1.0180     3.3040     0.3120 O.3   1 <1>  -0.5600 
  7 C        3.4420     2.0500     0.2560 C.ar  1 <1>   0.0830 
  8 C        2.7380    -0.0520    -0.6660 C.ar  1 <1>  -0.1500 
  9 C       -2.1100     4.1350     0.5380 C.3   1 <1>   0.0400 
 10 O        3.0800     3.2850     0.7190 O.3   1 <1>  -0.3630 
 11 C        4.7650     1.6200     0.2160 C.ar  1 <1>  -0.1500 
 12 C        4.0530    -0.4760    -0.7050 C.ar  1 <1>  -0.1500 
 13 C        4.0350     4.2100     1.1910 C.3   1 <1>   0.0400 
 14 C        5.0720     0.3510    -0.2670 C.ar  1 <1>   0.0830 
 15 O        6.3350    -0.1480    -0.3410 O.3   1 <1>  -0.3630 
 16 C        7.4480     0.6090     0.0790 C.3   1 <1>   0.0400 
 17 H        1.0210     2.6410     0.2500 H     1 <1>   0.3700 
 18 H       -2.0220     1.5470     0.4510 H     1 <1>   0.0800 
 19 H       -1.8580     2.2040    -1.1700 H     1 <1>   0.0800 
 20 H        1.9690    -0.7160    -1.0130 H     1 <1>   0.1500 
 21 H       -1.7470     5.0610     0.9500 H     1 <1>   0.0800 
 22 H       -2.7780     3.6650     1.2400 H     1 <1>   0.0800 
 23 H       -2.6120     4.3270    -0.3940 H     1 <1>   0.0800 
 24 H        5.5500     2.2610     0.5550 H     1 <1>   0.1500 
 25 H        4.2950    -1.4550    -1.0770 H     1 <1>   0.1500 
 26 H        3.5150     5.0990     1.4980 H     1 <1>   0.0800 
 27 H        4.7180     4.4450     0.3930 H     1 <1>   0.0800 
 28 H        4.5520     3.7810     2.0310 H     1 <1>   0.0800 
 29 H        8.3310     0.0140    -0.0720 H     1 <1>   0.0800 
 30 H        7.3380     0.8410     1.1230 H     1 <1>   0.0800 
 31 H        7.5050     1.5040    -0.5140 H     1 <1>   0.0800 
@<TRIPOS>BOND
  1   1   2  2   
  2   2   3  am  
  3   2   4  1   
  4   3   5  1   
  5   3  17  1   
  6   4   6  1   
  7   4  18  1   
  8   4  19  1   
  9   5   7  ar  
 10   5   8  ar  
 11   6   9  1   
 12   7  10  1   
 13   7  11  ar  
 14   8  12  ar  
 15   8  20  1   
 16   9  21  1   
 17   9  22  1   
 18   9  23  1   
 19  10  13  1   
 20  11  14  ar  
 21  11  24  1   
 22  12  14  ar  
 23  12  25  1   
 24  13  26  1   
 25  13  27  1   
 26  13  28  1   
 27  14  15  1   
 28  15  16  1   
 29  16  29  1   
 30  16  30  1   
 31  16  31  1   
@<TRIPOS>SUBSTRUCTURE
  1 ****   5 GROUP 4 **** **** 0

# MOE 2024.06 (io_trps.svl 2023.06)
