@<TRIPOS>MOLECULE
NONAME
46 47 1 0 0 
SMALL
USER_CHARGES


@<TRIPOS>ATOM
  1 O       -0.3640    -0.1420    -2.5060 O.2   1 <1>  -0.5700 
  2 C       -0.1350     0.7250    -1.6950 C.2   1 <1>   0.5690 
  3 N       -1.0620     1.2340    -0.8340 N.am  1 <1>  -0.5470 
  4 C        1.2790     1.3070    -1.6060 C.3   1 <1>   0.1710 
  5 C       -2.4100     0.9440    -0.5530 C.ar  1 <1>   0.1170 
  6 N        1.5450     2.0930    -0.3570 N.3   1 <1>  -0.8100 
  7 C       -2.9900     1.5060     0.5890 C.ar  1 <1>   0.0830 
  8 C       -3.1860     0.1270    -1.3670 C.ar  1 <1>  -0.1500 
  9 C        2.7450     2.9390    -0.5070 C.3   1 <1>   0.1100 
 10 C        1.7210     1.1950     0.8150 C.3   1 <1>   0.1100 
 11 O       -2.1980     2.3060     1.3660 O.3   1 <1>  -0.3630 
 12 C       -4.3210     1.2400     0.8950 C.ar  1 <1>  -0.1500 
 13 C       -4.5090    -0.1350    -1.0600 C.ar  1 <1>  -0.1500 
 14 C        4.0580     2.1220    -0.6470 C.3   1 <1>   0.2000 
 15 C        3.1880     0.7660     1.0930 C.3   1 <1>   0.2000 
 16 C       -2.7200     2.9750     2.4930 C.3   1 <1>   0.0400 
 17 C       -5.0830     0.4230     0.0780 C.ar  1 <1>   0.0830 
 18 O        3.9710     0.8520    -0.0600 O.3   1 <1>  -0.5600 
 19 C        5.2680     2.8410    -0.0500 C.3   1 <1>  -0.2400 
 20 C        3.2830    -0.6750     1.5870 C.3   1 <1>  -0.2400 
 21 O       -6.3730     0.2180     0.4540 O.3   1 <1>  -0.3620 
 22 C       -7.2270    -0.6060    -0.3080 C.3   1 <1>   0.0400 
 23 H       -0.6500     1.9280    -0.1980 H     1 <1>   0.3700 
 24 H        1.4050     1.9460    -2.4610 H     1 <1>   0.0800 
 25 H        1.9850     0.4990    -1.6930 H     1 <1>   0.0800 
 26 H       -2.7590    -0.3090    -2.2510 H     1 <1>   0.1500 
 27 H        2.8190     3.5730     0.3600 H     1 <1>   0.0800 
 28 H        2.6340     3.5900    -1.3570 H     1 <1>   0.0800 
 29 H        1.1080     0.3180     0.6990 H     1 <1>   0.0800 
 30 H        1.3560     1.7020     1.6910 H     1 <1>   0.0800 
 31 H       -4.7970     1.6520     1.7630 H     1 <1>   0.1500 
 32 H       -5.0700    -0.7720    -1.7170 H     1 <1>   0.1500 
 33 H        4.2450     1.9540    -1.6940 H     1 <1>   0.0800 
 34 H        3.6180     1.4200     1.8320 H     1 <1>   0.0800 
 35 H       -1.9330     3.5660     2.9260 H     1 <1>   0.0800 
 36 H       -3.0630     2.2450     3.2050 H     1 <1>   0.0800 
 37 H       -3.5260     3.6150     2.1780 H     1 <1>   0.0800 
 38 H        5.1260     3.0270     0.9980 H     1 <1>   0.0800 
 39 H        5.4160     3.7820    -0.5480 H     1 <1>   0.0800 
 40 H        6.1500     2.2420    -0.1890 H     1 <1>   0.0800 
 41 H        2.8960    -1.3480     0.8440 H     1 <1>   0.0800 
 42 H        2.7150    -0.7940     2.4920 H     1 <1>   0.0800 
 43 H        4.3090    -0.9230     1.7910 H     1 <1>   0.0800 
 44 H       -8.1880    -0.6270     0.1740 H     1 <1>   0.0800 
 45 H       -6.8150    -1.5990    -0.3430 H     1 <1>   0.0800 
 46 H       -7.3230    -0.1920    -1.2960 H     1 <1>   0.0800 
@<TRIPOS>BOND
  1   1   2  2   
  2   2   3  am  
  3   2   4  1   
  4   3   5  1   
  5   3  23  1   
  6   4   6  1   
  7   4  24  1   
  8   4  25  1   
  9   5   7  ar  
 10   5   8  ar  
 11   6   9  1   
 12   6  10  1   
 13   7  11  1   
 14   7  12  ar  
 15   8  13  ar  
 16   8  26  1   
 17   9  14  1   
 18   9  27  1   
 19   9  28  1   
 20  10  15  1   
 21  10  29  1   
 22  10  30  1   
 23  11  16  1   
 24  12  17  ar  
 25  12  31  1   
 26  13  17  ar  
 27  13  32  1   
 28  14  18  1   
 29  14  19  1   
 30  14  33  1   
 31  15  18  1   
 32  15  20  1   
 33  15  34  1   
 34  16  35  1   
 35  16  36  1   
 36  16  37  1   
 37  17  21  1   
 38  19  38  1   
 39  19  39  1   
 40  19  40  1   
 41  20  41  1   
 42  20  42  1   
 43  20  43  1   
 44  21  22  1   
 45  22  44  1   
 46  22  45  1   
 47  22  46  1   
@<TRIPOS>SUBSTRUCTURE
  1 ****   3 GROUP 4 **** **** 0

# MOE 2024.06 (io_trps.svl 2023.06)
