@<TRIPOS>MOLECULE
NONAME
36 38 1 0 0 
SMALL
USER_CHARGES


@<TRIPOS>ATOM
  1 O        0.1300    -0.1160    -0.4290 O.3   1 <1>  -0.3630 
  2 C        0.2160    -1.4750    -0.4120 C.ar  1 <1>   0.0830 
  3 C        0.8040     0.6610     0.5380 C.3   1 <1>   0.0400 
  4 C        1.4230    -2.2040    -0.1790 C.ar  1 <1>   0.3100 
  5 C       -0.9670    -2.1280    -0.6480 C.ar  1 <1>  -0.1500 
  6 N        2.6060    -1.5520    -0.0100 N.ar  1 <1>  -0.6200 
  7 C        1.3440    -3.6210    -0.1510 C.ar  1 <1>   0.0000 
  8 C       -1.0300    -3.5190    -0.6380 C.ar  1 <1>  -0.1500 
  9 C        3.6890    -2.2430     0.2000 C.ar  1 <1>   0.4100 
 10 C        2.5250    -4.3520     0.1130 C.ar  1 <1>  -0.1440 
 11 C        0.1010    -4.2450    -0.3900 C.ar  1 <1>  -0.1500 
 12 N        4.8840    -1.5570     0.3520 N.pl3 1 <1>  -0.8380 
 13 C        3.6740    -3.6470     0.2880 C.ar  1 <1>  -0.1500 
 14 C        2.5300    -5.8710     0.2090 C.3   1 <1>  -0.0970 
 15 C        6.1700    -2.0970    -0.1480 C.3   1 <1>   0.2090 
 16 C        4.9180    -0.0750     0.3550 C.3   1 <1>   0.2090 
 17 C        6.9640    -0.8810    -0.6110 C.3   1 <1>  -0.1600 
 18 C        6.3880     0.2820     0.1870 C.3   1 <1>  -0.1600 
 19 H        0.2730     1.5870     0.6560 H     1 <1>   0.0800 
 20 H        1.8020     0.8550     0.1890 H     1 <1>   0.0800 
 21 H        0.8290     0.1240     1.4700 H     1 <1>   0.0800 
 22 H       -1.8600    -1.5600    -0.8390 H     1 <1>   0.1500 
 23 H       -1.9730    -4.0050    -0.8240 H     1 <1>   0.1500 
 24 H        0.0370    -5.3170    -0.3800 H     1 <1>   0.1500 
 25 H        4.5980    -4.1430     0.5070 H     1 <1>   0.1500 
 26 H        2.2210    -6.3010    -0.7270 H     1 <1>   0.0800 
 27 H        1.8610    -6.1930     0.9860 H     1 <1>   0.0800 
 28 H        3.5150    -6.2380     0.4400 H     1 <1>   0.0800 
 29 H        6.0140    -2.7890    -0.9580 H     1 <1>   0.0800 
 30 H        6.6790    -2.5900     0.6620 H     1 <1>   0.0800 
 31 H        4.5120     0.3120     1.2740 H     1 <1>   0.0800 
 32 H        4.3480     0.2990    -0.4790 H     1 <1>   0.0800 
 33 H        6.7820    -0.7290    -1.6600 H     1 <1>   0.0800 
 34 H        8.0200    -1.0090    -0.4510 H     1 <1>   0.0800 
 35 H        6.8470     0.3260     1.1590 H     1 <1>   0.0800 
 36 H        6.5140     1.2270    -0.3090 H     1 <1>   0.0800 
@<TRIPOS>BOND
  1   1   2  1   
  2   1   3  1   
  3   2   4  ar  
  4   2   5  ar  
  5   3  19  1   
  6   3  20  1   
  7   3  21  1   
  8   4   6  ar  
  9   4   7  ar  
 10   5   8  ar  
 11   5  22  1   
 12   6   9  ar  
 13   7  10  ar  
 14   7  11  ar  
 15   8  11  ar  
 16   8  23  1   
 17   9  12  1   
 18   9  13  ar  
 19  10  13  ar  
 20  10  14  1   
 21  11  24  1   
 22  12  15  1   
 23  12  16  1   
 24  13  25  1   
 25  14  26  1   
 26  14  27  1   
 27  14  28  1   
 28  15  17  1   
 29  15  29  1   
 30  15  30  1   
 31  16  18  1   
 32  16  31  1   
 33  16  32  1   
 34  17  18  1   
 35  17  33  1   
 36  17  34  1   
 37  18  35  1   
 38  18  36  1   
@<TRIPOS>SUBSTRUCTURE
  1 ****   6 GROUP 4 **** **** 0

# MOE 2024.06 (io_trps.svl 2023.06)
