@<TRIPOS>MOLECULE
NONAME
47 49 1 0 0 
SMALL
USER_CHARGES


@<TRIPOS>ATOM
  1 O       -1.6930    -0.2620     1.7620 O.2   1 <1>  -0.5700 
  2 C       -2.3780    -0.9180     1.0010 C.2   1 <1>   0.7060 
  3 O       -3.6140    -0.4820     0.7770 O.3   1 <1>  -0.2330 
  4 C       -1.9440    -2.1150     0.3330 C.2   1 <1>  -0.1240 
  5 C       -4.5170    -1.1370     0.0160 C.ar  1 <1>   0.0820 
  6 C       -2.7920    -2.8000    -0.4780 C.2   1 <1>  -0.1670 
  7 C       -0.5080    -2.5860     0.5890 C.3   1 <1>  -0.0220 
  8 C       -4.1550    -2.3380    -0.6180 C.ar  1 <1>   0.0280 
  9 C       -5.7960    -0.5940    -0.0890 C.ar  1 <1>  -0.1440 
 10 C       -2.3010    -4.0460    -1.2210 C.3   1 <1>  -0.0220 
 11 C       -0.4850    -3.9230     1.3460 C.3   1 <1>  -0.1600 
 12 C       -5.1650    -2.9980    -1.3280 C.ar  1 <1>  -0.1500 
 13 C       -6.7670    -1.2770    -0.8100 C.ar  1 <1>   0.0830 
 14 C       -6.1160     0.7330     0.6020 C.3   1 <1>  -0.0960 
 15 C       -2.0720    -5.2120    -0.2510 C.3   1 <1>  -0.1600 
 16 C       -0.7060    -5.1550     0.4530 C.3   1 <1>  -0.1600 
 17 C       -6.4390    -2.4810    -1.4280 C.ar  1 <1>  -0.1500 
 18 O       -8.0130    -0.7500    -0.8740 O.3   1 <1>  -0.3630 
 19 C       -9.1380    -1.5170    -1.2780 C.3   1 <1>   0.1810 
 20 C      -10.4490    -0.7920    -0.9770 C.2   1 <1>   0.5690 
 21 O      -11.2080    -0.6280    -1.9060 O.2   1 <1>  -0.5700 
 22 N      -10.7680    -0.3730     0.2990 N.am  1 <1>  -0.6600 
 23 C      -12.0160     0.3920     0.5760 C.3   1 <1>   0.0600 
 24 C       -9.8900    -0.5580     1.4890 C.3   1 <1>   0.0600 
 25 H        0.0250    -1.8620     1.1800 H     1 <1>   0.0800 
 26 H        0.0300    -2.6700    -0.3380 H     1 <1>   0.0800 
 27 H       -1.3850    -3.8230    -1.7390 H     1 <1>   0.0800 
 28 H       -2.9830    -4.3530    -1.9860 H     1 <1>   0.0800 
 29 H       -1.2200    -3.9040     2.1330 H     1 <1>   0.0800 
 30 H        0.4790    -4.0260     1.8150 H     1 <1>   0.0800 
 31 H       -4.9790    -3.9340    -1.8130 H     1 <1>   0.1500 
 32 H       -6.2890     0.5630     1.6490 H     1 <1>   0.0800 
 33 H       -6.9840     1.2050     0.1800 H     1 <1>   0.0800 
 34 H       -5.2950     1.4200     0.4960 H     1 <1>   0.0800 
 35 H       -2.1180    -6.1310    -0.8080 H     1 <1>   0.0800 
 36 H       -2.8630    -5.2380     0.4800 H     1 <1>   0.0800 
 37 H       -0.6070    -6.0350     1.0650 H     1 <1>   0.0800 
 38 H        0.0750    -5.1990    -0.2870 H     1 <1>   0.0800 
 39 H       -7.1680    -3.0260    -1.9970 H     1 <1>   0.1500 
 40 H       -9.1240    -2.4530    -0.7530 H     1 <1>   0.0800 
 41 H       -9.0610    -1.6900    -2.3360 H     1 <1>   0.0800 
 42 H      -12.5780     0.5560    -0.3270 H     1 <1>   0.0800 
 43 H      -11.7680     1.3490     1.0010 H     1 <1>   0.0800 
 44 H      -12.6320    -0.1550     1.2670 H     1 <1>   0.0800 
 45 H       -9.2150    -1.3840     1.3490 H     1 <1>   0.0800 
 46 H      -10.4900    -0.7570     2.3600 H     1 <1>   0.0800 
 47 H       -9.3160     0.3370     1.6530 H     1 <1>   0.0800 
@<TRIPOS>BOND
  1   1   2  2   
  2   2   3  1   
  3   2   4  1   
  4   3   5  1   
  5   4   6  2   
  6   4   7  1   
  7   5   8  ar  
  8   5   9  ar  
  9   6   8  1   
 10   6  10  1   
 11   7  11  1   
 12   7  25  1   
 13   7  26  1   
 14   8  12  ar  
 15   9  13  ar  
 16   9  14  1   
 17  10  15  1   
 18  10  27  1   
 19  10  28  1   
 20  11  16  1   
 21  11  29  1   
 22  11  30  1   
 23  12  17  ar  
 24  12  31  1   
 25  13  17  ar  
 26  13  18  1   
 27  14  32  1   
 28  14  33  1   
 29  14  34  1   
 30  15  16  1   
 31  15  35  1   
 32  15  36  1   
 33  16  37  1   
 34  16  38  1   
 35  17  39  1   
 36  18  19  1   
 37  19  20  1   
 38  19  40  1   
 39  19  41  1   
 40  20  21  2   
 41  20  22  am  
 42  22  23  1   
 43  22  24  1   
 44  23  42  1   
 45  23  43  1   
 46  23  44  1   
 47  24  45  1   
 48  24  46  1   
 49  24  47  1   
@<TRIPOS>SUBSTRUCTURE
  1 ****   5 GROUP 4 **** **** 0

# MOE 2024.06 (io_trps.svl 2023.06)
