@<TRIPOS>MOLECULE
NONAME
44 45 1 0 0 
SMALL
USER_CHARGES


@<TRIPOS>ATOM
  1 O       -0.1250     1.1830     1.8840 O.2   1 <1>  -0.5700 
  2 C        0.0010     2.3170     1.4620 C.2   1 <1>   0.5440 
  3 N       -1.0870     3.1650     1.5530 N.am  1 <1>  -0.6600 
  4 C        1.2590     2.7320     0.8870 C.ar  1 <1>   0.0860 
  5 C       -1.3110     4.2740     0.5830 C.3   1 <1>   0.1400 
  6 C       -2.3470     2.7020     2.2010 C.3   1 <1>   0.1400 
  7 C        1.4730     2.7520    -0.4970 C.ar  1 <1>   0.0820 
  8 C        2.3070     3.1190     1.7210 C.ar  1 <1>  -0.1500 
  9 C       -2.2900     3.8000    -0.5120 C.3   1 <1>   0.3430 
 10 C       -3.3070     2.1900     1.1150 C.3   1 <1>   0.3430 
 11 O        0.4550     2.3680    -1.3100 O.3   1 <1>  -0.3630 
 12 C        2.7000     3.1620    -1.0080 C.ar  1 <1>  -0.1500 
 13 C        3.5250     3.5230     1.2120 C.ar  1 <1>  -0.1500 
 14 N       -3.5710     3.2370     0.0570 N.4   1 <1>  -0.9590 
 15 C        0.7240     1.8590    -2.6020 C.3   1 <1>   0.0400 
 16 C        3.7270     3.5480    -0.1650 C.ar  1 <1>   0.0820 
 17 C       -4.4430     2.7190    -1.0170 C.3   1 <1>   0.4810 
 18 O        4.8850     3.9320    -0.7480 O.3   1 <1>  -0.3620 
 19 C       -5.8400     2.6290    -0.4490 C.2   1 <1>  -0.2880 
 20 C        6.0130     4.3040     0.0120 C.3   1 <1>   0.0400 
 21 C       -6.8370     3.4780    -0.7170 C.2   1 <1>  -0.3000 
 22 H       -0.3850     4.5830     0.1310 H     1 <1>   0.0800 
 23 H       -1.7180     5.1250     1.1000 H     1 <1>   0.0800 
 24 H       -2.7960     3.5140     2.7460 H     1 <1>   0.0800 
 25 H       -2.1440     1.9140     2.9070 H     1 <1>   0.0800 
 26 H        2.1570     3.0930     2.7870 H     1 <1>   0.1500 
 27 H       -1.7940     3.0410    -1.0940 H     1 <1>   0.0800 
 28 H       -2.5100     4.6260    -1.1680 H     1 <1>   0.0800 
 29 H       -4.2320     1.8900     1.5790 H     1 <1>   0.0800 
 30 H       -2.8620     1.3170     0.6640 H     1 <1>   0.0800 
 31 H        2.8900     3.1970    -2.0630 H     1 <1>   0.1500 
 32 H        4.3040     3.8110     1.8940 H     1 <1>   0.1500 
 33 H       -4.0950     4.0010     0.5010 H     1 <1>   0.4500 
 34 H       -0.1760     1.4160    -2.9870 H     1 <1>   0.0800 
 35 H        1.4940     1.1090    -2.5290 H     1 <1>   0.0800 
 36 H        1.0380     2.6650    -3.2420 H     1 <1>   0.0800 
 37 H       -4.1030     1.7570    -1.3660 H     1 <1>   0.0800 
 38 H       -4.4470     3.4080    -1.8470 H     1 <1>   0.0800 
 39 H       -5.9750     1.7860     0.2080 H     1 <1>   0.1500 
 40 H        6.8080     4.5510    -0.6690 H     1 <1>   0.0800 
 41 H        6.3070     3.4750     0.6310 H     1 <1>   0.0800 
 42 H        5.7650     5.1640     0.6100 H     1 <1>   0.0800 
 43 H       -7.8290     3.3870    -0.3030 H     1 <1>   0.1500 
 44 H       -6.7670     4.3330    -1.3710 H     1 <1>   0.1500 
@<TRIPOS>BOND
  1   1   2  2   
  2   2   3  am  
  3   2   4  1   
  4   3   5  1   
  5   3   6  1   
  6   4   7  ar  
  7   4   8  ar  
  8   5   9  1   
  9   5  22  1   
 10   5  23  1   
 11   6  10  1   
 12   6  24  1   
 13   6  25  1   
 14   7  11  1   
 15   7  12  ar  
 16   8  13  ar  
 17   8  26  1   
 18   9  14  1   
 19   9  27  1   
 20   9  28  1   
 21  10  14  1   
 22  10  29  1   
 23  10  30  1   
 24  11  15  1   
 25  12  16  ar  
 26  12  31  1   
 27  13  16  ar  
 28  13  32  1   
 29  14  17  1   
 30  14  33  1   
 31  15  34  1   
 32  15  35  1   
 33  15  36  1   
 34  16  18  1   
 35  17  19  1   
 36  17  37  1   
 37  17  38  1   
 38  18  20  1   
 39  19  21  2   
 40  19  39  1   
 41  20  40  1   
 42  20  41  1   
 43  20  42  1   
 44  21  43  1   
 45  21  44  1   
@<TRIPOS>SUBSTRUCTURE
  1 ****   2 GROUP 4 **** **** 0

# MOE 2024.06 (io_trps.svl 2023.06)
