@<TRIPOS>MOLECULE
NONAME
42 44 1 0 0 
SMALL
USER_CHARGES


@<TRIPOS>ATOM
  1 O        0.2870    -0.1130    -0.1620 O.2   1 <1>  -0.5700 
  2 C        0.6940    -1.2380     0.0470 C.2   1 <1>   0.6340 
  3 O        2.0050    -1.4110     0.2610 O.3   1 <1>  -0.4300 
  4 C       -0.1600    -2.4080     0.0770 C.ar  1 <1>   0.0860 
  5 C        2.9100    -0.3240     0.2480 C.3   1 <1>   0.0400 
  6 C       -1.5380    -2.3060    -0.1380 C.ar  1 <1>  -0.1500 
  7 C        0.3490    -3.6860     0.3220 C.ar  1 <1>  -0.1500 
  8 C       -2.3710    -3.4140    -0.1130 C.ar  1 <1>   0.1170 
  9 C       -0.4670    -4.7990     0.3510 C.ar  1 <1>  -0.1500 
 10 N       -3.7570    -3.3770    -0.3210 N.am  1 <1>  -0.5470 
 11 C       -1.8330    -4.6840     0.1360 C.ar  1 <1>   0.1000 
 12 C       -4.6830    -2.4030    -0.5880 C.2   1 <1>   0.7150 
 13 N       -2.6640    -5.8100     0.1640 N.pl3 1 <1>  -0.8380 
 14 O       -4.3320    -1.2430    -0.6920 O.2   1 <1>  -0.5700 
 15 C       -6.0660    -2.8010    -0.7370 C.2   1 <1>   0.0550 
 16 C       -2.4710    -6.8050    -0.9350 C.3   1 <1>   0.2090 
 17 C       -2.8240    -6.4830     1.4890 C.3   1 <1>   0.2090 
 18 O       -7.0210    -1.9110    -0.9980 O.3   1 <1>  -0.2800 
 19 C       -6.6490    -4.0340    -0.6570 C.2   1 <1>  -0.1500 
 20 C       -3.5620    -7.8900    -0.8890 C.3   1 <1>   0.1200 
 21 C       -3.8980    -7.5840     1.4170 C.3   1 <1>   0.1200 
 22 C       -8.1750    -2.5310    -1.0840 C.2   1 <1>  -0.0100 
 23 C       -8.0140    -3.8550    -0.8820 C.2   1 <1>  -0.1500 
 24 O       -3.6250    -8.4840     0.3790 O.3   1 <1>  -0.5600 
 25 H        3.8980    -0.7000     0.4420 H     1 <1>   0.0800 
 26 H        2.6220     0.3770     1.0130 H     1 <1>   0.0800 
 27 H        2.8740     0.1470    -0.7190 H     1 <1>   0.0800 
 28 H       -1.9510    -1.3320    -0.3280 H     1 <1>   0.1500 
 29 H        1.4050    -3.8120     0.4940 H     1 <1>   0.1500 
 30 H       -0.0450    -5.7690     0.5420 H     1 <1>   0.1500 
 31 H       -4.1250    -4.3270    -0.2470 H     1 <1>   0.3700 
 32 H       -1.5060    -7.2720    -0.8380 H     1 <1>   0.0800 
 33 H       -2.5040    -6.3000    -1.8850 H     1 <1>   0.0800 
 34 H       -3.1040    -5.7540     2.2290 H     1 <1>   0.0800 
 35 H       -1.8890    -6.9230     1.7890 H     1 <1>   0.0800 
 36 H       -6.1810    -4.9820    -0.4600 H     1 <1>   0.1500 
 37 H       -3.3440    -8.6650    -1.6030 H     1 <1>   0.0800 
 38 H       -4.5230    -7.4670    -1.1200 H     1 <1>   0.0800 
 39 H       -4.8690    -7.1520     1.2520 H     1 <1>   0.0800 
 40 H       -3.9190    -8.1420     2.3370 H     1 <1>   0.0800 
 41 H       -9.0610    -1.9560    -1.2920 H     1 <1>   0.1500 
 42 H       -8.7620    -4.6280    -0.8880 H     1 <1>   0.1500 
@<TRIPOS>BOND
  1   1   2  2   
  2   2   3  1   
  3   2   4  1   
  4   3   5  1   
  5   4   6  ar  
  6   4   7  ar  
  7   5  25  1   
  8   5  26  1   
  9   5  27  1   
 10   6   8  ar  
 11   6  28  1   
 12   7   9  ar  
 13   7  29  1   
 14   8  10  1   
 15   8  11  ar  
 16   9  11  ar  
 17   9  30  1   
 18  10  12  am  
 19  10  31  1   
 20  11  13  1   
 21  12  14  2   
 22  12  15  1   
 23  13  16  1   
 24  13  17  1   
 25  15  18  1   
 26  15  19  2   
 27  16  20  1   
 28  16  32  1   
 29  16  33  1   
 30  17  21  1   
 31  17  34  1   
 32  17  35  1   
 33  18  22  1   
 34  19  23  1   
 35  19  36  1   
 36  20  24  1   
 37  20  37  1   
 38  20  38  1   
 39  21  24  1   
 40  21  39  1   
 41  21  40  1   
 42  22  23  2   
 43  22  41  1   
 44  23  42  1   
@<TRIPOS>SUBSTRUCTURE
  1 ****   8 GROUP 4 **** **** 0

# MOE 2024.06 (io_trps.svl 2023.06)
