@<TRIPOS>MOLECULE
NONAME
48 49 1 0 0 
SMALL
USER_CHARGES


@<TRIPOS>ATOM
  1 O        5.9600     4.9460     0.4800 O.3   1 <1>  -0.5600 
  2 C        5.7410     3.7230    -0.1710 C.3   1 <1>   0.1200 
  3 C        5.2740     5.0800     1.6950 C.3   1 <1>   0.1200 
  4 C        4.2340     3.4880    -0.4330 C.3   1 <1>   0.3430 
  5 C        3.7470     4.9540     1.4890 C.3   1 <1>   0.3430 
  6 N        3.4060     4.6420     0.0560 N.4   1 <1>  -0.9590 
  7 C        1.9520     4.4630    -0.2080 C.3   1 <1>   0.3430 
  8 C        1.2090     5.7810     0.0010 C.3   1 <1>  -0.1600 
  9 C       -0.2640     5.6420    -0.3810 C.3   1 <1>   0.1200 
 10 O       -0.8690     6.8850    -0.1380 O.3   1 <1>  -0.3630 
 11 C       -2.1920     7.1080    -0.3690 C.ar  1 <1>   0.0820 
 12 C       -2.7070     8.3780    -0.0970 C.ar  1 <1>  -0.1440 
 13 C       -3.0330     6.1110    -0.8610 C.ar  1 <1>  -0.1500 
 14 C       -4.0570     8.6160    -0.3230 C.ar  1 <1>  -0.1500 
 15 C       -1.8270     9.5140     0.4440 C.3   1 <1>   0.0630 
 16 C       -4.3730     6.3690    -1.0800 C.ar  1 <1>  -0.1500 
 17 C       -4.8860     7.6220    -0.8100 C.ar  1 <1>  -0.1500 
 18 C       -2.2790     9.9020     1.8650 C.3   1 <1>  -0.1600 
 19 C       -1.8410    10.7080    -0.5220 C.3   1 <1>  -0.2400 
 20 C       -1.3430    10.9020     2.5590 C.3   1 <1>  -0.2400 
 21 H        6.1520     2.9320     0.4320 H     1 <1>   0.0800 
 22 H        6.2800     3.7480    -1.1030 H     1 <1>   0.0800 
 23 H        5.5160     6.0460     2.1040 H     1 <1>   0.0800 
 24 H        5.6320     4.3280     2.3780 H     1 <1>   0.0800 
 25 H        3.9320     2.5810     0.0640 H     1 <1>   0.0800 
 26 H        4.0820     3.3440    -1.4900 H     1 <1>   0.0800 
 27 H        3.2820     5.8800     1.7860 H     1 <1>   0.0800 
 28 H        3.3690     4.1810     2.1370 H     1 <1>   0.0800 
 29 H        3.7510     5.4560    -0.4780 H     1 <1>   0.4500 
 30 H        1.5480     3.7050     0.4440 H     1 <1>   0.0800 
 31 H        1.8100     4.1420    -1.2280 H     1 <1>   0.0800 
 32 H        1.6470     6.5460    -0.6160 H     1 <1>   0.0800 
 33 H        1.2580     6.0770     1.0330 H     1 <1>   0.0800 
 34 H       -0.7590     4.9040     0.2280 H     1 <1>   0.0800 
 35 H       -0.3790     5.4100    -1.4260 H     1 <1>   0.0800 
 36 H       -2.6720     5.1260    -1.0820 H     1 <1>   0.1500 
 37 H       -4.4770     9.5840    -0.1190 H     1 <1>   0.1500 
 38 H       -0.8080     9.1810     0.5120 H     1 <1>   0.0800 
 39 H       -5.0180     5.5950    -1.4590 H     1 <1>   0.1500 
 40 H       -5.9290     7.8270    -0.9780 H     1 <1>   0.1500 
 41 H       -2.3220     9.0060     2.4610 H     1 <1>   0.0800 
 42 H       -3.2720    10.3140     1.8340 H     1 <1>   0.0800 
 43 H       -2.8030    11.1870    -0.5320 H     1 <1>   0.0800 
 44 H       -1.6160    10.3690    -1.5180 H     1 <1>   0.0800 
 45 H       -1.0980    11.4320    -0.2410 H     1 <1>   0.0800 
 46 H       -0.3360    10.5250     2.5780 H     1 <1>   0.0800 
 47 H       -1.6670    11.0610     3.5720 H     1 <1>   0.0800 
 48 H       -1.3520    11.8510     2.0530 H     1 <1>   0.0800 
@<TRIPOS>BOND
  1   1   2  1   
  2   1   3  1   
  3   2   4  1   
  4   2  21  1   
  5   2  22  1   
  6   3   5  1   
  7   3  23  1   
  8   3  24  1   
  9   4   6  1   
 10   4  25  1   
 11   4  26  1   
 12   5   6  1   
 13   5  27  1   
 14   5  28  1   
 15   6   7  1   
 16   6  29  1   
 17   7   8  1   
 18   7  30  1   
 19   7  31  1   
 20   8   9  1   
 21   8  32  1   
 22   8  33  1   
 23   9  10  1   
 24   9  34  1   
 25   9  35  1   
 26  10  11  1   
 27  11  12  ar  
 28  11  13  ar  
 29  12  14  ar  
 30  12  15  1   
 31  13  16  ar  
 32  13  36  1   
 33  14  17  ar  
 34  14  37  1   
 35  15  18  1   
 36  15  19  1   
 37  15  38  1   
 38  16  17  ar  
 39  16  39  1   
 40  17  40  1   
 41  18  20  1   
 42  18  41  1   
 43  18  42  1   
 44  19  43  1   
 45  19  44  1   
 46  19  45  1   
 47  20  46  1   
 48  20  47  1   
 49  20  48  1   
@<TRIPOS>SUBSTRUCTURE
  1 ****  10 GROUP 4 **** **** 0

# MOE 2024.06 (io_trps.svl 2023.06)
