@<TRIPOS>MOLECULE
NONAME
38 39 1 0 0 
SMALL
USER_CHARGES


@<TRIPOS>ATOM
  1 O        0.0120     0.2060    -0.4030 O.2   1 <1>  -0.5700 
  2 C        0.0700     1.3730    -0.0660 C.2   1 <1>   0.5440 
  3 N       -1.0770     1.9750     0.3660 N.am  1 <1>  -0.7300 
  4 C        1.3260     2.1030    -0.1160 C.ar  1 <1>   0.0860 
  5 C       -2.4310     1.3770     0.3830 C.3   1 <1>   0.1400 
  6 C        2.5470     1.4250    -0.1340 C.ar  1 <1>  -0.1500 
  7 C        1.3770     3.5000    -0.1500 C.ar  1 <1>  -0.1500 
  8 C       -3.4600     2.3930    -0.1350 C.3   1 <1>   0.2000 
  9 C        3.7570     2.0940    -0.1760 C.ar  1 <1>  -0.1500 
 10 C        2.5820     4.1770    -0.1900 C.ar  1 <1>  -0.1500 
 11 O       -3.3080     3.6170     0.5170 O.3   1 <1>  -0.5600 
 12 C       -4.9080     2.0030     0.1190 C.3   1 <1>  -0.1600 
 13 C        3.7810     3.4850    -0.2020 C.ar  1 <1>   0.0830 
 14 C       -4.5010     4.3380     0.4990 C.3   1 <1>   0.1200 
 15 C       -5.6090     3.3490     0.1410 C.3   1 <1>  -0.1600 
 16 O        4.9130     4.2210    -0.2420 O.3   1 <1>  -0.3630 
 17 C        6.1870     3.6210    -0.2540 C.3   1 <1>   0.2580 
 18 C        7.2270     4.7230    -0.2980 C.2   1 <1>  -0.2880 
 19 C        8.2070     4.9040     0.5940 C.2   1 <1>  -0.3000 
 20 H       -1.0780     2.9540     0.6670 H     1 <1>   0.3700 
 21 H       -2.6750     1.0960     1.3920 H     1 <1>   0.0800 
 22 H       -2.4550     0.4910    -0.2290 H     1 <1>   0.0800 
 23 H        2.5380     0.3480    -0.1160 H     1 <1>   0.1500 
 24 H        0.4650     4.0680    -0.1520 H     1 <1>   0.1500 
 25 H       -3.3050     2.5660    -1.1870 H     1 <1>   0.0800 
 26 H        4.6620     1.5170    -0.1870 H     1 <1>   0.1500 
 27 H        2.6030     5.2520    -0.2150 H     1 <1>   0.1500 
 28 H       -4.9960     1.5250     1.0800 H     1 <1>   0.0800 
 29 H       -5.2900     1.3480    -0.6440 H     1 <1>   0.0800 
 30 H       -4.4160     5.1200    -0.2360 H     1 <1>   0.0800 
 31 H       -4.6470     4.7650     1.4760 H     1 <1>   0.0800 
 32 H       -6.4120     3.3770     0.8580 H     1 <1>   0.0800 
 33 H       -6.0000     3.5900    -0.8320 H     1 <1>   0.0800 
 34 H        6.2620     2.9980    -1.1280 H     1 <1>   0.0800 
 35 H        6.2940     3.0280     0.6380 H     1 <1>   0.0800 
 36 H        7.0890     5.3710    -1.1470 H     1 <1>   0.1500 
 37 H        8.9290     5.7010     0.5360 H     1 <1>   0.1500 
 38 H        8.3700     4.2800     1.4560 H     1 <1>   0.1500 
@<TRIPOS>BOND
  1   1   2  2   
  2   2   3  am  
  3   2   4  1   
  4   3   5  1   
  5   3  20  1   
  6   4   6  ar  
  7   4   7  ar  
  8   5   8  1   
  9   5  21  1   
 10   5  22  1   
 11   6   9  ar  
 12   6  23  1   
 13   7  10  ar  
 14   7  24  1   
 15   8  11  1   
 16   8  12  1   
 17   8  25  1   
 18   9  13  ar  
 19   9  26  1   
 20  10  13  ar  
 21  10  27  1   
 22  11  14  1   
 23  12  15  1   
 24  12  28  1   
 25  12  29  1   
 26  13  16  1   
 27  14  15  1   
 28  14  30  1   
 29  14  31  1   
 30  15  32  1   
 31  15  33  1   
 32  16  17  1   
 33  17  18  1   
 34  17  34  1   
 35  17  35  1   
 36  18  19  2   
 37  18  36  1   
 38  19  37  1   
 39  19  38  1   
@<TRIPOS>SUBSTRUCTURE
  1 ****   7 GROUP 4 **** **** 0

# MOE 2024.06 (io_trps.svl 2023.06)
