@<TRIPOS>MOLECULE
NONAME
39 40 1 0 0 
SMALL
USER_CHARGES


@<TRIPOS>ATOM
  1 S        0.3840    -0.0540     0.1400 S.3   1 <1>  -0.0800 
  2 C       -0.9830     1.0090    -0.1280 C.2   1 <1>  -0.1400 
  3 C        1.5060     1.2570    -0.0560 C.2   1 <1>  -0.1100 
  4 C       -0.5680     2.2830    -0.3370 C.2   1 <1>  -0.1810 
  5 C       -2.3090     0.2680    -0.0650 C.3   1 <1>  -0.0600 
  6 C        0.8800     2.4320    -0.3060 C.2   1 <1>  -0.0860 
  7 C       -1.4010     3.5490    -0.5780 C.3   1 <1>   0.0210 
  8 C        1.6090     3.6710    -0.5080 C.2   1 <1>   0.7160 
  9 C       -2.9090     3.4580    -0.3420 C.3   1 <1>  -0.2400 
 10 O        1.2730     4.5040    -1.3270 O.2   1 <1>  -0.5700 
 11 N        2.7290     3.8990     0.2300 N.am  1 <1>  -0.7300 
 12 C        3.6960     4.9960     0.0530 C.3   1 <1>   0.2200 
 13 C        5.0630     4.3810    -0.3320 C.3   1 <1>   0.2000 
 14 C        3.7020     5.7950     1.3600 C.3   1 <1>  -0.2400 
 15 O        5.4830     3.4500     0.6250 O.3   1 <1>  -0.5600 
 16 C        6.2390     5.3390    -0.4800 C.3   1 <1>  -0.1600 
 17 C        6.8710     3.3090     0.6140 C.3   1 <1>   0.1200 
 18 C        7.4240     4.4150    -0.2810 C.3   1 <1>  -0.1600 
 19 H        2.5510     1.0200     0.0290 H     1 <1>   0.1500 
 20 H       -2.2460    -0.6290    -0.6540 H     1 <1>   0.0800 
 21 H       -3.1250     0.8440    -0.4420 H     1 <1>   0.0800 
 22 H       -2.5180    -0.0060     0.9530 H     1 <1>   0.0800 
 23 H       -1.2350     3.8830    -1.5880 H     1 <1>   0.0800 
 24 H       -1.0280     4.3180     0.0760 H     1 <1>   0.0800 
 25 H       -3.3740     2.8850    -1.1220 H     1 <1>   0.0800 
 26 H       -3.3350     4.4450    -0.3610 H     1 <1>   0.0800 
 27 H       -3.1130     3.0170     0.6170 H     1 <1>   0.0800 
 28 H        3.0690     3.1670     0.8550 H     1 <1>   0.3700 
 29 H        3.3690     5.6410    -0.7460 H     1 <1>   0.0800 
 30 H        4.9450     3.8420    -1.2570 H     1 <1>   0.0800 
 31 H        4.1060     5.2020     2.1620 H     1 <1>   0.0800 
 32 H        2.7000     6.0930     1.6110 H     1 <1>   0.0800 
 33 H        4.2930     6.6850     1.2570 H     1 <1>   0.0800 
 34 H        6.2290     6.0840     0.2940 H     1 <1>   0.0800 
 35 H        6.2450     5.8220    -1.4420 H     1 <1>   0.0800 
 36 H        7.1170     2.3300     0.2390 H     1 <1>   0.0800 
 37 H        7.2190     3.4120     1.6280 H     1 <1>   0.0800 
 38 H        8.2630     4.9140     0.1710 H     1 <1>   0.0800 
 39 H        7.7320     3.9900    -1.2200 H     1 <1>   0.0800 
@<TRIPOS>BOND
  1   1   2  1   
  2   1   3  1   
  3   2   4  2   
  4   2   5  1   
  5   3   6  2   
  6   3  19  1   
  7   4   6  1   
  8   4   7  1   
  9   5  20  1   
 10   5  21  1   
 11   5  22  1   
 12   6   8  1   
 13   7   9  1   
 14   7  23  1   
 15   7  24  1   
 16   8  10  2   
 17   8  11  am  
 18   9  25  1   
 19   9  26  1   
 20   9  27  1   
 21  11  12  1   
 22  11  28  1   
 23  12  13  1   
 24  12  14  1   
 25  12  29  1   
 26  13  15  1   
 27  13  16  1   
 28  13  30  1   
 29  14  31  1   
 30  14  32  1   
 31  14  33  1   
 32  15  17  1   
 33  16  18  1   
 34  16  34  1   
 35  16  35  1   
 36  17  18  1   
 37  17  36  1   
 38  17  37  1   
 39  18  38  1   
 40  18  39  1   
@<TRIPOS>SUBSTRUCTURE
  1 ****   8 GROUP 4 **** **** 0

# MOE 2024.06 (io_trps.svl 2023.06)
