@<TRIPOS>MOLECULE
NONAME
38 41 1 0 0 
SMALL
USER_CHARGES


@<TRIPOS>ATOM
  1 S       -7.9660    -2.4730    -0.8000 S.3   1 <1>  -0.0800 
  2 C       -6.4180    -1.7650    -0.3380 C.ar  1 <1>   0.2970 
  3 C       -8.7840    -0.9320    -0.5630 C.2   1 <1>  -0.1400 
  4 N       -5.3010    -2.4600    -0.3090 N.ar  1 <1>  -0.5670 
  5 C       -6.5610    -0.4300    -0.0330 C.ar  1 <1>   0.0000 
  6 C       -7.9320     0.0190    -0.1520 C.2   1 <1>  -0.1810 
  7 C      -10.2710    -0.8180    -0.8170 C.3   1 <1>   0.0200 
  8 C       -4.2650    -1.7300     0.0520 C.ar  1 <1>   0.4700 
  9 C       -5.3680     0.2120     0.3150 C.ar  1 <1>   0.4100 
 10 C       -8.4230     1.4290     0.1480 C.3   1 <1>   0.0210 
 11 C      -10.6570     0.6710    -0.8610 C.3   1 <1>  -0.1600 
 12 N       -4.2220    -0.4420     0.3630 N.ar  1 <1>  -0.6200 
 13 N       -5.3320     1.5460     0.6140 N.pl3 1 <1>  -0.8690 
 14 C       -9.9610     1.4780     0.2540 C.3   1 <1>  -0.1600 
 15 C       -4.1090     2.3610     0.6580 C.3   1 <1>   0.3530 
 16 C       -4.5130     3.7900     0.3400 C.ar  1 <1>  -0.1430 
 17 C       -4.7930     4.6860     1.3600 C.ar  1 <1>  -0.1500 
 18 C       -4.6180     4.2050    -0.9790 C.ar  1 <1>  -0.1500 
 19 C       -5.1700     5.9850     1.0660 C.ar  1 <1>  -0.1500 
 20 C       -4.9960     5.5040    -1.2750 C.ar  1 <1>  -0.1500 
 21 C       -5.2710     6.3940    -0.2520 C.ar  1 <1>  -0.1500 
 22 H      -10.7990    -1.3170    -0.0230 H     1 <1>   0.0800 
 23 H      -10.5250    -1.2910    -1.7490 H     1 <1>   0.0800 
 24 H       -3.3230    -2.2500     0.0990 H     1 <1>   0.1500 
 25 H       -8.0930     2.0860    -0.6380 H     1 <1>   0.0800 
 26 H       -8.0060     1.7720     1.0790 H     1 <1>   0.0800 
 27 H      -11.7250     0.7670    -0.7740 H     1 <1>   0.0800 
 28 H      -10.3660     1.0770    -1.8150 H     1 <1>   0.0800 
 29 H       -6.1580     2.1050     0.4010 H     1 <1>   0.4000 
 30 H      -10.2880     2.5030     0.2210 H     1 <1>   0.0800 
 31 H      -10.2540     1.0710     1.2070 H     1 <1>   0.0800 
 32 H       -3.3960     2.0050    -0.0670 H     1 <1>   0.0800 
 33 H       -3.6680     2.2960     1.6370 H     1 <1>   0.0800 
 34 H       -4.7210     4.3740     2.3880 H     1 <1>   0.1500 
 35 H       -4.4090     3.5160    -1.7800 H     1 <1>   0.1500 
 36 H       -5.3850     6.6770     1.8610 H     1 <1>   0.1500 
 37 H       -5.0750     5.8210    -2.3000 H     1 <1>   0.1500 
 38 H       -5.5640     7.4040    -0.4820 H     1 <1>   0.1500 
@<TRIPOS>BOND
  1   1   2  1   
  2   1   3  1   
  3   2   4  ar  
  4   2   5  ar  
  5   3   6  2   
  6   3   7  1   
  7   4   8  ar  
  8   5   6  1   
  9   5   9  ar  
 10   6  10  1   
 11   7  11  1   
 12   7  22  1   
 13   7  23  1   
 14   8  12  ar  
 15   8  24  1   
 16   9  12  ar  
 17   9  13  1   
 18  10  14  1   
 19  10  25  1   
 20  10  26  1   
 21  11  14  1   
 22  11  27  1   
 23  11  28  1   
 24  13  15  1   
 25  13  29  1   
 26  14  30  1   
 27  14  31  1   
 28  15  16  1   
 29  15  32  1   
 30  15  33  1   
 31  16  17  ar  
 32  16  18  ar  
 33  17  19  ar  
 34  17  34  1   
 35  18  20  ar  
 36  18  35  1   
 37  19  21  ar  
 38  19  36  1   
 39  20  21  ar  
 40  20  37  1   
 41  21  38  1   
@<TRIPOS>SUBSTRUCTURE
  1 ****  13 GROUP 4 **** **** 0

# MOE 2024.06 (io_trps.svl 2023.06)
