@<TRIPOS>MOLECULE
NONAME
32 33 1 0 0 
SMALL
USER_CHARGES


@<TRIPOS>ATOM
  1 S        0.0620    -0.1590    -0.8150 S.o2  1 <1>   1.0900 
  2 O       -0.3770     0.6730    -1.9120 O.2   1 <1>  -0.6500 
  3 O       -0.6140    -1.3950    -0.5020 O.2   1 <1>  -0.6500 
  4 C        1.8100    -0.4460    -0.9710 C.3   1 <1>  -0.0550 
  5 C        0.1700     0.8610     0.6470 C.3   1 <1>  -0.0550 
  6 C        2.5210     0.6350    -0.1340 C.3   1 <1>   0.3000 
  7 C        1.6360     0.8950     1.1010 C.3   1 <1>  -0.1600 
  8 N        3.9040     0.2240     0.3040 N.am  1 <1>  -0.6600 
  9 C        2.6240     1.9110    -0.9960 C.3   1 <1>  -0.2400 
 10 C        4.2330    -1.0690     0.6650 C.2   1 <1>   0.7150 
 11 C        4.8470     1.3120     0.7170 C.3   1 <1>   0.0600 
 12 O        3.4000    -1.7450     1.2410 O.2   1 <1>  -0.5700 
 13 C        5.5460    -1.5990     0.3820 C.2   1 <1>  -0.0450 
 14 S        6.0880    -3.0460     1.2420 S.3   1 <1>  -0.0800 
 15 C        6.5370    -1.2080    -0.4630 C.2   1 <1>  -0.1500 
 16 C        7.6340    -3.0480     0.4230 C.2   1 <1>  -0.1100 
 17 C        7.7090    -2.0190    -0.4390 C.2   1 <1>  -0.1500 
 18 H        2.1150    -0.4080    -1.9990 H     1 <1>   0.0800 
 19 H        2.0070    -1.4290    -0.5980 H     1 <1>   0.0800 
 20 H       -0.4590     0.4800     1.4290 H     1 <1>   0.0800 
 21 H       -0.1510     1.8570     0.4060 H     1 <1>   0.0800 
 22 H        1.7770     0.1040     1.8170 H     1 <1>   0.0800 
 23 H        1.8690     1.8300     1.5770 H     1 <1>   0.0800 
 24 H        1.6740     2.1820    -1.4200 H     1 <1>   0.0800 
 25 H        3.3080     1.7530    -1.8110 H     1 <1>   0.0800 
 26 H        2.9530     2.7550    -0.4190 H     1 <1>   0.0800 
 27 H        4.3370     2.0320     1.3320 H     1 <1>   0.0800 
 28 H        5.2480     1.8040    -0.1520 H     1 <1>   0.0800 
 29 H        5.6660     0.9100     1.2910 H     1 <1>   0.0800 
 30 H        6.4760    -0.3590    -1.1210 H     1 <1>   0.1500 
 31 H        8.3300    -3.8290     0.6750 H     1 <1>   0.1500 
 32 H        8.5550    -1.7970    -1.0670 H     1 <1>   0.1500 
@<TRIPOS>BOND
  1   1   2  2   
  2   1   3  2   
  3   1   4  1   
  4   1   5  1   
  5   4   6  1   
  6   4  18  1   
  7   4  19  1   
  8   5   7  1   
  9   5  20  1   
 10   5  21  1   
 11   6   7  1   
 12   6   8  1   
 13   6   9  1   
 14   7  22  1   
 15   7  23  1   
 16   8  10  am  
 17   8  11  1   
 18   9  24  1   
 19   9  25  1   
 20   9  26  1   
 21  10  12  2   
 22  10  13  1   
 23  11  27  1   
 24  11  28  1   
 25  11  29  1   
 26  13  14  1   
 27  13  15  2   
 28  14  16  1   
 29  15  17  1   
 30  15  30  1   
 31  16  17  2   
 32  16  31  1   
 33  17  32  1   
@<TRIPOS>SUBSTRUCTURE
  1 ****   8 GROUP 4 **** **** 0

# MOE 2024.06 (io_trps.svl 2023.06)
