@<TRIPOS>MOLECULE
NONAME
37 39 1 0 0 
SMALL
USER_CHARGES


@<TRIPOS>ATOM
  1 CL      -0.3500     0.2870     2.8060 Cl    1 <1>  -0.1770 
  2 C       -0.9200     1.6500     1.8740 C.ar  1 <1>   0.1770 
  3 C       -0.0290     2.6240     1.4780 C.ar  1 <1>  -0.1500 
  4 C       -2.2600     1.7300     1.5530 C.ar  1 <1>  -0.1500 
  5 C       -0.4470     3.7260     0.7320 C.ar  1 <1>   0.0280 
  6 C       -2.7070     2.8140     0.8200 C.ar  1 <1>  -0.1500 
  7 C       -1.8170     3.8060     0.4110 C.ar  1 <1>   0.0830 
  8 C        0.4850     4.7510     0.3140 C.2   1 <1>  -0.1780 
  9 O       -2.2380     4.8800    -0.3140 O.3   1 <1>  -0.3630 
 10 C        1.8310     4.7340     0.1510 C.2   1 <1>  -0.0380 
 11 C       -3.5270     4.9480    -0.8830 C.3   1 <1>   0.0400 
 12 N        2.6710     3.6330     0.3470 N.pl3 1 <1>  -0.8380 
 13 C        2.5960     5.9910    -0.3150 C.3   1 <1>   0.3380 
 14 C        3.3050     3.2330    -0.9440 C.3   1 <1>   0.2090 
 15 C        3.7380     3.9080     1.3550 C.3   1 <1>   0.2090 
 16 O        2.0870     6.4510    -1.5240 O.3   1 <1>  -0.6800 
 17 C        4.0880     5.6120    -0.4960 C.3   1 <1>  -0.0800 
 18 C        4.1820     4.4010    -1.4600 C.3   1 <1>  -0.1600 
 19 C        4.5900     5.1090     0.8780 C.3   1 <1>  -0.1600 
 20 H        1.0000     2.5200     1.7590 H     1 <1>   0.1500 
 21 H       -2.9340     0.9570     1.8740 H     1 <1>   0.1500 
 22 H       -3.7520     2.8670     0.5830 H     1 <1>   0.1500 
 23 H        0.0000     5.6820     0.0840 H     1 <1>   0.1500 
 24 H       -3.5780     5.8390    -1.4820 H     1 <1>   0.0800 
 25 H       -4.2550     4.9970    -0.0930 H     1 <1>   0.0800 
 26 H       -3.6810     4.0820    -1.5020 H     1 <1>   0.0800 
 27 H        2.4850     6.7770     0.4120 H     1 <1>   0.0800 
 28 H        3.8950     2.3440    -0.8010 H     1 <1>   0.0800 
 29 H        2.5290     3.0140    -1.6580 H     1 <1>   0.0800 
 30 H        3.2750     4.1320     2.3010 H     1 <1>   0.0800 
 31 H        4.3520     3.0320     1.4780 H     1 <1>   0.0800 
 32 H        2.6090     7.2110    -1.8330 H     1 <1>   0.4000 
 33 H        4.6710     6.4490    -0.8350 H     1 <1>   0.0800 
 34 H        5.2010     4.0710    -1.5500 H     1 <1>   0.0800 
 35 H        3.8460     4.6790    -2.4430 H     1 <1>   0.0800 
 36 H        4.5270     5.8970     1.6070 H     1 <1>   0.0800 
 37 H        5.6210     4.8110     0.8140 H     1 <1>   0.0800 
@<TRIPOS>BOND
  1   1   2  1   
  2   2   3  ar  
  3   2   4  ar  
  4   3   5  ar  
  5   3  20  1   
  6   4   6  ar  
  7   4  21  1   
  8   5   7  ar  
  9   5   8  1   
 10   6   7  ar  
 11   6  22  1   
 12   7   9  1   
 13   8  10  2   
 14   8  23  1   
 15   9  11  1   
 16  10  12  1   
 17  10  13  1   
 18  11  24  1   
 19  11  25  1   
 20  11  26  1   
 21  12  14  1   
 22  12  15  1   
 23  13  16  1   
 24  13  17  1   
 25  13  27  1   
 26  14  18  1   
 27  14  28  1   
 28  14  29  1   
 29  15  19  1   
 30  15  30  1   
 31  15  31  1   
 32  16  32  1   
 33  17  18  1   
 34  17  19  1   
 35  17  33  1   
 36  18  34  1   
 37  18  35  1   
 38  19  36  1   
 39  19  37  1   
@<TRIPOS>SUBSTRUCTURE
  1 ****   8 GROUP 4 **** **** 0

# MOE 2024.06 (io_trps.svl 2023.06)
