@<TRIPOS>MOLECULE
NONAME
45 46 1 0 0 
SMALL
USER_CHARGES


@<TRIPOS>ATOM
  1 CL       0.9080    -2.5460     0.9540 Cl    1 <1>  -0.1770 
  2 C        2.4990    -1.8280     0.9350 C.ar  1 <1>   0.1770 
  3 C        3.1480    -1.5860     2.1310 C.ar  1 <1>  -0.1500 
  4 C        3.0860    -1.5150    -0.2770 C.ar  1 <1>  -0.1500 
  5 C        4.4090    -1.0150     2.1100 C.ar  1 <1>  -0.1500 
  6 C        4.3480    -0.9440    -0.2950 C.ar  1 <1>  -0.1500 
  7 C        5.0130    -0.6870     0.9050 C.ar  1 <1>   0.0820 
  8 O        6.2460    -0.1240     0.9820 O.3   1 <1>  -0.3630 
  9 C        6.8770     0.4890    -0.1290 C.3   1 <1>   0.1200 
 10 C        6.2020     1.8310    -0.4400 C.3   1 <1>   0.2000 
 11 O        6.9240     2.4840    -1.4180 O.3   1 <1>  -0.6800 
 12 C        6.1410     2.7740     0.7790 C.3   1 <1>   0.1100 
 13 N        5.9790     4.2040     0.3890 N.3   1 <1>  -0.8100 
 14 C        4.6140     4.4830    -0.1310 C.3   1 <1>   0.1100 
 15 C        6.2720     5.0900     1.5440 C.3   1 <1>   0.1100 
 16 C        4.4220     5.9690    -0.5280 C.3   1 <1>   0.3430 
 17 C        6.0270     6.5890     1.2340 C.3   1 <1>   0.3430 
 18 N        5.6370     6.7930    -0.2000 N.4   1 <1>  -0.9590 
 19 C        5.5120     8.2430    -0.5500 C.3   1 <1>   0.3430 
 20 C        5.4200     8.4850    -2.0640 C.3   1 <1>   0.1200 
 21 O        5.3100     9.8490    -2.2640 O.3   1 <1>  -0.6800 
 22 H        2.6710    -1.8430     3.0610 H     1 <1>   0.1500 
 23 H        2.5590    -1.7200    -1.1910 H     1 <1>   0.1500 
 24 H        4.9320    -0.8220     3.0300 H     1 <1>   0.1500 
 25 H        4.7930    -0.7170    -1.2450 H     1 <1>   0.1500 
 26 H        6.8500    -0.1800    -0.9690 H     1 <1>   0.0800 
 27 H        7.9030     0.6550     0.1470 H     1 <1>   0.0800 
 28 H        5.2140     1.6630    -0.8290 H     1 <1>   0.0800 
 29 H        6.9120     3.4310    -1.1530 H     1 <1>   0.4000 
 30 H        7.0640     2.6600     1.3240 H     1 <1>   0.0800 
 31 H        5.3450     2.4620     1.4340 H     1 <1>   0.0800 
 32 H        3.8810     4.2230     0.6140 H     1 <1>   0.0800 
 33 H        4.4210     3.8720    -0.9960 H     1 <1>   0.0800 
 34 H        7.3010     4.9620     1.8340 H     1 <1>   0.0800 
 35 H        5.6650     4.8060     2.3870 H     1 <1>   0.0800 
 36 H        3.5600     6.3610    -0.0140 H     1 <1>   0.0800 
 37 H        4.2200     6.0180    -1.5860 H     1 <1>   0.0800 
 38 H        6.9250     7.1420     1.4550 H     1 <1>   0.0800 
 39 H        5.2480     6.9580     1.8810 H     1 <1>   0.0800 
 40 H        6.4060     6.3580    -0.7320 H     1 <1>   0.4500 
 41 H        6.3740     8.7750    -0.1820 H     1 <1>   0.0800 
 42 H        4.6350     8.6550    -0.0780 H     1 <1>   0.0800 
 43 H        4.5470     8.0180    -2.4860 H     1 <1>   0.0800 
 44 H        6.3100     8.1440    -2.5640 H     1 <1>   0.0800 
 45 H        5.2760    10.0760    -3.2180 H     1 <1>   0.4000 
@<TRIPOS>BOND
  1   1   2  1   
  2   2   3  ar  
  3   2   4  ar  
  4   3   5  ar  
  5   3  22  1   
  6   4   6  ar  
  7   4  23  1   
  8   5   7  ar  
  9   5  24  1   
 10   6   7  ar  
 11   6  25  1   
 12   7   8  1   
 13   8   9  1   
 14   9  10  1   
 15   9  26  1   
 16   9  27  1   
 17  10  11  1   
 18  10  12  1   
 19  10  28  1   
 20  11  29  1   
 21  12  13  1   
 22  12  30  1   
 23  12  31  1   
 24  13  14  1   
 25  13  15  1   
 26  14  16  1   
 27  14  32  1   
 28  14  33  1   
 29  15  17  1   
 30  15  34  1   
 31  15  35  1   
 32  16  18  1   
 33  16  36  1   
 34  16  37  1   
 35  17  18  1   
 36  17  38  1   
 37  17  39  1   
 38  18  19  1   
 39  18  40  1   
 40  19  20  1   
 41  19  41  1   
 42  19  42  1   
 43  20  21  1   
 44  20  43  1   
 45  20  44  1   
 46  21  45  1   
@<TRIPOS>SUBSTRUCTURE
  1 ****  12 GROUP 4 **** **** 0

# MOE 2024.06 (io_trps.svl 2023.06)
