@<TRIPOS>MOLECULE
NONAME
40 41 1 0 0 
SMALL
USER_CHARGES


@<TRIPOS>ATOM
  1 O        0.4100     0.0120    -0.0140 O.2   1 <1>  -0.5700 
  2 C        0.6510     1.1500     0.3440 C.2   1 <1>   0.6900 
  3 N        1.9040     1.4870     0.7910 N.am  1 <1>  -0.6600 
  4 N       -0.2970     2.1300     0.2800 N.am  1 <1>  -0.5470 
  5 C        2.2200     2.7040     1.5830 C.3   1 <1>   0.1400 
  6 C        3.0580     0.5750     0.5900 C.3   1 <1>   0.1400 
  7 C       -1.6680     2.0940    -0.0110 C.ar  1 <1>   0.1170 
  8 C        2.8810     3.7780     0.7110 C.3   1 <1>  -0.1600 
  9 C        3.7560     0.8570    -0.7460 C.3   1 <1>  -0.1600 
 10 C       -2.4430     0.9490     0.1400 C.ar  1 <1>  -0.1500 
 11 C       -2.2890     3.2580    -0.4490 C.ar  1 <1>  -0.1500 
 12 C        4.1520     3.3230    -0.0330 C.3   1 <1>  -0.1600 
 13 C        3.8550     2.3340    -1.1730 C.3   1 <1>  -0.1600 
 14 C       -3.7980     0.9600    -0.1420 C.ar  1 <1>  -0.1430 
 15 C       -3.6440     3.2860    -0.7310 C.ar  1 <1>  -0.1430 
 16 C       -4.3940     2.1330    -0.5770 C.ar  1 <1>  -0.1500 
 17 C       -4.6280    -0.2990     0.0240 C.3   1 <1>  -0.0970 
 18 C       -4.3130     4.5610    -1.2120 C.3   1 <1>  -0.0970 
 19 H        0.1090     3.0540     0.3520 H     1 <1>   0.3700 
 20 H        2.8830     2.4390     2.3890 H     1 <1>   0.0800 
 21 H        1.3240     3.0960     2.0310 H     1 <1>   0.0800 
 22 H        2.7280    -0.4510     0.6140 H     1 <1>   0.0800 
 23 H        3.7610     0.7030     1.3940 H     1 <1>   0.0800 
 24 H        3.1420     4.6020     1.3510 H     1 <1>   0.0800 
 25 H        2.1620     4.1490     0.0010 H     1 <1>   0.0800 
 26 H        3.2340     0.3160    -1.5170 H     1 <1>   0.0800 
 27 H        4.7450     0.4400    -0.6920 H     1 <1>   0.0800 
 28 H       -1.9810     0.0430     0.4850 H     1 <1>   0.1500 
 29 H       -1.7030     4.1490    -0.5720 H     1 <1>   0.1500 
 30 H        4.8660     2.9030     0.6550 H     1 <1>   0.0800 
 31 H        4.6050     4.1990    -0.4660 H     1 <1>   0.0800 
 32 H        2.9370     2.6200    -1.6580 H     1 <1>   0.0800 
 33 H        4.6330     2.4120    -1.9130 H     1 <1>   0.0800 
 34 H       -5.4470     2.1460    -0.7960 H     1 <1>   0.1500 
 35 H       -3.9970    -1.1700     0.0340 H     1 <1>   0.0800 
 36 H       -5.3240    -0.3950    -0.7900 H     1 <1>   0.0800 
 37 H       -5.1740    -0.2560     0.9490 H     1 <1>   0.0800 
 38 H       -3.6690     5.4100    -1.0700 H     1 <1>   0.0800 
 39 H       -5.2230     4.7290    -0.6640 H     1 <1>   0.0800 
 40 H       -4.5480     4.4760    -2.2580 H     1 <1>   0.0800 
@<TRIPOS>BOND
  1   1   2  2   
  2   2   3  am  
  3   2   4  am  
  4   3   5  1   
  5   3   6  1   
  6   4   7  1   
  7   4  19  1   
  8   5   8  1   
  9   5  20  1   
 10   5  21  1   
 11   6   9  1   
 12   6  22  1   
 13   6  23  1   
 14   7  10  ar  
 15   7  11  ar  
 16   8  12  1   
 17   8  24  1   
 18   8  25  1   
 19   9  13  1   
 20   9  26  1   
 21   9  27  1   
 22  10  14  ar  
 23  10  28  1   
 24  11  15  ar  
 25  11  29  1   
 26  12  13  1   
 27  12  30  1   
 28  12  31  1   
 29  13  32  1   
 30  13  33  1   
 31  14  16  ar  
 32  14  17  1   
 33  15  16  ar  
 34  15  18  1   
 35  16  34  1   
 36  17  35  1   
 37  17  36  1   
 38  17  37  1   
 39  18  38  1   
 40  18  39  1   
 41  18  40  1   
@<TRIPOS>SUBSTRUCTURE
  1 ****   4 GROUP 4 **** **** 0

# MOE 2024.06 (io_trps.svl 2023.06)
