@<TRIPOS>MOLECULE
NONAME
64 67 1 0 0 
SMALL
USER_CHARGES


@<TRIPOS>ATOM
  1 O      -10.2360     3.6290     0.2000 O.3   1 <1>  -0.3670 
  2 C       -8.9000     3.6280     0.4340 C.ar  1 <1>   0.0760 
  3 C      -11.1340     2.7470     0.8400 C.3   1 <1>   0.1140 
  4 C       -8.2720     2.8410     1.3950 C.ar  1 <1>  -0.1560 
  5 C       -8.1350     4.4740    -0.3500 C.ar  1 <1>  -0.1560 
  6 C      -11.0550     1.3690     0.1790 C.3   1 <1>  -0.2450 
  7 C       -6.8980     2.8920     1.5460 C.ar  1 <1>  -0.1560 
  8 C       -6.7620     4.5260    -0.1990 C.ar  1 <1>  -0.1560 
  9 C       -6.1290     3.7240     0.7430 C.ar  1 <1>  -0.1490 
 10 C       -4.6150     3.7210     0.8820 C.3   1 <1>   0.3390 
 11 O       -4.1740     5.0280     0.9320 O.3   1 <1>  -0.6830 
 12 C       -3.9220     3.0110    -0.3020 C.3   1 <1>   0.3490 
 13 N       -3.9950     1.5170    -0.2060 N.pl3 1 <1>  -0.7660 
 14 C       -3.1100     0.6770     0.3190 C.cat 1 <1>   1.0690 
 15 C       -5.0810     0.7640    -0.6400 C.ar  1 <1>   0.3040 
 16 N       -1.9720     1.0620     0.8570 N.pl3 1 <1>  -0.8390 
 17 N       -3.5280    -0.5930     0.2370 N.pl3 1 <1>  -0.7660 
 18 C       -4.7960    -0.5580    -0.3440 C.ar  1 <1>   0.3040 
 19 C       -6.2800     1.1070    -1.2570 C.ar  1 <1>  -0.1150 
 20 C       -2.8620    -1.8490     0.6890 C.3   1 <1>   0.3490 
 21 C       -5.7170    -1.5630    -0.6300 C.ar  1 <1>  -0.1150 
 22 C       -7.1910     0.1110    -1.5460 C.ar  1 <1>  -0.1560 
 23 C       -2.4190    -2.7260    -0.5140 C.3   1 <1>   0.3380 
 24 C       -6.9120    -1.2190    -1.2320 C.ar  1 <1>  -0.1560 
 25 N       -1.7280    -4.0160    -0.1510 N.4   1 <1>  -0.9600 
 26 C       -1.1680    -4.6560    -1.3840 C.3   1 <1>   0.3380 
 27 C       -2.6120    -4.9900     0.5690 C.3   1 <1>   0.3380 
 28 C       -0.3030    -5.8540    -0.9930 C.3   1 <1>  -0.1660 
 29 C       -1.7860    -6.1970     1.0160 C.3   1 <1>  -0.1660 
 30 C       -1.0940    -6.8780    -0.1700 C.3   1 <1>  -0.1660 
 31 H      -12.1210     3.1550     0.7130 H     1 <1>   0.0740 
 32 H      -10.9140     2.7130     1.8920 H     1 <1>   0.0740 
 33 H       -8.8380     2.1860     2.0290 H     1 <1>   0.1440 
 34 H       -8.6270     5.0910    -1.0810 H     1 <1>   0.1440 
 35 H      -11.2920     1.4510    -0.8660 H     1 <1>   0.0740 
 36 H      -11.7670     0.7080     0.6390 H     1 <1>   0.0740 
 37 H      -10.0750     0.9440     0.2920 H     1 <1>   0.0740 
 38 H       -6.4370     2.2730     2.2950 H     1 <1>   0.1440 
 39 H       -6.1940     5.1950    -0.8250 H     1 <1>   0.1440 
 40 H       -4.3230     3.2620     1.8100 H     1 <1>   0.0740 
 41 H       -4.8210     5.5610     1.4410 H     1 <1>   0.3960 
 42 H       -2.8910     3.3150    -0.3300 H     1 <1>   0.0740 
 43 H       -4.3790     3.3310    -1.2220 H     1 <1>   0.0740 
 44 H       -1.3110     0.4430     1.3140 H     1 <1>   0.4460 
 45 H       -1.7080     2.0460     0.8900 H     1 <1>   0.4460 
 46 H       -6.5060     2.1300    -1.5010 H     1 <1>   0.1440 
 47 H       -3.5570    -2.3980     1.3020 H     1 <1>   0.0740 
 48 H       -2.0020    -1.6090     1.2890 H     1 <1>   0.0740 
 49 H       -5.5180    -2.5890    -0.3860 H     1 <1>   0.1440 
 50 H       -8.1300     0.3610    -2.0150 H     1 <1>   0.1440 
 51 H       -1.7500    -2.1390    -1.1210 H     1 <1>   0.0740 
 52 H       -3.2860    -2.9540    -1.1110 H     1 <1>   0.0740 
 53 H       -7.6460    -1.9750    -1.4640 H     1 <1>   0.1440 
 54 H       -0.9130    -3.8500     0.4550 H     1 <1>   0.4460 
 55 H       -0.5640    -3.9480    -1.9300 H     1 <1>   0.0740 
 56 H       -1.9690    -4.9860    -2.0250 H     1 <1>   0.0740 
 57 H       -3.4020    -5.3220    -0.0850 H     1 <1>   0.0740 
 58 H       -3.0550    -4.5300     1.4360 H     1 <1>   0.0740 
 59 H        0.5530    -5.5160    -0.4350 H     1 <1>   0.0740 
 60 H        0.0650    -6.3290    -1.8860 H     1 <1>   0.0740 
 61 H       -2.4340    -6.9070     1.5000 H     1 <1>   0.0740 
 62 H       -1.0530    -5.8860     1.7400 H     1 <1>   0.0740 
 63 H       -0.4330    -7.6530     0.1850 H     1 <1>   0.0740 
 64 H       -1.8350    -7.3460    -0.7980 H     1 <1>   0.0740 
@<TRIPOS>BOND
  1   1   2  1   
  2   1   3  1   
  3   2   4  ar  
  4   2   5  ar  
  5   3   6  1   
  6   3  31  1   
  7   3  32  1   
  8   4   7  ar  
  9   4  33  1   
 10   5   8  ar  
 11   5  34  1   
 12   6  35  1   
 13   6  36  1   
 14   6  37  1   
 15   7   9  ar  
 16   7  38  1   
 17   8   9  ar  
 18   8  39  1   
 19   9  10  1   
 20  10  11  1   
 21  10  12  1   
 22  10  40  1   
 23  11  41  1   
 24  12  13  1   
 25  12  42  1   
 26  12  43  1   
 27  13  14  ar  
 28  13  15  1   
 29  14  16  ar  
 30  14  17  ar  
 31  15  18  ar  
 32  15  19  ar  
 33  16  44  1   
 34  16  45  1   
 35  17  18  1   
 36  17  20  1   
 37  18  21  ar  
 38  19  22  ar  
 39  19  46  1   
 40  20  23  1   
 41  20  47  1   
 42  20  48  1   
 43  21  24  ar  
 44  21  49  1   
 45  22  24  ar  
 46  22  50  1   
 47  23  25  1   
 48  23  51  1   
 49  23  52  1   
 50  24  53  1   
 51  25  26  1   
 52  25  27  1   
 53  25  54  1   
 54  26  28  1   
 55  26  55  1   
 56  26  56  1   
 57  27  29  1   
 58  27  57  1   
 59  27  58  1   
 60  28  30  1   
 61  28  59  1   
 62  28  60  1   
 63  29  30  1   
 64  29  61  1   
 65  29  62  1   
 66  30  63  1   
 67  30  64  1   
@<TRIPOS>SUBSTRUCTURE
  1 ****  15 GROUP 4 **** **** 0

# MOE 2024.06 (io_trps.svl 2023.06)
