@<TRIPOS>MOLECULE
NONAME
32 33 1 0 0 
SMALL
USER_CHARGES


@<TRIPOS>ATOM
  1 BR       0.2110    -0.1370     1.0680 Br    1 <1>  -0.1110 
  2 C        1.7560     0.8480     0.4830 C.ar  1 <1>   0.1110 
  3 C        2.4460     0.4070    -0.6290 C.ar  1 <1>  -0.1500 
  4 C        2.1350     1.9730     1.1880 C.ar  1 <1>  -0.1500 
  5 C        3.5590     1.1180    -1.0450 C.ar  1 <1>  -0.1500 
  6 C        3.2490     2.6780     0.7650 C.ar  1 <1>  -0.1500 
  7 C        3.9660     2.2510    -0.3480 C.ar  1 <1>  -0.1430 
  8 C        5.1940     3.0120    -0.7950 C.3   1 <1>   0.4870 
  9 N        6.3390     2.4020    -0.0900 N.4   1 <1>  -0.9060 
 10 C        7.6500     3.0230    -0.4510 C.3   1 <1>   0.3430 
 11 C        8.8350     2.3470     0.2540 C.3   1 <1>   0.2000 
 12 O        9.9970     2.9010    -0.2480 O.3   1 <1>  -0.5600 
 13 C        8.9920     0.8540    -0.0140 C.3   1 <1>  -0.1600 
 14 C       11.0790     2.0460    -0.0420 C.3   1 <1>   0.1200 
 15 C       10.4910     0.6470     0.1270 C.3   1 <1>  -0.1600 
 16 H        2.1130    -0.4720    -1.1540 H     1 <1>   0.1500 
 17 H        1.5650     2.2860     2.0470 H     1 <1>   0.1500 
 18 H        4.0920     0.7760    -1.9170 H     1 <1>   0.1500 
 19 H        3.5390     3.5600     1.3140 H     1 <1>   0.1500 
 20 H        5.0980     4.0550    -0.5370 H     1 <1>   0.0800 
 21 H        5.3130     2.9250    -1.8630 H     1 <1>   0.0800 
 22 H        6.3440     1.3990    -0.3090 H     1 <1>   0.4500 
 23 H        6.1640     2.4720     0.9190 H     1 <1>   0.4500 
 24 H        7.6460     4.0680    -0.1860 H     1 <1>   0.0800 
 25 H        7.8060     2.9430    -1.5150 H     1 <1>   0.0800 
 26 H        8.8210     2.5470     1.3130 H     1 <1>   0.0800 
 27 H        8.6900     0.6210    -1.0210 H     1 <1>   0.0800 
 28 H        8.4350     0.2490     0.6810 H     1 <1>   0.0800 
 29 H       11.6030     2.3640     0.8440 H     1 <1>   0.0800 
 30 H       11.7330     2.1110    -0.8960 H     1 <1>   0.0800 
 31 H       10.8770    -0.0310    -0.6160 H     1 <1>   0.0800 
 32 H       10.7420     0.2690     1.1030 H     1 <1>   0.0800 
@<TRIPOS>BOND
  1   1   2  1   
  2   2   3  ar  
  3   2   4  ar  
  4   3   5  ar  
  5   3  16  1   
  6   4   6  ar  
  7   4  17  1   
  8   5   7  ar  
  9   5  18  1   
 10   6   7  ar  
 11   6  19  1   
 12   7   8  1   
 13   8   9  1   
 14   8  20  1   
 15   8  21  1   
 16   9  10  1   
 17   9  22  1   
 18   9  23  1   
 19  10  11  1   
 20  10  24  1   
 21  10  25  1   
 22  11  12  1   
 23  11  13  1   
 24  11  26  1   
 25  12  14  1   
 26  13  15  1   
 27  13  27  1   
 28  13  28  1   
 29  14  15  1   
 30  14  29  1   
 31  14  30  1   
 32  15  31  1   
 33  15  32  1   
@<TRIPOS>SUBSTRUCTURE
  1 ****   9 GROUP 4 **** **** 0

# MOE 2024.06 (io_trps.svl 2023.06)
