@<TRIPOS>MOLECULE
NONAME
50 51 1 0 0 
SMALL
USER_CHARGES


@<TRIPOS>ATOM
  1 S       -0.3610     0.0650     1.4170 S.o2  1 <1>   1.4470 
  2 O       -0.9250     0.3030     2.7280 O.2   1 <1>  -0.6500 
  3 O       -0.2190    -1.2940     0.9430 O.2   1 <1>  -0.6500 
  4 N       -1.3540     0.8690     0.3040 N.am  1 <1>  -0.8490 
  5 C        1.2270     0.9260     1.2520 C.ar  1 <1>  -0.0090 
  6 C       -1.6820     2.2420     0.7340 C.3   1 <1>   0.1960 
  7 C       -2.5950     0.1160     0.0570 C.3   1 <1>   0.1960 
  8 C        1.7660     1.1870    -0.0020 C.ar  1 <1>  -0.1500 
  9 C        1.9450     1.3380     2.3700 C.ar  1 <1>  -0.1500 
 10 C       -2.5040     2.9800    -0.3340 C.3   1 <1>   0.1400 
 11 C       -3.4750     0.7890    -1.0130 C.3   1 <1>   0.1400 
 12 C        2.9750     1.8440    -0.1470 C.ar  1 <1>   0.0830 
 13 C        3.1510     2.0070     2.2410 C.ar  1 <1>  -0.1500 
 14 N       -3.7440     2.2160    -0.6610 N.am  1 <1>  -0.6600 
 15 O        3.4340     2.0290    -1.4070 O.3   1 <1>  -0.3630 
 16 C        3.6670     2.2810     0.9870 C.ar  1 <1>   0.0830 
 17 C       -4.9660     2.6550    -0.2350 C.2   1 <1>   0.6900 
 18 C        4.5940     1.3070    -1.7580 C.3   1 <1>   0.0400 
 19 O        4.8330     2.9680     0.9280 O.3   1 <1>  -0.3630 
 20 O       -5.0550     3.5460     0.5900 O.2   1 <1>  -0.5700 
 21 N       -6.0840     2.0950    -0.7550 N.am  1 <1>  -0.7300 
 22 C        4.7970     4.2360     0.3090 C.3   1 <1>   0.0400 
 23 C       -7.4620     2.4870    -0.4030 C.3   1 <1>   0.1400 
 24 C       -8.3700     1.2600    -0.4930 C.3   1 <1>  -0.1600 
 25 C       -9.8170     1.6120    -0.1320 C.3   1 <1>  -0.2400 
 26 H       -0.7760     2.7960     0.9110 H     1 <1>   0.0800 
 27 H       -2.2450     2.2230     1.6540 H     1 <1>   0.0800 
 28 H       -3.1570     0.0260     0.9730 H     1 <1>   0.0800 
 29 H       -2.3540    -0.8780    -0.2800 H     1 <1>   0.0800 
 30 H        1.2380     0.8690    -0.8840 H     1 <1>   0.1500 
 31 H        1.5540     1.1360     3.3540 H     1 <1>   0.1500 
 32 H       -1.9130     3.0910    -1.2250 H     1 <1>   0.0800 
 33 H       -2.7510     3.9660     0.0210 H     1 <1>   0.0800 
 34 H       -4.3940     0.2380    -1.1000 H     1 <1>   0.0800 
 35 H       -2.9700     0.7490    -1.9620 H     1 <1>   0.0800 
 36 H        3.6950     2.3240     3.1140 H     1 <1>   0.1500 
 37 H        4.8030     1.4900    -2.7970 H     1 <1>   0.0800 
 38 H        4.4130     0.2590    -1.5970 H     1 <1>   0.0800 
 39 H        5.4190     1.6400    -1.1540 H     1 <1>   0.0800 
 40 H       -5.9730     1.5810    -1.6250 H     1 <1>   0.3700 
 41 H        5.7480     4.7120     0.4650 H     1 <1>   0.0800 
 42 H        4.0130     4.8200     0.7570 H     1 <1>   0.0800 
 43 H        4.6190     4.1150    -0.7440 H     1 <1>   0.0800 
 44 H       -7.7970     3.2530    -1.0810 H     1 <1>   0.0800 
 45 H       -7.4810     2.8860     0.5980 H     1 <1>   0.0800 
 46 H       -8.0120     0.5060     0.1860 H     1 <1>   0.0800 
 47 H       -8.3440     0.8660    -1.4940 H     1 <1>   0.0800 
 48 H       -9.8710     1.9930     0.8740 H     1 <1>   0.0800 
 49 H      -10.4370     0.7350    -0.1980 H     1 <1>   0.0800 
 50 H      -10.2050     2.3560    -0.8050 H     1 <1>   0.0800 
@<TRIPOS>BOND
  1   1   2  2   
  2   1   3  2   
  3   1   4  am  
  4   1   5  1   
  5   4   6  1   
  6   4   7  1   
  7   5   8  ar  
  8   5   9  ar  
  9   6  10  1   
 10   6  26  1   
 11   6  27  1   
 12   7  11  1   
 13   7  28  1   
 14   7  29  1   
 15   8  12  ar  
 16   8  30  1   
 17   9  13  ar  
 18   9  31  1   
 19  10  14  1   
 20  10  32  1   
 21  10  33  1   
 22  11  14  1   
 23  11  34  1   
 24  11  35  1   
 25  12  15  1   
 26  12  16  ar  
 27  13  16  ar  
 28  13  36  1   
 29  14  17  am  
 30  15  18  1   
 31  16  19  1   
 32  17  20  2   
 33  17  21  am  
 34  18  37  1   
 35  18  38  1   
 36  18  39  1   
 37  19  22  1   
 38  21  23  1   
 39  21  40  1   
 40  22  41  1   
 41  22  42  1   
 42  22  43  1   
 43  23  24  1   
 44  23  44  1   
 45  23  45  1   
 46  24  25  1   
 47  24  46  1   
 48  24  47  1   
 49  25  48  1   
 50  25  49  1   
 51  25  50  1   
@<TRIPOS>SUBSTRUCTURE
  1 ****   4 GROUP 4 **** **** 0

# MOE 2024.06 (io_trps.svl 2023.06)
