@<TRIPOS>MOLECULE
NONAME
42 43 1 0 0 
SMALL
USER_CHARGES


@<TRIPOS>ATOM
  1 O       -0.8030     1.7780    -1.9290 O.2   1 <1>  -0.5700 
  2 C       -1.0620     1.9890    -0.7690 C.2   1 <1>   0.5690 
  3 N       -2.1030     1.3780    -0.1530 N.am  1 <1>  -0.7300 
  4 C       -0.2110     2.9690     0.0380 C.3   1 <1>  -0.0190 
  5 C       -3.0700     0.5080    -0.8240 C.3   1 <1>   0.3640 
  6 C       -0.3480     4.4040    -0.5070 C.3   1 <1>  -0.1600 
  7 C        1.2690     2.5400     0.0690 C.3   1 <1>  -0.1600 
  8 C       -4.4010     0.6300    -0.0900 C.ar  1 <1>  -0.1440 
  9 C       -2.5400    -0.9240    -0.8220 C.3   1 <1>  -0.2400 
 10 C        0.5120     5.3960     0.2920 C.3   1 <1>  -0.1600 
 11 C        2.1280     3.5300     0.8680 C.3   1 <1>  -0.1600 
 12 C       -5.4960     1.1730    -0.7450 C.ar  1 <1>  -0.1500 
 13 C       -4.5450     0.2180     1.2290 C.ar  1 <1>  -0.1500 
 14 C        1.9810     4.9560     0.3200 C.3   1 <1>  -0.1600 
 15 C       -6.7190     1.3040    -0.1070 C.ar  1 <1>   0.0820 
 16 C       -5.7630     0.3440     1.8760 C.ar  1 <1>  -0.1500 
 17 O       -7.7300     1.8450    -0.8310 O.3   1 <1>  -0.3630 
 18 C       -6.8500     0.8850     1.2140 C.ar  1 <1>  -0.1500 
 19 C       -9.0160     2.0180    -0.2790 C.3   1 <1>   0.0400 
 20 H       -2.3690     1.6320     0.7970 H     1 <1>   0.3700 
 21 H       -0.5730     2.9670     1.0500 H     1 <1>   0.0800 
 22 H       -3.1870     0.8340    -1.8450 H     1 <1>   0.0800 
 23 H       -1.3790     4.7090    -0.4670 H     1 <1>   0.0800 
 24 H       -0.0410     4.4210    -1.5390 H     1 <1>   0.0800 
 25 H        1.6410     2.4820    -0.9410 H     1 <1>   0.0800 
 26 H        1.3500     1.5590     0.5030 H     1 <1>   0.0800 
 27 H       -2.3330    -1.2610     0.1760 H     1 <1>   0.0800 
 28 H       -1.6400    -0.9760    -1.4080 H     1 <1>   0.0800 
 29 H       -3.2710    -1.5770    -1.2640 H     1 <1>   0.0800 
 30 H        0.1390     5.4620     1.3000 H     1 <1>   0.0800 
 31 H        0.4380     6.3740    -0.1520 H     1 <1>   0.0800 
 32 H        3.1600     3.2310     0.8190 H     1 <1>   0.0800 
 33 H        1.8280     3.5130     1.9020 H     1 <1>   0.0800 
 34 H       -5.4150     1.5060    -1.7640 H     1 <1>   0.1500 
 35 H       -3.7120    -0.2070     1.7610 H     1 <1>   0.1500 
 36 H        2.5500     5.6370     0.9300 H     1 <1>   0.0800 
 37 H        2.3830     4.9950    -0.6790 H     1 <1>   0.0800 
 38 H       -5.8640     0.0190     2.8970 H     1 <1>   0.1500 
 39 H       -7.7830     0.9710     1.7370 H     1 <1>   0.1500 
 40 H       -9.6450     2.4580    -1.0320 H     1 <1>   0.0800 
 41 H       -8.9460     2.6760     0.5690 H     1 <1>   0.0800 
 42 H       -9.4060     1.0580     0.0070 H     1 <1>   0.0800 
@<TRIPOS>BOND
  1   1   2  2   
  2   2   3  am  
  3   2   4  1   
  4   3   5  1   
  5   3  20  1   
  6   4   6  1   
  7   4   7  1   
  8   4  21  1   
  9   5   8  1   
 10   5   9  1   
 11   5  22  1   
 12   6  10  1   
 13   6  23  1   
 14   6  24  1   
 15   7  11  1   
 16   7  25  1   
 17   7  26  1   
 18   8  12  ar  
 19   8  13  ar  
 20   9  27  1   
 21   9  28  1   
 22   9  29  1   
 23  10  14  1   
 24  10  30  1   
 25  10  31  1   
 26  11  14  1   
 27  11  32  1   
 28  11  33  1   
 29  12  15  ar  
 30  12  34  1   
 31  13  16  ar  
 32  13  35  1   
 33  14  36  1   
 34  14  37  1   
 35  15  17  1   
 36  15  18  ar  
 37  16  18  ar  
 38  16  38  1   
 39  17  19  1   
 40  18  39  1   
 41  19  40  1   
 42  19  41  1   
 43  19  42  1   
@<TRIPOS>SUBSTRUCTURE
  1 ****   3 GROUP 4 **** **** 0

# MOE 2024.06 (io_trps.svl 2023.06)
