@<TRIPOS>MOLECULE
NONAME
31 32 1 0 0 
SMALL
USER_CHARGES


@<TRIPOS>ATOM
  1 O        0.0250    -0.0570     1.0110 O.2   1 <1>  -0.5700 
  2 C       -0.5260    -0.9800     0.4650 C.2   1 <1>   0.5690 
  3 N       -1.7320    -0.8740    -0.1620 N.am  1 <1>  -0.5470 
  4 C        0.1610    -2.3450     0.4720 C.3   1 <1>  -0.0190 
  5 C       -2.6130     0.1660    -0.3610 C.ar  1 <1>   0.4270 
  6 C        0.5130    -2.8910    -0.9180 C.3   1 <1>  -0.1600 
  7 C       -0.6550    -3.4680     1.1160 C.3   1 <1>  -0.1600 
  8 N       -3.6830    -0.2070    -1.0450 N.ar  1 <1>  -0.6200 
  9 C       -2.4120     1.4660     0.1000 C.ar  1 <1>  -0.1500 
 10 C        0.5800    -4.4150    -0.7670 C.3   1 <1>  -0.1600 
 11 C        0.0110    -4.7490     0.6170 C.3   1 <1>  -0.1600 
 12 C       -4.5780     0.7390    -1.2770 C.ar  1 <1>   0.1600 
 13 C       -3.3510     2.4430    -0.1480 C.ar  1 <1>  -0.1430 
 14 C       -4.4650     2.0530    -0.8610 C.ar  1 <1>  -0.1500 
 15 C       -3.1790     3.8730     0.3320 C.3   1 <1>  -0.0970 
 16 H       -2.0880    -1.7260    -0.5840 H     1 <1>   0.3700 
 17 H        1.0790    -2.2490     1.0280 H     1 <1>   0.0800 
 18 H        1.4460    -2.4840    -1.2690 H     1 <1>   0.0800 
 19 H       -0.2580    -2.6420    -1.6270 H     1 <1>   0.0800 
 20 H       -1.6730    -3.4420     0.7700 H     1 <1>   0.0800 
 21 H       -0.6470    -3.4020     2.1910 H     1 <1>   0.0800 
 22 H       -1.5250     1.7100     0.6500 H     1 <1>   0.1500 
 23 H        1.5970    -4.7610    -0.8410 H     1 <1>   0.0800 
 24 H       -0.0020    -4.8890    -1.5390 H     1 <1>   0.0800 
 25 H       -0.6840    -5.5700     0.5790 H     1 <1>   0.0800 
 26 H        0.8200    -5.0100     1.2790 H     1 <1>   0.0800 
 27 H       -5.4540     0.4510    -1.8330 H     1 <1>   0.1500 
 28 H       -5.2410     2.7590    -1.0930 H     1 <1>   0.1500 
 29 H       -2.2510     3.9880     0.8630 H     1 <1>   0.0800 
 30 H       -3.9860     4.1380     0.9920 H     1 <1>   0.0800 
 31 H       -3.1790     4.5440    -0.5070 H     1 <1>   0.0800 
@<TRIPOS>BOND
  1   1   2  2   
  2   2   3  am  
  3   2   4  1   
  4   3   5  1   
  5   3  16  1   
  6   4   6  1   
  7   4   7  1   
  8   4  17  1   
  9   5   8  ar  
 10   5   9  ar  
 11   6  10  1   
 12   6  18  1   
 13   6  19  1   
 14   7  11  1   
 15   7  20  1   
 16   7  21  1   
 17   8  12  ar  
 18   9  13  ar  
 19   9  22  1   
 20  10  11  1   
 21  10  23  1   
 22  10  24  1   
 23  11  25  1   
 24  11  26  1   
 25  12  14  ar  
 26  12  27  1   
 27  13  14  ar  
 28  13  15  1   
 29  14  28  1   
 30  15  29  1   
 31  15  30  1   
 32  15  31  1   
@<TRIPOS>SUBSTRUCTURE
  1 ****   3 GROUP 4 **** **** 0

# MOE 2024.06 (io_trps.svl 2023.06)
