@<TRIPOS>MOLECULE
NONAME
31 31 1 0 0 
SMALL
USER_CHARGES


@<TRIPOS>ATOM
  1 S        0.0900     0.2520    -1.1050 S.o2  1 <1>   1.3330 
  2 O       -0.9590    -0.6530    -0.7090 O.2   1 <1>  -0.6500 
  3 O        1.4330    -0.2380    -1.3170 O.2   1 <1>  -0.6500 
  4 N        0.1900     1.5000     0.0850 N.am  1 <1>  -0.6930 
  5 C       -0.4210     1.1480    -2.5560 C.3   1 <1>  -0.1350 
  6 C       -0.9610     2.1540     0.5280 C.ar  1 <1>   0.1990 
  7 C        1.5220     2.1300     0.3470 C.3   1 <1>   0.2570 
  8 C       -1.3540     3.4030     0.0210 C.ar  1 <1>   0.0830 
  9 C       -1.7430     1.5460     1.4990 C.ar  1 <1>  -0.1500 
 10 C        2.3780     1.3750     1.3710 C.2   1 <1>   0.5690 
 11 O       -0.5770     3.9720    -0.9520 O.3   1 <1>  -0.3630 
 12 C       -2.5070     4.0120     0.5070 C.ar  1 <1>  -0.1500 
 13 C       -2.8890     2.1560     1.9770 C.ar  1 <1>  -0.1500 
 14 O        2.7290     1.9310     2.3820 O.2   1 <1>  -0.5700 
 15 N        2.7650     0.1050     1.1370 N.am  1 <1>  -0.8000 
 16 C       -0.8140     5.2910    -1.3970 C.3   1 <1>   0.0400 
 17 C       -3.2700     3.3900     1.4820 C.ar  1 <1>  -0.1500 
 18 H       -0.4970     0.4810    -3.3920 H     1 <1>   0.0800 
 19 H        0.2890     1.9170    -2.7870 H     1 <1>   0.0800 
 20 H       -1.3790     1.6010    -2.3900 H     1 <1>   0.0800 
 21 H        1.3730     3.1280     0.7180 H     1 <1>   0.0800 
 22 H        2.0720     2.2050    -0.5730 H     1 <1>   0.0800 
 23 H       -1.4460     0.5840     1.8790 H     1 <1>   0.1500 
 24 H       -2.8370     4.9660     0.1430 H     1 <1>   0.1500 
 25 H       -3.4820     1.6680     2.7320 H     1 <1>   0.1500 
 26 H        3.3110    -0.4110     1.8260 H     1 <1>   0.3700 
 27 H        2.4730    -0.4020     0.2890 H     1 <1>   0.3700 
 28 H       -0.0470     5.5480    -2.1060 H     1 <1>   0.0800 
 29 H       -0.7700     5.9580    -0.5540 H     1 <1>   0.0800 
 30 H       -1.7780     5.3330    -1.8730 H     1 <1>   0.0800 
 31 H       -4.1610     3.8640     1.8540 H     1 <1>   0.1500 
@<TRIPOS>BOND
  1   1   2  2   
  2   1   3  2   
  3   1   4  am  
  4   1   5  1   
  5   4   6  1   
  6   4   7  1   
  7   5  18  1   
  8   5  19  1   
  9   5  20  1   
 10   6   8  ar  
 11   6   9  ar  
 12   7  10  1   
 13   7  21  1   
 14   7  22  1   
 15   8  11  1   
 16   8  12  ar  
 17   9  13  ar  
 18   9  23  1   
 19  10  14  2   
 20  10  15  am  
 21  11  16  1   
 22  12  17  ar  
 23  12  24  1   
 24  13  17  ar  
 25  13  25  1   
 26  15  26  1   
 27  15  27  1   
 28  16  28  1   
 29  16  29  1   
 30  16  30  1   
 31  17  31  1   
@<TRIPOS>SUBSTRUCTURE
  1 ****   4 GROUP 4 **** **** 0

# MOE 2024.06 (io_trps.svl 2023.06)
