@<TRIPOS>MOLECULE
NONAME
48 49 1 0 0 
SMALL
USER_CHARGES


@<TRIPOS>ATOM
  1 O        2.9960     7.7010     0.4660 O.3   1 <1>  -0.5600 
  2 C        2.7900     9.0680     0.7010 C.3   1 <1>   0.1200 
  3 C        2.5930     7.2700    -0.8060 C.3   1 <1>   0.1200 
  4 C        1.3040     9.4540     0.5080 C.3   1 <1>   0.3430 
  5 C        1.0880     7.5440    -1.0370 C.3   1 <1>   0.3430 
  6 N        0.4710     8.2610     0.1340 N.4   1 <1>  -0.9590 
  7 C       -0.9700     8.5950    -0.0360 C.3   1 <1>   0.3430 
  8 C       -1.8070     7.3190    -0.0780 C.3   1 <1>  -0.1600 
  9 C       -3.2970     7.6500    -0.1310 C.3   1 <1>   0.1200 
 10 O       -3.9880     6.4290    -0.1840 O.3   1 <1>  -0.3630 
 11 C       -5.3460     6.3750    -0.2350 C.ar  1 <1>   0.0820 
 12 C       -5.9370     5.1150    -0.2680 C.ar  1 <1>  -0.1430 
 13 C       -6.1490     7.5140    -0.2560 C.ar  1 <1>  -0.1500 
 14 C       -7.3160     5.0120    -0.3210 C.ar  1 <1>  -0.1500 
 15 C       -5.0860     3.8530    -0.2460 C.3   1 <1>  -0.0970 
 16 C       -7.5310     7.4090    -0.3090 C.ar  1 <1>  -0.1430 
 17 C       -8.1060     6.1480    -0.3410 C.ar  1 <1>  -0.1500 
 18 C       -8.3930     8.6710    -0.3310 C.3   1 <1>   0.0630 
 19 C       -9.3070     8.7300     0.8970 C.3   1 <1>  -0.2400 
 20 C       -9.2110     8.7510    -1.6240 C.3   1 <1>  -0.2400 
 21 H        3.4210     9.6310     0.0340 H     1 <1>   0.0800 
 22 H        3.0990     9.2760     1.7100 H     1 <1>   0.0800 
 23 H        2.7920     6.2140    -0.8740 H     1 <1>   0.0800 
 24 H        3.1920     7.7720    -1.5460 H     1 <1>   0.0800 
 25 H        1.2370    10.2060    -0.2610 H     1 <1>   0.0800 
 26 H        0.9360     9.8910     1.4220 H     1 <1>   0.0800 
 27 H        0.5880     6.6040    -1.2010 H     1 <1>   0.0800 
 28 H        0.9740     8.1320    -1.9330 H     1 <1>   0.0800 
 29 H        0.5780     7.6080     0.9270 H     1 <1>   0.4500 
 30 H       -1.1150     9.1610    -0.9420 H     1 <1>   0.0800 
 31 H       -1.2980     9.1980     0.7960 H     1 <1>   0.0800 
 32 H       -1.6220     6.7340     0.8060 H     1 <1>   0.0800 
 33 H       -1.5640     6.7410    -0.9510 H     1 <1>   0.0800 
 34 H       -3.5430     8.2120    -1.0160 H     1 <1>   0.0800 
 35 H       -3.6150     8.1770     0.7530 H     1 <1>   0.0800 
 36 H       -5.7150     8.4920    -0.2310 H     1 <1>   0.1500 
 37 H       -7.7870     4.0460    -0.3470 H     1 <1>   0.1500 
 38 H       -4.4320     3.8410    -1.0990 H     1 <1>   0.0800 
 39 H       -5.7000     2.9710    -0.2700 H     1 <1>   0.0800 
 40 H       -4.4910     3.8320     0.6490 H     1 <1>   0.0800 
 41 H       -9.1750     6.0410    -0.3830 H     1 <1>   0.1500 
 42 H       -7.7480     9.5330    -0.2990 H     1 <1>   0.0800 
 43 H      -10.0110     7.9170     0.8900 H     1 <1>   0.0800 
 44 H       -9.8520     9.6570     0.9120 H     1 <1>   0.0800 
 45 H       -8.7170     8.6640     1.7940 H     1 <1>   0.0800 
 46 H       -9.9120     7.9390    -1.6840 H     1 <1>   0.0800 
 47 H       -8.5550     8.7000    -2.4750 H     1 <1>   0.0800 
 48 H       -9.7530     9.6780    -1.6650 H     1 <1>   0.0800 
@<TRIPOS>BOND
  1   1   2  1   
  2   1   3  1   
  3   2   4  1   
  4   2  21  1   
  5   2  22  1   
  6   3   5  1   
  7   3  23  1   
  8   3  24  1   
  9   4   6  1   
 10   4  25  1   
 11   4  26  1   
 12   5   6  1   
 13   5  27  1   
 14   5  28  1   
 15   6   7  1   
 16   6  29  1   
 17   7   8  1   
 18   7  30  1   
 19   7  31  1   
 20   8   9  1   
 21   8  32  1   
 22   8  33  1   
 23   9  10  1   
 24   9  34  1   
 25   9  35  1   
 26  10  11  1   
 27  11  12  ar  
 28  11  13  ar  
 29  12  14  ar  
 30  12  15  1   
 31  13  16  ar  
 32  13  36  1   
 33  14  17  ar  
 34  14  37  1   
 35  15  38  1   
 36  15  39  1   
 37  15  40  1   
 38  16  17  ar  
 39  16  18  1   
 40  17  41  1   
 41  18  19  1   
 42  18  20  1   
 43  18  42  1   
 44  19  43  1   
 45  19  44  1   
 46  19  45  1   
 47  20  46  1   
 48  20  47  1   
 49  20  48  1   
@<TRIPOS>SUBSTRUCTURE
  1 ****   9 GROUP 4 **** **** 0

# MOE 2024.06 (io_trps.svl 2023.06)
