@<TRIPOS>MOLECULE
NONAME
35 37 1 0 0 
SMALL
USER_CHARGES


@<TRIPOS>ATOM
  1 O       -0.5240    -0.7830     2.0360 O.2   1 <1>  -0.5700 
  2 C       -0.3030    -1.4190     1.0260 C.2   1 <1>   0.6160 
  3 N        0.9360    -1.3670     0.4610 N.am  1 <1>  -0.7300 
  4 C       -1.3510    -2.1900     0.4010 C.2   1 <1>  -0.0140 
  5 C        2.0960    -0.6230     0.9770 C.3   1 <1>   0.2200 
  6 C       -1.1620    -3.5890     0.0740 C.ar  1 <1>   0.0280 
  7 C       -2.5420    -1.6020     0.0890 C.2   1 <1>  -0.1360 
  8 C        2.7040     0.1810    -0.1660 C.3   1 <1>  -0.1600 
  9 C        3.1960    -1.6170     1.3270 C.3   1 <1>  -0.1600 
 10 C       -2.1760    -4.2550    -0.6410 C.ar  1 <1>   0.1170 
 11 C       -0.0340    -4.3350     0.4420 C.ar  1 <1>  -0.1500 
 12 C       -3.5740    -2.2890    -0.5960 C.2   1 <1>   0.6160 
 13 C        3.5770    -0.8040    -0.9540 C.3   1 <1>  -0.1600 
 14 C        3.8730    -1.9710    -0.0020 C.3   1 <1>  -0.1600 
 15 N       -3.3420    -3.5750    -0.9610 N.am  1 <1>  -0.5470 
 16 C       -2.0210    -5.5890    -1.0080 C.ar  1 <1>  -0.1500 
 17 C        0.1070    -5.6570     0.0780 C.ar  1 <1>  -0.1500 
 18 O       -4.6420    -1.7830    -0.8850 O.2   1 <1>  -0.5700 
 19 C       -0.8870    -6.2870    -0.6560 C.ar  1 <1>  -0.1500 
 20 H        1.1120    -1.8720    -0.4070 H     1 <1>   0.3700 
 21 H        1.8180    -0.0040     1.8150 H     1 <1>   0.0800 
 22 H       -2.7460    -0.5780     0.3410 H     1 <1>   0.1500 
 23 H        3.3340     0.9440     0.2560 H     1 <1>   0.0800 
 24 H        1.9540     0.6550    -0.7740 H     1 <1>   0.0800 
 25 H        2.8170    -2.4780     1.8480 H     1 <1>   0.0800 
 26 H        3.9100    -1.1210     1.9610 H     1 <1>   0.0800 
 27 H        0.7450    -3.8830     1.0290 H     1 <1>   0.1500 
 28 H        4.4840    -0.3280    -1.2850 H     1 <1>   0.0800 
 29 H        3.0420    -1.1650    -1.8150 H     1 <1>   0.0800 
 30 H        3.4500    -2.8780    -0.3980 H     1 <1>   0.0800 
 31 H        4.9320    -2.1130     0.1320 H     1 <1>   0.0800 
 32 H       -4.1080    -4.0320    -1.4540 H     1 <1>   0.3700 
 33 H       -2.7970    -6.0790    -1.5670 H     1 <1>   0.1500 
 34 H        0.9850    -6.2090     0.3660 H     1 <1>   0.1500 
 35 H       -0.7700    -7.3190    -0.9410 H     1 <1>   0.1500 
@<TRIPOS>BOND
  1   1   2  2   
  2   2   3  am  
  3   2   4  1   
  4   3   5  1   
  5   3  20  1   
  6   4   6  1   
  7   4   7  2   
  8   5   8  1   
  9   5   9  1   
 10   5  21  1   
 11   6  10  ar  
 12   6  11  ar  
 13   7  12  1   
 14   7  22  1   
 15   8  13  1   
 16   8  23  1   
 17   8  24  1   
 18   9  14  1   
 19   9  25  1   
 20   9  26  1   
 21  10  15  1   
 22  10  16  ar  
 23  11  17  ar  
 24  11  27  1   
 25  12  15  am  
 26  12  18  2   
 27  13  14  1   
 28  13  28  1   
 29  13  29  1   
 30  14  30  1   
 31  14  31  1   
 32  15  32  1   
 33  16  19  ar  
 34  16  33  1   
 35  17  19  ar  
 36  17  34  1   
 37  19  35  1   
@<TRIPOS>SUBSTRUCTURE
  1 ****   4 GROUP 4 **** **** 0

# MOE 2024.06 (io_trps.svl 2023.06)
