@<TRIPOS>MOLECULE
NONAME
51 53 1 0 0 
SMALL
USER_CHARGES


@<TRIPOS>ATOM
  1 S        0.5180     0.4920     0.5460 S.o2  1 <1>   1.4470 
  2 O        1.0700    -0.1130    -0.6430 O.2   1 <1>  -0.6500 
  3 O        1.3290     0.5950     1.7400 O.2   1 <1>  -0.6500 
  4 N        0.0980     2.1180     0.1380 N.am  1 <1>  -0.6930 
  5 C       -1.0820    -0.2500     0.9770 C.ar  1 <1>  -0.0090 
  6 C       -0.9320     2.3580    -0.7670 C.ar  1 <1>   0.1990 
  7 C        1.1750     3.1480     0.2680 C.3   1 <1>   0.2570 
  8 C       -1.9670    -0.6710    -0.0110 C.ar  1 <1>  -0.1500 
  9 C       -1.4790    -0.3900     2.3030 C.ar  1 <1>  -0.1500 
 10 C       -2.2070     2.7540    -0.3420 C.ar  1 <1>  -0.1430 
 11 C       -0.6960     2.1700    -2.1240 C.ar  1 <1>  -0.1500 
 12 C        2.2570     3.1040    -0.8260 C.2   1 <1>   0.5690 
 13 C       -3.2000    -1.2110     0.3100 C.ar  1 <1>  -0.1500 
 14 C       -2.7100    -0.9310     2.6330 C.ar  1 <1>  -0.1500 
 15 C       -3.2180     2.9400    -1.2820 C.ar  1 <1>  -0.1430 
 16 C       -2.5080     2.9650     1.1440 C.3   1 <1>  -0.0960 
 17 C       -1.6960     2.3670    -3.0520 C.ar  1 <1>  -0.1500 
 18 O        2.0630     3.7880    -1.8070 O.2   1 <1>  -0.5700 
 19 N        3.4050     2.3530    -0.7170 N.am  1 <1>  -0.6600 
 20 C       -3.5730    -1.3430     1.6340 C.ar  1 <1>  -0.1500 
 21 C       -2.9540     2.7490    -2.6290 C.ar  1 <1>  -0.1500 
 22 C       -4.6290     3.3480    -0.8770 C.3   1 <1>  -0.0970 
 23 C        4.2850     2.1190    -1.9030 C.3   1 <1>   0.1400 
 24 C        3.8890     1.6300     0.4990 C.3   1 <1>   0.1400 
 25 C        5.7610     2.3510    -1.5440 C.3   1 <1>   0.1200 
 26 C        5.3930     1.8670     0.7210 C.3   1 <1>   0.1200 
 27 O        6.1260     1.5800    -0.4350 O.3   1 <1>  -0.5600 
 28 H        1.6250     3.0770     1.2380 H     1 <1>   0.0800 
 29 H        0.7120     4.1170     0.2140 H     1 <1>   0.0800 
 30 H       -1.6880    -0.5680    -1.0470 H     1 <1>   0.1500 
 31 H       -0.8170    -0.0710     3.0900 H     1 <1>   0.1500 
 32 H        0.2820     1.8660    -2.4540 H     1 <1>   0.1500 
 33 H       -3.8680    -1.5270    -0.4740 H     1 <1>   0.1500 
 34 H       -2.9950    -1.0320     3.6660 H     1 <1>   0.1500 
 35 H       -1.6180     3.0180     1.7400 H     1 <1>   0.0800 
 36 H       -3.1090     2.1510     1.5080 H     1 <1>   0.0800 
 37 H       -3.0430     3.8850     1.2900 H     1 <1>   0.0800 
 38 H       -1.4960     2.2220    -4.0990 H     1 <1>   0.1500 
 39 H       -4.5310    -1.7640     1.8860 H     1 <1>   0.1500 
 40 H       -3.7280     2.8980    -3.3620 H     1 <1>   0.1500 
 41 H       -4.6250     4.3530    -0.4940 H     1 <1>   0.0800 
 42 H       -5.0060     2.6830    -0.1210 H     1 <1>   0.0800 
 43 H       -5.2980     3.3110    -1.7170 H     1 <1>   0.0800 
 44 H        4.0140     2.7690    -2.7160 H     1 <1>   0.0800 
 45 H        4.1580     1.1040    -2.2370 H     1 <1>   0.0800 
 46 H        3.7130     0.5740     0.3750 H     1 <1>   0.0800 
 47 H        3.3670     1.9560     1.3770 H     1 <1>   0.0800 
 48 H        5.9360     3.3890    -1.3190 H     1 <1>   0.0800 
 49 H        6.3910     2.0640    -2.3660 H     1 <1>   0.0800 
 50 H        5.7550     1.2270     1.5060 H     1 <1>   0.0800 
 51 H        5.5770     2.8900     0.9980 H     1 <1>   0.0800 
@<TRIPOS>BOND
  1   1   2  2   
  2   1   3  2   
  3   1   4  am  
  4   1   5  1   
  5   4   6  1   
  6   4   7  1   
  7   5   8  ar  
  8   5   9  ar  
  9   6  10  ar  
 10   6  11  ar  
 11   7  12  1   
 12   7  28  1   
 13   7  29  1   
 14   8  13  ar  
 15   8  30  1   
 16   9  14  ar  
 17   9  31  1   
 18  10  15  ar  
 19  10  16  1   
 20  11  17  ar  
 21  11  32  1   
 22  12  18  2   
 23  12  19  am  
 24  13  20  ar  
 25  13  33  1   
 26  14  20  ar  
 27  14  34  1   
 28  15  21  ar  
 29  15  22  1   
 30  16  35  1   
 31  16  36  1   
 32  16  37  1   
 33  17  21  ar  
 34  17  38  1   
 35  19  23  1   
 36  19  24  1   
 37  20  39  1   
 38  21  40  1   
 39  22  41  1   
 40  22  42  1   
 41  22  43  1   
 42  23  25  1   
 43  23  44  1   
 44  23  45  1   
 45  24  26  1   
 46  24  46  1   
 47  24  47  1   
 48  25  27  1   
 49  25  48  1   
 50  25  49  1   
 51  26  27  1   
 52  26  50  1   
 53  26  51  1   
@<TRIPOS>SUBSTRUCTURE
  1 ****   4 GROUP 4 **** **** 0

# MOE 2024.06 (io_trps.svl 2023.06)
