@<TRIPOS>MOLECULE
NONAME
37 38 1 0 0 
SMALL
USER_CHARGES


@<TRIPOS>ATOM
  1 BR      -0.4610     0.3520    -0.7310 Br    1 <1>  -0.1110 
  2 C        1.3260     1.0440    -0.5340 C.ar  1 <1>   0.1110 
  3 C        1.4950     2.3120    -0.0130 C.ar  1 <1>  -0.1500 
  4 C        2.3900     0.2530    -0.9190 C.ar  1 <1>  -0.1500 
  5 C        2.7790     2.8130     0.1300 C.ar  1 <1>  -0.1440 
  6 C        3.6720     0.7550    -0.7750 C.ar  1 <1>  -0.1500 
  7 C        3.8730     2.0330    -0.2500 C.ar  1 <1>   0.0830 
  8 C        2.9820     4.2100     0.7010 C.3   1 <1>  -0.0960 
  9 O        5.1100     2.5730    -0.0850 O.3   1 <1>  -0.3630 
 10 C        6.2820     1.8400    -0.3610 C.3   1 <1>   0.1200 
 11 C        7.4810     2.7390    -0.0510 C.3   1 <1>   0.1100 
 12 N        8.7670     2.0440    -0.2860 N.3   1 <1>  -0.8100 
 13 C        9.0950     1.0950     0.8010 C.3   1 <1>   0.1100 
 14 C        9.8540     3.0200    -0.4980 C.3   1 <1>   0.1100 
 15 C       10.4240     0.3620     0.5240 C.3   1 <1>   0.3430 
 16 C       11.1930     2.3150    -0.7970 C.3   1 <1>   0.3430 
 17 N       11.5460     1.3280     0.2770 N.4   1 <1>  -0.9060 
 18 H        0.6340     2.8890     0.2710 H     1 <1>   0.1500 
 19 H        2.2160    -0.7280    -1.3210 H     1 <1>   0.1500 
 20 H        4.4950     0.1370    -1.0790 H     1 <1>   0.1500 
 21 H        2.0420     4.6730     0.9390 H     1 <1>   0.0800 
 22 H        3.4960     4.8240    -0.0160 H     1 <1>   0.0800 
 23 H        3.5740     4.1540     1.5970 H     1 <1>   0.0800 
 24 H        6.2780     1.5710    -1.4020 H     1 <1>   0.0800 
 25 H        6.2780     0.9650     0.2630 H     1 <1>   0.0800 
 26 H        7.4240     3.0820     0.9690 H     1 <1>   0.0800 
 27 H        7.4120     3.5960    -0.7010 H     1 <1>   0.0800 
 28 H        8.3140     0.3580     0.8840 H     1 <1>   0.0800 
 29 H        9.1560     1.6160     1.7410 H     1 <1>   0.0800 
 30 H        9.9590     3.6520     0.3680 H     1 <1>   0.0800 
 31 H        9.6050     3.6490    -1.3370 H     1 <1>   0.0800 
 32 H       10.2890    -0.2640    -0.3420 H     1 <1>   0.0800 
 33 H       10.6620    -0.2750     1.3610 H     1 <1>   0.0800 
 34 H       11.9720     3.0530    -0.8940 H     1 <1>   0.0800 
 35 H       11.1000     1.8050    -1.7430 H     1 <1>   0.0800 
 36 H       12.3990     0.8180     0.0170 H     1 <1>   0.4500 
 37 H       11.7410     1.8400     1.1450 H     1 <1>   0.4500 
@<TRIPOS>BOND
  1   1   2  1   
  2   2   3  ar  
  3   2   4  ar  
  4   3   5  ar  
  5   3  18  1   
  6   4   6  ar  
  7   4  19  1   
  8   5   7  ar  
  9   5   8  1   
 10   6   7  ar  
 11   6  20  1   
 12   7   9  1   
 13   8  21  1   
 14   8  22  1   
 15   8  23  1   
 16   9  10  1   
 17  10  11  1   
 18  10  24  1   
 19  10  25  1   
 20  11  12  1   
 21  11  26  1   
 22  11  27  1   
 23  12  13  1   
 24  12  14  1   
 25  13  15  1   
 26  13  28  1   
 27  13  29  1   
 28  14  16  1   
 29  14  30  1   
 30  14  31  1   
 31  15  17  1   
 32  15  32  1   
 33  15  33  1   
 34  16  17  1   
 35  16  34  1   
 36  16  35  1   
 37  17  36  1   
 38  17  37  1   
@<TRIPOS>SUBSTRUCTURE
  1 ****  10 GROUP 4 **** **** 0

# MOE 2024.06 (io_trps.svl 2023.06)
