@<TRIPOS>MOLECULE
NONAME
62 64 1 0 0 
SMALL
USER_CHARGES


@<TRIPOS>ATOM
  1 O       -2.6500    -1.8700     2.7360 O.2   1 <1>  -0.5700 
  2 C       -3.1120    -2.1520     1.6480 C.2   1 <1>   0.7060 
  3 O       -4.2990    -1.6370     1.3420 O.3   1 <1>  -0.2330 
  4 C       -2.4510    -2.9910     0.6830 C.2   1 <1>  -0.1240 
  5 C       -4.9350    -1.8620     0.1730 C.ar  1 <1>   0.0820 
  6 C       -3.0290    -3.2330    -0.5260 C.2   1 <1>  -0.1670 
  7 C       -1.0930    -3.5610     1.1100 C.3   1 <1>  -0.0220 
  8 C       -4.3310    -2.6760    -0.7990 C.ar  1 <1>   0.0280 
  9 C       -6.1860    -1.2800    -0.0230 C.ar  1 <1>  -0.1440 
 10 C       -2.3710    -4.0610    -1.6340 C.3   1 <1>  -0.1020 
 11 C        0.0420    -2.5980     0.7360 C.3   1 <1>  -0.0990 
 12 C       -5.0510    -2.8960    -1.9780 C.ar  1 <1>  -0.1500 
 13 C       -6.8770    -1.5320    -1.2010 C.ar  1 <1>   0.0830 
 14 C       -6.7900    -0.3820     1.0590 C.3   1 <1>  -0.0960 
 15 C        1.4000    -3.2060     1.0110 C.2   1 <1>   0.6590 
 16 C       -6.2950    -2.3380    -2.1790 C.ar  1 <1>  -0.1500 
 17 O       -8.1080    -0.9900    -1.3540 O.3   1 <1>  -0.3630 
 18 O        2.1240    -2.7800     1.8720 O.2   1 <1>  -0.5700 
 19 O        1.7360    -4.2320     0.2420 O.3   1 <1>  -0.4300 
 20 C       -9.0070    -1.4250    -2.3640 C.3   1 <1>   0.1810 
 21 C        2.9750    -4.8850     0.3950 C.3   1 <1>   0.1200 
 22 C      -10.4140    -0.8750    -2.1360 C.2   1 <1>   0.5690 
 23 C        3.0420    -6.0170    -0.6250 C.3   1 <1>  -0.2400 
 24 O      -10.8750    -0.1810    -3.0140 O.2   1 <1>  -0.5700 
 25 N      -11.1380    -1.1840    -1.0060 N.am  1 <1>  -0.6600 
 26 C      -10.6540    -2.0440     0.1110 C.3   1 <1>   0.1400 
 27 C      -12.4780    -0.5840    -0.7580 C.3   1 <1>   0.1400 
 28 C      -10.5840    -1.2160     1.3960 C.3   1 <1>  -0.1600 
 29 C      -12.4360     0.2520     0.5250 C.3   1 <1>  -0.1600 
 30 C      -11.9390    -0.5710     1.7260 C.3   1 <1>  -0.0800 
 31 C      -11.8290     0.3100     2.9750 C.3   1 <1>  -0.2400 
 32 H       -0.9290    -4.5220     0.6600 H     1 <1>   0.0800 
 33 H       -1.0770    -3.7300     2.1740 H     1 <1>   0.0800 
 34 H       -2.9250    -4.9700    -1.7900 H     1 <1>   0.0800 
 35 H       -1.3530    -4.3220    -1.4240 H     1 <1>   0.0800 
 36 H       -2.3590    -3.4990    -2.5510 H     1 <1>   0.0800 
 37 H       -0.0540    -1.6890     1.3030 H     1 <1>   0.0800 
 38 H       -0.0120    -2.3510    -0.3070 H     1 <1>   0.0800 
 39 H       -4.6440    -3.5120    -2.7560 H     1 <1>   0.1500 
 40 H       -6.0250     0.1770     1.5660 H     1 <1>   0.0800 
 41 H       -7.3120    -0.9850     1.7790 H     1 <1>   0.0800 
 42 H       -7.4770     0.3290     0.6380 H     1 <1>   0.0800 
 43 H       -6.8000    -2.5340    -3.1060 H     1 <1>   0.1500 
 44 H       -9.0420    -2.4980    -2.3560 H     1 <1>   0.0800 
 45 H       -8.6360    -1.0780    -3.3100 H     1 <1>   0.0800 
 46 H        3.0380    -5.2660     1.4010 H     1 <1>   0.0800 
 47 H        3.7610    -4.1680     0.2310 H     1 <1>   0.0800 
 48 H        2.2460    -6.7190    -0.4540 H     1 <1>   0.0800 
 49 H        3.9800    -6.5340    -0.5310 H     1 <1>   0.0800 
 50 H        2.9680    -5.6220    -1.6230 H     1 <1>   0.0800 
 51 H       -9.6860    -2.4620    -0.1000 H     1 <1>   0.0800 
 52 H      -11.3430    -2.8610     0.2440 H     1 <1>   0.0800 
 53 H      -13.2030    -1.3730    -0.6610 H     1 <1>   0.0800 
 54 H      -12.7760     0.0400    -1.5830 H     1 <1>   0.0800 
 55 H       -9.8360    -0.4520     1.2710 H     1 <1>   0.0800 
 56 H      -10.2750    -1.8500     2.2080 H     1 <1>   0.0800 
 57 H      -13.4220     0.6320     0.7270 H     1 <1>   0.0800 
 58 H      -11.7870     1.0940     0.3610 H     1 <1>   0.0800 
 59 H      -12.6520    -1.3540     1.9220 H     1 <1>   0.0800 
 60 H      -11.1230     1.1060     2.8160 H     1 <1>   0.0800 
 61 H      -11.5030    -0.2750     3.8170 H     1 <1>   0.0800 
 62 H      -12.7850     0.7410     3.2130 H     1 <1>   0.0800 
@<TRIPOS>BOND
  1   1   2  2   
  2   2   3  1   
  3   2   4  1   
  4   3   5  1   
  5   4   6  2   
  6   4   7  1   
  7   5   8  ar  
  8   5   9  ar  
  9   6   8  1   
 10   6  10  1   
 11   7  11  1   
 12   7  32  1   
 13   7  33  1   
 14   8  12  ar  
 15   9  13  ar  
 16   9  14  1   
 17  10  34  1   
 18  10  35  1   
 19  10  36  1   
 20  11  15  1   
 21  11  37  1   
 22  11  38  1   
 23  12  16  ar  
 24  12  39  1   
 25  13  16  ar  
 26  13  17  1   
 27  14  40  1   
 28  14  41  1   
 29  14  42  1   
 30  15  18  2   
 31  15  19  1   
 32  16  43  1   
 33  17  20  1   
 34  19  21  1   
 35  20  22  1   
 36  20  44  1   
 37  20  45  1   
 38  21  23  1   
 39  21  46  1   
 40  21  47  1   
 41  22  24  2   
 42  22  25  am  
 43  23  48  1   
 44  23  49  1   
 45  23  50  1   
 46  25  26  1   
 47  25  27  1   
 48  26  28  1   
 49  26  51  1   
 50  26  52  1   
 51  27  29  1   
 52  27  53  1   
 53  27  54  1   
 54  28  30  1   
 55  28  55  1   
 56  28  56  1   
 57  29  30  1   
 58  29  57  1   
 59  29  58  1   
 60  30  31  1   
 61  30  59  1   
 62  31  60  1   
 63  31  61  1   
 64  31  62  1   
@<TRIPOS>SUBSTRUCTURE
  1 ****   5 GROUP 4 **** **** 0

# MOE 2024.06 (io_trps.svl 2023.06)
