@<TRIPOS>MOLECULE
NONAME
37 37 1 0 0 
SMALL
USER_CHARGES


@<TRIPOS>ATOM
  1 O       -0.1660     0.9620    -1.6400 O.2   1 <1>  -0.5700 
  2 C        0.1350     1.9380    -0.9950 C.2   1 <1>   0.4950 
  3 C        1.4620     2.0640    -0.4360 C.2   1 <1>  -0.1360 
  4 C       -0.8810     3.1010    -0.7760 C.3   1 <1>   0.3410 
  5 C        2.4420     1.1410    -0.4560 C.2   1 <1>  -0.2880 
  6 O       -2.1970     2.7530    -1.1620 O.3   1 <1>  -0.5600 
  7 C       -0.8730     3.6310     0.6850 C.3   1 <1>  -0.1600 
  8 C       -0.5250     4.2470    -1.7350 C.3   1 <1>  -0.2400 
  9 C        3.8270     1.3130     0.1400 C.3   1 <1>  -0.0220 
 10 C       -3.1190     2.2320    -0.2520 C.3   1 <1>   0.2800 
 11 C       -2.2120     4.2520     1.0840 C.3   1 <1>  -0.1600 
 12 C        4.0480     0.2920     1.2560 C.3   1 <1>  -0.2400 
 13 C       -3.3210     3.2050     0.9360 C.3   1 <1>  -0.1600 
 14 C       -2.6780     0.8350     0.2050 C.3   1 <1>  -0.2400 
 15 C       -4.4180     2.0940    -1.0460 C.3   1 <1>  -0.2400 
 16 H        1.6560     3.0080     0.0340 H     1 <1>   0.1500 
 17 H        2.2980     0.1770    -0.9190 H     1 <1>   0.1500 
 18 H       -0.6550     2.8210     1.3580 H     1 <1>   0.0800 
 19 H       -0.0910     4.3590     0.8130 H     1 <1>   0.0800 
 20 H       -1.2310     5.0510    -1.6410 H     1 <1>   0.0800 
 21 H       -0.5450     3.8850    -2.7480 H     1 <1>   0.0800 
 22 H        0.4590     4.6270    -1.5320 H     1 <1>   0.0800 
 23 H        4.5660     1.1730    -0.6300 H     1 <1>   0.0800 
 24 H        3.9420     2.3070     0.5360 H     1 <1>   0.0800 
 25 H       -2.1770     4.6150     2.0970 H     1 <1>   0.0800 
 26 H       -2.4250     5.0860     0.4370 H     1 <1>   0.0800 
 27 H        3.9630    -0.7080     0.8690 H     1 <1>   0.0800 
 28 H        3.3140     0.4260     2.0320 H     1 <1>   0.0800 
 29 H        5.0270     0.4150     1.6820 H     1 <1>   0.0800 
 30 H       -4.2610     3.7200     0.8410 H     1 <1>   0.0800 
 31 H       -3.3890     2.6320     1.8440 H     1 <1>   0.0800 
 32 H       -3.4500     0.3830     0.8010 H     1 <1>   0.0800 
 33 H       -1.7870     0.8740     0.7990 H     1 <1>   0.0800 
 34 H       -2.5040     0.2050    -0.6490 H     1 <1>   0.0800 
 35 H       -4.7260     3.0520    -1.4230 H     1 <1>   0.0800 
 36 H       -5.2000     1.7010    -0.4230 H     1 <1>   0.0800 
 37 H       -4.2730     1.4260    -1.8760 H     1 <1>   0.0800 
@<TRIPOS>BOND
  1   1   2  2   
  2   2   3  1   
  3   2   4  1   
  4   3   5  2   
  5   3  16  1   
  6   4   6  1   
  7   4   7  1   
  8   4   8  1   
  9   5   9  1   
 10   5  17  1   
 11   6  10  1   
 12   7  11  1   
 13   7  18  1   
 14   7  19  1   
 15   8  20  1   
 16   8  21  1   
 17   8  22  1   
 18   9  12  1   
 19   9  23  1   
 20   9  24  1   
 21  10  13  1   
 22  10  14  1   
 23  10  15  1   
 24  11  13  1   
 25  11  25  1   
 26  11  26  1   
 27  12  27  1   
 28  12  28  1   
 29  12  29  1   
 30  13  30  1   
 31  13  31  1   
 32  14  32  1   
 33  14  33  1   
 34  14  34  1   
 35  15  35  1   
 36  15  36  1   
 37  15  37  1   
@<TRIPOS>SUBSTRUCTURE
  1 ****   4 GROUP 4 **** **** 0

# MOE 2024.06 (io_trps.svl 2023.06)
