@<TRIPOS>MOLECULE
NONAME
47 49 1 0 0 
SMALL
USER_CHARGES


@<TRIPOS>ATOM
  1 CL      -0.9370    -0.2470     2.5910 Cl    1 <1>  -0.1770 
  2 C       -2.1330     0.7080     1.7500 C.ar  1 <1>   0.1770 
  3 C       -1.7580     1.4410     0.6400 C.ar  1 <1>  -0.1500 
  4 C       -3.4370     0.7200     2.2070 C.ar  1 <1>  -0.1500 
  5 C       -2.7090     2.1970    -0.0220 C.ar  1 <1>  -0.1500 
  6 C       -4.3800     1.4810     1.5380 C.ar  1 <1>  -0.1500 
  7 C       -4.0300     2.2280     0.4150 C.ar  1 <1>   0.1170 
  8 N       -4.9560     3.0310    -0.2660 N.am  1 <1>  -0.5470 
  9 C       -6.3130     2.8770    -0.3800 C.2   1 <1>   0.5690 
 10 O       -6.8710     1.8500    -0.0810 O.2   1 <1>  -0.5700 
 11 C       -7.1310     4.0640    -0.8960 C.3   1 <1>  -0.0190 
 12 C       -7.5950     4.9750     0.2730 C.3   1 <1>  -0.0190 
 13 C       -8.3200     3.6430    -1.7910 C.3   1 <1>  -0.0220 
 14 C       -6.4020     5.4480     1.0950 C.2   1 <1>   0.6590 
 15 C       -8.6670     4.2910     1.1460 C.3   1 <1>  -0.0220 
 16 C       -9.6040     3.4030    -1.0120 C.2   1 <1>  -0.2880 
 17 O       -6.2980     5.2810     2.2830 O.2   1 <1>  -0.5700 
 18 O       -5.4320     5.9930     0.3810 O.3   1 <1>  -0.4300 
 19 C       -9.7560     3.6800     0.2850 C.2   1 <1>  -0.2880 
 20 C       -4.1190     6.1430     0.8760 C.3   1 <1>   0.1200 
 21 C       -3.1670     6.2980    -0.3180 C.3   1 <1>   0.2000 
 22 O       -3.3960     5.3100    -1.2770 O.3   1 <1>  -0.5600 
 23 C       -1.6900     6.1400     0.0190 C.3   1 <1>  -0.1600 
 24 C       -2.3090     5.2820    -2.1440 C.3   1 <1>   0.1200 
 25 C       -1.0940     5.5930    -1.2730 C.3   1 <1>  -0.1600 
 26 H       -0.7370     1.4140     0.3030 H     1 <1>   0.1500 
 27 H       -3.7090     0.1430     3.0720 H     1 <1>   0.1500 
 28 H       -2.4290     2.7650    -0.8870 H     1 <1>   0.1500 
 29 H       -5.3950     1.4970     1.8940 H     1 <1>   0.1500 
 30 H       -4.5550     3.8870    -0.6770 H     1 <1>   0.3700 
 31 H       -6.4720     4.6340    -1.5270 H     1 <1>   0.0800 
 32 H       -8.0430     5.8510    -0.1560 H     1 <1>   0.0800 
 33 H       -8.0600     2.7530    -2.3380 H     1 <1>   0.0800 
 34 H       -8.5120     4.4210    -2.5100 H     1 <1>   0.0800 
 35 H       -9.0980     5.0210     1.8090 H     1 <1>   0.0800 
 36 H       -8.2270     3.5140     1.7490 H     1 <1>   0.0800 
 37 H      -10.3880     2.9720    -1.6110 H     1 <1>   0.1500 
 38 H      -10.6660     3.4770     0.8260 H     1 <1>   0.1500 
 39 H       -3.8630     5.2650     1.4450 H     1 <1>   0.0800 
 40 H       -4.0880     7.0060     1.5170 H     1 <1>   0.0800 
 41 H       -3.3350     7.2520    -0.7900 H     1 <1>   0.0800 
 42 H       -1.5650     5.4250     0.8150 H     1 <1>   0.0800 
 43 H       -1.2500     7.0770     0.3120 H     1 <1>   0.0800 
 44 H       -2.4580     6.0440    -2.8900 H     1 <1>   0.0800 
 45 H       -2.2500     4.3150    -2.6140 H     1 <1>   0.0800 
 46 H       -0.5220     4.7010    -1.0870 H     1 <1>   0.0800 
 47 H       -0.4630     6.3170    -1.7600 H     1 <1>   0.0800 
@<TRIPOS>BOND
  1   1   2  1   
  2   2   3  ar  
  3   2   4  ar  
  4   3   5  ar  
  5   3  26  1   
  6   4   6  ar  
  7   4  27  1   
  8   5   7  ar  
  9   5  28  1   
 10   6   7  ar  
 11   6  29  1   
 12   7   8  1   
 13   8   9  am  
 14   8  30  1   
 15   9  10  2   
 16   9  11  1   
 17  11  12  1   
 18  11  13  1   
 19  11  31  1   
 20  12  14  1   
 21  12  15  1   
 22  12  32  1   
 23  13  16  1   
 24  13  33  1   
 25  13  34  1   
 26  14  17  2   
 27  14  18  1   
 28  15  19  1   
 29  15  35  1   
 30  15  36  1   
 31  16  19  2   
 32  16  37  1   
 33  18  20  1   
 34  19  38  1   
 35  20  21  1   
 36  20  39  1   
 37  20  40  1   
 38  21  22  1   
 39  21  23  1   
 40  21  41  1   
 41  22  24  1   
 42  23  25  1   
 43  23  42  1   
 44  23  43  1   
 45  24  25  1   
 46  24  44  1   
 47  24  45  1   
 48  25  46  1   
 49  25  47  1   
@<TRIPOS>SUBSTRUCTURE
  1 ****   8 GROUP 4 **** **** 0

# MOE 2024.06 (io_trps.svl 2023.06)
