@<TRIPOS>MOLECULE
NONAME
40 43 1 0 0 
SMALL
USER_CHARGES


@<TRIPOS>ATOM
  1 O        0.5670    -0.3360     1.5740 O.2   1 <1>  -0.5700 
  2 C        0.1570    -0.9980     0.6540 C.2   1 <1>   0.5690 
  3 N        0.8950    -1.6580    -0.3170 N.am  1 <1>  -0.2370 
  4 C       -1.2990    -1.1990     0.3340 C.3   1 <1>  -0.0190 
  5 C        2.2810    -1.4990    -0.5470 C.ar  1 <1>   0.1170 
  6 C        0.0470    -2.5000    -1.0180 C.2   1 <1>   0.5690 
  7 C       -2.6170    -1.0390     1.1420 C.3   1 <1>   0.0580 
  8 C       -1.2290    -2.6180    -0.2310 C.3   1 <1>  -0.0190 
  9 C        2.8830    -0.2500    -0.4380 C.ar  1 <1>  -0.1500 
 10 C        3.0790    -2.5900    -0.8840 C.ar  1 <1>  -0.1500 
 11 O        0.2580    -3.0740    -2.0560 O.2   1 <1>  -0.5700 
 12 C       -3.0920    -2.3760     1.7250 C.2   1 <1>  -0.2880 
 13 C       -3.6810    -0.8040     0.0300 C.3   1 <1>  -0.1600 
 14 C       -2.6670    -3.0970    -0.5560 C.3   1 <1>   0.0580 
 15 C        4.2430    -0.1030    -0.6450 C.ar  1 <1>   0.0820 
 16 C        4.4380    -2.4420    -1.1040 C.ar  1 <1>  -0.1500 
 17 C       -3.1770    -3.3960     0.8570 C.2   1 <1>  -0.2880 
 18 C       -3.5630    -1.9290    -1.0600 C.3   1 <1>  -0.1600 
 19 O        4.8000     1.1230    -0.5200 O.3   1 <1>  -0.2320 
 20 C        5.0250    -1.1950    -0.9870 C.ar  1 <1>  -0.1500 
 21 C        5.6920     1.4370     0.4170 C.2   1 <1>   0.6590 
 22 O        6.4400     2.3640     0.2650 O.2   1 <1>  -0.5700 
 23 C        5.7210     0.6290     1.6990 C.3   1 <1>  -0.1790 
 24 H       -1.3990    -0.5120    -0.4900 H     1 <1>   0.0800 
 25 H       -2.5880    -0.2370     1.8600 H     1 <1>   0.0800 
 26 H       -0.9000    -3.2790     0.5570 H     1 <1>   0.0800 
 27 H        2.2980     0.6160    -0.1840 H     1 <1>   0.1500 
 28 H        2.6370    -3.5660    -0.9820 H     1 <1>   0.1500 
 29 H       -3.3580    -2.3870     2.7680 H     1 <1>   0.1500 
 30 H       -3.5630     0.1660    -0.4200 H     1 <1>   0.0800 
 31 H       -4.6630    -0.8320     0.4720 H     1 <1>   0.0800 
 32 H       -2.6780    -3.9640    -1.1950 H     1 <1>   0.0800 
 33 H        5.0350    -3.2970    -1.3710 H     1 <1>   0.1500 
 34 H       -3.5340    -4.3930     1.0540 H     1 <1>   0.1500 
 35 H       -3.1480    -1.5280    -1.9680 H     1 <1>   0.0800 
 36 H       -4.5460    -2.3050    -1.2880 H     1 <1>   0.0800 
 37 H        6.0790    -1.0720    -1.1670 H     1 <1>   0.1500 
 38 H        4.7270     0.5320     2.0930 H     1 <1>   0.0800 
 39 H        6.3350     1.1300     2.4240 H     1 <1>   0.0800 
 40 H        6.1320    -0.3450     1.5120 H     1 <1>   0.0800 
@<TRIPOS>BOND
  1   1   2  2   
  2   2   3  am  
  3   2   4  1   
  4   3   5  1   
  5   3   6  am  
  6   4   7  1   
  7   4   8  1   
  8   4  24  1   
  9   5   9  ar  
 10   5  10  ar  
 11   6   8  1   
 12   6  11  2   
 13   7  12  1   
 14   7  13  1   
 15   7  25  1   
 16   8  14  1   
 17   8  26  1   
 18   9  15  ar  
 19   9  27  1   
 20  10  16  ar  
 21  10  28  1   
 22  12  17  2   
 23  12  29  1   
 24  13  18  1   
 25  13  30  1   
 26  13  31  1   
 27  14  17  1   
 28  14  18  1   
 29  14  32  1   
 30  15  19  1   
 31  15  20  ar  
 32  16  20  ar  
 33  16  33  1   
 34  17  34  1   
 35  18  35  1   
 36  18  36  1   
 37  19  21  1   
 38  20  37  1   
 39  21  22  2   
 40  21  23  1   
 41  23  38  1   
 42  23  39  1   
 43  23  40  1   
@<TRIPOS>SUBSTRUCTURE
  1 ****   3 GROUP 4 **** **** 0

# MOE 2024.06 (io_trps.svl 2023.06)
