@<TRIPOS>MOLECULE
NONAME
36 37 1 0 0 
SMALL
USER_CHARGES


@<TRIPOS>ATOM
  1 O       -0.1580     0.0040    -0.5920 O.2   1 <1>  -0.5700 
  2 C       -0.2110    -1.1630    -0.2530 C.2   1 <1>   0.7160 
  3 N        0.9520    -1.8540    -0.0930 N.am  1 <1>  -0.7300 
  4 C       -1.4710    -1.8360    -0.0310 C.2   1 <1>  -0.0860 
  5 C        2.2870    -1.3960    -0.5210 C.3   1 <1>   0.2200 
  6 C       -2.7500    -1.4510    -0.3090 C.2   1 <1>  -0.0400 
  7 C       -1.6250    -3.1110     0.5600 C.2   1 <1>  -0.1500 
  8 C        3.2180    -2.6200    -0.7120 C.3   1 <1>   0.2000 
  9 C        2.8290    -0.3920     0.5020 C.3   1 <1>  -0.2400 
 10 O       -3.6110    -2.3700     0.0570 O.3   1 <1>  -0.2800 
 11 C       -3.3090    -0.1950    -0.9480 C.3   1 <1>  -0.0600 
 12 C       -2.9460    -3.3720     0.5810 C.2   1 <1>  -0.0400 
 13 O        2.5530    -3.6330    -1.4030 O.3   1 <1>  -0.5600 
 14 C        3.6840    -3.3150     0.5660 C.3   1 <1>  -0.1600 
 15 C       -3.7190    -4.5690     1.0880 C.3   1 <1>  -0.0600 
 16 C        3.2180    -4.8420    -1.2330 C.3   1 <1>   0.1200 
 17 C        3.9200    -4.7500     0.1190 C.3   1 <1>  -0.1600 
 18 H        0.8830    -2.8710    -0.1720 H     1 <1>   0.3700 
 19 H        2.1910    -0.9000    -1.4720 H     1 <1>   0.0800 
 20 H       -0.8240    -3.7310     0.9200 H     1 <1>   0.1500 
 21 H        4.0750    -2.3340    -1.2990 H     1 <1>   0.0800 
 22 H        2.8440    -0.8150     1.4900 H     1 <1>   0.0800 
 23 H        2.2120     0.4880     0.5120 H     1 <1>   0.0800 
 24 H        3.8270    -0.0960     0.2340 H     1 <1>   0.0800 
 25 H       -2.5260     0.4780    -1.2400 H     1 <1>   0.0800 
 26 H       -3.9530     0.3070    -0.2490 H     1 <1>   0.0800 
 27 H       -3.8800    -0.4580    -1.8190 H     1 <1>   0.0800 
 28 H        2.9050    -3.2860     1.3070 H     1 <1>   0.0800 
 29 H        4.5710    -2.8580     0.9670 H     1 <1>   0.0800 
 30 H       -3.0460    -5.3050     1.4880 H     1 <1>   0.0800 
 31 H       -4.2790    -5.0050     0.2820 H     1 <1>   0.0800 
 32 H       -4.3990    -4.2580     1.8600 H     1 <1>   0.0800 
 33 H        3.9270    -4.9500    -2.0360 H     1 <1>   0.0800 
 34 H        2.4970    -5.6410    -1.2670 H     1 <1>   0.0800 
 35 H        3.5040    -5.4530     0.8190 H     1 <1>   0.0800 
 36 H        4.9690    -4.9560    -0.0010 H     1 <1>   0.0800 
@<TRIPOS>BOND
  1   1   2  2   
  2   2   3  am  
  3   2   4  1   
  4   3   5  1   
  5   3  18  1   
  6   4   6  2   
  7   4   7  1   
  8   5   8  1   
  9   5   9  1   
 10   5  19  1   
 11   6  10  1   
 12   6  11  1   
 13   7  12  2   
 14   7  20  1   
 15   8  13  1   
 16   8  14  1   
 17   8  21  1   
 18   9  22  1   
 19   9  23  1   
 20   9  24  1   
 21  10  12  1   
 22  11  25  1   
 23  11  26  1   
 24  11  27  1   
 25  12  15  1   
 26  13  16  1   
 27  14  17  1   
 28  14  28  1   
 29  14  29  1   
 30  15  30  1   
 31  15  31  1   
 32  15  32  1   
 33  16  17  1   
 34  16  33  1   
 35  16  34  1   
 36  17  35  1   
 37  17  36  1   
@<TRIPOS>SUBSTRUCTURE
  1 ****   3 GROUP 4 **** **** 0

# MOE 2024.06 (io_trps.svl 2023.06)
