@<TRIPOS>MOLECULE
NONAME
49 51 1 0 0 
SMALL
USER_CHARGES


@<TRIPOS>ATOM
  1 N       -0.0180    -0.6350    -0.3520 N.pl3 1 <1>  -0.8380 
  2 C       -1.0720     0.1690     0.0840 C.ar  1 <1>   0.1000 
  3 C        1.1300     0.0010    -1.0650 C.3   1 <1>   0.2090 
  4 C        0.2630    -1.8710     0.4310 C.3   1 <1>   0.2090 
  5 C       -2.3770    -0.0190    -0.3870 C.ar  1 <1>  -0.1440 
  6 C       -0.8260     1.1650     1.0230 C.ar  1 <1>  -0.1500 
  7 C        2.3830     0.0980    -0.1680 C.3   1 <1>   0.3430 
  8 C        1.5180    -1.7070     1.3120 C.3   1 <1>   0.3430 
  9 C       -3.4100     0.7740     0.1060 C.ar  1 <1>  -0.1440 
 10 C       -2.6640    -1.0950    -1.4360 C.3   1 <1>  -0.0970 
 11 C       -1.8490     1.9580     1.4990 C.ar  1 <1>  -0.1500 
 12 N        2.7050    -1.2000     0.5340 N.4   1 <1>  -0.9590 
 13 C       -3.1370     1.7600     1.0420 C.ar  1 <1>  -0.1500 
 14 C       -4.8540     0.6010    -0.3470 C.3   1 <1>  -0.0970 
 15 C        3.9240    -1.0870     1.3770 C.3   1 <1>   0.4860 
 16 C        5.1010    -0.7750     0.4730 C.ar  1 <1>  -0.1440 
 17 C        5.6940    -1.7510    -0.3260 C.ar  1 <1>  -0.1440 
 18 C        5.5840     0.5270     0.4420 C.ar  1 <1>  -0.1500 
 19 C        6.7450    -1.3960    -1.1580 C.ar  1 <1>  -0.1500 
 20 C        5.2460    -3.2080    -0.3230 C.3   1 <1>  -0.0970 
 21 C        6.6350     0.8670    -0.3890 C.ar  1 <1>  -0.1500 
 22 C        7.2130    -0.0960    -1.1930 C.ar  1 <1>  -0.1500 
 23 H        0.8460     0.9870    -1.3930 H     1 <1>   0.0800 
 24 H        1.3590    -0.5770    -1.9430 H     1 <1>   0.0800 
 25 H        0.3950    -2.6950    -0.2480 H     1 <1>   0.0800 
 26 H       -0.5850    -2.0970     1.0570 H     1 <1>   0.0800 
 27 H        0.1670     1.3220     1.3900 H     1 <1>   0.1500 
 28 H        2.2110     0.8690     0.5640 H     1 <1>   0.0800 
 29 H        3.2180     0.4050    -0.7760 H     1 <1>   0.0800 
 30 H        1.7510    -2.6560     1.7660 H     1 <1>   0.0800 
 31 H        1.2800    -1.0120     2.1000 H     1 <1>   0.0800 
 32 H       -1.7940    -1.3090    -2.0280 H     1 <1>   0.0800 
 33 H       -3.4320    -0.7780    -2.1170 H     1 <1>   0.0800 
 34 H       -2.9800    -1.9990    -0.9500 H     1 <1>   0.0800 
 35 H       -1.6520     2.7280     2.2240 H     1 <1>   0.1500 
 36 H        2.9290    -1.8750    -0.2060 H     1 <1>   0.4500 
 37 H       -3.9290     2.3810     1.4230 H     1 <1>   0.1500 
 38 H       -5.1420    -0.4330    -0.2880 H     1 <1>   0.0800 
 39 H       -4.9630     0.9400    -1.3610 H     1 <1>   0.0800 
 40 H       -5.5250     1.1670     0.2740 H     1 <1>   0.0800 
 41 H        4.1080    -2.0120     1.8970 H     1 <1>   0.0800 
 42 H        3.8030    -0.3030     2.1070 H     1 <1>   0.0800 
 43 H        5.1540     1.2940     1.0640 H     1 <1>   0.1500 
 44 H        7.2180    -2.1320    -1.7880 H     1 <1>   0.1500 
 45 H        5.0720    -3.5580     0.6780 H     1 <1>   0.0800 
 46 H        6.0100    -3.8350    -0.7510 H     1 <1>   0.0800 
 47 H        4.3540    -3.3300    -0.9090 H     1 <1>   0.0800 
 48 H        7.0090     1.8770    -0.4110 H     1 <1>   0.1500 
 49 H        8.0320     0.1650    -1.8420 H     1 <1>   0.1500 
@<TRIPOS>BOND
  1   1   2  1   
  2   1   3  1   
  3   1   4  1   
  4   2   5  ar  
  5   2   6  ar  
  6   3   7  1   
  7   3  23  1   
  8   3  24  1   
  9   4   8  1   
 10   4  25  1   
 11   4  26  1   
 12   5   9  ar  
 13   5  10  1   
 14   6  11  ar  
 15   6  27  1   
 16   7  12  1   
 17   7  28  1   
 18   7  29  1   
 19   8  12  1   
 20   8  30  1   
 21   8  31  1   
 22   9  13  ar  
 23   9  14  1   
 24  10  32  1   
 25  10  33  1   
 26  10  34  1   
 27  11  13  ar  
 28  11  35  1   
 29  12  15  1   
 30  12  36  1   
 31  13  37  1   
 32  14  38  1   
 33  14  39  1   
 34  14  40  1   
 35  15  16  1   
 36  15  41  1   
 37  15  42  1   
 38  16  17  ar  
 39  16  18  ar  
 40  17  19  ar  
 41  17  20  1   
 42  18  21  ar  
 43  18  43  1   
 44  19  22  ar  
 45  19  44  1   
 46  20  45  1   
 47  20  46  1   
 48  20  47  1   
 49  21  22  ar  
 50  21  48  1   
 51  22  49  1   
@<TRIPOS>SUBSTRUCTURE
  1 ****   7 GROUP 4 **** **** 0

# MOE 2024.06 (io_trps.svl 2023.06)
