@<TRIPOS>MOLECULE
NONAME
44 45 1 0 0 
SMALL
USER_CHARGES


@<TRIPOS>ATOM
  1 S       -0.1620    -0.0580     0.1550 S.o2  1 <1>   1.4470 
  2 O       -0.4700    -0.4420     1.5130 O.2   1 <1>  -0.6500 
  3 O       -0.2950    -1.0080    -0.9240 O.2   1 <1>  -0.6500 
  4 N       -1.2840     1.1190    -0.2640 N.am  1 <1>  -0.9140 
  5 C        1.4270     0.8130     0.0750 C.ar  1 <1>  -0.0090 
  6 C       -2.6310     0.7450     0.1200 C.3   1 <1>   0.1960 
  7 C        2.2780     0.6590    -1.0130 C.ar  1 <1>  -0.1500 
  8 C        1.8250     1.6740     1.0950 C.ar  1 <1>  -0.1500 
  9 C       -3.5900     1.8510    -0.3150 C.3   1 <1>  -0.1600 
 10 C        3.4740     1.3470    -1.0560 C.ar  1 <1>   0.1900 
 11 C        3.0280     2.3630     1.0480 C.ar  1 <1>  -0.1500 
 12 C       -5.0000     1.5510     0.1930 C.3   1 <1>   0.3430 
 13 F        4.2420     1.1700    -2.1020 F     1 <1>  -0.1900 
 14 C        3.8790     2.2080    -0.0420 C.ar  1 <1>   0.0830 
 15 N       -5.9180     2.6890    -0.0940 N.4   1 <1>  -0.9590 
 16 O        5.0730     2.8500    -0.1590 O.3   1 <1>  -0.3630 
 17 C       -7.2040     2.5430     0.6790 C.3   1 <1>   0.3430 
 18 C       -6.2170     2.8430    -1.5650 C.3   1 <1>   0.3430 
 19 C        5.5420     3.7300     0.8390 C.3   1 <1>   0.0400 
 20 C       -8.2130     3.6510     0.3210 C.3   1 <1>   0.1200 
 21 C       -7.2730     3.9360    -1.8210 C.3   1 <1>   0.1200 
 22 O       -8.4190     3.6860    -1.0610 O.3   1 <1>  -0.5600 
 23 H       -1.2360     1.1130    -1.2820 H     1 <1>   0.4200 
 24 H       -2.6760     0.6310     1.1930 H     1 <1>   0.0800 
 25 H       -2.8960    -0.1960    -0.3370 H     1 <1>   0.0800 
 26 H        2.0180     0.0040    -1.8270 H     1 <1>   0.1500 
 27 H        1.1780     1.8050     1.9480 H     1 <1>   0.1500 
 28 H       -3.5830     1.9120    -1.3880 H     1 <1>   0.0800 
 29 H       -3.2480     2.7810     0.1040 H     1 <1>   0.0800 
 30 H        3.2820     3.0110     1.8660 H     1 <1>   0.1500 
 31 H       -4.9560     1.3900     1.2590 H     1 <1>   0.0800 
 32 H       -5.3750     0.6490    -0.2650 H     1 <1>   0.0800 
 33 H       -5.4690     3.5580     0.2250 H     1 <1>   0.4500 
 34 H       -7.0040     2.5740     1.7370 H     1 <1>   0.0800 
 35 H       -7.6570     1.5910     0.4550 H     1 <1>   0.0800 
 36 H       -6.5920     1.9130    -1.9600 H     1 <1>   0.0800 
 37 H       -5.3170     3.0920    -2.1030 H     1 <1>   0.0800 
 38 H        6.4980     4.1090     0.5250 H     1 <1>   0.0800 
 39 H        5.6500     3.1880     1.7620 H     1 <1>   0.0800 
 40 H        4.8450     4.5430     0.9450 H     1 <1>   0.0800 
 41 H       -7.8690     4.6170     0.6470 H     1 <1>   0.0800 
 42 H       -9.1630     3.4510     0.7870 H     1 <1>   0.0800 
 43 H       -7.5640     3.9360    -2.8580 H     1 <1>   0.0800 
 44 H       -6.8960     4.9130    -1.5720 H     1 <1>   0.0800 
@<TRIPOS>BOND
  1   1   2  2   
  2   1   3  2   
  3   1   4  am  
  4   1   5  1   
  5   4   6  1   
  6   4  23  1   
  7   5   7  ar  
  8   5   8  ar  
  9   6   9  1   
 10   6  24  1   
 11   6  25  1   
 12   7  10  ar  
 13   7  26  1   
 14   8  11  ar  
 15   8  27  1   
 16   9  12  1   
 17   9  28  1   
 18   9  29  1   
 19  10  13  1   
 20  10  14  ar  
 21  11  14  ar  
 22  11  30  1   
 23  12  15  1   
 24  12  31  1   
 25  12  32  1   
 26  14  16  1   
 27  15  17  1   
 28  15  18  1   
 29  15  33  1   
 30  16  19  1   
 31  17  20  1   
 32  17  34  1   
 33  17  35  1   
 34  18  21  1   
 35  18  36  1   
 36  18  37  1   
 37  19  38  1   
 38  19  39  1   
 39  19  40  1   
 40  20  22  1   
 41  20  41  1   
 42  20  42  1   
 43  21  22  1   
 44  21  43  1   
 45  21  44  1   
@<TRIPOS>SUBSTRUCTURE
  1 ****   4 GROUP 4 **** **** 0

# MOE 2024.06 (io_trps.svl 2023.06)
