@<TRIPOS>MOLECULE
NONAME
21 21 1 0 0 
SMALL
USER_CHARGES


@<TRIPOS>ATOM
  1 S       -0.0190     0.2760    -0.4390 S.o2  1 <1>   1.0900 
  2 O       -1.0380    -0.2250     0.4600 O.2   1 <1>  -0.6500 
  3 O        0.1060    -0.2910    -1.7630 O.2   1 <1>  -0.6500 
  4 C        1.5160     0.2720     0.4430 C.3   1 <1>  -0.0550 
  5 C       -0.1210     2.0550    -0.4490 C.3   1 <1>  -0.0550 
  6 C        1.3610     1.4100     1.4530 C.3   1 <1>   0.1500 
  7 C        0.5010     2.5540     0.8700 C.3   1 <1>  -0.1600 
  8 S        2.9670     2.0120     2.0710 S.3   1 <1>  -0.4600 
  9 C        4.0360     2.3720     0.6070 C.3   1 <1>  -0.0360 
 10 C        3.3540     3.1170    -0.5280 C.2   1 <1>   0.9060 
 11 O        2.8550     2.4530    -1.4440 O.co2 1 <1>  -0.9000 
 12 O        3.2980     4.3490    -0.5070 O.co2 1 <1>  -0.9000 
 13 H        2.3190     0.4680    -0.2360 H     1 <1>   0.0800 
 14 H        1.6890    -0.6630     0.9360 H     1 <1>   0.0800 
 15 H       -1.1330     2.3920    -0.5580 H     1 <1>   0.0800 
 16 H        0.4530     2.4390    -1.2720 H     1 <1>   0.0800 
 17 H        0.8540     1.0220     2.3200 H     1 <1>   0.0800 
 18 H       -0.2810     2.7860     1.5700 H     1 <1>   0.0800 
 19 H        1.0700     3.4500     0.7000 H     1 <1>   0.0800 
 20 H        4.4010     1.4320     0.2410 H     1 <1>   0.0800 
 21 H        4.8570     2.9620     0.9630 H     1 <1>   0.0800 
@<TRIPOS>BOND
  1   1   2  2   
  2   1   3  2   
  3   1   4  1   
  4   1   5  1   
  5   4   6  1   
  6   4  13  1   
  7   4  14  1   
  8   5   7  1   
  9   5  15  1   
 10   5  16  1   
 11   6   7  1   
 12   6   8  1   
 13   6  17  1   
 14   7  18  1   
 15   7  19  1   
 16   8   9  1   
 17   9  10  1   
 18   9  20  1   
 19   9  21  1   
 20  10  11  ar  
 21  10  12  ar  
@<TRIPOS>SUBSTRUCTURE
  1 ****   6 GROUP 4 **** **** 0

# MOE 2024.06 (io_trps.svl 2023.06)
