@<TRIPOS>MOLECULE
NONAME
44 46 1 0 0 
SMALL
USER_CHARGES


@<TRIPOS>ATOM
  1 S       -0.4030    -0.1070     0.3730 S.3   1 <1>  -0.0800 
  2 C       -1.2450     1.2520    -0.2950 C.2   1 <1>   0.4420 
  3 C        1.0720     0.7380     0.0550 C.2   1 <1>   0.1980 
  4 N       -0.4430     2.1760    -0.6810 N.2   1 <1>  -0.3380 
  5 N       -2.6220     1.1700    -0.3230 N.am  1 <1>  -0.4940 
  6 N        0.8760     1.8760    -0.4780 N.2   1 <1>  -0.3380 
  7 C        2.3710     0.0450     0.4370 C.3   1 <1>   0.0200 
  8 C       -3.5330     2.0750    -0.7930 C.2   1 <1>   0.5690 
  9 C        3.6150     0.8820     0.1110 C.3   1 <1>  -0.2400 
 10 O       -3.2240     3.1190    -1.3070 O.2   1 <1>  -0.5700 
 11 C       -5.0100     1.7210    -0.6830 C.3   1 <1>  -0.0190 
 12 C       -5.9450     2.9300    -0.8620 C.3   1 <1>   0.1400 
 13 C       -5.4270     1.0950     0.6620 C.3   1 <1>  -0.0990 
 14 N       -7.0980     2.6110    -0.0010 N.am  1 <1>  -0.6600 
 15 C       -6.8290     1.5960     0.8550 C.2   1 <1>   0.5690 
 16 C       -8.3250     3.4390    -0.0820 C.3   1 <1>   0.2200 
 17 O       -7.5680     1.1180     1.6790 O.2   1 <1>  -0.5700 
 18 C       -8.5580     4.1920     1.2340 C.3   1 <1>  -0.1600 
 19 C       -9.5360     2.5770    -0.4590 C.3   1 <1>  -0.1600 
 20 C       -9.8350     5.0430     1.1620 C.3   1 <1>  -0.1600 
 21 C      -10.8140     3.4260    -0.5340 C.3   1 <1>  -0.1600 
 22 C      -11.0500     4.1860     0.7800 C.3   1 <1>  -0.1600 
 23 H       -3.0000     0.3130     0.0670 H     1 <1>   0.3700 
 24 H        2.4290    -0.8910    -0.0880 H     1 <1>   0.0800 
 25 H        2.3530    -0.1630     1.4920 H     1 <1>   0.0800 
 26 H        3.6580     1.0880    -0.9440 H     1 <1>   0.0800 
 27 H        4.5070     0.3540     0.3980 H     1 <1>   0.0800 
 28 H        3.5820     1.8190     0.6410 H     1 <1>   0.0800 
 29 H       -5.2390     1.0270    -1.4710 H     1 <1>   0.0800 
 30 H       -6.2440     3.0440    -1.8900 H     1 <1>   0.0800 
 31 H       -5.4870     3.8400    -0.5110 H     1 <1>   0.0800 
 32 H       -4.8290     1.4620     1.4760 H     1 <1>   0.0800 
 33 H       -5.4100     0.0210     0.6360 H     1 <1>   0.0800 
 34 H       -8.1870     4.1720    -0.8600 H     1 <1>   0.0800 
 35 H       -7.7150     4.8260     1.4410 H     1 <1>   0.0800 
 36 H       -8.6600     3.4860     2.0400 H     1 <1>   0.0800 
 37 H       -9.6750     1.8080     0.2810 H     1 <1>   0.0800 
 38 H       -9.3610     2.1060    -1.4090 H     1 <1>   0.0800 
 39 H       -9.7040     5.8240     0.4310 H     1 <1>   0.0800 
 40 H      -10.0100     5.5100     2.1160 H     1 <1>   0.0800 
 41 H      -11.6570     2.7890    -0.7370 H     1 <1>   0.0800 
 42 H      -10.7290     4.1310    -1.3430 H     1 <1>   0.0800 
 43 H      -11.9190     4.8140     0.6820 H     1 <1>   0.0800 
 44 H      -11.2430     3.4770     1.5670 H     1 <1>   0.0800 
@<TRIPOS>BOND
  1   1   2  1   
  2   1   3  1   
  3   2   4  2   
  4   2   5  1   
  5   3   6  2   
  6   3   7  1   
  7   4   6  1   
  8   5   8  am  
  9   5  23  1   
 10   7   9  1   
 11   7  24  1   
 12   7  25  1   
 13   8  10  2   
 14   8  11  1   
 15   9  26  1   
 16   9  27  1   
 17   9  28  1   
 18  11  12  1   
 19  11  13  1   
 20  11  29  1   
 21  12  14  1   
 22  12  30  1   
 23  12  31  1   
 24  13  15  1   
 25  13  32  1   
 26  13  33  1   
 27  14  15  am  
 28  14  16  1   
 29  15  17  2   
 30  16  18  1   
 31  16  19  1   
 32  16  34  1   
 33  18  20  1   
 34  18  35  1   
 35  18  36  1   
 36  19  21  1   
 37  19  37  1   
 38  19  38  1   
 39  20  22  1   
 40  20  39  1   
 41  20  40  1   
 42  21  22  1   
 43  21  41  1   
 44  21  42  1   
 45  22  43  1   
 46  22  44  1   
@<TRIPOS>SUBSTRUCTURE
  1 ****  11 GROUP 4 **** **** 0

# MOE 2024.06 (io_trps.svl 2023.06)
