@<TRIPOS>MOLECULE
NONAME
56 59 1 0 0 
SMALL
USER_CHARGES


@<TRIPOS>ATOM
  1 O        0.2710     1.9760    -2.6340 O.2   1 <1>  -0.5700 
  2 C        0.6280     2.4960    -1.6070 C.2   1 <1>   0.5690 
  3 N       -0.1540     2.8920    -0.5600 N.am  1 <1>  -0.4770 
  4 C        2.0800     2.7820    -1.3470 C.3   1 <1>  -0.0990 
  5 C       -1.5490     2.7570    -0.4030 C.ar  1 <1>   0.1170 
  6 C        0.6770     3.4970     0.5020 C.3   1 <1>   0.1400 
  7 C        2.1140     3.0760     0.1600 C.3   1 <1>  -0.0190 
  8 C       -2.2880     3.7170     0.2850 C.ar  1 <1>  -0.1500 
  9 C       -2.2280     1.6580    -0.9200 C.ar  1 <1>  -0.1500 
 10 C        3.1660     4.0970     0.5670 C.2   1 <1>   0.5690 
 11 C       -3.6540     3.5800     0.4570 C.ar  1 <1>  -0.1500 
 12 C       -3.5940     1.5170    -0.7530 C.ar  1 <1>  -0.1500 
 13 O        2.8670     5.0150     1.2900 O.2   1 <1>  -0.5700 
 14 N        4.4380     3.9570     0.1080 N.am  1 <1>  -0.7300 
 15 C       -4.3100     2.4780    -0.0610 C.ar  1 <1>  -0.1500 
 16 C        5.5260     4.8800     0.4570 C.3   1 <1>   0.2200 
 17 C        5.5470     6.0310    -0.5470 C.3   1 <1>  -0.1600 
 18 C        6.8590     4.1370     0.4600 C.3   1 <1>  -0.1600 
 19 C        6.7000     6.9810    -0.2400 C.3   1 <1>   0.3430 
 20 C        8.0040     5.1060     0.7500 C.3   1 <1>   0.3430 
 21 N        7.9860     6.2270    -0.2400 N.4   1 <1>  -0.9590 
 22 C        9.1450     7.1420    -0.0410 C.3   1 <1>   0.4860 
 23 C       10.4190     6.3670    -0.3090 C.ar  1 <1>  -0.1440 
 24 C       10.7780     6.0380    -1.6090 C.ar  1 <1>  -0.1500 
 25 C       11.2340     5.9750     0.7450 C.ar  1 <1>  -0.1500 
 26 C       11.9310     5.3120    -1.8500 C.ar  1 <1>  -0.1500 
 27 C       12.3860     5.2500     0.5010 C.ar  1 <1>  -0.1500 
 28 C       12.7340     4.9160    -0.7950 C.ar  1 <1>  -0.1500 
 29 H        2.3620     3.6410    -1.9270 H     1 <1>   0.0800 
 30 H        2.6870     1.9360    -1.6110 H     1 <1>   0.0800 
 31 H        0.3830     3.1390     1.4740 H     1 <1>   0.0800 
 32 H        0.5650     4.5680     0.4600 H     1 <1>   0.0800 
 33 H        2.3160     2.1610     0.6890 H     1 <1>   0.0800 
 34 H       -1.7990     4.5840     0.6870 H     1 <1>   0.1500 
 35 H       -1.6850     0.9040    -1.4600 H     1 <1>   0.1500 
 36 H       -4.2070     4.3320     0.9920 H     1 <1>   0.1500 
 37 H       -4.0990     0.6590    -1.1620 H     1 <1>   0.1500 
 38 H        4.6700     3.1800    -0.5140 H     1 <1>   0.3700 
 39 H       -5.3730     2.3690     0.0700 H     1 <1>   0.1500 
 40 H        5.3420     5.2770     1.4440 H     1 <1>   0.0800 
 41 H        4.6220     6.5770    -0.4760 H     1 <1>   0.0800 
 42 H        5.6410     5.6570    -1.5510 H     1 <1>   0.0800 
 43 H        7.0310     3.6570    -0.4870 H     1 <1>   0.0800 
 44 H        6.8440     3.3810     1.2260 H     1 <1>   0.0800 
 45 H        6.5410     7.4350     0.7250 H     1 <1>   0.0800 
 46 H        6.7260     7.7630    -0.9830 H     1 <1>   0.0800 
 47 H        8.9420     4.5750     0.6930 H     1 <1>   0.0800 
 48 H        7.8990     5.4980     1.7490 H     1 <1>   0.0800 
 49 H        8.1220     5.8060    -1.1670 H     1 <1>   0.4500 
 50 H        9.1510     7.5280     0.9660 H     1 <1>   0.0800 
 51 H        9.0870     7.9730    -0.7250 H     1 <1>   0.0800 
 52 H       10.1770     6.3420    -2.4490 H     1 <1>   0.1500 
 53 H       10.9890     6.2280     1.7620 H     1 <1>   0.1500 
 54 H       12.2110     5.0550    -2.8580 H     1 <1>   0.1500 
 55 H       13.0200     4.9450     1.3180 H     1 <1>   0.1500 
 56 H       13.6330     4.3520    -0.9840 H     1 <1>   0.1500 
@<TRIPOS>BOND
  1   1   2  2   
  2   2   3  am  
  3   2   4  1   
  4   3   5  1   
  5   3   6  1   
  6   4   7  1   
  7   4  29  1   
  8   4  30  1   
  9   5   8  ar  
 10   5   9  ar  
 11   6   7  1   
 12   6  31  1   
 13   6  32  1   
 14   7  10  1   
 15   7  33  1   
 16   8  11  ar  
 17   8  34  1   
 18   9  12  ar  
 19   9  35  1   
 20  10  13  2   
 21  10  14  am  
 22  11  15  ar  
 23  11  36  1   
 24  12  15  ar  
 25  12  37  1   
 26  14  16  1   
 27  14  38  1   
 28  15  39  1   
 29  16  17  1   
 30  16  18  1   
 31  16  40  1   
 32  17  19  1   
 33  17  41  1   
 34  17  42  1   
 35  18  20  1   
 36  18  43  1   
 37  18  44  1   
 38  19  21  1   
 39  19  45  1   
 40  19  46  1   
 41  20  21  1   
 42  20  47  1   
 43  20  48  1   
 44  21  22  1   
 45  21  49  1   
 46  22  23  1   
 47  22  50  1   
 48  22  51  1   
 49  23  24  ar  
 50  23  25  ar  
 51  24  26  ar  
 52  24  52  1   
 53  25  27  ar  
 54  25  53  1   
 55  26  28  ar  
 56  26  54  1   
 57  27  28  ar  
 58  27  55  1   
 59  28  56  1   
@<TRIPOS>SUBSTRUCTURE
  1 ****  14 GROUP 4 **** **** 0

# MOE 2024.06 (io_trps.svl 2023.06)
