@<TRIPOS>MOLECULE
NONAME
46 49 1 0 0 
SMALL
USER_CHARGES


@<TRIPOS>ATOM
  1 O        0.0640    -1.0160    -1.8260 O.2   1 <1>  -0.5700 
  2 C       -0.6560    -1.6820    -1.1290 C.2   1 <1>   0.5690 
  3 N       -0.8040    -3.0070    -1.3790 N.am  1 <1>  -0.5470 
  4 C       -1.3660    -1.0240     0.0310 C.3   1 <1>  -0.1790 
  5 C       -1.5740    -3.9730    -0.7200 C.ar  1 <1>   0.1170 
  6 C       -0.9880    -5.1340    -0.2240 C.ar  1 <1>  -0.1430 
  7 C       -2.9420    -3.7850    -0.5650 C.ar  1 <1>  -0.1500 
  8 C       -1.7790    -6.0670     0.4220 C.ar  1 <1>  -0.1500 
  9 C        0.5060    -5.3900    -0.3730 C.3   1 <1>  -0.0970 
 10 C       -3.7500    -4.7090     0.0850 C.ar  1 <1>  -0.1430 
 11 C       -3.1380    -5.8580     0.5770 C.ar  1 <1>  -0.1500 
 12 C       -5.2620    -4.4270     0.2300 C.3   1 <1>   0.1440 
 13 C       -6.0220    -5.5470     0.9860 C.3   1 <1>  -0.1600 
 14 C       -5.9080    -4.2880    -1.1700 C.3   1 <1>  -0.1600 
 15 C       -5.4780    -3.1080     1.0110 C.3   1 <1>  -0.1600 
 16 C       -7.5230    -5.2280     1.1100 C.3   1 <1>  -0.0800 
 17 C       -7.4080    -3.9530    -1.0600 C.3   1 <1>  -0.0800 
 18 C       -6.9770    -2.7690     1.1280 C.3   1 <1>  -0.0800 
 19 C       -8.1250    -5.0830    -0.2990 C.3   1 <1>  -0.1600 
 20 C       -7.6950    -3.9050     1.8770 C.3   1 <1>  -0.1600 
 21 C       -7.5760    -2.6330    -0.2840 C.3   1 <1>  -0.1600 
 22 H       -0.1920    -3.3450    -2.1200 H     1 <1>   0.3700 
 23 H       -1.3760    -1.6790     0.8820 H     1 <1>   0.0800 
 24 H       -2.3730    -0.7850    -0.2510 H     1 <1>   0.0800 
 25 H       -0.8550    -0.1180     0.2980 H     1 <1>   0.0800 
 26 H       -3.3730    -2.8930    -0.9750 H     1 <1>   0.1500 
 27 H       -1.3430    -6.9690     0.8130 H     1 <1>   0.1500 
 28 H        1.0640    -4.5640     0.0310 H     1 <1>   0.0800 
 29 H        0.7580    -5.5080    -1.4110 H     1 <1>   0.0800 
 30 H        0.7990    -6.2820     0.1520 H     1 <1>   0.0800 
 31 H       -3.6980    -6.6170     1.0900 H     1 <1>   0.1500 
 32 H       -5.6080    -5.6640     1.9730 H     1 <1>   0.0800 
 33 H       -5.9080    -6.4800     0.4630 H     1 <1>   0.0800 
 34 H       -5.4230    -3.5110    -1.7320 H     1 <1>   0.0800 
 35 H       -5.7800    -5.2070    -1.7150 H     1 <1>   0.0800 
 36 H       -4.9800    -2.2940     0.5170 H     1 <1>   0.0800 
 37 H       -5.0480    -3.2000     1.9920 H     1 <1>   0.0800 
 38 H       -8.0220    -6.0220     1.6390 H     1 <1>   0.0800 
 39 H       -7.8320    -3.8540    -2.0440 H     1 <1>   0.0800 
 40 H       -7.1000    -1.8450     1.6670 H     1 <1>   0.0800 
 41 H       -9.1760    -4.8630    -0.2250 H     1 <1>   0.0800 
 42 H       -8.0220    -6.0090    -0.8370 H     1 <1>   0.0800 
 43 H       -8.7420    -3.6730     1.9730 H     1 <1>   0.0800 
 44 H       -7.2900    -4.0020     2.8690 H     1 <1>   0.0800 
 45 H       -8.6210    -2.3850    -0.2120 H     1 <1>   0.0800 
 46 H       -7.0870    -1.8340    -0.8130 H     1 <1>   0.0800 
@<TRIPOS>BOND
  1   1   2  2   
  2   2   3  am  
  3   2   4  1   
  4   3   5  1   
  5   3  22  1   
  6   4  23  1   
  7   4  24  1   
  8   4  25  1   
  9   5   6  ar  
 10   5   7  ar  
 11   6   8  ar  
 12   6   9  1   
 13   7  10  ar  
 14   7  26  1   
 15   8  11  ar  
 16   8  27  1   
 17   9  28  1   
 18   9  29  1   
 19   9  30  1   
 20  10  11  ar  
 21  10  12  1   
 22  11  31  1   
 23  12  13  1   
 24  12  14  1   
 25  12  15  1   
 26  13  16  1   
 27  13  32  1   
 28  13  33  1   
 29  14  17  1   
 30  14  34  1   
 31  14  35  1   
 32  15  18  1   
 33  15  36  1   
 34  15  37  1   
 35  16  19  1   
 36  16  20  1   
 37  16  38  1   
 38  17  19  1   
 39  17  21  1   
 40  17  39  1   
 41  18  20  1   
 42  18  21  1   
 43  18  40  1   
 44  19  41  1   
 45  19  42  1   
 46  20  43  1   
 47  20  44  1   
 48  21  45  1   
 49  21  46  1   
@<TRIPOS>SUBSTRUCTURE
  1 ****  10 GROUP 4 **** **** 0

# MOE 2024.06 (io_trps.svl 2023.06)
