@<TRIPOS>MOLECULE
NONAME
41 43 1 0 0 
SMALL
USER_CHARGES


@<TRIPOS>ATOM
  1 O       -6.5630     1.0210    -0.8270 O.2   1 <1>  -0.5700 
  2 C       -5.9820     0.0880    -0.3330 C.2   1 <1>   0.5690 
  3 N       -6.5600    -1.1100    -0.0370 N.am  1 <1>  -0.5470 
  4 C       -4.5110     0.2550    -0.0210 C.3   1 <1>  -0.0990 
  5 C       -7.8760    -1.5830    -0.1910 C.ar  1 <1>   0.1170 
  6 C       -4.1210     1.7270    -0.1800 C.3   1 <1>   0.3430 
  7 C       -8.1590    -2.8780     0.2250 C.ar  1 <1>   0.0820 
  8 C       -8.9390    -0.8570    -0.7340 C.ar  1 <1>  -0.1500 
  9 N       -2.6870     1.9720     0.1630 N.4   1 <1>  -0.9590 
 10 O       -7.3130    -3.7670     0.7750 O.3   1 <1>  -0.3620 
 11 C       -9.4040    -3.4210     0.1150 C.ar  1 <1>   0.0830 
 12 C      -10.2110    -1.4120    -0.8460 C.ar  1 <1>  -0.1500 
 13 C       -2.4590     3.4380     0.3310 C.3   1 <1>   0.3430 
 14 C       -1.7530     1.3980    -0.8530 C.3   1 <1>   0.3430 
 15 C       -8.0780    -4.9480     1.0260 C.3   1 <1>   0.4000 
 16 O       -9.4060    -4.6720     0.5870 O.3   1 <1>  -0.3630 
 17 C      -10.4600    -2.7090    -0.4200 C.ar  1 <1>  -0.1500 
 18 C       -1.0300     3.6860     0.8170 C.3   1 <1>  -0.1600 
 19 C       -0.3060     1.5980    -0.3960 C.3   1 <1>  -0.1600 
 20 C        0.0070     3.0770    -0.1350 C.3   1 <1>  -0.1600 
 21 H       -5.9590    -1.8250     0.3750 H     1 <1>   0.3700 
 22 H       -3.9560    -0.3610    -0.7030 H     1 <1>   0.0800 
 23 H       -4.3330    -0.0640     0.9890 H     1 <1>   0.0800 
 24 H       -4.7540     2.3140     0.4680 H     1 <1>   0.0800 
 25 H       -4.3180     2.0420    -1.1930 H     1 <1>   0.0800 
 26 H       -8.7870     0.1490    -1.0760 H     1 <1>   0.1500 
 27 H       -2.4770     1.5350     1.0690 H     1 <1>   0.4500 
 28 H      -11.0100    -0.8270    -1.2690 H     1 <1>   0.1500 
 29 H       -3.1560     3.8430     1.0480 H     1 <1>   0.0800 
 30 H       -2.6110     3.9420    -0.6100 H     1 <1>   0.0800 
 31 H       -1.9010     1.8870    -1.8020 H     1 <1>   0.0800 
 32 H       -1.9400     0.3440    -0.9820 H     1 <1>   0.0800 
 33 H       -8.0850    -5.1580     2.0810 H     1 <1>   0.0800 
 34 H       -7.6750    -5.7680     0.4590 H     1 <1>   0.0800 
 35 H      -11.4350    -3.1560    -0.4980 H     1 <1>   0.1500 
 36 H       -0.9100     3.2750     1.8050 H     1 <1>   0.0800 
 37 H       -0.8630     4.7480     0.8910 H     1 <1>   0.0800 
 38 H        0.3580     1.2240    -1.1560 H     1 <1>   0.0800 
 39 H       -0.1290     1.0220     0.4960 H     1 <1>   0.0800 
 40 H        0.9950     3.1740     0.2870 H     1 <1>   0.0800 
 41 H       -0.0030     3.6160    -1.0680 H     1 <1>   0.0800 
@<TRIPOS>BOND
  1   1   2  2   
  2   2   3  am  
  3   2   4  1   
  4   3   5  1   
  5   3  21  1   
  6   4   6  1   
  7   4  22  1   
  8   4  23  1   
  9   5   7  ar  
 10   5   8  ar  
 11   6   9  1   
 12   6  24  1   
 13   6  25  1   
 14   7  10  1   
 15   7  11  ar  
 16   8  12  ar  
 17   8  26  1   
 18   9  13  1   
 19   9  14  1   
 20   9  27  1   
 21  10  15  1   
 22  11  16  1   
 23  11  17  ar  
 24  12  17  ar  
 25  12  28  1   
 26  13  18  1   
 27  13  29  1   
 28  13  30  1   
 29  14  19  1   
 30  14  31  1   
 31  14  32  1   
 32  15  16  1   
 33  15  33  1   
 34  15  34  1   
 35  17  35  1   
 36  18  20  1   
 37  18  36  1   
 38  18  37  1   
 39  19  20  1   
 40  19  38  1   
 41  19  39  1   
 42  20  40  1   
 43  20  41  1   
@<TRIPOS>SUBSTRUCTURE
  1 ****   2 GROUP 4 **** **** 0

# MOE 2024.06 (io_trps.svl 2023.06)
