@<TRIPOS>MOLECULE
NONAME
50 51 1 0 0 
SMALL
USER_CHARGES


@<TRIPOS>ATOM
  1 O        0.5230     0.0300     0.5900 O.2   1 <1>  -0.5700 
  2 C        1.0060     1.1130     0.3250 C.2   1 <1>   0.6340 
  3 O        0.1850     2.1320     0.0530 O.3   1 <1>  -0.4300 
  4 C        2.4350     1.3590     0.2860 C.ar  1 <1>   0.0860 
  5 C       -1.2160     1.9770     0.0700 C.3   1 <1>   0.1200 
  6 C        3.3490     0.3380     0.5590 C.ar  1 <1>  -0.1500 
  7 C        2.9670     2.6160    -0.0230 C.ar  1 <1>  -0.1500 
  8 C       -1.8460     3.3220    -0.2810 C.3   1 <1>  -0.2400 
  9 C        4.7140     0.5570     0.5250 C.ar  1 <1>  -0.1500 
 10 C        4.3310     2.8450    -0.0580 C.ar  1 <1>  -0.1500 
 11 C        5.2190     1.8090     0.2170 C.ar  1 <1>   0.0830 
 12 O        6.5630     1.9430     0.2050 O.3   1 <1>  -0.3630 
 13 C        7.1910     3.1630    -0.0970 C.3   1 <1>   0.1200 
 14 C        8.6980     2.9250    -0.0180 C.3   1 <1>  -0.1600 
 15 C        9.4730     4.1990    -0.3490 C.3   1 <1>   0.3430 
 16 N       10.9340     3.9610    -0.1960 N.4   1 <1>  -0.9590 
 17 C       11.6830     5.2440    -0.1090 C.3   1 <1>   0.3430 
 18 C       11.4930     3.1200    -1.2880 C.3   1 <1>   0.3430 
 19 C       12.9860     5.0680     0.6760 C.3   1 <1>  -0.1600 
 20 C       12.4400     2.0680    -0.7100 C.3   1 <1>  -0.1600 
 21 C       13.9470     3.9760     0.1690 C.3   1 <1>  -0.1600 
 22 C       13.4100     2.5520     0.3840 C.3   1 <1>  -0.1600 
 23 H       -1.5130     1.6550     1.0540 H     1 <1>   0.0800 
 24 H       -1.4840     1.2240    -0.6530 H     1 <1>   0.0800 
 25 H        2.9780    -0.6440     0.8000 H     1 <1>   0.1500 
 26 H        2.2970     3.4310    -0.2390 H     1 <1>   0.1500 
 27 H       -1.5610     4.0640     0.4430 H     1 <1>   0.0800 
 28 H       -2.9170     3.2320    -0.2760 H     1 <1>   0.0800 
 29 H       -1.5320     3.6330    -1.2610 H     1 <1>   0.0800 
 30 H        5.3960    -0.2460     0.7390 H     1 <1>   0.1500 
 31 H        4.6790     3.8300    -0.3010 H     1 <1>   0.1500 
 32 H        6.8700     3.8940     0.6260 H     1 <1>   0.0800 
 33 H        6.8910     3.4570    -1.0890 H     1 <1>   0.0800 
 34 H        8.9500     2.1430    -0.7120 H     1 <1>   0.0800 
 35 H        8.9380     2.6060     0.9810 H     1 <1>   0.0800 
 36 H        9.1630     4.9780     0.3300 H     1 <1>   0.0800 
 37 H        9.2520     4.5200    -1.3540 H     1 <1>   0.0800 
 38 H       11.0960     3.4550     0.6850 H     1 <1>   0.4500 
 39 H       11.0820     5.9840     0.3940 H     1 <1>   0.0800 
 40 H       11.9000     5.6100    -1.1000 H     1 <1>   0.0800 
 41 H       12.0310     3.7410    -1.9860 H     1 <1>   0.0800 
 42 H       10.7050     2.6230    -1.8290 H     1 <1>   0.0800 
 43 H       12.7520     4.8890     1.7120 H     1 <1>   0.0800 
 44 H       13.5080     6.0080     0.6430 H     1 <1>   0.0800 
 45 H       13.0190     1.6790    -1.5300 H     1 <1>   0.0800 
 46 H       11.8620     1.2440    -0.3280 H     1 <1>   0.0800 
 47 H       14.8630     4.0670     0.7300 H     1 <1>   0.0800 
 48 H       14.2000     4.1360    -0.8660 H     1 <1>   0.0800 
 49 H       14.2450     1.8710     0.4070 H     1 <1>   0.0800 
 50 H       12.9400     2.4870     1.3510 H     1 <1>   0.0800 
@<TRIPOS>BOND
  1   1   2  2   
  2   2   3  1   
  3   2   4  1   
  4   3   5  1   
  5   4   6  ar  
  6   4   7  ar  
  7   5   8  1   
  8   5  23  1   
  9   5  24  1   
 10   6   9  ar  
 11   6  25  1   
 12   7  10  ar  
 13   7  26  1   
 14   8  27  1   
 15   8  28  1   
 16   8  29  1   
 17   9  11  ar  
 18   9  30  1   
 19  10  11  ar  
 20  10  31  1   
 21  11  12  1   
 22  12  13  1   
 23  13  14  1   
 24  13  32  1   
 25  13  33  1   
 26  14  15  1   
 27  14  34  1   
 28  14  35  1   
 29  15  16  1   
 30  15  36  1   
 31  15  37  1   
 32  16  17  1   
 33  16  18  1   
 34  16  38  1   
 35  17  19  1   
 36  17  39  1   
 37  17  40  1   
 38  18  20  1   
 39  18  41  1   
 40  18  42  1   
 41  19  21  1   
 42  19  43  1   
 43  19  44  1   
 44  20  22  1   
 45  20  45  1   
 46  20  46  1   
 47  21  22  1   
 48  21  47  1   
 49  21  48  1   
 50  22  49  1   
 51  22  50  1   
@<TRIPOS>SUBSTRUCTURE
  1 ****  12 GROUP 4 **** **** 0

# MOE 2024.06 (io_trps.svl 2023.06)
