@<TRIPOS>MOLECULE
NONAME
30 31 1 0 0 
SMALL
USER_CHARGES


@<TRIPOS>ATOM
  1 CL       0.6400    -0.2940    -2.3770 Cl    1 <1>  -0.1770 
  2 C        0.9920    -1.7710    -1.5190 C.ar  1 <1>   0.1770 
  3 C        0.3900    -2.9450    -1.9290 C.ar  1 <1>  -0.1500 
  4 C        1.8640    -1.7420    -0.4480 C.ar  1 <1>  -0.1500 
  5 C        0.6840    -4.1010    -1.2330 C.ar  1 <1>   0.1770 
  6 C        2.1610    -2.9130     0.2420 C.ar  1 <1>   0.1990 
  7 CL      -0.0570    -5.6020    -1.7240 Cl    1 <1>  -0.1770 
  8 C        1.5530    -4.0980    -0.1590 C.ar  1 <1>  -0.1500 
  9 N        3.0350    -2.9270     1.3160 N.am  1 <1>  -0.7570 
 10 S        4.6220    -2.2980     1.3500 S.o2  1 <1>   1.5760 
 11 O        5.0500    -2.4600     2.7160 O.2   1 <1>  -0.6500 
 12 O        4.6570    -1.0300     0.6640 O.2   1 <1>  -0.6500 
 13 N        5.3670    -3.4830     0.4100 N.am  1 <1>  -0.8490 
 14 C        5.3330    -3.1700    -1.0300 C.3   1 <1>   0.1960 
 15 C        6.7610    -3.7090     0.8220 C.3   1 <1>   0.1960 
 16 C        6.0300    -4.2680    -1.8520 C.3   1 <1>   0.1200 
 17 C        7.4330    -4.7860    -0.0500 C.3   1 <1>   0.1200 
 18 O        7.3440    -4.4510    -1.4060 O.3   1 <1>  -0.5600 
 19 H       -0.2870    -2.9570    -2.7630 H     1 <1>   0.1500 
 20 H        2.3040    -0.8070    -0.1510 H     1 <1>   0.1500 
 21 H        1.7590    -5.0160     0.3580 H     1 <1>   0.1500 
 22 H        3.0220    -3.7290     1.9340 H     1 <1>   0.4200 
 23 H        5.8280    -2.2310    -1.2200 H     1 <1>   0.0800 
 24 H        4.3150    -3.0790    -1.3620 H     1 <1>   0.0800 
 25 H        6.7890    -4.0340     1.8490 H     1 <1>   0.0800 
 26 H        7.3230    -2.7930     0.7480 H     1 <1>   0.0800 
 27 H        6.0720    -3.9870    -2.8890 H     1 <1>   0.0800 
 28 H        5.5010    -5.2010    -1.7640 H     1 <1>   0.0800 
 29 H        6.9620    -5.7420     0.1010 H     1 <1>   0.0800 
 30 H        8.4760    -4.8710     0.1990 H     1 <1>   0.0800 
@<TRIPOS>BOND
  1   1   2  1   
  2   2   3  ar  
  3   2   4  ar  
  4   3   5  ar  
  5   3  19  1   
  6   4   6  ar  
  7   4  20  1   
  8   5   7  1   
  9   5   8  ar  
 10   6   8  ar  
 11   6   9  1   
 12   8  21  1   
 13   9  10  am  
 14   9  22  1   
 15  10  11  2   
 16  10  12  2   
 17  10  13  am  
 18  13  14  1   
 19  13  15  1   
 20  14  16  1   
 21  14  23  1   
 22  14  24  1   
 23  15  17  1   
 24  15  25  1   
 25  15  26  1   
 26  16  18  1   
 27  16  27  1   
 28  16  28  1   
 29  17  18  1   
 30  17  29  1   
 31  17  30  1   
@<TRIPOS>SUBSTRUCTURE
  1 ****   6 GROUP 4 **** **** 0

# MOE 2024.06 (io_trps.svl 2023.06)
