@<TRIPOS>MOLECULE
NONAME
26 27 1 0 0 
SMALL
USER_CHARGES


@<TRIPOS>ATOM
  1 S        0.2340    -0.0950     0.1610 S.3   1 <1>  -0.0800 
  2 C        1.1590     1.2930     0.7290 C.2   1 <1>  -0.1400 
  3 C       -1.2180     0.8820     0.0010 C.2   1 <1>  -0.1400 
  4 C        0.3860     2.3960     0.7510 C.2   1 <1>   0.0630 
  5 C        2.6090     1.0670     1.1170 C.3   1 <1>   0.0200 
  6 C       -0.9680     2.1570     0.3490 C.2   1 <1>  -0.1500 
  7 C       -2.4700     0.1820    -0.4820 C.3   1 <1>  -0.0600 
  8 N        0.8210     3.6770     1.1140 N.am  1 <1>  -0.4930 
  9 C        3.5740     1.4150    -0.0240 C.3   1 <1>  -0.1600 
 10 C        1.9230     4.3350     0.6770 C.2   1 <1>   0.5690 
 11 C        3.9110     2.9140    -0.1440 C.3   1 <1>  -0.1600 
 12 O        2.2590     5.3640     1.2090 O.2   1 <1>  -0.5700 
 13 C        2.7240     3.8240    -0.5150 C.3   1 <1>  -0.0990 
 14 H        2.7320     0.0330     1.3870 H     1 <1>   0.0800 
 15 H        2.8450     1.6560     1.9860 H     1 <1>   0.0800 
 16 H       -1.6840     2.9590     0.3380 H     1 <1>   0.1500 
 17 H       -2.3010    -0.2390    -1.4560 H     1 <1>   0.0800 
 18 H       -3.2860     0.8790    -0.5400 H     1 <1>   0.0800 
 19 H       -2.7330    -0.6070     0.1990 H     1 <1>   0.0800 
 20 H        0.2860     4.1760     1.8230 H     1 <1>   0.3700 
 21 H        3.1740     1.0510    -0.9550 H     1 <1>   0.0800 
 22 H        4.4950     0.8880     0.1520 H     1 <1>   0.0800 
 23 H        4.6540     3.0140    -0.9160 H     1 <1>   0.0800 
 24 H        4.3600     3.2670     0.7700 H     1 <1>   0.0800 
 25 H        3.1130     4.6920    -1.0170 H     1 <1>   0.0800 
 26 H        2.0740     3.3280    -1.2120 H     1 <1>   0.0800 
@<TRIPOS>BOND
  1   1   2  1   
  2   1   3  1   
  3   2   4  2   
  4   2   5  1   
  5   3   6  2   
  6   3   7  1   
  7   4   6  1   
  8   4   8  1   
  9   5   9  1   
 10   5  14  1   
 11   5  15  1   
 12   6  16  1   
 13   7  17  1   
 14   7  18  1   
 15   7  19  1   
 16   8  10  am  
 17   8  20  1   
 18   9  11  1   
 19   9  21  1   
 20   9  22  1   
 21  10  12  2   
 22  10  13  1   
 23  11  13  1   
 24  11  23  1   
 25  11  24  1   
 26  13  25  1   
 27  13  26  1   
@<TRIPOS>SUBSTRUCTURE
  1 ****   4 GROUP 4 **** **** 0

# MOE 2024.06 (io_trps.svl 2023.06)
