@<TRIPOS>MOLECULE
NONAME
33 34 1 0 0 
SMALL
USER_CHARGES


@<TRIPOS>ATOM
  1 S       -0.1780    -0.6420     2.3760 S.3   1 <1>  -0.0800 
  2 C       -1.5930    -1.6360     2.0810 C.2   1 <1>  -0.1100 
  3 C        0.1820    -0.5750     0.6610 C.2   1 <1>  -0.1100 
  4 C       -1.7500    -1.8720     0.7640 C.2   1 <1>  -0.1810 
  5 C       -0.7310    -1.2670    -0.0450 C.2   1 <1>  -0.1500 
  6 C       -2.8720    -2.6900     0.1490 C.3   1 <1>   0.2910 
  7 N       -4.1230    -1.9050     0.1100 N.3   1 <1>  -0.8100 
  8 C       -3.9910    -0.6510    -0.6770 C.3   1 <1>   0.1100 
  9 C       -5.2640    -2.7120    -0.3760 C.3   1 <1>   0.1100 
 10 C       -5.3220     0.1330    -0.7770 C.3   1 <1>   0.3430 
 11 C       -6.5980    -1.9240    -0.3280 C.3   1 <1>   0.3430 
 12 N       -6.3800    -0.4930     0.0790 N.4   1 <1>  -0.9590 
 13 C       -7.6130     0.3270     0.1690 C.3   1 <1>   0.3430 
 14 C       -8.4750    -0.1640     1.3260 C.3   1 <1>  -0.2400 
 15 H       -2.1690    -1.9400     2.9370 H     1 <1>   0.1500 
 16 H        1.0540    -0.0200     0.3620 H     1 <1>   0.1500 
 17 H       -0.7240    -1.3800    -1.1150 H     1 <1>   0.1500 
 18 H       -3.0250    -3.5670     0.7560 H     1 <1>   0.0800 
 19 H       -2.5960    -3.0120    -0.8410 H     1 <1>   0.0800 
 20 H       -3.6340    -0.8720    -1.6690 H     1 <1>   0.0800 
 21 H       -3.2620    -0.0110    -0.2090 H     1 <1>   0.0800 
 22 H       -5.3650    -3.5960     0.2310 H     1 <1>   0.0800 
 23 H       -5.0800    -3.0340    -1.3870 H     1 <1>   0.0800 
 24 H       -5.6450     0.1530    -1.8050 H     1 <1>   0.0800 
 25 H       -5.1480     1.1510    -0.4680 H     1 <1>   0.0800 
 26 H       -7.2550    -2.4060     0.3760 H     1 <1>   0.0800 
 27 H       -7.0700    -1.9670    -1.2960 H     1 <1>   0.0800 
 28 H       -5.9330    -0.5620     1.0070 H     1 <1>   0.4500 
 29 H       -8.1650     0.2730    -0.7560 H     1 <1>   0.0800 
 30 H       -7.3480     1.3570     0.3450 H     1 <1>   0.0800 
 31 H       -8.8490    -1.1550     1.1460 H     1 <1>   0.0800 
 32 H       -9.3230     0.4900     1.4330 H     1 <1>   0.0800 
 33 H       -7.9230    -0.1440     2.2480 H     1 <1>   0.0800 
@<TRIPOS>BOND
  1   1   2  1   
  2   1   3  1   
  3   2   4  2   
  4   2  15  1   
  5   3   5  2   
  6   3  16  1   
  7   4   5  1   
  8   4   6  1   
  9   5  17  1   
 10   6   7  1   
 11   6  18  1   
 12   6  19  1   
 13   7   8  1   
 14   7   9  1   
 15   8  10  1   
 16   8  20  1   
 17   8  21  1   
 18   9  11  1   
 19   9  22  1   
 20   9  23  1   
 21  10  12  1   
 22  10  24  1   
 23  10  25  1   
 24  11  12  1   
 25  11  26  1   
 26  11  27  1   
 27  12  13  1   
 28  12  28  1   
 29  13  14  1   
 30  13  29  1   
 31  13  30  1   
 32  14  31  1   
 33  14  32  1   
 34  14  33  1   
@<TRIPOS>SUBSTRUCTURE
  1 ****   7 GROUP 4 **** **** 0

# MOE 2024.06 (io_trps.svl 2023.06)
