@<TRIPOS>MOLECULE
NONAME
58 65 1 0 0 
SMALL
USER_CHARGES


@<TRIPOS>ATOM
  1 O        0.2610    -0.7280    -1.5720 O.2   1 <1>  -0.5700 
  2 C        0.6540    -1.6110    -0.8550 C.2   1 <1>   0.5690 
  3 N        1.6940    -1.6230     0.0640 N.am  1 <1>  -0.4200 
  4 C        0.0520    -2.9840    -0.8620 C.3   1 <1>  -0.0190 
  5 C        1.5800    -2.7610     0.8460 C.2   1 <1>   0.5690 
  6 C        2.8050    -0.6220     0.2140 C.3   1 <1>   0.3000 
  7 C       -1.2820    -3.5790    -1.3790 C.3   1 <1>   0.2070 
  8 C        0.2130    -3.3300     0.6190 C.3   1 <1>  -0.0190 
  9 O        2.3720    -3.2380     1.6180 O.2   1 <1>  -0.5700 
 10 C        2.8510    -0.1020     1.6710 C.3   1 <1>  -0.1600 
 11 C        2.6370     0.6060    -0.7160 C.3   1 <1>  -0.1600 
 12 C        4.1570    -1.2900    -0.1310 C.3   1 <1>  -0.1600 
 13 C       -0.8700    -5.0550    -1.5180 C.ar  1 <1>  -0.1440 
 14 C       -2.3430    -3.6370    -0.2650 C.ar  1 <1>  -0.1440 
 15 C       -0.4500    -4.7040     0.8930 C.3   1 <1>   0.2070 
 16 C        4.0150     0.8900     1.8640 C.3   1 <1>  -0.0800 
 17 C        3.7930     1.6090    -0.5390 C.3   1 <1>  -0.0800 
 18 C        5.3230    -0.3000     0.0590 C.3   1 <1>  -0.0800 
 19 C       -0.3780    -5.6210    -0.3410 C.ar  1 <1>  -0.1440 
 20 C       -0.9080    -5.7960    -2.6870 C.ar  1 <1>  -0.1500 
 21 C       -1.9280    -4.2800     0.9030 C.ar  1 <1>  -0.1440 
 22 C       -3.6320    -3.1450    -0.3660 C.ar  1 <1>  -0.1500 
 23 C        3.8210     2.0900     0.9220 C.3   1 <1>  -0.1600 
 24 C        5.3410     0.1840     1.5220 C.3   1 <1>  -0.1600 
 25 C        5.1220     0.9080    -0.8720 C.3   1 <1>  -0.1600 
 26 C        0.0910    -6.9230    -0.3400 C.ar  1 <1>  -0.1500 
 27 C       -0.4430    -7.1010    -2.6780 C.ar  1 <1>  -0.1500 
 28 C       -2.8070    -4.4430     1.9600 C.ar  1 <1>  -0.1500 
 29 C       -4.5070    -3.3030     0.6970 C.ar  1 <1>  -0.1500 
 30 C        0.0570    -7.6590    -1.5120 C.ar  1 <1>  -0.1500 
 31 C       -4.0980    -3.9530     1.8510 C.ar  1 <1>  -0.1500 
 32 H        0.8130    -3.5110    -1.4180 H     1 <1>   0.0800 
 33 H       -1.6210    -3.1470    -2.3040 H     1 <1>   0.0800 
 34 H       -0.3720    -2.6290     1.1960 H     1 <1>   0.0800 
 35 H        1.9220     0.3850     1.9110 H     1 <1>   0.0800 
 36 H        2.9900    -0.9150     2.3600 H     1 <1>   0.0800 
 37 H        1.7110     1.1070    -0.4970 H     1 <1>   0.0800 
 38 H        2.6160     0.2890    -1.7440 H     1 <1>   0.0800 
 39 H        4.1420    -1.6330    -1.1500 H     1 <1>   0.0800 
 40 H        4.3320    -2.1390     0.5040 H     1 <1>   0.0800 
 41 H       -0.1360    -5.1610     1.8150 H     1 <1>   0.0800 
 42 H        4.0370     1.2290     2.8860 H     1 <1>   0.0800 
 43 H        3.6500     2.4500    -1.1970 H     1 <1>   0.0800 
 44 H        6.2550    -0.7870    -0.1730 H     1 <1>   0.0800 
 45 H       -1.2900    -5.3650    -3.5950 H     1 <1>   0.1500 
 46 H       -3.9580    -2.6490    -1.2630 H     1 <1>   0.1500 
 47 H        4.6240     2.7940     1.0580 H     1 <1>   0.0800 
 48 H        2.9010     2.5970     1.1580 H     1 <1>   0.0800 
 49 H        5.4890    -0.6540     2.1810 H     1 <1>   0.0800 
 50 H        6.1620     0.8630     1.6700 H     1 <1>   0.0800 
 51 H        5.9380     1.6000    -0.7530 H     1 <1>   0.0800 
 52 H        5.1170     0.5830    -1.8980 H     1 <1>   0.0800 
 53 H        0.4710    -7.3650     0.5640 H     1 <1>   0.1500 
 54 H       -0.4700    -7.6840    -3.5820 H     1 <1>   0.1500 
 55 H       -2.4930    -4.9410     2.8610 H     1 <1>   0.1500 
 56 H       -5.5110    -2.9250     0.6230 H     1 <1>   0.1500 
 57 H        0.4180    -8.6730    -1.5170 H     1 <1>   0.1500 
 58 H       -4.7880    -4.0760     2.6680 H     1 <1>   0.1500 
@<TRIPOS>BOND
  1   1   2  2   
  2   2   3  am  
  3   2   4  1   
  4   3   5  am  
  5   3   6  1   
  6   4   7  1   
  7   4   8  1   
  8   4  32  1   
  9   5   8  1   
 10   5   9  2   
 11   6  10  1   
 12   6  11  1   
 13   6  12  1   
 14   7  13  1   
 15   7  14  1   
 16   7  33  1   
 17   8  15  1   
 18   8  34  1   
 19  10  16  1   
 20  10  35  1   
 21  10  36  1   
 22  11  17  1   
 23  11  37  1   
 24  11  38  1   
 25  12  18  1   
 26  12  39  1   
 27  12  40  1   
 28  13  19  ar  
 29  13  20  ar  
 30  14  21  ar  
 31  14  22  ar  
 32  15  19  1   
 33  15  21  1   
 34  15  41  1   
 35  16  23  1   
 36  16  24  1   
 37  16  42  1   
 38  17  23  1   
 39  17  25  1   
 40  17  43  1   
 41  18  24  1   
 42  18  25  1   
 43  18  44  1   
 44  19  26  ar  
 45  20  27  ar  
 46  20  45  1   
 47  21  28  ar  
 48  22  29  ar  
 49  22  46  1   
 50  23  47  1   
 51  23  48  1   
 52  24  49  1   
 53  24  50  1   
 54  25  51  1   
 55  25  52  1   
 56  26  30  ar  
 57  26  53  1   
 58  27  30  ar  
 59  27  54  1   
 60  28  31  ar  
 61  28  55  1   
 62  29  31  ar  
 63  29  56  1   
 64  30  57  1   
 65  31  58  1   
@<TRIPOS>SUBSTRUCTURE
  1 ****   8 GROUP 4 **** **** 0

# MOE 2024.06 (io_trps.svl 2023.06)
