@<TRIPOS>MOLECULE
NONAME
43 45 1 0 0 
SMALL
USER_CHARGES


@<TRIPOS>ATOM
  1 O        0.2880     0.6390    -0.6910 O.2   1 <1>  -0.5700 
  2 C        0.4260     1.0130     0.4560 C.2   1 <1>   0.6900 
  3 N       -0.6040     1.5370     1.1600 N.am  1 <1>  -0.7300 
  4 N        1.6120     0.9450     1.1020 N.am  1 <1>  -0.7300 
  5 C       -1.9910     1.7840     0.7090 C.3   1 <1>   0.2200 
  6 C        2.9340     0.5060     0.6070 C.3   1 <1>   0.3640 
  7 C       -2.7030     0.4690     0.3670 C.3   1 <1>  -0.1600 
  8 C       -2.0280     2.7730    -0.4640 C.3   1 <1>  -0.1600 
  9 C        3.6890     1.7050     0.0420 C.ar  1 <1>  -0.1440 
 10 C        2.8770    -0.6640    -0.3760 C.3   1 <1>  -0.2400 
 11 C       -4.1480     0.7300    -0.0860 C.3   1 <1>  -0.1600 
 12 C       -3.4730     3.0340    -0.9150 C.3   1 <1>  -0.1600 
 13 C        4.8940     2.0940     0.6230 C.ar  1 <1>  -0.1500 
 14 C        3.1860     2.4200    -1.0480 C.ar  1 <1>  -0.1500 
 15 C       -4.1900     1.7200    -1.2590 C.3   1 <1>  -0.1600 
 16 C        5.5540     3.1860     0.0950 C.ar  1 <1>   0.0820 
 17 C        3.8650     3.5150    -1.5660 C.ar  1 <1>  -0.1500 
 18 O        6.7100     3.7260     0.4940 O.3   1 <1>  -0.3620 
 19 C        5.0540     3.8780    -0.9690 C.ar  1 <1>   0.0820 
 20 C        6.9630     4.8320    -0.3710 C.3   1 <1>   0.4000 
 21 O        5.8730     4.8860    -1.2890 O.3   1 <1>  -0.3620 
 22 H       -0.4690     1.6340     2.1610 H     1 <1>   0.3700 
 23 H        1.7020     1.5840     1.8850 H     1 <1>   0.3700 
 24 H       -2.5200     2.2380     1.5290 H     1 <1>   0.0800 
 25 H        3.4750     0.1500     1.4670 H     1 <1>   0.0800 
 26 H       -2.7070    -0.1750     1.2280 H     1 <1>   0.0800 
 27 H       -2.1790    -0.0300    -0.4290 H     1 <1>   0.0800 
 28 H       -1.4770     2.3710    -1.2960 H     1 <1>   0.0800 
 29 H       -1.5690     3.6990    -0.1690 H     1 <1>   0.0800 
 30 H        2.4800    -0.3540    -1.3250 H     1 <1>   0.0800 
 31 H        2.2700    -1.4550     0.0240 H     1 <1>   0.0800 
 32 H        3.8690    -1.0390    -0.5430 H     1 <1>   0.0800 
 33 H       -4.7160     1.1280     0.7380 H     1 <1>   0.0800 
 34 H       -4.6040    -0.1990    -0.3830 H     1 <1>   0.0800 
 35 H       -3.4690     3.6780    -1.7780 H     1 <1>   0.0800 
 36 H       -4.0090     3.5380    -0.1290 H     1 <1>   0.0800 
 37 H        5.3200     1.5740     1.4610 H     1 <1>   0.1500 
 38 H        2.2540     2.1210    -1.4990 H     1 <1>   0.1500 
 39 H       -5.2140     1.9260    -1.5220 H     1 <1>   0.0800 
 40 H       -3.7150     1.2730    -2.1150 H     1 <1>   0.0800 
 41 H        3.4830     4.0690    -2.4040 H     1 <1>   0.1500 
 42 H        7.8800     4.6660    -0.9090 H     1 <1>   0.0800 
 43 H        6.9960     5.7400     0.2040 H     1 <1>   0.0800 
@<TRIPOS>BOND
  1   1   2  2   
  2   2   3  am  
  3   2   4  am  
  4   3   5  1   
  5   3  22  1   
  6   4   6  1   
  7   4  23  1   
  8   5   7  1   
  9   5   8  1   
 10   5  24  1   
 11   6   9  1   
 12   6  10  1   
 13   6  25  1   
 14   7  11  1   
 15   7  26  1   
 16   7  27  1   
 17   8  12  1   
 18   8  28  1   
 19   8  29  1   
 20   9  13  ar  
 21   9  14  ar  
 22  10  30  1   
 23  10  31  1   
 24  10  32  1   
 25  11  15  1   
 26  11  33  1   
 27  11  34  1   
 28  12  15  1   
 29  12  35  1   
 30  12  36  1   
 31  13  16  ar  
 32  13  37  1   
 33  14  17  ar  
 34  14  38  1   
 35  15  39  1   
 36  15  40  1   
 37  16  18  1   
 38  16  19  ar  
 39  17  19  ar  
 40  17  41  1   
 41  18  20  1   
 42  19  21  1   
 43  20  21  1   
 44  20  42  1   
 45  20  43  1   
@<TRIPOS>SUBSTRUCTURE
  1 ****   4 GROUP 4 **** **** 0

# MOE 2024.06 (io_trps.svl 2023.06)
