@<TRIPOS>MOLECULE
NONAME
42 43 1 0 0 
SMALL
USER_CHARGES


@<TRIPOS>ATOM
  1 O       -1.3730     0.5180     2.9690 O.2   1 <1>  -0.5700 
  2 C       -2.0470     1.0240     2.0950 C.2   1 <1>   0.7060 
  3 O       -3.2710     0.5450     1.8730 O.3   1 <1>  -0.2330 
  4 C       -1.5960     2.1080     1.2880 C.2   1 <1>  -0.1360 
  5 C       -4.1060     1.0310     0.9210 C.ar  1 <1>   0.0820 
  6 C       -2.3700     2.6460     0.3210 C.2   1 <1>  -0.1670 
  7 C       -3.6840     2.1010     0.1100 C.ar  1 <1>   0.0280 
  8 C       -5.3670     0.4500     0.7730 C.ar  1 <1>  -0.1440 
  9 C       -1.8690     3.8050    -0.5300 C.3   1 <1>  -0.1020 
 10 C       -4.5700     2.5660    -0.8630 C.ar  1 <1>  -0.1500 
 11 C       -6.2390     0.9780    -0.1760 C.ar  1 <1>   0.0830 
 12 C       -5.7480    -0.7610     1.6260 C.3   1 <1>  -0.0960 
 13 C       -5.8220     2.0110    -1.0030 C.ar  1 <1>  -0.1500 
 14 O       -7.4990     0.5230    -0.3610 O.3   1 <1>  -0.3630 
 15 C       -8.4580     0.6820     0.6850 C.3   1 <1>   0.2610 
 16 C       -8.9930    -0.6690     1.1990 C.2   1 <1>   0.6590 
 17 C       -9.6060     1.6000     0.2150 C.3   1 <1>  -0.1600 
 18 O       -9.0150    -0.8830     2.3830 O.2   1 <1>  -0.5700 
 19 O       -9.4790    -1.5940     0.3680 O.3   1 <1>  -0.4300 
 20 C       -9.1550     3.0040    -0.2100 C.3   1 <1>  -0.2400 
 21 C       -9.1850    -1.7160    -1.0040 C.3   1 <1>   0.1200 
 22 C       -9.9400    -2.9290    -1.5370 C.3   1 <1>  -0.2400 
 23 H       -0.6050     2.4590     1.5070 H     1 <1>   0.1500 
 24 H       -1.8460     3.5210    -1.5670 H     1 <1>   0.0800 
 25 H       -0.8750     4.0940    -0.2390 H     1 <1>   0.0800 
 26 H       -2.5140     4.6580    -0.4130 H     1 <1>   0.0800 
 27 H       -4.2840     3.3680    -1.5170 H     1 <1>   0.1500 
 28 H       -6.2590    -0.4430     2.5160 H     1 <1>   0.0800 
 29 H       -4.8800    -1.3240     1.9190 H     1 <1>   0.0800 
 30 H       -6.3780    -1.4300     1.0720 H     1 <1>   0.0800 
 31 H       -6.4900     2.3770    -1.7610 H     1 <1>   0.1500 
 32 H       -7.9630     1.1630     1.5100 H     1 <1>   0.0800 
 33 H      -10.2990     1.7030     1.0330 H     1 <1>   0.0800 
 34 H      -10.1410     1.1340    -0.5930 H     1 <1>   0.0800 
 35 H       -8.5890     2.9580    -1.1210 H     1 <1>   0.0800 
 36 H       -8.5510     3.4580     0.5570 H     1 <1>   0.0800 
 37 H      -10.0140     3.6290    -0.3820 H     1 <1>   0.0800 
 38 H       -8.1230    -1.8520    -1.1160 H     1 <1>   0.0800 
 39 H       -9.4970    -0.8220    -1.5150 H     1 <1>   0.0800 
 40 H       -9.6290    -3.8160    -1.0150 H     1 <1>   0.0800 
 41 H       -9.7330    -3.0560    -2.5840 H     1 <1>   0.0800 
 42 H      -10.9990    -2.7910    -1.4110 H     1 <1>   0.0800 
@<TRIPOS>BOND
  1   1   2  2   
  2   2   3  1   
  3   2   4  1   
  4   3   5  1   
  5   4   6  2   
  6   4  23  1   
  7   5   7  ar  
  8   5   8  ar  
  9   6   7  1   
 10   6   9  1   
 11   7  10  ar  
 12   8  11  ar  
 13   8  12  1   
 14   9  24  1   
 15   9  25  1   
 16   9  26  1   
 17  10  13  ar  
 18  10  27  1   
 19  11  13  ar  
 20  11  14  1   
 21  12  28  1   
 22  12  29  1   
 23  12  30  1   
 24  13  31  1   
 25  14  15  1   
 26  15  16  1   
 27  15  17  1   
 28  15  32  1   
 29  16  18  2   
 30  16  19  1   
 31  17  20  1   
 32  17  33  1   
 33  17  34  1   
 34  19  21  1   
 35  20  35  1   
 36  20  36  1   
 37  20  37  1   
 38  21  22  1   
 39  21  38  1   
 40  21  39  1   
 41  22  40  1   
 42  22  41  1   
 43  22  42  1   
@<TRIPOS>SUBSTRUCTURE
  1 ****   8 GROUP 4 **** **** 0

# MOE 2024.06 (io_trps.svl 2023.06)
