@<TRIPOS>MOLECULE
NONAME
49 51 1 0 0 
SMALL
USER_CHARGES


@<TRIPOS>ATOM
  1 S       -0.1160    -0.1330     0.3510 S.o2  1 <1>   1.4470 
  2 O        0.5490    -0.4170     1.6010 O.2   1 <1>  -0.6500 
  3 O       -1.0100     0.9970     0.2390 O.2   1 <1>  -0.6500 
  4 N        1.0120     0.1290    -0.8660 N.am  1 <1>  -0.9140 
  5 C       -0.9870    -1.6240    -0.2070 C.ar  1 <1>  -0.0090 
  6 C        2.2490     0.8340    -0.5570 C.3   1 <1>   0.2760 
  7 C       -2.3630    -1.7400    -0.0620 C.ar  1 <1>  -0.1500 
  8 C       -0.2990    -2.6920    -0.7700 C.ar  1 <1>  -0.1500 
  9 C        3.2790    -0.0820     0.1150 C.3   1 <1>  -0.1600 
 10 C        2.0350     2.1390     0.2240 C.3   1 <1>  -0.1600 
 11 C       -3.0740    -2.8690    -0.4760 C.ar  1 <1>   0.0860 
 12 C       -0.9680    -3.8290    -1.1820 C.ar  1 <1>  -0.1500 
 13 C        4.6110     0.6580     0.3150 C.3   1 <1>  -0.1600 
 14 C        3.3700     2.8740     0.4190 C.3   1 <1>  -0.1600 
 15 C       -4.5160    -2.9650    -0.3320 C.2   1 <1>   0.5440 
 16 C       -2.3380    -3.9130    -1.0340 C.ar  1 <1>  -0.1500 
 17 C        4.4080     1.9660     1.0950 C.3   1 <1>  -0.1600 
 18 O       -5.0420    -4.0520    -0.2050 O.2   1 <1>  -0.5700 
 19 N       -5.2760    -1.8180    -0.3720 N.am  1 <1>  -0.5470 
 20 C       -6.6260    -1.5740    -0.0870 C.ar  1 <1>   0.1170 
 21 C       -7.1890    -0.3810    -0.5260 C.ar  1 <1>  -0.1500 
 22 C       -7.4340    -2.4440     0.6370 C.ar  1 <1>  -0.1500 
 23 C       -8.5060    -0.0700    -0.2500 C.ar  1 <1>  -0.1500 
 24 C       -8.7510    -2.1290     0.9110 C.ar  1 <1>  -0.1500 
 25 C       -9.3270    -0.9320     0.4790 C.ar  1 <1>  -0.1790 
 26 C      -10.7130    -0.5950     0.7750 C.2   1 <1>   0.9790 
 27 O      -11.4310    -1.3680     1.4350 O.co2 1 <1>  -0.9000 
 28 O      -11.2040     0.4770     0.3740 O.co2 1 <1>  -0.9000 
 29 H        0.5030     0.7370    -1.5040 H     1 <1>   0.4200 
 30 H        2.6780     1.1120    -1.5060 H     1 <1>   0.0800 
 31 H       -2.8950    -0.9250     0.4010 H     1 <1>   0.1500 
 32 H        0.7720    -2.6320    -0.8840 H     1 <1>   0.1500 
 33 H        3.4430    -0.9510    -0.4970 H     1 <1>   0.0800 
 34 H        2.9300    -0.4050     1.0780 H     1 <1>   0.0800 
 35 H        1.6280     1.9320     1.1980 H     1 <1>   0.0800 
 36 H        1.3510     2.7780    -0.3050 H     1 <1>   0.0800 
 37 H       -0.4200    -4.6510    -1.6140 H     1 <1>   0.1500 
 38 H        5.0470     0.8790    -0.6450 H     1 <1>   0.0800 
 39 H        5.2980     0.0240     0.8490 H     1 <1>   0.0800 
 40 H        3.2120     3.7500     1.0240 H     1 <1>   0.0800 
 41 H        3.7470     3.1970    -0.5360 H     1 <1>   0.0800 
 42 H       -2.8550    -4.8030    -1.3540 H     1 <1>   0.1500 
 43 H        5.3460     2.4870     1.1740 H     1 <1>   0.0800 
 44 H        4.0780     1.7330     2.0940 H     1 <1>   0.0800 
 45 H       -4.7790    -0.9960    -0.7010 H     1 <1>   0.3700 
 46 H       -6.6000     0.3150    -1.0910 H     1 <1>   0.1500 
 47 H       -7.0380    -3.3750     0.9980 H     1 <1>   0.1500 
 48 H       -8.9280     0.8590    -0.5980 H     1 <1>   0.1500 
 49 H       -9.3630    -2.8150     1.4740 H     1 <1>   0.1500 
@<TRIPOS>BOND
  1   1   2  2   
  2   1   3  2   
  3   1   4  am  
  4   1   5  1   
  5   4   6  1   
  6   4  29  1   
  7   5   7  ar  
  8   5   8  ar  
  9   6   9  1   
 10   6  10  1   
 11   6  30  1   
 12   7  11  ar  
 13   7  31  1   
 14   8  12  ar  
 15   8  32  1   
 16   9  13  1   
 17   9  33  1   
 18   9  34  1   
 19  10  14  1   
 20  10  35  1   
 21  10  36  1   
 22  11  15  1   
 23  11  16  ar  
 24  12  16  ar  
 25  12  37  1   
 26  13  17  1   
 27  13  38  1   
 28  13  39  1   
 29  14  17  1   
 30  14  40  1   
 31  14  41  1   
 32  15  18  2   
 33  15  19  am  
 34  16  42  1   
 35  17  43  1   
 36  17  44  1   
 37  19  20  1   
 38  19  45  1   
 39  20  21  ar  
 40  20  22  ar  
 41  21  23  ar  
 42  21  46  1   
 43  22  24  ar  
 44  22  47  1   
 45  23  25  ar  
 46  23  48  1   
 47  24  25  ar  
 48  24  49  1   
 49  25  26  1   
 50  26  27  ar  
 51  26  28  ar  
@<TRIPOS>SUBSTRUCTURE
  1 ****   7 GROUP 4 **** **** 0

# MOE 2024.06 (io_trps.svl 2023.06)
