@<TRIPOS>MOLECULE
NONAME
27 28 1 0 0 
SMALL
USER_CHARGES


@<TRIPOS>ATOM
  1 BR      -1.3230    -1.0720    -2.5810 Br    1 <1>  -0.1110 
  2 C       -0.5310    -2.1860    -1.2280 C.ar  1 <1>   0.1110 
  3 C        0.7120    -2.7390    -1.4670 C.ar  1 <1>  -0.1500 
  4 C       -1.2290    -2.4010    -0.0540 C.ar  1 <1>  -0.1500 
  5 C        1.3100    -3.5440    -0.4980 C.ar  1 <1>   0.0860 
  6 C       -0.6520    -3.2060     0.9120 C.ar  1 <1>  -0.1500 
  7 C        0.5960    -3.7650     0.6830 C.ar  1 <1>   0.1770 
  8 C        2.6140    -4.1210    -0.7340 C.2   1 <1>   0.5440 
  9 CL       1.2640    -4.7780     1.9390 Cl    1 <1>  -0.1770 
 10 O        2.7350    -4.9360    -1.6280 O.2   1 <1>  -0.5700 
 11 N        3.7260    -3.7460    -0.0110 N.am  1 <1>  -0.6600 
 12 C        5.0450    -4.4300    -0.1690 C.3   1 <1>   0.1400 
 13 C        3.7630    -2.6250     0.9750 C.3   1 <1>   0.1400 
 14 C        6.1680    -3.4010    -0.3780 C.3   1 <1>   0.1200 
 15 C        4.9610    -1.7010     0.6990 C.3   1 <1>   0.1200 
 16 O        6.1510    -2.4340     0.6350 O.3   1 <1>  -0.5600 
 17 H        1.2180    -2.5550    -2.3980 H     1 <1>   0.1500 
 18 H       -2.1970    -1.9520     0.0940 H     1 <1>   0.1500 
 19 H       -1.1640    -3.4040     1.8370 H     1 <1>   0.1500 
 20 H        5.0280    -5.1080    -1.0040 H     1 <1>   0.0800 
 21 H        5.2520    -5.0040     0.7170 H     1 <1>   0.0800 
 22 H        3.8530    -3.0320     1.9670 H     1 <1>   0.0800 
 23 H        2.8590    -2.0460     0.9320 H     1 <1>   0.0800 
 24 H        6.0550    -2.9090    -1.3290 H     1 <1>   0.0800 
 25 H        7.1260    -3.8880    -0.3520 H     1 <1>   0.0800 
 26 H        5.0630    -0.9790     1.4900 H     1 <1>   0.0800 
 27 H        4.8290    -1.1770    -0.2320 H     1 <1>   0.0800 
@<TRIPOS>BOND
  1   1   2  1   
  2   2   3  ar  
  3   2   4  ar  
  4   3   5  ar  
  5   3  17  1   
  6   4   6  ar  
  7   4  18  1   
  8   5   7  ar  
  9   5   8  1   
 10   6   7  ar  
 11   6  19  1   
 12   7   9  1   
 13   8  10  2   
 14   8  11  am  
 15  11  12  1   
 16  11  13  1   
 17  12  14  1   
 18  12  20  1   
 19  12  21  1   
 20  13  15  1   
 21  13  22  1   
 22  13  23  1   
 23  14  16  1   
 24  14  24  1   
 25  14  25  1   
 26  15  16  1   
 27  15  26  1   
 28  15  27  1   
@<TRIPOS>SUBSTRUCTURE
  1 ****   5 GROUP 4 **** **** 0

# MOE 2024.06 (io_trps.svl 2023.06)
