@<TRIPOS>MOLECULE
NONAME
42 44 1 0 0 
SMALL
USER_CHARGES


@<TRIPOS>ATOM
  1 O        0.8850    -2.9960    -1.0050 O.2   1 <1>  -0.5700 
  2 C        0.9910    -1.9060    -0.4940 C.2   1 <1>   0.5690 
  3 N       -0.0390    -1.2480     0.1070 N.am  1 <1>  -0.4930 
  4 C        2.3680    -1.2340    -0.4930 C.3   1 <1>   0.1250 
  5 C       -1.3810    -1.5360     0.2040 C.2   1 <1>   0.5790 
  6 C        2.5450    -0.3430     0.7470 C.ar  1 <1>  -0.1440 
  7 C        2.6580    -0.4600    -1.8000 C.3   1 <1>  -0.1600 
  8 N       -2.0020    -2.4200    -0.5100 N.2   1 <1>  -0.7070 
  9 N       -2.0940    -0.8360     1.0800 N.2   1 <1>  -0.5650 
 10 C        2.1330     0.9850     0.7730 C.ar  1 <1>  -0.1500 
 11 C        3.1120    -0.8890     1.8900 C.ar  1 <1>  -0.1500 
 12 C        2.8110    -1.3740    -3.0250 C.3   1 <1>  -0.2400 
 13 N       -3.2400    -2.3110    -0.0510 N.pl3 1 <1>   0.6010 
 14 C       -3.2720    -1.3420     0.9080 C.2   1 <1>   0.3120 
 15 C        2.2870     1.7470     1.9180 C.ar  1 <1>  -0.1500 
 16 C        3.2670    -0.1280     3.0350 C.ar  1 <1>  -0.1500 
 17 C       -4.3950    -2.9920    -0.3980 C.2   1 <1>  -0.1690 
 18 N       -4.4140    -0.9800     1.5770 N.2   1 <1>  -0.5760 
 19 C        2.8550     1.1920     3.0500 C.ar  1 <1>  -0.1500 
 20 C       -5.5310    -2.6370     0.2640 C.2   1 <1>  -0.1360 
 21 C       -4.3180    -4.0690    -1.4710 C.3   1 <1>  -0.1020 
 22 C       -5.4930    -1.6150     1.2540 C.2   1 <1>   0.3750 
 23 C       -6.7820    -1.2560     1.9600 C.3   1 <1>  -0.1790 
 24 H        0.2170    -0.4450     0.6770 H     1 <1>   0.3700 
 25 H        3.0960    -2.0230    -0.4280 H     1 <1>   0.0800 
 26 H        3.5700     0.0980    -1.6770 H     1 <1>   0.0800 
 27 H        1.8640     0.2390    -1.9940 H     1 <1>   0.0800 
 28 H        1.6850     1.4460    -0.0900 H     1 <1>   0.1500 
 29 H        3.4350    -1.9170     1.9000 H     1 <1>   0.1500 
 30 H        3.5950    -2.0940    -2.8650 H     1 <1>   0.0800 
 31 H        3.0580    -0.7880    -3.8930 H     1 <1>   0.0800 
 32 H        1.8950    -1.9030    -3.2250 H     1 <1>   0.0800 
 33 H        1.9650     2.7740     1.9290 H     1 <1>   0.1500 
 34 H        3.7080    -0.5630     3.9150 H     1 <1>   0.1500 
 35 H        2.9740     1.7850     3.9400 H     1 <1>   0.1500 
 36 H       -6.4750    -3.1100     0.0630 H     1 <1>   0.1500 
 37 H       -3.6260    -4.8370    -1.1720 H     1 <1>   0.0800 
 38 H       -3.9690    -3.6420    -2.3960 H     1 <1>   0.0800 
 39 H       -5.2800    -4.5180    -1.6390 H     1 <1>   0.0800 
 40 H       -7.5070    -0.9110     1.2470 H     1 <1>   0.0800 
 41 H       -6.6070    -0.4750     2.6790 H     1 <1>   0.0800 
 42 H       -7.1690    -2.1160     2.4750 H     1 <1>   0.0800 
@<TRIPOS>BOND
  1   1   2  2   
  2   2   3  am  
  3   2   4  1   
  4   3   5  1   
  5   3  24  1   
  6   4   6  1   
  7   4   7  1   
  8   4  25  1   
  9   5   8  2   
 10   5   9  1   
 11   6  10  ar  
 12   6  11  ar  
 13   7  12  1   
 14   7  26  1   
 15   7  27  1   
 16   8  13  1   
 17   9  14  2   
 18  10  15  ar  
 19  10  28  1   
 20  11  16  ar  
 21  11  29  1   
 22  12  30  1   
 23  12  31  1   
 24  12  32  1   
 25  13  14  1   
 26  13  17  1   
 27  14  18  1   
 28  15  19  ar  
 29  15  33  1   
 30  16  19  ar  
 31  16  34  1   
 32  17  20  2   
 33  17  21  1   
 34  18  22  2   
 35  19  35  1   
 36  20  22  1   
 37  20  36  1   
 38  21  37  1   
 39  21  38  1   
 40  21  39  1   
 41  22  23  1   
 42  23  40  1   
 43  23  41  1   
 44  23  42  1   
@<TRIPOS>SUBSTRUCTURE
  1 ****   5 GROUP 4 **** **** 0

# MOE 2024.06 (io_trps.svl 2023.06)
