@<TRIPOS>MOLECULE
NONAME
36 37 1 0 0 
SMALL
USER_CHARGES


@<TRIPOS>ATOM
  1 F        1.0350    -1.8460    -1.7120 F     1 <1>  -0.3400 
  2 C        1.4160    -1.3510    -0.5320 C.3   1 <1>   0.6800 
  3 F        0.3280    -0.7000    -0.1040 F     1 <1>  -0.3400 
  4 C        2.5950    -0.3740    -0.7310 C.3   1 <1>   0.6800 
  5 C        1.7740    -2.5070     0.4280 C.3   1 <1>   0.6800 
  6 F        2.7980     0.3240     0.3900 F     1 <1>  -0.3400 
  7 F        2.2850     0.5690    -1.6280 F     1 <1>  -0.3400 
  8 C        3.8950    -1.1150    -1.1370 C.3   1 <1>   0.6800 
  9 F        1.8880    -2.0410     1.6740 F     1 <1>  -0.3400 
 10 F        0.7660    -3.3810     0.5170 F     1 <1>  -0.3400 
 11 C        3.0860    -3.2190     0.0060 C.3   1 <1>   0.6800 
 12 F        3.7600    -1.5700    -2.3790 F     1 <1>  -0.3400 
 13 F        4.9160    -0.2600    -1.2250 F     1 <1>  -0.3400 
 14 C        4.2700    -2.2580    -0.1800 C.3   1 <1>   0.4010 
 15 F        2.8630    -3.9070    -1.1090 F     1 <1>  -0.3400 
 16 F        3.4160    -4.1600     0.8930 F     1 <1>  -0.3400 
 17 F        4.5200    -1.7000     1.0210 F     1 <1>  -0.3400 
 18 C        5.5480    -2.9830    -0.6090 C.2   1 <1>   0.5690 
 19 O        5.5660    -3.5570    -1.6680 O.2   1 <1>  -0.5700 
 20 N        6.6480    -2.9530     0.2180 N.am  1 <1>  -0.5470 
 21 C        7.9240    -3.5220     0.0710 C.ar  1 <1>   0.1170 
 22 C        8.1670    -4.6590    -0.6930 C.ar  1 <1>  -0.1500 
 23 C        8.9930    -2.9330     0.7370 C.ar  1 <1>  -0.1500 
 24 C        9.4430    -5.1850    -0.7920 C.ar  1 <1>  -0.1500 
 25 C       10.2710    -3.4550     0.6420 C.ar  1 <1>  -0.1500 
 26 C       10.5030    -4.5910    -0.1280 C.ar  1 <1>   0.0830 
 27 O       11.7230    -5.1700    -0.2790 O.3   1 <1>  -0.3620 
 28 C       12.8690    -4.6180     0.3300 C.3   1 <1>   0.0400 
 29 H        6.5420    -2.3930     1.0660 H     1 <1>   0.3700 
 30 H        7.3630    -5.1450    -1.2140 H     1 <1>   0.1500 
 31 H        8.8300    -2.0540     1.3340 H     1 <1>   0.1500 
 32 H        9.6240    -6.0620    -1.3870 H     1 <1>   0.1500 
 33 H       11.0680    -2.9690     1.1710 H     1 <1>   0.1500 
 34 H       13.7140    -5.2280     0.0660 H     1 <1>   0.0800 
 35 H       12.7340    -4.6240     1.3970 H     1 <1>   0.0800 
 36 H       13.0120    -3.6180    -0.0370 H     1 <1>   0.0800 
@<TRIPOS>BOND
  1   1   2  1   
  2   2   3  1   
  3   2   4  1   
  4   2   5  1   
  5   4   6  1   
  6   4   7  1   
  7   4   8  1   
  8   5   9  1   
  9   5  10  1   
 10   5  11  1   
 11   8  12  1   
 12   8  13  1   
 13   8  14  1   
 14  11  14  1   
 15  11  15  1   
 16  11  16  1   
 17  14  17  1   
 18  14  18  1   
 19  18  19  2   
 20  18  20  am  
 21  20  21  1   
 22  20  29  1   
 23  21  22  ar  
 24  21  23  ar  
 25  22  24  ar  
 26  22  30  1   
 27  23  25  ar  
 28  23  31  1   
 29  24  26  ar  
 30  24  32  1   
 31  25  26  ar  
 32  25  33  1   
 33  26  27  1   
 34  27  28  1   
 35  28  34  1   
 36  28  35  1   
 37  28  36  1   
@<TRIPOS>SUBSTRUCTURE
  1 ****  18 GROUP 4 **** **** 0

# MOE 2024.06 (io_trps.svl 2023.06)
