@<TRIPOS>MOLECULE
NONAME
46 48 1 0 0 
SMALL
USER_CHARGES


@<TRIPOS>ATOM
  1 F        0.4690    -0.2800     0.2780 F     1 <1>  -0.1900 
  2 C        1.6320    -0.8660     0.2330 C.ar  1 <1>   0.1900 
  3 C        2.2960    -1.1280     1.4160 C.ar  1 <1>  -0.1500 
  4 C        2.1610    -1.2090    -0.9970 C.ar  1 <1>  -0.1500 
  5 C        3.5320    -1.7480     1.3570 C.ar  1 <1>  -0.1500 
  6 C        3.3980    -1.8280    -1.0360 C.ar  1 <1>  -0.1500 
  7 C        4.1110    -2.1030     0.1360 C.ar  1 <1>   0.0860 
  8 C        5.4110    -2.7450     0.0940 C.2   1 <1>   0.5440 
  9 O        5.5620    -3.7960     0.6870 O.2   1 <1>  -0.5700 
 10 N        6.4800    -2.1970    -0.5900 N.am  1 <1>  -0.6600 
 11 C        6.5220    -0.7840    -1.0600 C.3   1 <1>   0.1400 
 12 C        7.7620    -2.9380    -0.7490 C.3   1 <1>   0.1400 
 13 C        7.6340    -0.0320    -0.3240 C.3   1 <1>  -0.1600 
 14 C        8.8780    -2.2020    -0.0030 C.3   1 <1>  -0.1600 
 15 C        8.9990    -0.7380    -0.4660 C.3   1 <1>  -0.0190 
 16 C       10.1220    -0.0180     0.2850 C.2   1 <1>   0.5690 
 17 O        9.8550     0.6450     1.2570 O.2   1 <1>  -0.5700 
 18 N       11.3940    -0.1840    -0.1930 N.am  1 <1>  -0.5470 
 19 C       12.6260     0.3340     0.2380 C.ar  1 <1>   0.1170 
 20 C       13.7920    -0.2950    -0.1840 C.ar  1 <1>  -0.1500 
 21 C       12.7400     1.4570     1.0520 C.ar  1 <1>  -0.1500 
 22 C       15.0400     0.1720     0.1940 C.ar  1 <1>  -0.1430 
 23 C       13.9810     1.9300     1.4350 C.ar  1 <1>  -0.1500 
 24 C       15.1300     1.2890     1.0070 C.ar  1 <1>  -0.1500 
 25 C       16.3070    -0.5240    -0.2710 C.3   1 <1>  -0.0970 
 26 H        1.8520    -0.8540     2.3560 H     1 <1>   0.1500 
 27 H        1.6120    -0.9960    -1.8960 H     1 <1>   0.1500 
 28 H        4.0670    -1.9700     2.2650 H     1 <1>   0.1500 
 29 H        3.8260    -2.1120    -1.9820 H     1 <1>   0.1500 
 30 H        5.5860    -0.2850    -0.8780 H     1 <1>   0.0800 
 31 H        6.7070    -0.7720    -2.1200 H     1 <1>   0.0800 
 32 H        7.9980    -3.0050    -1.7970 H     1 <1>   0.0800 
 33 H        7.6750    -3.9420    -0.3680 H     1 <1>   0.0800 
 34 H        7.3680     0.0390     0.7170 H     1 <1>   0.0800 
 35 H        7.7040     0.9700    -0.7090 H     1 <1>   0.0800 
 36 H        9.8070    -2.7190    -0.1620 H     1 <1>   0.0800 
 37 H        8.6650    -2.2330     1.0530 H     1 <1>   0.0800 
 38 H        9.2550    -0.7350    -1.5100 H     1 <1>   0.0800 
 39 H       11.4730    -0.8300    -0.9730 H     1 <1>   0.3700 
 40 H       13.7230    -1.1620    -0.8130 H     1 <1>   0.1500 
 41 H       11.8600     1.9710     1.3910 H     1 <1>   0.1500 
 42 H       14.0520     2.7980     2.0670 H     1 <1>   0.1500 
 43 H       16.0920     1.6640     1.3090 H     1 <1>   0.1500 
 44 H       16.0840    -1.4880    -0.6920 H     1 <1>   0.0800 
 45 H       16.9770    -0.6630     0.5580 H     1 <1>   0.0800 
 46 H       16.7970     0.0740    -1.0180 H     1 <1>   0.0800 
@<TRIPOS>BOND
  1   1   2  1   
  2   2   3  ar  
  3   2   4  ar  
  4   3   5  ar  
  5   3  26  1   
  6   4   6  ar  
  7   4  27  1   
  8   5   7  ar  
  9   5  28  1   
 10   6   7  ar  
 11   6  29  1   
 12   7   8  1   
 13   8   9  2   
 14   8  10  am  
 15  10  11  1   
 16  10  12  1   
 17  11  13  1   
 18  11  30  1   
 19  11  31  1   
 20  12  14  1   
 21  12  32  1   
 22  12  33  1   
 23  13  15  1   
 24  13  34  1   
 25  13  35  1   
 26  14  15  1   
 27  14  36  1   
 28  14  37  1   
 29  15  16  1   
 30  15  38  1   
 31  16  17  2   
 32  16  18  am  
 33  18  19  1   
 34  18  39  1   
 35  19  20  ar  
 36  19  21  ar  
 37  20  22  ar  
 38  20  40  1   
 39  21  23  ar  
 40  21  41  1   
 41  22  24  ar  
 42  22  25  1   
 43  23  24  ar  
 44  23  42  1   
 45  24  43  1   
 46  25  44  1   
 47  25  45  1   
 48  25  46  1   
@<TRIPOS>SUBSTRUCTURE
  1 ****  15 GROUP 4 **** **** 0

# MOE 2024.06 (io_trps.svl 2023.06)
