@<TRIPOS>MOLECULE
NONAME
37 39 1 0 0 
SMALL
USER_CHARGES


@<TRIPOS>ATOM
  1 O       -0.0340     0.3660    -0.6620 O.3   1 <1>  -0.3630 
  2 C        0.6580     1.4620    -0.2510 C.ar  1 <1>   0.0830 
  3 C        0.6300    -0.7980    -1.1090 C.3   1 <1>   0.0400 
  4 C       -0.0900     2.6080     0.0440 C.ar  1 <1>   0.0280 
  5 C        2.0420     1.4790    -0.1290 C.ar  1 <1>  -0.1500 
  6 C       -1.5250     2.6060    -0.0620 C.2   1 <1>  -0.0410 
  7 C        0.5890     3.7610     0.4320 C.ar  1 <1>  -0.1500 
  8 C        2.7010     2.6280     0.2720 C.ar  1 <1>   0.0830 
  9 N       -2.2750     1.6810     0.6510 N.2   1 <1>   1.5900 
 10 C       -2.2040     3.4790    -0.8660 C.2   1 <1>  -0.0500 
 11 C        1.9660     3.7770     0.5490 C.ar  1 <1>  -0.1500 
 12 O        4.0500     2.5550     0.3670 O.3   1 <1>  -0.3630 
 13 O       -1.7570     0.9940     1.6030 O.2   1 <1>  -0.5640 
 14 C       -3.6350     1.5790     0.4760 C.2   1 <1>  -0.1510 
 15 N       -3.5580     3.4100    -0.9680 N.pl3 1 <1>  -0.5080 
 16 C        4.8270     3.6660     0.7570 C.3   1 <1>   0.0400 
 17 C       -4.2620     2.4400    -0.3250 C.2   1 <1>  -0.0380 
 18 C       -4.5940     0.5960     1.1120 C.3   1 <1>  -0.0220 
 19 O       -4.1580     4.2560    -1.6660 O.3   1 <1>  -0.6920 
 20 C       -5.7460     2.2200    -0.4020 C.3   1 <1>  -0.0220 
 21 C       -5.9580     0.9700     0.4820 C.3   1 <1>  -0.1600 
 22 H       -0.1110    -1.5070    -1.4330 H     1 <1>   0.0800 
 23 H        1.1990    -1.2130    -0.2950 H     1 <1>   0.0800 
 24 H        1.2730    -0.5410    -1.9330 H     1 <1>   0.0800 
 25 H        2.6420     0.6150    -0.3390 H     1 <1>   0.1500 
 26 H        0.0330     4.6600     0.6430 H     1 <1>   0.1500 
 27 H       -1.7230     4.2430    -1.4560 H     1 <1>   0.1500 
 28 H        2.4500     4.6860     0.8530 H     1 <1>   0.1500 
 29 H        5.8600     3.3690     0.7550 H     1 <1>   0.0800 
 30 H        4.5350     3.9670     1.7470 H     1 <1>   0.0800 
 31 H        4.6760     4.4640     0.0500 H     1 <1>   0.0800 
 32 H       -4.6220     0.7250     2.1810 H     1 <1>   0.0800 
 33 H       -4.3290    -0.4210     0.8750 H     1 <1>   0.0800 
 34 H       -6.0400     2.0550    -1.4240 H     1 <1>   0.0800 
 35 H       -6.2580     3.0850    -0.0170 H     1 <1>   0.0800 
 36 H       -6.6890     1.1740     1.2450 H     1 <1>   0.0800 
 37 H       -6.3160     0.1590    -0.1290 H     1 <1>   0.0800 
@<TRIPOS>BOND
  1   1   2  1   
  2   1   3  1   
  3   2   4  ar  
  4   2   5  ar  
  5   3  22  1   
  6   3  23  1   
  7   3  24  1   
  8   4   6  1   
  9   4   7  ar  
 10   5   8  ar  
 11   5  25  1   
 12   6   9  1   
 13   6  10  2   
 14   7  11  ar  
 15   7  26  1   
 16   8  11  ar  
 17   8  12  1   
 18   9  13  2   
 19   9  14  1   
 20  10  15  1   
 21  10  27  1   
 22  11  28  1   
 23  12  16  1   
 24  14  17  2   
 25  14  18  1   
 26  15  17  1   
 27  15  19  1   
 28  16  29  1   
 29  16  30  1   
 30  16  31  1   
 31  17  20  1   
 32  18  21  1   
 33  18  32  1   
 34  18  33  1   
 35  20  21  1   
 36  20  34  1   
 37  20  35  1   
 38  21  36  1   
 39  21  37  1   
@<TRIPOS>SUBSTRUCTURE
  1 ****   6 GROUP 4 **** **** 0

# MOE 2024.06 (io_trps.svl 2023.06)
