@<TRIPOS>MOLECULE
NONAME
35 35 1 0 0 
SMALL
USER_CHARGES


@<TRIPOS>ATOM
  1 O       -0.3620    -6.4530     0.0050 O.3   1 <1>  -0.3630 
  2 C       -1.5470    -5.7920     0.0080 C.ar  1 <1>   0.0830 
  3 C        0.8620    -5.7640     0.0010 C.3   1 <1>   0.1200 
  4 C       -2.6930    -6.5690     0.0130 C.ar  1 <1>  -0.1500 
  5 C       -1.6620    -4.4040     0.0060 C.ar  1 <1>  -0.1500 
  6 C        1.9690    -6.8210    -0.0010 C.3   1 <1>   0.3430 
  7 C       -3.9470    -5.9850     0.0160 C.ar  1 <1>   0.0820 
  8 C       -2.9140    -3.8140     0.0090 C.ar  1 <1>  -0.1500 
  9 N        3.3310    -6.2020    -0.0040 N.4   1 <1>  -0.9060 
 10 O       -5.0120    -6.8260     0.0210 O.3   1 <1>  -0.3620 
 11 C       -4.0560    -4.5970     0.0140 C.ar  1 <1>  -0.1500 
 12 C        4.4030    -7.2210    -0.0060 C.3   1 <1>   0.3430 
 13 C       -6.3330    -6.3380     0.0250 C.3   1 <1>   0.1200 
 14 C        5.7410    -6.4990    -0.0100 C.3   1 <1>  -0.2400 
 15 C       -7.2780    -7.5360     0.0300 C.3   1 <1>  -0.2400 
 16 H        0.9040    -5.1570     0.8880 H     1 <1>   0.0800 
 17 H        0.9000    -5.1590    -0.8880 H     1 <1>   0.0800 
 18 H       -2.6150    -7.6400     0.0140 H     1 <1>   0.1500 
 19 H       -0.8010    -3.7630     0.0020 H     1 <1>   0.1500 
 20 H        1.8510    -7.4410    -0.8750 H     1 <1>   0.0800 
 21 H        1.8550    -7.4390     0.8750 H     1 <1>   0.0800 
 22 H       -3.0040    -2.7410     0.0080 H     1 <1>   0.1500 
 23 H        3.4480    -5.6020     0.8220 H     1 <1>   0.4500 
 24 H        3.4440    -5.6030    -0.8320 H     1 <1>   0.4500 
 25 H       -5.0130    -4.1120     0.0170 H     1 <1>   0.1500 
 26 H        4.3230    -7.8470    -0.8820 H     1 <1>   0.0800 
 27 H        4.3270    -7.8460     0.8710 H     1 <1>   0.0800 
 28 H       -6.4790    -5.7420    -0.8600 H     1 <1>   0.0800 
 29 H       -6.4730    -5.7400     0.9080 H     1 <1>   0.0800 
 30 H        5.8510    -5.8910    -0.8910 H     1 <1>   0.0800 
 31 H        6.5350    -7.2260    -0.0110 H     1 <1>   0.0800 
 32 H        5.8550    -5.8890     0.8700 H     1 <1>   0.0800 
 33 H       -7.1170    -8.1360    -0.8480 H     1 <1>   0.0800 
 34 H       -8.2970    -7.1960     0.0330 H     1 <1>   0.0800 
 35 H       -7.1110    -8.1330     0.9080 H     1 <1>   0.0800 
@<TRIPOS>BOND
  1   1   2  1   
  2   1   3  1   
  3   2   4  ar  
  4   2   5  ar  
  5   3   6  1   
  6   3  16  1   
  7   3  17  1   
  8   4   7  ar  
  9   4  18  1   
 10   5   8  ar  
 11   5  19  1   
 12   6   9  1   
 13   6  20  1   
 14   6  21  1   
 15   7  10  1   
 16   7  11  ar  
 17   8  11  ar  
 18   8  22  1   
 19   9  12  1   
 20   9  23  1   
 21   9  24  1   
 22  10  13  1   
 23  11  25  1   
 24  12  14  1   
 25  12  26  1   
 26  12  27  1   
 27  13  15  1   
 28  13  28  1   
 29  13  29  1   
 30  14  30  1   
 31  14  31  1   
 32  14  32  1   
 33  15  33  1   
 34  15  34  1   
 35  15  35  1   
@<TRIPOS>SUBSTRUCTURE
  1 ****   2 GROUP 4 **** **** 0

# MOE 2024.06 (io_trps.svl 2023.06)
