@<TRIPOS>MOLECULE
NONAME
58 62 1 0 0 
SMALL
USER_CHARGES


@<TRIPOS>ATOM
  1 O       -1.1990    -0.6330    -0.3110 O.2   1 <1>  -0.5700 
  2 C       -1.0930    -1.2890     0.7080 C.2   1 <1>   0.6900 
  3 N       -2.1770    -1.4240     1.5190 N.am  1 <1>  -0.6600 
  4 N        0.0330    -1.9450     1.0520 N.am  1 <1>  -0.7300 
  5 C       -3.0390    -0.2230     1.7120 C.3   1 <1>   0.1400 
  6 C       -2.9590    -2.6780     1.3560 C.3   1 <1>   0.1400 
  7 C        1.3510    -1.9130     0.3940 C.3   1 <1>   0.3000 
  8 C       -4.0240    -0.0720     0.5350 C.3   1 <1>   0.3430 
  9 C       -3.9260    -2.5390     0.1610 C.3   1 <1>   0.3430 
 10 C        2.3020    -2.7990     1.2220 C.3   1 <1>  -0.1600 
 11 C        1.9130    -0.4790     0.3590 C.3   1 <1>  -0.1600 
 12 C        1.2670    -2.4780    -1.0370 C.3   1 <1>  -0.1600 
 13 N       -4.8200    -1.3320     0.2860 N.4   1 <1>  -0.9590 
 14 C        3.7080    -2.8130     0.5910 C.3   1 <1>  -0.0800 
 15 C        3.3130    -0.4780    -0.2850 C.3   1 <1>  -0.0800 
 16 C        2.6660    -2.4830    -1.6840 C.3   1 <1>  -0.0800 
 17 C       -5.6820    -1.1760    -0.9160 C.3   1 <1>   0.4860 
 18 C        4.2530    -1.3730     0.5450 C.3   1 <1>  -0.1600 
 19 C        3.6100    -3.3630    -0.8440 C.3   1 <1>  -0.1600 
 20 C        3.2130    -1.0420    -1.7160 C.3   1 <1>  -0.1600 
 21 C       -6.7020    -0.0910    -0.6340 C.ar  1 <1>  -0.1440 
 22 C       -7.7850    -0.3460     0.1960 C.ar  1 <1>  -0.1500 
 23 C       -6.5560     1.1680    -1.2000 C.ar  1 <1>  -0.1500 
 24 C       -8.7030     0.6530     0.4680 C.ar  1 <1>  -0.1500 
 25 C       -7.4760     2.1650    -0.9260 C.ar  1 <1>  -0.1500 
 26 C       -8.5470     1.9090    -0.0910 C.ar  1 <1>  -0.1500 
 27 H        0.0640    -2.3020     2.0030 H     1 <1>   0.3700 
 28 H       -2.4180     0.6560     1.7670 H     1 <1>   0.0800 
 29 H       -3.5770    -0.3060     2.6400 H     1 <1>   0.0800 
 30 H       -3.5050    -2.8860     2.2600 H     1 <1>   0.0800 
 31 H       -2.2880    -3.5010     1.1770 H     1 <1>   0.0800 
 32 H       -3.4530     0.1750    -0.3470 H     1 <1>   0.0800 
 33 H       -4.6900     0.7520     0.7350 H     1 <1>   0.0800 
 34 H       -4.5220    -3.4330     0.0830 H     1 <1>   0.0800 
 35 H       -3.3330    -2.4540    -0.7360 H     1 <1>   0.0800 
 36 H        2.3720    -2.4220     2.2270 H     1 <1>   0.0800 
 37 H        1.9230    -3.8040     1.2610 H     1 <1>   0.0800 
 38 H        1.9730    -0.0830     1.3560 H     1 <1>   0.0800 
 39 H        1.2660     0.1570    -0.2180 H     1 <1>   0.0800 
 40 H        0.6110    -1.8730    -1.6360 H     1 <1>   0.0800 
 41 H        0.8760    -3.4790    -1.0130 H     1 <1>   0.0800 
 42 H       -5.4480    -1.4540     1.0880 H     1 <1>   0.4500 
 43 H        4.3660    -3.4330     1.1750 H     1 <1>   0.0800 
 44 H        3.6990     0.5270    -0.3160 H     1 <1>   0.0800 
 45 H        2.6020    -2.8700    -2.6870 H     1 <1>   0.0800 
 46 H       -6.1960    -2.0990    -1.1300 H     1 <1>   0.0800 
 47 H       -5.0840    -0.9080    -1.7720 H     1 <1>   0.0800 
 48 H        5.2370    -1.3700     0.1080 H     1 <1>   0.0800 
 49 H        4.3410    -0.9820     1.5440 H     1 <1>   0.0800 
 50 H        3.2440    -4.3750    -0.8240 H     1 <1>   0.0800 
 51 H        4.5880    -3.3800    -1.2950 H     1 <1>   0.0800 
 52 H        2.5650    -0.4190    -2.3080 H     1 <1>   0.0800 
 53 H        4.1840    -1.0330    -2.1790 H     1 <1>   0.0800 
 54 H       -7.9350    -1.3170     0.6370 H     1 <1>   0.1500 
 55 H       -5.7330     1.3900    -1.8580 H     1 <1>   0.1500 
 56 H       -9.5450     0.4580     1.1120 H     1 <1>   0.1500 
 57 H       -7.3630     3.1420    -1.3650 H     1 <1>   0.1500 
 58 H       -9.2630     2.6850     0.1200 H     1 <1>   0.1500 
@<TRIPOS>BOND
  1   1   2  2   
  2   2   3  am  
  3   2   4  am  
  4   3   5  1   
  5   3   6  1   
  6   4   7  1   
  7   4  27  1   
  8   5   8  1   
  9   5  28  1   
 10   5  29  1   
 11   6   9  1   
 12   6  30  1   
 13   6  31  1   
 14   7  10  1   
 15   7  11  1   
 16   7  12  1   
 17   8  13  1   
 18   8  32  1   
 19   8  33  1   
 20   9  13  1   
 21   9  34  1   
 22   9  35  1   
 23  10  14  1   
 24  10  36  1   
 25  10  37  1   
 26  11  15  1   
 27  11  38  1   
 28  11  39  1   
 29  12  16  1   
 30  12  40  1   
 31  12  41  1   
 32  13  17  1   
 33  13  42  1   
 34  14  18  1   
 35  14  19  1   
 36  14  43  1   
 37  15  18  1   
 38  15  20  1   
 39  15  44  1   
 40  16  19  1   
 41  16  20  1   
 42  16  45  1   
 43  17  21  1   
 44  17  46  1   
 45  17  47  1   
 46  18  48  1   
 47  18  49  1   
 48  19  50  1   
 49  19  51  1   
 50  20  52  1   
 51  20  53  1   
 52  21  22  ar  
 53  21  23  ar  
 54  22  24  ar  
 55  22  54  1   
 56  23  25  ar  
 57  23  55  1   
 58  24  26  ar  
 59  24  56  1   
 60  25  26  ar  
 61  25  57  1   
 62  26  58  1   
@<TRIPOS>SUBSTRUCTURE
  1 ****   1 GROUP 4 **** **** 0

# MOE 2024.06 (io_trps.svl 2023.06)
