@<TRIPOS>MOLECULE
NONAME
51 53 1 0 0 
SMALL
USER_CHARGES


@<TRIPOS>ATOM
  1 O       -1.6220     0.9820     1.3800 O.3   1 <1>  -0.3630 
  2 C       -2.3520     0.9220     0.2300 C.ar  1 <1>   0.0830 
  3 C       -0.2350     1.2430     1.3980 C.3   1 <1>   0.0400 
  4 C       -1.9380     1.2890    -1.0620 C.ar  1 <1>   0.0830 
  5 C       -3.6390     0.4450     0.4060 C.ar  1 <1>  -0.1500 
  6 O       -0.7090     1.7730    -1.3390 O.3   1 <1>  -0.5330 
  7 C       -2.8170     1.1640    -2.1270 C.ar  1 <1>  -0.1500 
  8 C       -4.5230     0.3340    -0.6560 C.ar  1 <1>  -0.1440 
  9 C       -4.1020     0.6910    -1.9280 C.ar  1 <1>  -0.1500 
 10 C       -5.9360    -0.1610    -0.4170 C.3   1 <1>   0.4860 
 11 N       -6.6570     0.8520     0.3980 N.4   1 <1>  -0.9590 
 12 C       -8.0190     0.3690     0.8300 C.3   1 <1>   0.3430 
 13 C       -6.7510     2.1830    -0.3110 C.3   1 <1>   0.3430 
 14 C       -8.7650     1.4020     1.7010 C.3   1 <1>   0.2090 
 15 C       -7.4780     3.2550     0.5280 C.3   1 <1>   0.2090 
 16 N       -8.7740     2.7510     1.0680 N.pl3 1 <1>  -0.8380 
 17 C       -9.9450     3.1510     0.4250 C.ar  1 <1>   0.1000 
 18 C      -10.8190     4.0530     1.0310 C.ar  1 <1>  -0.1430 
 19 C      -10.2600     2.6490    -0.8350 C.ar  1 <1>  -0.1500 
 20 C      -11.9770     4.4320     0.3750 C.ar  1 <1>  -0.1500 
 21 C      -10.5140     4.6290     2.4060 C.3   1 <1>  -0.0970 
 22 C      -11.4180     3.0290    -1.4900 C.ar  1 <1>  -0.1430 
 23 C      -12.2770     3.9240    -0.8770 C.ar  1 <1>  -0.1500 
 24 C      -11.7630     2.4840    -2.8640 C.3   1 <1>  -0.0970 
 25 H        0.1170     1.1220     2.4060 H     1 <1>   0.0800 
 26 H       -0.0670     2.2540     1.0730 H     1 <1>   0.0800 
 27 H        0.2620     0.5440     0.7500 H     1 <1>   0.0800 
 28 H       -3.9270     0.1580     1.4030 H     1 <1>   0.1500 
 29 H       -0.5660     1.9550    -2.2850 H     1 <1>   0.4500 
 30 H       -2.5030     1.4360    -3.1190 H     1 <1>   0.1500 
 31 H       -4.7620     0.6050    -2.7760 H     1 <1>   0.1500 
 32 H       -5.8980    -1.1030     0.1060 H     1 <1>   0.0800 
 33 H       -6.4390    -0.3120    -1.3590 H     1 <1>   0.0800 
 34 H       -6.0920     1.0150     1.2400 H     1 <1>   0.4500 
 35 H       -7.9270    -0.5500     1.3840 H     1 <1>   0.0800 
 36 H       -8.6240     0.1710    -0.0390 H     1 <1>   0.0800 
 37 H       -7.2890     2.0630    -1.2360 H     1 <1>   0.0800 
 38 H       -5.7640     2.5440    -0.5500 H     1 <1>   0.0800 
 39 H       -8.2990     1.4710     2.6680 H     1 <1>   0.0800 
 40 H       -9.7800     1.0730     1.8530 H     1 <1>   0.0800 
 41 H       -7.6590     4.1240    -0.0830 H     1 <1>   0.0800 
 42 H       -6.8520     3.5620     1.3480 H     1 <1>   0.0800 
 43 H       -9.5930     1.9570    -1.3060 H     1 <1>   0.1500 
 44 H      -12.6580     5.1270     0.8340 H     1 <1>   0.1500 
 45 H      -10.4630     3.8360     3.1300 H     1 <1>   0.0800 
 46 H      -11.2730     5.3260     2.7130 H     1 <1>   0.0800 
 47 H       -9.5690     5.1400     2.3850 H     1 <1>   0.0800 
 48 H      -13.1820     4.2310    -1.3710 H     1 <1>   0.1500 
 49 H      -11.0270     1.7760    -3.1980 H     1 <1>   0.0800 
 50 H      -11.8110     3.2900    -3.5740 H     1 <1>   0.0800 
 51 H      -12.7200     1.9940    -2.8320 H     1 <1>   0.0800 
@<TRIPOS>BOND
  1   1   2  1   
  2   1   3  1   
  3   2   4  ar  
  4   2   5  ar  
  5   3  25  1   
  6   3  26  1   
  7   3  27  1   
  8   4   6  1   
  9   4   7  ar  
 10   5   8  ar  
 11   5  28  1   
 12   6  29  1   
 13   7   9  ar  
 14   7  30  1   
 15   8   9  ar  
 16   8  10  1   
 17   9  31  1   
 18  10  11  1   
 19  10  32  1   
 20  10  33  1   
 21  11  12  1   
 22  11  13  1   
 23  11  34  1   
 24  12  14  1   
 25  12  35  1   
 26  12  36  1   
 27  13  15  1   
 28  13  37  1   
 29  13  38  1   
 30  14  16  1   
 31  14  39  1   
 32  14  40  1   
 33  15  16  1   
 34  15  41  1   
 35  15  42  1   
 36  16  17  1   
 37  17  18  ar  
 38  17  19  ar  
 39  18  20  ar  
 40  18  21  1   
 41  19  22  ar  
 42  19  43  1   
 43  20  23  ar  
 44  20  44  1   
 45  21  45  1   
 46  21  46  1   
 47  21  47  1   
 48  22  23  ar  
 49  22  24  1   
 50  23  48  1   
 51  24  49  1   
 52  24  50  1   
 53  24  51  1   
@<TRIPOS>SUBSTRUCTURE
  1 ****  13 GROUP 4 **** **** 0

# MOE 2024.06 (io_trps.svl 2023.06)
