@<TRIPOS>MOLECULE
NONAME
49 50 1 0 0 
SMALL
USER_CHARGES


@<TRIPOS>ATOM
  1 S        0.1220    -0.5380    -0.9520 S.o2  1 <1>   1.4470 
  2 O        0.9680    -1.4860    -1.6510 O.2   1 <1>  -0.6500 
  3 O       -1.1050    -0.1020    -1.5810 O.2   1 <1>  -0.6500 
  4 N       -0.2950    -1.2860     0.5200 N.am  1 <1>  -0.8490 
  5 C        1.0920     0.9220    -0.4700 C.ar  1 <1>  -0.0090 
  6 C        0.7470    -2.2080     1.0530 C.3   1 <1>   0.2570 
  7 C       -1.5940    -1.9650     0.4640 C.3   1 <1>   0.1160 
  8 C        0.8620     1.5820     0.7370 C.ar  1 <1>  -0.1500 
  9 C        2.0940     1.4110    -1.3070 C.ar  1 <1>  -0.1500 
 10 C        2.1270    -1.5880     1.3270 C.2   1 <1>   0.5690 
 11 C        1.6170     2.6820     1.1110 C.ar  1 <1>  -0.1500 
 12 C        2.8610     2.5080    -0.9500 C.ar  1 <1>  -0.1500 
 13 O        2.3770    -1.2300     2.4520 O.2   1 <1>  -0.5700 
 14 N        3.0100    -1.4810     0.2830 N.am  1 <1>  -0.5470 
 15 C        2.6080     3.1240     0.2580 C.ar  1 <1>   0.1900 
 16 C        4.2320    -0.8040     0.1600 C.ar  1 <1>   0.1170 
 17 F        3.3270     4.1560     0.6050 F     1 <1>  -0.1900 
 18 C        4.6700     0.1560     1.0660 C.ar  1 <1>  -0.1500 
 19 C        5.0270    -1.0740    -0.9470 C.ar  1 <1>  -0.1500 
 20 C        5.8660     0.8230     0.8700 C.ar  1 <1>  -0.1500 
 21 C        6.2240    -0.4090    -1.1440 C.ar  1 <1>  -0.1500 
 22 C        6.6510     0.5470    -0.2370 C.ar  1 <1>  -0.1430 
 23 C        7.9660     1.2810    -0.4490 C.3   1 <1>  -0.0170 
 24 C        9.1180     0.5220     0.2190 C.3   1 <1>  -0.1600 
 25 C       10.4570     1.2430     0.0220 C.3   1 <1>  -0.1600 
 26 C       11.5990     0.4750     0.6940 C.3   1 <1>  -0.2400 
 27 H        0.8740    -3.0370     0.3780 H     1 <1>   0.0800 
 28 H        0.4010    -2.6100     1.9880 H     1 <1>   0.0800 
 29 H       -2.3710    -1.2580     0.2230 H     1 <1>   0.0800 
 30 H       -1.8300    -2.4030     1.4190 H     1 <1>   0.0800 
 31 H       -1.5840    -2.7370    -0.2880 H     1 <1>   0.0800 
 32 H        0.0890     1.2270     1.3980 H     1 <1>   0.1500 
 33 H        2.2850     0.9200    -2.2470 H     1 <1>   0.1500 
 34 H        1.4450     3.1850     2.0460 H     1 <1>   0.1500 
 35 H        3.6430     2.8760    -1.5900 H     1 <1>   0.1500 
 36 H        2.6490    -1.8390    -0.6100 H     1 <1>   0.3700 
 37 H        4.0780     0.3970     1.9290 H     1 <1>   0.1500 
 38 H        4.7110    -1.8110    -1.6620 H     1 <1>   0.1500 
 39 H        6.1810     1.5610     1.5870 H     1 <1>   0.1500 
 40 H        6.8250    -0.6380    -2.0070 H     1 <1>   0.1500 
 41 H        7.8950     2.2720    -0.0350 H     1 <1>   0.0800 
 42 H        8.1580     1.3800    -1.5030 H     1 <1>   0.0800 
 43 H        9.1760    -0.4690    -0.1990 H     1 <1>   0.0800 
 44 H        8.9120     0.4250     1.2710 H     1 <1>   0.0800 
 45 H       10.4010     2.2320     0.4430 H     1 <1>   0.0800 
 46 H       10.6670     1.3380    -1.0300 H     1 <1>   0.0800 
 47 H       11.4200     0.3850     1.7510 H     1 <1>   0.0800 
 48 H       12.5290     0.9950     0.5470 H     1 <1>   0.0800 
 49 H       11.6880    -0.5110     0.2730 H     1 <1>   0.0800 
@<TRIPOS>BOND
  1   1   2  2   
  2   1   3  2   
  3   1   4  am  
  4   1   5  1   
  5   4   6  1   
  6   4   7  1   
  7   5   8  ar  
  8   5   9  ar  
  9   6  10  1   
 10   6  27  1   
 11   6  28  1   
 12   7  29  1   
 13   7  30  1   
 14   7  31  1   
 15   8  11  ar  
 16   8  32  1   
 17   9  12  ar  
 18   9  33  1   
 19  10  13  2   
 20  10  14  am  
 21  11  15  ar  
 22  11  34  1   
 23  12  15  ar  
 24  12  35  1   
 25  14  16  1   
 26  14  36  1   
 27  15  17  1   
 28  16  18  ar  
 29  16  19  ar  
 30  18  20  ar  
 31  18  37  1   
 32  19  21  ar  
 33  19  38  1   
 34  20  22  ar  
 35  20  39  1   
 36  21  22  ar  
 37  21  40  1   
 38  22  23  1   
 39  23  24  1   
 40  23  41  1   
 41  23  42  1   
 42  24  25  1   
 43  24  43  1   
 44  24  44  1   
 45  25  26  1   
 46  25  45  1   
 47  25  46  1   
 48  26  47  1   
 49  26  48  1   
 50  26  49  1   
@<TRIPOS>SUBSTRUCTURE
  1 ****  16 GROUP 4 **** **** 0

# MOE 2024.06 (io_trps.svl 2023.06)
