@<TRIPOS>MOLECULE
NONAME
24 24 1 0 0 
SMALL
USER_CHARGES


@<TRIPOS>ATOM
  1 BR       0.1530    -0.0620     0.4290 Br    1 <1>  -0.1110 
  2 C       -1.5860    -0.8350     0.1410 C.ar  1 <1>   0.1110 
  3 C       -1.6870    -2.0610    -0.4910 C.ar  1 <1>   0.1600 
  4 C       -2.7010    -0.1540     0.5680 C.ar  1 <1>  -0.1500 
  5 N       -2.8460    -2.6620    -0.7230 N.ar  1 <1>  -0.6200 
  6 C       -3.9310    -0.7560     0.3300 C.ar  1 <1>   0.0860 
  7 C       -3.9190    -2.0030    -0.3030 C.ar  1 <1>   0.1600 
  8 C       -5.1710    -0.1240     0.7240 C.2   1 <1>   0.5440 
  9 O       -5.2090     0.5780     1.7140 O.2   1 <1>  -0.5700 
 10 N       -6.3090    -0.2910    -0.0160 N.am  1 <1>  -0.7300 
 11 C       -7.6230     0.2800     0.3010 C.3   1 <1>   0.2200 
 12 C       -8.6390    -0.8560     0.3300 C.3   1 <1>  -0.2400 
 13 C       -7.9680     1.3060    -0.7710 C.3   1 <1>  -0.2400 
 14 H       -0.7890    -2.5590    -0.8120 H     1 <1>   0.1500 
 15 H       -2.6300     0.7990     1.0630 H     1 <1>   0.1500 
 16 H       -4.8650    -2.4900    -0.4680 H     1 <1>   0.1500 
 17 H       -6.2630    -0.7500    -0.9250 H     1 <1>   0.3700 
 18 H       -7.5950     0.7620     1.2670 H     1 <1>   0.0800 
 19 H       -8.6930    -1.3500    -0.6230 H     1 <1>   0.0800 
 20 H       -9.6130    -0.4670     0.5690 H     1 <1>   0.0800 
 21 H       -8.3690    -1.5690     1.0890 H     1 <1>   0.0800 
 22 H       -8.0080     0.8500    -1.7440 H     1 <1>   0.0800 
 23 H       -7.2330     2.0910    -0.7740 H     1 <1>   0.0800 
 24 H       -8.9260     1.7460    -0.5590 H     1 <1>   0.0800 
@<TRIPOS>BOND
  1   1   2  1   
  2   2   3  ar  
  3   2   4  ar  
  4   3   5  ar  
  5   3  14  1   
  6   4   6  ar  
  7   4  15  1   
  8   5   7  ar  
  9   6   7  ar  
 10   6   8  1   
 11   7  16  1   
 12   8   9  2   
 13   8  10  am  
 14  10  11  1   
 15  10  17  1   
 16  11  12  1   
 17  11  13  1   
 18  11  18  1   
 19  12  19  1   
 20  12  20  1   
 21  12  21  1   
 22  13  22  1   
 23  13  23  1   
 24  13  24  1   
@<TRIPOS>SUBSTRUCTURE
  1 ****   6 GROUP 4 **** **** 0

# MOE 2024.06 (io_trps.svl 2023.06)
