@<TRIPOS>MOLECULE
NONAME
42 43 1 0 0 
SMALL
USER_CHARGES


@<TRIPOS>ATOM
  1 O       -1.5380    -0.4350     2.6360 O.2   1 <1>  -0.5700 
  2 C       -2.2080    -1.0460     1.8270 C.2   1 <1>   0.7060 
  3 O       -3.4190    -0.5640     1.5540 O.3   1 <1>  -0.2330 
  4 C       -1.7790    -2.2530     1.1700 C.2   1 <1>  -0.1240 
  5 C       -4.2780    -1.1710     0.7110 C.ar  1 <1>   0.0820 
  6 C       -2.6000    -2.8930     0.2920 C.2   1 <1>  -0.1670 
  7 C       -0.3650    -2.7350     1.5140 C.3   1 <1>   0.0390 
  8 C       -3.9140    -2.3550     0.0530 C.ar  1 <1>   0.0280 
  9 C       -5.5220    -0.5920     0.5250 C.ar  1 <1>  -0.1500 
 10 C       -2.2050    -4.1550    -0.4800 C.3   1 <1>  -0.1020 
 11 C        0.6370    -2.2950     0.4670 C.2   1 <1>   0.6590 
 12 C       -4.8710    -2.9270    -0.7960 C.ar  1 <1>  -0.1500 
 13 C       -6.4470    -1.1730    -0.3180 C.ar  1 <1>   0.0830 
 14 O        1.2240    -3.0980    -0.2140 O.2   1 <1>  -0.5700 
 15 O        0.8260    -0.9880     0.3400 O.3   1 <1>  -0.4300 
 16 C       -6.1120    -2.3520    -0.9820 C.ar  1 <1>  -0.1500 
 17 O       -7.6390    -0.5490    -0.4440 O.3   1 <1>  -0.3630 
 18 C        1.7260    -0.4520    -0.6070 C.3   1 <1>   0.0400 
 19 C       -8.6890    -1.0910    -1.2300 C.3   1 <1>   0.1810 
 20 C       -9.9290    -0.2130    -1.1690 C.2   1 <1>   0.6590 
 21 O      -10.3660     0.3310    -2.1520 O.2   1 <1>  -0.5700 
 22 O      -10.5190    -0.1040     0.0170 O.3   1 <1>  -0.4300 
 23 C      -11.6700     0.6880     0.1960 C.3   1 <1>   0.1200 
 24 C      -12.0890     0.5900     1.6590 C.3   1 <1>  -0.2400 
 25 H       -0.3420    -3.8040     1.5930 H     1 <1>   0.0800 
 26 H       -0.0410    -2.3590     2.4670 H     1 <1>   0.0800 
 27 H       -5.7710     0.3170     1.0420 H     1 <1>   0.1500 
 28 H       -2.8350    -4.9770    -0.1880 H     1 <1>   0.0800 
 29 H       -1.1860    -4.4510    -0.3230 H     1 <1>   0.0800 
 30 H       -2.3200    -3.9870    -1.5360 H     1 <1>   0.0800 
 31 H       -4.6490    -3.8360    -1.3230 H     1 <1>   0.1500 
 32 H       -6.8060    -2.8310    -1.6470 H     1 <1>   0.1500 
 33 H        1.7090     0.6200    -0.5220 H     1 <1>   0.0800 
 34 H        1.4130    -0.7520    -1.5920 H     1 <1>   0.0800 
 35 H        2.7130    -0.8260    -0.3990 H     1 <1>   0.0800 
 36 H       -8.9270    -2.0670    -0.8510 H     1 <1>   0.0800 
 37 H       -8.3510    -1.1570    -2.2470 H     1 <1>   0.0800 
 38 H      -12.4440     0.3180    -0.4550 H     1 <1>   0.0800 
 39 H      -11.4280     1.7030    -0.0710 H     1 <1>   0.0800 
 40 H      -12.3150    -0.4310     1.9130 H     1 <1>   0.0800 
 41 H      -12.9660     1.1870     1.8260 H     1 <1>   0.0800 
 42 H      -11.3010     0.9530     2.2940 H     1 <1>   0.0800 
@<TRIPOS>BOND
  1   1   2  2   
  2   2   3  1   
  3   2   4  1   
  4   3   5  1   
  5   4   6  2   
  6   4   7  1   
  7   5   8  ar  
  8   5   9  ar  
  9   6   8  1   
 10   6  10  1   
 11   7  11  1   
 12   7  25  1   
 13   7  26  1   
 14   8  12  ar  
 15   9  13  ar  
 16   9  27  1   
 17  10  28  1   
 18  10  29  1   
 19  10  30  1   
 20  11  14  2   
 21  11  15  1   
 22  12  16  ar  
 23  12  31  1   
 24  13  16  ar  
 25  13  17  1   
 26  15  18  1   
 27  16  32  1   
 28  17  19  1   
 29  18  33  1   
 30  18  34  1   
 31  18  35  1   
 32  19  20  1   
 33  19  36  1   
 34  19  37  1   
 35  20  21  2   
 36  20  22  1   
 37  22  23  1   
 38  23  24  1   
 39  23  38  1   
 40  23  39  1   
 41  24  40  1   
 42  24  41  1   
 43  24  42  1   
@<TRIPOS>SUBSTRUCTURE
  1 ****   5 GROUP 4 **** **** 0

# MOE 2024.06 (io_trps.svl 2023.06)
