@<TRIPOS>MOLECULE
NONAME
43 43 1 0 0 
SMALL
USER_CHARGES


@<TRIPOS>ATOM
  1 O        2.1080    -1.7020    -0.8580 O.2   1 <1>  -0.5700 
  2 C        1.7750    -1.3710     0.2630 C.2   1 <1>   0.6900 
  3 N        2.1860    -0.1960     0.8140 N.am  1 <1>  -0.5470 
  4 N        0.9870    -2.1670     1.0310 N.am  1 <1>  -0.7300 
  5 C        3.0850     0.8140     0.3870 C.ar  1 <1>   0.1170 
  6 C        0.3880    -3.4710     0.6830 C.3   1 <1>   0.2200 
  7 C        4.3160     0.5380    -0.2420 C.ar  1 <1>   0.1170 
  8 C        2.7470     2.1420     0.6610 C.ar  1 <1>  -0.1430 
  9 C        1.4840    -4.5100     0.4510 C.3   1 <1>  -0.2400 
 10 C       -0.5400    -3.3310    -0.5210 C.3   1 <1>  -0.2400 
 11 N        4.6710    -0.7790    -0.5730 N.am  1 <1>  -0.5470 
 12 C        5.1730     1.5840    -0.5540 C.ar  1 <1>  -0.1500 
 13 C        3.6210     3.1670     0.3330 C.ar  1 <1>  -0.1500 
 14 C        1.4220     2.5100     1.3210 C.3   1 <1>  -0.0970 
 15 C        5.8670    -1.4290    -0.5930 C.2   1 <1>   0.5690 
 16 C        4.8320     2.8920    -0.2690 C.ar  1 <1>  -0.1500 
 17 O        6.9130    -0.9010    -0.2940 O.2   1 <1>  -0.5700 
 18 C        5.8350    -2.9100    -0.9920 C.3   1 <1>  -0.0190 
 19 C        5.4450    -3.7920     0.2050 C.3   1 <1>  -0.2400 
 20 C        7.1620    -3.4030    -1.5950 C.3   1 <1>  -0.2400 
 21 H        1.6430     0.0740     1.6250 H     1 <1>   0.3700 
 22 H        0.9080    -1.9350     2.0170 H     1 <1>   0.3700 
 23 H       -0.2060    -3.7930     1.5230 H     1 <1>   0.0800 
 24 H        2.0710    -4.2590    -0.4140 H     1 <1>   0.0800 
 25 H        1.0400    -5.4750     0.2860 H     1 <1>   0.0800 
 26 H        2.1250    -4.5730     1.3110 H     1 <1>   0.0800 
 27 H        0.0140    -3.0750    -1.4070 H     1 <1>   0.0800 
 28 H       -1.2790    -2.5730    -0.3350 H     1 <1>   0.0800 
 29 H       -1.0450    -4.2620    -0.7020 H     1 <1>   0.0800 
 30 H        3.8500    -1.3570    -0.7900 H     1 <1>   0.3700 
 31 H        6.1150     1.3750    -1.0280 H     1 <1>   0.1500 
 32 H        3.3660     4.1910     0.5450 H     1 <1>   0.1500 
 33 H        1.4090     2.1690     2.3400 H     1 <1>   0.0800 
 34 H        0.6040     2.0630     0.7840 H     1 <1>   0.0800 
 35 H        1.2740     3.5750     1.3200 H     1 <1>   0.0800 
 36 H        5.5090     3.6900    -0.5190 H     1 <1>   0.1500 
 37 H        5.0770    -3.0210    -1.7480 H     1 <1>   0.0800 
 38 H        6.1820    -3.7050     0.9840 H     1 <1>   0.0800 
 39 H        5.3720    -4.8220    -0.0930 H     1 <1>   0.0800 
 40 H        4.4930    -3.4810     0.6000 H     1 <1>   0.0800 
 41 H        7.9520    -3.3340    -0.8680 H     1 <1>   0.0800 
 42 H        7.4290    -2.7950    -2.4420 H     1 <1>   0.0800 
 43 H        7.0750    -4.4240    -1.9190 H     1 <1>   0.0800 
@<TRIPOS>BOND
  1   1   2  2   
  2   2   3  am  
  3   2   4  am  
  4   3   5  1   
  5   3  21  1   
  6   4   6  1   
  7   4  22  1   
  8   5   7  ar  
  9   5   8  ar  
 10   6   9  1   
 11   6  10  1   
 12   6  23  1   
 13   7  11  1   
 14   7  12  ar  
 15   8  13  ar  
 16   8  14  1   
 17   9  24  1   
 18   9  25  1   
 19   9  26  1   
 20  10  27  1   
 21  10  28  1   
 22  10  29  1   
 23  11  15  am  
 24  11  30  1   
 25  12  16  ar  
 26  12  31  1   
 27  13  16  ar  
 28  13  32  1   
 29  14  33  1   
 30  14  34  1   
 31  14  35  1   
 32  15  17  2   
 33  15  18  1   
 34  16  36  1   
 35  18  19  1   
 36  18  20  1   
 37  18  37  1   
 38  19  38  1   
 39  19  39  1   
 40  19  40  1   
 41  20  41  1   
 42  20  42  1   
 43  20  43  1   
@<TRIPOS>SUBSTRUCTURE
  1 ****  11 GROUP 4 **** **** 0

# MOE 2024.06 (io_trps.svl 2023.06)
