@<TRIPOS>MOLECULE
NONAME
43 44 1 0 0 
SMALL
USER_CHARGES


@<TRIPOS>ATOM
  1 I        1.0110    -0.7050     3.5080 I     1 <1>  -0.0810 
  2 C        2.4760    -0.2970     2.0220 C.ar  1 <1>   0.0810 
  3 C        3.1850    -1.3480     1.4770 C.ar  1 <1>  -0.1500 
  4 C        2.6850     1.0090     1.6350 C.ar  1 <1>  -0.1500 
  5 C        4.1430    -1.0890     0.5060 C.ar  1 <1>  -0.1440 
  6 C        3.6420     1.2530     0.6670 C.ar  1 <1>  -0.1500 
  7 C        4.3840     0.2260     0.0810 C.ar  1 <1>  -0.0090 
  8 C        4.8970    -2.2830    -0.0670 C.3   1 <1>  -0.0960 
  9 S        5.6370     0.6770    -1.1660 S.o2  1 <1>   1.4470 
 10 O        5.8660    -0.3610    -2.1440 O.2   1 <1>  -0.6500 
 11 O        5.4480     2.0400    -1.6100 O.2   1 <1>  -0.6500 
 12 N        7.0780     0.6710    -0.3030 N.am  1 <1>  -0.9140 
 13 C        8.1100     1.4570    -0.9470 C.3   1 <1>   0.1960 
 14 C        9.3840     1.3660    -0.1110 C.3   1 <1>  -0.1600 
 15 C       10.4480     2.3070    -0.6740 C.3   1 <1>   0.3430 
 16 N       11.6310     2.3520     0.2280 N.4   1 <1>  -0.9590 
 17 C       12.5460     3.5050    -0.0740 C.3   1 <1>   0.3430 
 18 C       12.4200     1.0710     0.2960 C.3   1 <1>   0.3430 
 19 C       13.7320     3.5560     0.9180 C.3   1 <1>   0.1200 
 20 C       13.6670     1.2190     1.1990 C.3   1 <1>   0.1200 
 21 O       13.6940     2.4780     1.8150 O.3   1 <1>  -0.5600 
 22 H        2.9840    -2.3510     1.8110 H     1 <1>   0.1500 
 23 H        2.1200     1.8120     2.0750 H     1 <1>   0.1500 
 24 H        3.8140     2.2720     0.3580 H     1 <1>   0.1500 
 25 H        4.6550    -3.1870     0.4640 H     1 <1>   0.0800 
 26 H        5.9580    -2.1350     0.0050 H     1 <1>   0.0800 
 27 H        4.6310    -2.4270    -1.1000 H     1 <1>   0.0800 
 28 H        7.3530    -0.3080    -0.3450 H     1 <1>   0.4200 
 29 H        7.7890     2.4860    -1.0040 H     1 <1>   0.0800 
 30 H        8.2790     1.0930    -1.9500 H     1 <1>   0.0800 
 31 H        9.7360     0.3510    -0.1230 H     1 <1>   0.0800 
 32 H        9.1480     1.6570     0.8980 H     1 <1>   0.0800 
 33 H       10.0260     3.2960    -0.7560 H     1 <1>   0.0800 
 34 H       10.7440     1.9850    -1.6600 H     1 <1>   0.0800 
 35 H       11.3160     2.5200     1.1970 H     1 <1>   0.4500 
 36 H       12.0040     4.4340    -0.0170 H     1 <1>   0.0800 
 37 H       12.9330     3.4150    -1.0760 H     1 <1>   0.0800 
 38 H       12.7360     0.7760    -0.6910 H     1 <1>   0.0800 
 39 H       11.8030     0.2790     0.6890 H     1 <1>   0.0800 
 40 H       13.6930     4.4620     1.4970 H     1 <1>   0.0800 
 41 H       14.6710     3.5350     0.3920 H     1 <1>   0.0800 
 42 H       14.5710     1.0960     0.6270 H     1 <1>   0.0800 
 43 H       13.6570     0.4730     1.9740 H     1 <1>   0.0800 
@<TRIPOS>BOND
  1   1   2  1   
  2   2   3  ar  
  3   2   4  ar  
  4   3   5  ar  
  5   3  22  1   
  6   4   6  ar  
  7   4  23  1   
  8   5   7  ar  
  9   5   8  1   
 10   6   7  ar  
 11   6  24  1   
 12   7   9  1   
 13   8  25  1   
 14   8  26  1   
 15   8  27  1   
 16   9  10  2   
 17   9  11  2   
 18   9  12  am  
 19  12  13  1   
 20  12  28  1   
 21  13  14  1   
 22  13  29  1   
 23  13  30  1   
 24  14  15  1   
 25  14  31  1   
 26  14  32  1   
 27  15  16  1   
 28  15  33  1   
 29  15  34  1   
 30  16  17  1   
 31  16  18  1   
 32  16  35  1   
 33  17  19  1   
 34  17  36  1   
 35  17  37  1   
 36  18  20  1   
 37  18  38  1   
 38  18  39  1   
 39  19  21  1   
 40  19  40  1   
 41  19  41  1   
 42  20  21  1   
 43  20  42  1   
 44  20  43  1   
@<TRIPOS>SUBSTRUCTURE
  1 ****  12 GROUP 4 **** **** 0

# MOE 2024.06 (io_trps.svl 2023.06)
