@<TRIPOS>MOLECULE
NONAME
45 47 1 0 0 
SMALL
USER_CHARGES


@<TRIPOS>ATOM
  1 O       -0.0580    -1.1490     2.2160 O.2   1 <1>  -0.5700 
  2 C       -0.5100    -1.2280     1.0940 C.2   1 <1>   0.6900 
  3 N        0.0500    -2.0250     0.1570 N.am  1 <1>  -0.7300 
  4 N       -1.6190    -0.5230     0.7930 N.am  1 <1>  -0.7300 
  5 C        1.0930    -3.0460     0.4130 C.3   1 <1>   0.1400 
  6 C       -2.4590    -0.6070    -0.4170 C.3   1 <1>   0.1400 
  7 C        0.5410    -4.4820     0.2660 C.3   1 <1>   0.0000 
  8 C       -3.4640    -1.7480    -0.2540 C.3   1 <1>  -0.1600 
  9 C       -0.0520    -4.7230    -1.1450 C.3   1 <1>  -0.1600 
 10 C        1.6950    -5.4880     0.4850 C.3   1 <1>  -0.1600 
 11 C       -0.5540    -4.7660     1.3220 C.3   1 <1>  -0.1600 
 12 C       -4.3060    -1.9120    -1.5170 C.3   1 <1>   0.1200 
 13 C       -0.5670    -6.1690    -1.2780 C.3   1 <1>  -0.0800 
 14 C        1.1920    -6.9380     0.3570 C.3   1 <1>  -0.0800 
 15 C       -1.0730    -6.2110     1.1950 C.3   1 <1>  -0.0800 
 16 O       -5.2260    -2.9160    -1.2960 O.3   1 <1>  -0.6800 
 17 C        0.6000    -7.1460    -1.0490 C.3   1 <1>  -0.1600 
 18 C       -1.6540    -6.4190    -0.2160 C.3   1 <1>  -0.1600 
 19 C        0.0970    -7.1880     1.4110 C.3   1 <1>  -0.1600 
 20 H       -0.4120    -2.0830    -0.7430 H     1 <1>   0.3700 
 21 H       -2.0010    -0.0070     1.5860 H     1 <1>   0.3700 
 22 H        1.4890    -2.9150     1.4070 H     1 <1>   0.0800 
 23 H        1.9000    -2.8940    -0.2820 H     1 <1>   0.0800 
 24 H       -1.8370    -0.7750    -1.2800 H     1 <1>   0.0800 
 25 H       -2.9760     0.3280    -0.5530 H     1 <1>   0.0800 
 26 H       -4.1110    -1.5280     0.5770 H     1 <1>   0.0800 
 27 H       -2.9330    -2.6620    -0.0610 H     1 <1>   0.0800 
 28 H        0.6980    -4.5390    -1.8930 H     1 <1>   0.0800 
 29 H       -0.8700    -4.0500    -1.3250 H     1 <1>   0.0800 
 30 H        2.4740    -5.3180    -0.2370 H     1 <1>   0.0800 
 31 H        2.1220    -5.3460     1.4630 H     1 <1>   0.0800 
 32 H       -1.3760    -4.0840     1.2000 H     1 <1>   0.0800 
 33 H       -0.1560    -4.6100     2.3100 H     1 <1>   0.0800 
 34 H       -3.7000    -2.1870    -2.3640 H     1 <1>   0.0800 
 35 H       -4.8510    -1.0100    -1.7410 H     1 <1>   0.0800 
 36 H       -0.9780    -6.3210    -2.2620 H     1 <1>   0.0800 
 37 H        2.0080    -7.6230     0.5130 H     1 <1>   0.0800 
 38 H       -1.8360    -6.3880     1.9340 H     1 <1>   0.0800 
 39 H       -4.7810    -3.7480    -1.0450 H     1 <1>   0.4000 
 40 H        1.3620    -6.9870    -1.7920 H     1 <1>   0.0800 
 41 H        0.2520    -8.1590    -1.1500 H     1 <1>   0.0800 
 42 H       -2.4790    -5.7460    -0.3710 H     1 <1>   0.0800 
 43 H       -2.0290    -7.4230    -0.3090 H     1 <1>   0.0800 
 44 H        0.5040    -7.0560     2.3980 H     1 <1>   0.0800 
 45 H       -0.2560    -8.2010     1.3360 H     1 <1>   0.0800 
@<TRIPOS>BOND
  1   1   2  2   
  2   2   3  am  
  3   2   4  am  
  4   3   5  1   
  5   3  20  1   
  6   4   6  1   
  7   4  21  1   
  8   5   7  1   
  9   5  22  1   
 10   5  23  1   
 11   6   8  1   
 12   6  24  1   
 13   6  25  1   
 14   7   9  1   
 15   7  10  1   
 16   7  11  1   
 17   8  12  1   
 18   8  26  1   
 19   8  27  1   
 20   9  13  1   
 21   9  28  1   
 22   9  29  1   
 23  10  14  1   
 24  10  30  1   
 25  10  31  1   
 26  11  15  1   
 27  11  32  1   
 28  11  33  1   
 29  12  16  1   
 30  12  34  1   
 31  12  35  1   
 32  13  17  1   
 33  13  18  1   
 34  13  36  1   
 35  14  17  1   
 36  14  19  1   
 37  14  37  1   
 38  15  18  1   
 39  15  19  1   
 40  15  38  1   
 41  16  39  1   
 42  17  40  1   
 43  17  41  1   
 44  18  42  1   
 45  18  43  1   
 46  19  44  1   
 47  19  45  1   
@<TRIPOS>SUBSTRUCTURE
  1 ****  11 GROUP 4 **** **** 0

# MOE 2024.06 (io_trps.svl 2023.06)
