@<TRIPOS>MOLECULE
NONAME
40 41 1 0 0 
SMALL
USER_CHARGES


@<TRIPOS>ATOM
  1 S       -1.5160     1.0150     1.9950 S.3   1 <1>  -0.0800 
  2 C       -1.9120     0.9260     0.2840 C.2   1 <1>  -0.1400 
  3 C       -0.2250     2.1560     1.6830 C.2   1 <1>  -0.1100 
  4 C       -1.0910     1.7180    -0.4350 C.2   1 <1>  -0.1810 
  5 C       -3.0520     0.0080    -0.0970 C.3   1 <1>   0.5230 
  6 C       -0.1340     2.4190     0.3670 C.2   1 <1>  -0.1500 
  7 C       -1.0820     1.9180    -1.9410 C.3   1 <1>  -0.0590 
  8 N       -4.2980     0.8130    -0.2250 N.4   1 <1>  -0.9590 
  9 C       -4.7370     1.3730     1.0870 C.3   1 <1>   0.3430 
 10 C       -5.3740     0.0380    -0.9000 C.3   1 <1>   0.3430 
 11 C       -5.9320     2.3010     0.8760 C.3   1 <1>  -0.1600 
 12 C       -6.5750     0.9450    -1.1550 C.3   1 <1>  -0.1600 
 13 C       -7.0900     1.6020     0.1410 C.3   1 <1>  -0.0190 
 14 C       -8.2210     2.5850    -0.1440 C.2   1 <1>   0.6590 
 15 O       -8.1110     3.4370    -0.9870 O.2   1 <1>  -0.5700 
 16 O       -9.3110     2.4440     0.5950 O.3   1 <1>  -0.4300 
 17 C      -10.4230     3.2950     0.4320 C.3   1 <1>   0.1200 
 18 C      -11.4950     2.8670     1.4290 C.3   1 <1>  -0.2400 
 19 H        0.3400     2.5140     2.5270 H     1 <1>   0.1500 
 20 H       -3.1680    -0.7660     0.6440 H     1 <1>   0.0800 
 21 H       -2.8190    -0.4540    -1.0420 H     1 <1>   0.0800 
 22 H        0.5840     3.0880    -0.0780 H     1 <1>   0.1500 
 23 H       -1.8350     1.3220    -2.4220 H     1 <1>   0.0800 
 24 H       -0.1210     1.6390    -2.3380 H     1 <1>   0.0800 
 25 H       -1.2580     2.9530    -2.1750 H     1 <1>   0.0800 
 26 H       -4.0510     1.6180    -0.8170 H     1 <1>   0.4500 
 27 H       -3.9350     1.9340     1.5390 H     1 <1>   0.0800 
 28 H       -5.0100     0.5730     1.7560 H     1 <1>   0.0800 
 29 H       -5.6740    -0.7910    -0.2780 H     1 <1>   0.0800 
 30 H       -5.0180    -0.3540    -1.8400 H     1 <1>   0.0800 
 31 H       -5.6120     3.1660     0.3190 H     1 <1>   0.0800 
 32 H       -6.2770     2.6500     1.8340 H     1 <1>   0.0800 
 33 H       -7.3670     0.3650    -1.5980 H     1 <1>   0.0800 
 34 H       -6.2990     1.7020    -1.8700 H     1 <1>   0.0800 
 35 H       -7.4840     0.8290     0.7790 H     1 <1>   0.0800 
 36 H      -10.7790     3.2030    -0.5810 H     1 <1>   0.0800 
 37 H      -10.1090     4.3090     0.6130 H     1 <1>   0.0800 
 38 H      -11.7940     1.8510     1.2420 H     1 <1>   0.0800 
 39 H      -12.3580     3.5010     1.3260 H     1 <1>   0.0800 
 40 H      -11.1250     2.9560     2.4350 H     1 <1>   0.0800 
@<TRIPOS>BOND
  1   1   2  1   
  2   1   3  1   
  3   2   4  2   
  4   2   5  1   
  5   3   6  2   
  6   3  19  1   
  7   4   6  1   
  8   4   7  1   
  9   5   8  1   
 10   5  20  1   
 11   5  21  1   
 12   6  22  1   
 13   7  23  1   
 14   7  24  1   
 15   7  25  1   
 16   8   9  1   
 17   8  10  1   
 18   8  26  1   
 19   9  11  1   
 20   9  27  1   
 21   9  28  1   
 22  10  12  1   
 23  10  29  1   
 24  10  30  1   
 25  11  13  1   
 26  11  31  1   
 27  11  32  1   
 28  12  13  1   
 29  12  33  1   
 30  12  34  1   
 31  13  14  1   
 32  13  35  1   
 33  14  15  2   
 34  14  16  1   
 35  16  17  1   
 36  17  18  1   
 37  17  36  1   
 38  17  37  1   
 39  18  38  1   
 40  18  39  1   
 41  18  40  1   
@<TRIPOS>SUBSTRUCTURE
  1 ****   9 GROUP 4 **** **** 0

# MOE 2024.06 (io_trps.svl 2023.06)
