@<TRIPOS>MOLECULE
NONAME
35 34 1 0 0 
SMALL
USER_CHARGES


@<TRIPOS>ATOM
  1 S        0.1550     1.3840     2.6720 S.2   1 <1>  -0.6770 
  2 P        0.2690     2.1170     0.8810 P.3   1 <1>   0.6770 
  3 C       -0.9800     1.4580    -0.2260 C.3   1 <1>  -0.0800 
  4 C        0.0900     3.8970     0.9340 C.3   1 <1>  -0.0800 
  5 C        1.8750     1.8240     0.1810 C.3   1 <1>  -0.1600 
  6 C       -1.4160     0.0230     0.1190 C.3   1 <1>  -0.2400 
  7 C       -0.6400     1.4750    -1.7310 C.3   1 <1>  -0.2400 
  8 C       -1.1910     4.3670     1.6470 C.3   1 <1>  -0.2400 
  9 C        0.1690     4.6450    -0.4100 C.3   1 <1>  -0.2400 
 10 C        2.3320     0.3550     0.1760 C.3   1 <1>  -0.1600 
 11 C        3.7440     0.2120    -0.4060 C.3   1 <1>  -0.1600 
 12 C        4.1870    -1.2540    -0.4100 C.3   1 <1>  -0.2400 
 13 H       -1.8700     2.0510    -0.1140 H     1 <1>   0.0800 
 14 H        0.9020     4.2790     1.5290 H     1 <1>   0.0800 
 15 H        2.6060     2.3740     0.7450 H     1 <1>   0.0800 
 16 H        1.9340     2.1920    -0.8260 H     1 <1>   0.0800 
 17 H       -0.5910    -0.6620     0.0490 H     1 <1>   0.0800 
 18 H       -2.1960    -0.3110    -0.5430 H     1 <1>   0.0800 
 19 H       -1.8000    -0.0180     1.1240 H     1 <1>   0.0800 
 20 H        0.1600     0.7910    -1.9530 H     1 <1>   0.0800 
 21 H       -0.3480     2.4540    -2.0590 H     1 <1>   0.0800 
 22 H       -1.4990     1.1790    -2.3080 H     1 <1>   0.0800 
 23 H       -2.0700     4.0730     1.1010 H     1 <1>   0.0800 
 24 H       -1.1960     5.4380     1.7510 H     1 <1>   0.0800 
 25 H       -1.2460     3.9400     2.6340 H     1 <1>   0.0800 
 26 H       -0.6920     4.4330    -1.0180 H     1 <1>   0.0800 
 27 H        1.0580     4.3760    -0.9510 H     1 <1>   0.0800 
 28 H        0.1990     5.7070    -0.2390 H     1 <1>   0.0800 
 29 H        1.6510    -0.2400    -0.4050 H     1 <1>   0.0800 
 30 H        2.3230    -0.0230     1.1850 H     1 <1>   0.0800 
 31 H        4.4390     0.7870     0.1820 H     1 <1>   0.0800 
 32 H        3.7650     0.5890    -1.4140 H     1 <1>   0.0800 
 33 H        4.1940    -1.6470     0.5920 H     1 <1>   0.0800 
 34 H        5.1800    -1.3370    -0.8160 H     1 <1>   0.0800 
 35 H        3.5210    -1.8480    -1.0100 H     1 <1>   0.0800 
@<TRIPOS>BOND
  1   1   2  2   
  2   2   3  1   
  3   2   4  1   
  4   2   5  1   
  5   3   6  1   
  6   3   7  1   
  7   3  13  1   
  8   4   8  1   
  9   4   9  1   
 10   4  14  1   
 11   5  10  1   
 12   5  15  1   
 13   5  16  1   
 14   6  17  1   
 15   6  18  1   
 16   6  19  1   
 17   7  20  1   
 18   7  21  1   
 19   7  22  1   
 20   8  23  1   
 21   8  24  1   
 22   8  25  1   
 23   9  26  1   
 24   9  27  1   
 25   9  28  1   
 26  10  11  1   
 27  10  29  1   
 28  10  30  1   
 29  11  12  1   
 30  11  31  1   
 31  11  32  1   
 32  12  33  1   
 33  12  34  1   
 34  12  35  1   
@<TRIPOS>SUBSTRUCTURE
  1 ****   2 GROUP 4 **** **** 0

# MOE 2024.06 (io_trps.svl 2023.06)
