@<TRIPOS>MOLECULE
Structure2296
28 29 1 0 0 
SMALL
USER_CHARGES


@<TRIPOS>ATOM
  1 N        0.2860    -0.0490     0.5610 N.4   1 <1>  -0.9060 
  2 C        1.6420     0.4530     0.1800 C.3   1 <1>   0.3430 
  3 C        0.1450    -1.4270     0.0330 C.3   1 <1>   0.3430 
  4 C        2.3940    -0.7240    -0.4490 C.3   1 <1>   0.0630 
  5 C        1.5700    -1.9440    -0.0310 C.3   1 <1>  -0.1600 
  6 C        3.8690    -0.7330    -0.0450 C.ar  1 <1>  -0.1430 
  7 C        4.6060     0.4390    -0.1750 C.ar  1 <1>  -0.1500 
  8 C        4.5100    -1.8700     0.4330 C.ar  1 <1>  -0.1500 
  9 C        5.9420     0.4890     0.1880 C.ar  1 <1>  -0.1430 
 10 C        5.8440    -1.8260     0.7950 C.ar  1 <1>  -0.1500 
 11 C        6.5580    -0.6490     0.6770 C.ar  1 <1>  -0.1500 
 12 C        6.7320     1.7780     0.0430 C.3   1 <1>  -0.0970 
 13 H       -0.4610     0.5680     0.2150 H     1 <1>   0.4500 
 14 H        0.2210    -0.0720     1.5870 H     1 <1>   0.4500 
 15 H        2.1690     0.7910     1.0580 H     1 <1>   0.0800 
 16 H        1.5740     1.2680    -0.5240 H     1 <1>   0.0800 
 17 H       -0.2720    -1.3970    -0.9620 H     1 <1>   0.0800 
 18 H       -0.4780    -2.0400     0.6650 H     1 <1>   0.0800 
 19 H        2.3440    -0.6190    -1.5200 H     1 <1>   0.0800 
 20 H        1.6710    -2.7600    -0.7270 H     1 <1>   0.0800 
 21 H        1.8490    -2.2820     0.9520 H     1 <1>   0.0800 
 22 H        4.1570     1.3320    -0.5700 H     1 <1>   0.1500 
 23 H        4.0010    -2.8110     0.5290 H     1 <1>   0.1500 
 24 H        6.3320    -2.7100     1.1670 H     1 <1>   0.1500 
 25 H        7.5960    -0.6260     0.9610 H     1 <1>   0.1500 
 26 H        6.0990     2.6320     0.2040 H     1 <1>   0.0800 
 27 H        7.1520     1.8370    -0.9450 H     1 <1>   0.0800 
 28 H        7.5320     1.8130     0.7600 H     1 <1>   0.0800 
@<TRIPOS>BOND
  1   1   2  1   
  2   1   3  1   
  3   1  13  1   
  4   1  14  1   
  5   2   4  1   
  6   2  15  1   
  7   2  16  1   
  8   3   5  1   
  9   3  17  1   
 10   3  18  1   
 11   4   5  1   
 12   4   6  1   
 13   4  19  1   
 14   5  20  1   
 15   5  21  1   
 16   6   7  ar  
 17   6   8  ar  
 18   7   9  ar  
 19   7  22  1   
 20   8  10  ar  
 21   8  23  1   
 22   9  11  ar  
 23   9  12  1   
 24  10  11  ar  
 25  10  24  1   
 26  11  25  1   
 27  12  26  1   
 28  12  27  1   
 29  12  28  1   
@<TRIPOS>SUBSTRUCTURE
  1 ****   6 GROUP 4 **** **** 0

# MOE 2024.06 (io_trps.svl 2023.06)
