@<TRIPOS>MOLECULE
NONAME
44 45 1 0 0 
SMALL
USER_CHARGES


@<TRIPOS>ATOM
  1 O       -2.0920    -1.2190    -2.6030 O.2   1 <1>  -0.5700 
  2 C       -2.7110    -1.5110    -1.5980 C.2   1 <1>   0.7060 
  3 O       -3.7200    -0.7160    -1.2520 O.3   1 <1>  -0.2330 
  4 C       -2.4110    -2.6420    -0.7610 C.2   1 <1>  -0.1240 
  5 C       -4.5570    -0.9910    -0.2320 C.ar  1 <1>   0.0820 
  6 C       -3.1910    -2.9300     0.3170 C.2   1 <1>  -0.1670 
  7 C       -1.1680    -3.4460    -1.1590 C.3   1 <1>  -0.1020 
  8 C       -4.3900    -2.1480     0.5470 C.ar  1 <1>   0.0280 
  9 C       -5.5890    -0.0920    -0.0120 C.ar  1 <1>  -0.1500 
 10 C       -2.7990    -4.0110     1.3270 C.3   1 <1>  -0.1020 
 11 C       -5.4230    -2.4100     1.4730 C.ar  1 <1>   0.0830 
 12 C       -6.5290    -0.3290     0.9700 C.ar  1 <1>  -0.1430 
 13 O       -5.5030    -3.5670     2.1570 O.3   1 <1>  -0.3630 
 14 C       -6.4380    -1.4970     1.7040 C.ar  1 <1>  -0.1500 
 15 C       -7.6580     0.6490     1.2380 C.3   1 <1>  -0.0970 
 16 C       -6.1540    -4.6600     1.5220 C.3   1 <1>   0.1810 
 17 C       -7.6320    -4.3910     1.2320 C.2   1 <1>   0.4480 
 18 O       -8.3930    -4.1740     2.1330 O.2   1 <1>  -0.5700 
 19 C       -8.1070    -4.4720    -0.2420 C.3   1 <1>   0.0610 
 20 C       -7.9150    -5.9000    -0.7880 C.3   1 <1>  -0.2400 
 21 C       -7.3410    -3.4880    -1.1480 C.3   1 <1>  -0.2400 
 22 C       -9.6060    -4.1270    -0.3560 C.3   1 <1>  -0.2400 
 23 H       -1.1040    -3.5300    -2.2300 H     1 <1>   0.0800 
 24 H       -1.1850    -4.4470    -0.7720 H     1 <1>   0.0800 
 25 H       -0.2820    -2.9470    -0.8080 H     1 <1>   0.0800 
 26 H       -5.6470     0.7930    -0.6220 H     1 <1>   0.1500 
 27 H       -3.3240    -4.9260     1.1290 H     1 <1>   0.0800 
 28 H       -3.0230    -3.6830     2.3260 H     1 <1>   0.0800 
 29 H       -1.7450    -4.2130     1.3160 H     1 <1>   0.0800 
 30 H       -7.1750    -1.7170     2.4570 H     1 <1>   0.1500 
 31 H       -7.5490     1.0690     2.2220 H     1 <1>   0.0800 
 32 H       -8.6040     0.1410     1.1810 H     1 <1>   0.0800 
 33 H       -7.6540     1.4490     0.5200 H     1 <1>   0.0800 
 34 H       -6.0820    -5.4980     2.1890 H     1 <1>   0.0800 
 35 H       -5.6170    -4.8870     0.6230 H     1 <1>   0.0800 
 36 H       -6.8760    -6.1740    -0.8140 H     1 <1>   0.0800 
 37 H       -8.3040    -5.9770    -1.7880 H     1 <1>   0.0800 
 38 H       -8.4390    -6.6070    -0.1680 H     1 <1>   0.0800 
 39 H       -6.2890    -3.7040    -1.1700 H     1 <1>   0.0800 
 40 H       -7.4730    -2.4800    -0.7960 H     1 <1>   0.0800 
 41 H       -7.7090    -3.5380    -2.1570 H     1 <1>   0.0800 
 42 H      -10.1940    -4.8090     0.2340 H     1 <1>   0.0800 
 43 H       -9.9420    -4.1830    -1.3760 H     1 <1>   0.0800 
 44 H       -9.7870    -3.1310     0.0090 H     1 <1>   0.0800 
@<TRIPOS>BOND
  1   1   2  2   
  2   2   3  1   
  3   2   4  1   
  4   3   5  1   
  5   4   6  2   
  6   4   7  1   
  7   5   8  ar  
  8   5   9  ar  
  9   6   8  1   
 10   6  10  1   
 11   7  23  1   
 12   7  24  1   
 13   7  25  1   
 14   8  11  ar  
 15   9  12  ar  
 16   9  26  1   
 17  10  27  1   
 18  10  28  1   
 19  10  29  1   
 20  11  13  1   
 21  11  14  ar  
 22  12  14  ar  
 23  12  15  1   
 24  13  16  1   
 25  14  30  1   
 26  15  31  1   
 27  15  32  1   
 28  15  33  1   
 29  16  17  1   
 30  16  34  1   
 31  16  35  1   
 32  17  18  2   
 33  17  19  1   
 34  19  20  1   
 35  19  21  1   
 36  19  22  1   
 37  20  36  1   
 38  20  37  1   
 39  20  38  1   
 40  21  39  1   
 41  21  40  1   
 42  21  41  1   
 43  22  42  1   
 44  22  43  1   
 45  22  44  1   
@<TRIPOS>SUBSTRUCTURE
  1 ****   8 GROUP 4 **** **** 0

# MOE 2024.06 (io_trps.svl 2023.06)
