@<TRIPOS>MOLECULE
NONAME
44 45 1 0 0 
SMALL
USER_CHARGES


@<TRIPOS>ATOM
  1 BR       0.9010    -0.2780     2.2040 Br    1 <1>  -0.1110 
  2 C        0.5980    -1.9690     1.3390 C.ar  1 <1>   0.1110 
  3 C        0.3220    -1.9870    -0.0140 C.ar  1 <1>  -0.1500 
  4 C        0.6660    -3.1250     2.0930 C.ar  1 <1>  -0.1500 
  5 C        0.1090    -3.2070    -0.6310 C.ar  1 <1>  -0.1500 
  6 C        0.4510    -4.3390     1.4640 C.ar  1 <1>  -0.1500 
  7 C        0.1700    -4.3890     0.1000 C.ar  1 <1>  -0.1430 
  8 C       -0.0590    -5.7270    -0.6020 C.3   1 <1>   0.5020 
  9 N       -1.0820    -6.4630     0.1440 N.am  1 <1>  -0.7300 
 10 C        1.2400    -6.5100    -0.7140 C.2   1 <1>  -0.1240 
 11 C       -0.8400    -7.5630     0.8740 C.2   1 <1>   0.6900 
 12 C        1.3900    -7.7030    -0.0720 C.2   1 <1>  -0.0290 
 13 C        2.1720    -5.8240    -1.5560 C.2   1 <1>   0.7060 
 14 O       -1.7070    -7.9300     1.6420 O.2   1 <1>  -0.5700 
 15 N        0.3780    -8.2150     0.7520 N.am  1 <1>  -0.4690 
 16 C        2.6510    -8.5530    -0.2400 C.3   1 <1>  -0.1020 
 17 O        1.8380    -5.3070    -2.6020 O.2   1 <1>  -0.5700 
 18 O        3.4570    -5.7070    -1.2180 O.3   1 <1>  -0.4300 
 19 C        0.5400    -9.4740     1.5460 C.3   1 <1>   0.1400 
 20 C        3.8550    -5.3300     0.0800 C.3   1 <1>   0.2000 
 21 C       -0.0540   -10.6590     0.7810 C.3   1 <1>  -0.2400 
 22 C        3.9040    -3.8050     0.1350 C.3   1 <1>  -0.2400 
 23 C        5.2360    -5.9310     0.3280 C.3   1 <1>  -0.2400 
 24 H        0.2790    -1.0670    -0.5700 H     1 <1>   0.1500 
 25 H        0.8810    -3.0730     3.1450 H     1 <1>   0.1500 
 26 H       -0.0960    -3.2310    -1.6900 H     1 <1>   0.1500 
 27 H        0.5010    -5.2470     2.0420 H     1 <1>   0.1500 
 28 H       -0.4480    -5.5520    -1.5920 H     1 <1>   0.0800 
 29 H       -1.9290    -5.9500     0.3760 H     1 <1>   0.3700 
 30 H        3.2200    -8.5580     0.6710 H     1 <1>   0.0800 
 31 H        3.2830    -8.1920    -1.0300 H     1 <1>   0.0800 
 32 H        2.3920    -9.5630    -0.4980 H     1 <1>   0.0800 
 33 H        0.0350    -9.3720     2.4920 H     1 <1>   0.0800 
 34 H        1.5740    -9.6570     1.7680 H     1 <1>   0.0800 
 35 H        3.1520    -5.7110     0.8020 H     1 <1>   0.0800 
 36 H       -1.1100   -10.5110     0.6370 H     1 <1>   0.0800 
 37 H        0.0860   -11.5620     1.3470 H     1 <1>   0.0800 
 38 H        0.4190   -10.7760    -0.1760 H     1 <1>   0.0800 
 39 H        4.6080    -3.4260    -0.5840 H     1 <1>   0.0800 
 40 H        4.2040    -3.4810     1.1140 H     1 <1>   0.0800 
 41 H        2.9360    -3.3900    -0.0730 H     1 <1>   0.0800 
 42 H        5.9380    -5.5670    -0.4000 H     1 <1>   0.0800 
 43 H        5.1930    -7.0030     0.2730 H     1 <1>   0.0800 
 44 H        5.5840    -5.6560     1.3070 H     1 <1>   0.0800 
@<TRIPOS>BOND
  1   1   2  1   
  2   2   3  ar  
  3   2   4  ar  
  4   3   5  ar  
  5   3  24  1   
  6   4   6  ar  
  7   4  25  1   
  8   5   7  ar  
  9   5  26  1   
 10   6   7  ar  
 11   6  27  1   
 12   7   8  1   
 13   8   9  1   
 14   8  10  1   
 15   8  28  1   
 16   9  11  am  
 17   9  29  1   
 18  10  12  2   
 19  10  13  1   
 20  11  14  2   
 21  11  15  am  
 22  12  15  1   
 23  12  16  1   
 24  13  17  2   
 25  13  18  1   
 26  15  19  1   
 27  16  30  1   
 28  16  31  1   
 29  16  32  1   
 30  18  20  1   
 31  19  21  1   
 32  19  33  1   
 33  19  34  1   
 34  20  22  1   
 35  20  23  1   
 36  20  35  1   
 37  21  36  1   
 38  21  37  1   
 39  21  38  1   
 40  22  39  1   
 41  22  40  1   
 42  22  41  1   
 43  23  42  1   
 44  23  43  1   
 45  23  44  1   
@<TRIPOS>SUBSTRUCTURE
  1 ****  10 GROUP 4 **** **** 0

# MOE 2024.06 (io_trps.svl 2023.06)
