@<TRIPOS>MOLECULE
NONAME
34 35 1 0 0 
SMALL
USER_CHARGES


@<TRIPOS>ATOM
  1 S        0.3550    -0.4510     0.9680 S.o2  1 <1>   1.4470 
  2 O        1.0120    -1.3760     0.0730 O.2   1 <1>  -0.6500 
  3 O        0.4460    -0.6390     2.3970 O.2   1 <1>  -0.6500 
  4 N        1.0110     1.0710     0.7350 N.am  1 <1>  -0.9140 
  5 C       -1.3760    -0.2330     0.4700 C.ar  1 <1>  -0.0090 
  6 C        2.4200     1.0580     0.3980 C.3   1 <1>   0.2760 
  7 C       -2.4220    -0.6970     1.2590 C.ar  1 <1>  -0.1500 
  8 C       -1.7050     0.3970    -0.7230 C.ar  1 <1>  -0.1500 
  9 C        3.0310     2.3850     0.8310 C.3   1 <1>  -0.1600 
 10 C        2.5830     1.0940    -1.1200 C.3   1 <1>  -0.1600 
 11 C       -3.7410    -0.5360     0.8720 C.ar  1 <1>  -0.1500 
 12 C       -3.0230     0.5580    -1.1110 C.ar  1 <1>  -0.1500 
 13 C        2.6790     3.3910    -0.2710 C.3   1 <1>  -0.1600 
 14 C        2.3990     2.5600    -1.5280 C.3   1 <1>  -0.1600 
 15 C       -4.0770     0.0910    -0.3280 C.ar  1 <1>   0.0860 
 16 C       -5.4560     0.2610    -0.7560 C.2   1 <1>   0.5440 
 17 O       -5.7780     1.1230    -1.5420 O.2   1 <1>  -0.5700 
 18 N       -6.4510    -0.5420    -0.3140 N.am  1 <1>  -0.8000 
 19 H        0.9440     1.4850     1.6610 H     1 <1>   0.4200 
 20 H        2.9280     0.2210     0.8540 H     1 <1>   0.0800 
 21 H       -2.1970    -1.1880     2.1920 H     1 <1>   0.1500 
 22 H       -0.9150     0.7690    -1.3560 H     1 <1>   0.1500 
 23 H        4.1010     2.2690     0.8600 H     1 <1>   0.0800 
 24 H        2.6990     2.7020     1.8040 H     1 <1>   0.0800 
 25 H        1.8990     0.4380    -1.6280 H     1 <1>   0.0800 
 26 H        3.5860     0.7880    -1.3600 H     1 <1>   0.0800 
 27 H       -4.5200    -0.8990     1.5190 H     1 <1>   0.1500 
 28 H       -3.2470     1.0540    -2.0410 H     1 <1>   0.1500 
 29 H        3.4810     4.0910    -0.4280 H     1 <1>   0.0800 
 30 H        1.7900     3.9340     0.0030 H     1 <1>   0.0800 
 31 H        1.3830     2.7220    -1.8450 H     1 <1>   0.0800 
 32 H        3.0630     2.8220    -2.3340 H     1 <1>   0.0800 
 33 H       -7.3920    -0.3900    -0.6810 H     1 <1>   0.3700 
 34 H       -6.3050    -1.3880     0.2330 H     1 <1>   0.3700 
@<TRIPOS>BOND
  1   1   2  2   
  2   1   3  2   
  3   1   4  am  
  4   1   5  1   
  5   4   6  1   
  6   4  19  1   
  7   5   7  ar  
  8   5   8  ar  
  9   6   9  1   
 10   6  10  1   
 11   6  20  1   
 12   7  11  ar  
 13   7  21  1   
 14   8  12  ar  
 15   8  22  1   
 16   9  13  1   
 17   9  23  1   
 18   9  24  1   
 19  10  14  1   
 20  10  25  1   
 21  10  26  1   
 22  11  15  ar  
 23  11  27  1   
 24  12  15  ar  
 25  12  28  1   
 26  13  14  1   
 27  13  29  1   
 28  13  30  1   
 29  14  31  1   
 30  14  32  1   
 31  15  16  1   
 32  16  17  2   
 33  16  18  am  
 34  18  33  1   
 35  18  34  1   
@<TRIPOS>SUBSTRUCTURE
  1 ****   5 GROUP 4 **** **** 0

# MOE 2024.06 (io_trps.svl 2023.06)
