@<TRIPOS>MOLECULE
NONAME
46 48 1 0 0 
SMALL
USER_CHARGES


@<TRIPOS>ATOM
  1 F        2.7050    -3.6370     2.0580 F     1 <1>  -0.1900 
  2 C        1.6730    -3.2430     1.3530 C.ar  1 <1>   0.1900 
  3 C        1.8920    -2.4600     0.2150 C.ar  1 <1>   0.1170 
  4 C        0.4180    -3.6300     1.7770 C.ar  1 <1>  -0.1500 
  5 N        3.2050    -2.1050    -0.1500 N.am  1 <1>  -0.5470 
  6 C        0.7710    -2.0570    -0.5100 C.ar  1 <1>  -0.1500 
  7 C       -0.6570    -3.2070     1.0220 C.ar  1 <1>   0.1900 
  8 C        3.7570    -1.6250    -1.3020 C.2   1 <1>   0.5690 
  9 C       -0.5050    -2.4290    -0.1120 C.ar  1 <1>  -0.1500 
 10 F       -1.8610    -3.5550     1.3920 F     1 <1>  -0.1900 
 11 O        3.1300    -1.3760    -2.3040 O.2   1 <1>  -0.5700 
 12 C        5.2720    -1.4120    -1.2940 C.3   1 <1>   0.1710 
 13 N        5.9830    -2.2180    -0.2560 N.3   1 <1>  -0.8100 
 14 C        7.3530    -1.7030    -0.0360 C.3   1 <1>   0.1100 
 15 C        6.0550    -3.6500    -0.6470 C.3   1 <1>   0.1100 
 16 C        8.1210    -2.5000     1.0380 C.3   1 <1>   0.2090 
 17 C        6.7710    -4.5160     0.4080 C.3   1 <1>   0.2090 
 18 N        8.1090    -3.9670     0.7700 N.pl3 1 <1>  -0.8380 
 19 C        9.2410    -4.5490     0.1990 C.ar  1 <1>   0.1000 
 20 C       10.0850    -5.3620     0.9560 C.ar  1 <1>  -0.1430 
 21 C        9.5470    -4.3260    -1.1390 C.ar  1 <1>  -0.1500 
 22 C       11.2050    -5.9320     0.3710 C.ar  1 <1>  -0.1500 
 23 C        9.7830    -5.6290     2.4240 C.3   1 <1>  -0.0970 
 24 C       10.6650    -4.8960    -1.7190 C.ar  1 <1>  -0.1500 
 25 C       11.4960    -5.7010    -0.9620 C.ar  1 <1>  -0.1500 
 26 H        0.2810    -4.2330     2.6550 H     1 <1>   0.1500 
 27 H        3.9330    -2.3280     0.5420 H     1 <1>   0.3700 
 28 H        0.8870    -1.4490    -1.3890 H     1 <1>   0.1500 
 29 H       -1.3700    -2.1200    -0.6720 H     1 <1>   0.1500 
 30 H        5.4390    -0.3670    -1.1070 H     1 <1>   0.0800 
 31 H        5.6630    -1.6400    -2.2700 H     1 <1>   0.0800 
 32 H        7.3010    -0.6750     0.2800 H     1 <1>   0.0800 
 33 H        7.9100    -1.7370    -0.9560 H     1 <1>   0.0800 
 34 H        6.5770    -3.7480    -1.5820 H     1 <1>   0.0800 
 35 H        5.0620    -4.0420    -0.7860 H     1 <1>   0.0800 
 36 H        7.6710    -2.3210     1.9980 H     1 <1>   0.0800 
 37 H        9.1390    -2.1550     1.0820 H     1 <1>   0.0800 
 38 H        6.8870    -5.5170     0.0320 H     1 <1>   0.0800 
 39 H        6.1650    -4.5650     1.2950 H     1 <1>   0.0800 
 40 H        8.9030    -3.7030    -1.7260 H     1 <1>   0.1500 
 41 H       11.8580    -6.5590     0.9500 H     1 <1>   0.1500 
 42 H        9.7740    -4.7000     2.9640 H     1 <1>   0.0800 
 43 H       10.5170    -6.2780     2.8630 H     1 <1>   0.0800 
 44 H        8.8160    -6.0880     2.5150 H     1 <1>   0.0800 
 45 H       10.8880    -4.7150    -2.7560 H     1 <1>   0.1500 
 46 H       12.3680    -6.1480    -1.4080 H     1 <1>   0.1500 
@<TRIPOS>BOND
  1   1   2  1   
  2   2   3  ar  
  3   2   4  ar  
  4   3   5  1   
  5   3   6  ar  
  6   4   7  ar  
  7   4  26  1   
  8   5   8  am  
  9   5  27  1   
 10   6   9  ar  
 11   6  28  1   
 12   7   9  ar  
 13   7  10  1   
 14   8  11  2   
 15   8  12  1   
 16   9  29  1   
 17  12  13  1   
 18  12  30  1   
 19  12  31  1   
 20  13  14  1   
 21  13  15  1   
 22  14  16  1   
 23  14  32  1   
 24  14  33  1   
 25  15  17  1   
 26  15  34  1   
 27  15  35  1   
 28  16  18  1   
 29  16  36  1   
 30  16  37  1   
 31  17  18  1   
 32  17  38  1   
 33  17  39  1   
 34  18  19  1   
 35  19  20  ar  
 36  19  21  ar  
 37  20  22  ar  
 38  20  23  1   
 39  21  24  ar  
 40  21  40  1   
 41  22  25  ar  
 42  22  41  1   
 43  23  42  1   
 44  23  43  1   
 45  23  44  1   
 46  24  25  ar  
 47  24  45  1   
 48  25  46  1   
@<TRIPOS>SUBSTRUCTURE
  1 ****  15 GROUP 4 **** **** 0

# MOE 2024.06 (io_trps.svl 2023.06)
