@<TRIPOS>MOLECULE
NONAME
45 47 1 0 0 
SMALL
USER_CHARGES


@<TRIPOS>ATOM
  1 O        0.4040     3.4530    -1.2720 O.2   1 <1>  -0.5700 
  2 C       -0.2380     2.4850    -0.9310 C.2   1 <1>   0.5690 
  3 N        0.3640     1.2680    -0.8130 N.am  1 <1>  -0.7300 
  4 C       -1.7530     2.6020    -0.6120 C.3   1 <1>   0.2040 
  5 C        1.7970     0.9890    -1.0570 C.3   1 <1>   0.1400 
  6 C       -2.1680     1.4360     0.3160 C.ar  1 <1>  -0.1440 
  7 C       -2.5680     2.6500    -1.9180 C.3   1 <1>  -0.1600 
  8 C       -2.1090     3.9660     0.0150 C.3   1 <1>  -0.1600 
  9 C        2.5630     1.0260     0.2640 C.3   1 <1>  -0.0170 
 10 C       -2.7770     0.2820    -0.1700 C.ar  1 <1>  -0.1500 
 11 C       -1.8920     1.5070     1.6780 C.ar  1 <1>  -0.1500 
 12 C       -2.5130     4.1000    -2.4000 C.3   1 <1>  -0.1600 
 13 C       -2.3540     4.9480    -1.1380 C.3   1 <1>  -0.1600 
 14 C        4.0290     0.7020     0.0310 C.ar  1 <1>  -0.1440 
 15 C       -3.1130    -0.7570     0.6790 C.ar  1 <1>  -0.1500 
 16 C       -2.2280     0.4690     2.5290 C.ar  1 <1>  -0.1500 
 17 C        4.5080    -0.5840     0.2280 C.ar  1 <1>  -0.1500 
 18 C        4.9010     1.6950    -0.3870 C.ar  1 <1>  -0.1500 
 19 C       -2.8400    -0.6650     2.0310 C.ar  1 <1>  -0.1500 
 20 C        5.8430    -0.8740     0.0100 C.ar  1 <1>  -0.1500 
 21 C        6.2370     1.4070    -0.6060 C.ar  1 <1>  -0.1500 
 22 C        6.7090     0.1210    -0.4080 C.ar  1 <1>  -0.1500 
 23 H       -0.1920     0.5020    -0.4180 H     1 <1>   0.3700 
 24 H        2.2010     1.7290    -1.7290 H     1 <1>   0.0800 
 25 H        1.9010     0.0230    -1.5190 H     1 <1>   0.0800 
 26 H       -3.5960     2.4080    -1.7090 H     1 <1>   0.0800 
 27 H       -2.1870     1.9710    -2.6610 H     1 <1>   0.0800 
 28 H       -1.3330     4.3200     0.6710 H     1 <1>   0.0800 
 29 H       -3.0220     3.8700     0.5780 H     1 <1>   0.0800 
 30 H        2.1380     0.3150     0.9500 H     1 <1>   0.0800 
 31 H        2.4780     2.0070     0.6970 H     1 <1>   0.0800 
 32 H       -2.9960     0.1690    -1.2170 H     1 <1>   0.1500 
 33 H       -1.4060     2.3730     2.0910 H     1 <1>   0.1500 
 34 H       -3.3960     4.3670    -2.9550 H     1 <1>   0.0800 
 35 H       -1.6500     4.2370    -3.0310 H     1 <1>   0.0800 
 36 H       -1.5100     5.6090    -1.2500 H     1 <1>   0.0800 
 37 H       -3.2350     5.5380    -0.9520 H     1 <1>   0.0800 
 38 H       -3.5890    -1.6400     0.2880 H     1 <1>   0.1500 
 39 H       -2.0100     0.5440     3.5810 H     1 <1>   0.1500 
 40 H        3.8440    -1.3670     0.5520 H     1 <1>   0.1500 
 41 H        4.5410     2.6980    -0.5450 H     1 <1>   0.1500 
 42 H       -3.1040    -1.4720     2.6920 H     1 <1>   0.1500 
 43 H        6.2090    -1.8740     0.1640 H     1 <1>   0.1500 
 44 H        6.9080     2.1830    -0.9300 H     1 <1>   0.1500 
 45 H        7.7470    -0.1030    -0.5780 H     1 <1>   0.1500 
@<TRIPOS>BOND
  1   1   2  2   
  2   2   3  am  
  3   2   4  1   
  4   3   5  1   
  5   3  23  1   
  6   4   6  1   
  7   4   7  1   
  8   4   8  1   
  9   5   9  1   
 10   5  24  1   
 11   5  25  1   
 12   6  10  ar  
 13   6  11  ar  
 14   7  12  1   
 15   7  26  1   
 16   7  27  1   
 17   8  13  1   
 18   8  28  1   
 19   8  29  1   
 20   9  14  1   
 21   9  30  1   
 22   9  31  1   
 23  10  15  ar  
 24  10  32  1   
 25  11  16  ar  
 26  11  33  1   
 27  12  13  1   
 28  12  34  1   
 29  12  35  1   
 30  13  36  1   
 31  13  37  1   
 32  14  17  ar  
 33  14  18  ar  
 34  15  19  ar  
 35  15  38  1   
 36  16  19  ar  
 37  16  39  1   
 38  17  20  ar  
 39  17  40  1   
 40  18  21  ar  
 41  18  41  1   
 42  19  42  1   
 43  20  22  ar  
 44  20  43  1   
 45  21  22  ar  
 46  21  44  1   
 47  22  45  1   
@<TRIPOS>SUBSTRUCTURE
  1 ****   3 GROUP 4 **** **** 0

# MOE 2024.06 (io_trps.svl 2023.06)
