@<TRIPOS>MOLECULE
NONAME
32 34 1 0 0 
SMALL
USER_CHARGES


@<TRIPOS>ATOM
  1 CL       5.3310    -1.5530    -2.3440 Cl    1 <1>  -0.1240 
  2 C        6.5090    -0.7480    -1.3410 C.2   1 <1>   0.3100 
  3 N        7.6940    -0.4670    -1.7580 N.2   1 <1>  -0.5650 
  4 N        6.2270    -0.3930    -0.0590 N.pl3 1 <1>   0.0480 
  5 C        8.2610     0.1330    -0.6630 C.ar  1 <1>   0.2270 
  6 C        7.3680     0.1810     0.3770 C.ar  1 <1>   0.1050 
  7 C        5.0080    -0.5910     0.7440 C.3   1 <1>   0.4560 
  8 C        9.5300     0.6840    -0.4170 C.ar  1 <1>   0.4100 
  9 N        7.6460     0.7130     1.5730 N.ar  1 <1>  -0.5670 
 10 O        3.9140    -0.0550     0.0450 O.3   1 <1>  -0.5600 
 11 C        4.7050    -2.0760     1.0070 C.3   1 <1>   0.2000 
 12 N        9.8320     1.2210     0.7400 N.ar  1 <1>  -0.6200 
 13 N       10.5160     0.7020    -1.3540 N.pl3 1 <1>  -0.9000 
 14 C        8.8640     1.1970     1.6690 C.ar  1 <1>   0.4700 
 15 C        2.7940    -0.8610     0.2430 C.3   1 <1>   0.2000 
 16 O        4.6060    -2.3100     2.3770 O.3   1 <1>  -0.6800 
 17 C        3.3430    -2.2830     0.3500 C.3   1 <1>   0.2000 
 18 C        1.8030    -0.6590    -0.9090 C.3   1 <1>   0.1200 
 19 O        2.4870    -3.0890     1.1070 O.3   1 <1>  -0.6800 
 20 O        0.7810    -1.6020    -0.8190 O.3   1 <1>  -0.6800 
 21 H        5.0990    -0.0600     1.6760 H     1 <1>   0.0800 
 22 H        5.4550    -2.7320     0.6020 H     1 <1>   0.0800 
 23 H       11.3430     1.2710    -1.1770 H     1 <1>   0.4000 
 24 H       10.2980     0.4730    -2.3260 H     1 <1>   0.4000 
 25 H        9.1310     1.6370     2.6160 H     1 <1>   0.1500 
 26 H        2.3520    -0.5600     1.1790 H     1 <1>   0.0800 
 27 H        3.8230    -2.8990     2.5020 H     1 <1>   0.4000 
 28 H        3.4460    -2.7170    -0.6300 H     1 <1>   0.0800 
 29 H        2.2970    -0.7920    -1.8570 H     1 <1>   0.0800 
 30 H        1.3660     0.3230    -0.8550 H     1 <1>   0.0800 
 31 H        1.5900    -3.0490     0.7000 H     1 <1>   0.4000 
 32 H        0.1140    -1.4500    -1.5200 H     1 <1>   0.4000 
@<TRIPOS>BOND
  1   1   2  1   
  2   2   3  2   
  3   2   4  1   
  4   3   5  1   
  5   4   6  1   
  6   4   7  1   
  7   5   6  ar  
  8   5   8  ar  
  9   6   9  ar  
 10   7  10  1   
 11   7  11  1   
 12   7  21  1   
 13   8  12  ar  
 14   8  13  1   
 15   9  14  ar  
 16  10  15  1   
 17  11  16  1   
 18  11  17  1   
 19  11  22  1   
 20  12  14  ar  
 21  13  23  1   
 22  13  24  1   
 23  14  25  1   
 24  15  17  1   
 25  15  18  1   
 26  15  26  1   
 27  16  27  1   
 28  17  19  1   
 29  17  28  1   
 30  18  20  1   
 31  18  29  1   
 32  18  30  1   
 33  19  31  1   
 34  20  32  1   
@<TRIPOS>SUBSTRUCTURE
  1 ****   4 GROUP 4 **** **** 0

# MOE 2024.06 (io_trps.svl 2023.06)
