@<TRIPOS>MOLECULE
NONAME
57 59 1 0 0 
SMALL
USER_CHARGES


@<TRIPOS>ATOM
  1 O        4.0440    -0.5800     0.7850 O.2   1 <1>  -0.5700 
  2 C        3.3110    -1.3850     0.2490 C.2   1 <1>   0.5690 
  3 N        2.0400    -1.6220     0.7150 N.am  1 <1>  -0.6600 
  4 C        3.9100    -2.1180    -0.9540 C.3   1 <1>  -0.0190 
  5 C        1.0760    -2.6160     0.1570 C.3   1 <1>   0.1400 
  6 C        1.5550    -0.9110     1.9370 C.3   1 <1>   0.1400 
  7 C        5.2930    -2.6470    -0.5360 C.3   1 <1>   0.3430 
  8 C        3.9950    -1.1840    -2.1930 C.3   1 <1>  -0.1600 
  9 C        0.4200    -2.0820    -1.1160 C.3   1 <1>  -0.2400 
 10 C        0.7190     0.3040     1.5460 C.3   1 <1>  -0.2400 
 11 N        6.2660    -1.5210    -0.5780 N.4   1 <1>  -0.9590 
 12 C        5.3580    -1.2730    -2.9030 C.3   1 <1>  -0.1600 
 13 C        6.5420    -1.0130    -1.9570 C.3   1 <1>   0.3430 
 14 C        7.4930    -1.7540     0.2220 C.3   1 <1>   0.4860 
 15 C        8.2640    -0.4510     0.3110 C.ar  1 <1>  -0.1440 
 16 C        7.7420     0.6280     1.0100 C.ar  1 <1>  -0.1500 
 17 C        9.4970    -0.3210    -0.3110 C.ar  1 <1>  -0.1500 
 18 C        8.4410     1.8190     1.0750 C.ar  1 <1>  -0.1500 
 19 C       10.1900     0.8730    -0.2390 C.ar  1 <1>  -0.1500 
 20 C        9.6760     1.9650     0.4530 C.ar  1 <1>   0.0000 
 21 C       10.4050     3.2110     0.5260 C.ar  1 <1>   0.0000 
 22 C       10.7680     3.7570     1.7550 C.ar  1 <1>  -0.1500 
 23 C       10.7670     3.9010    -0.6280 C.ar  1 <1>  -0.1500 
 24 C       11.4650     4.9490     1.8300 C.ar  1 <1>  -0.1500 
 25 C       11.4650     5.0930    -0.5590 C.ar  1 <1>  -0.1500 
 26 C       11.8150     5.6200     0.6710 C.ar  1 <1>  -0.1500 
 27 H        3.3150    -2.9730    -1.2030 H     1 <1>   0.0800 
 28 H        0.3070    -2.8230     0.8830 H     1 <1>   0.0800 
 29 H        1.5770    -3.5460    -0.0440 H     1 <1>   0.0800 
 30 H        2.3920    -0.5840     2.5320 H     1 <1>   0.0800 
 31 H        0.9720    -1.5790     2.5490 H     1 <1>   0.0800 
 32 H        5.6080    -3.4260    -1.2100 H     1 <1>   0.0800 
 33 H        5.2300    -3.0540     0.4610 H     1 <1>   0.0800 
 34 H        3.8390    -0.1610    -1.8880 H     1 <1>   0.0800 
 35 H        3.2110    -1.4270    -2.8890 H     1 <1>   0.0800 
 36 H       -0.1000    -1.1620    -0.9190 H     1 <1>   0.0800 
 37 H       -0.2970    -2.7980    -1.4760 H     1 <1>   0.0800 
 38 H        1.1430    -1.9160    -1.8890 H     1 <1>   0.0800 
 39 H        1.2810     0.9470     0.8920 H     1 <1>   0.0800 
 40 H        0.4620     0.8610     2.4290 H     1 <1>   0.0800 
 41 H       -0.1920     0.0030     1.0650 H     1 <1>   0.0800 
 42 H        5.7640    -0.7530    -0.0860 H     1 <1>   0.4500 
 43 H        5.3950    -0.5620    -3.7110 H     1 <1>   0.0800 
 44 H        5.4700    -2.2490    -3.3430 H     1 <1>   0.0800 
 45 H        7.4240    -1.4860    -2.3590 H     1 <1>   0.0800 
 46 H        6.7340     0.0480    -1.9040 H     1 <1>   0.0800 
 47 H        8.1010    -2.5140    -0.2380 H     1 <1>   0.0800 
 48 H        7.2290    -2.0770     1.2170 H     1 <1>   0.0800 
 49 H        6.7890     0.5570     1.5100 H     1 <1>   0.1500 
 50 H        9.9340    -1.1420    -0.8540 H     1 <1>   0.1500 
 51 H        8.0280     2.6540     1.6150 H     1 <1>   0.1500 
 52 H       11.1500     0.9680    -0.7180 H     1 <1>   0.1500 
 53 H       10.5040     3.2390     2.6590 H     1 <1>   0.1500 
 54 H       10.4950     3.5000    -1.5870 H     1 <1>   0.1500 
 55 H       11.7380     5.3560     2.7880 H     1 <1>   0.1500 
 56 H       11.7360     5.6130    -1.4620 H     1 <1>   0.1500 
 57 H       12.3580     6.5470     0.7270 H     1 <1>   0.1500 
@<TRIPOS>BOND
  1   1   2  2   
  2   2   3  am  
  3   2   4  1   
  4   3   5  1   
  5   3   6  1   
  6   4   7  1   
  7   4   8  1   
  8   4  27  1   
  9   5   9  1   
 10   5  28  1   
 11   5  29  1   
 12   6  10  1   
 13   6  30  1   
 14   6  31  1   
 15   7  11  1   
 16   7  32  1   
 17   7  33  1   
 18   8  12  1   
 19   8  34  1   
 20   8  35  1   
 21   9  36  1   
 22   9  37  1   
 23   9  38  1   
 24  10  39  1   
 25  10  40  1   
 26  10  41  1   
 27  11  13  1   
 28  11  14  1   
 29  11  42  1   
 30  12  13  1   
 31  12  43  1   
 32  12  44  1   
 33  13  45  1   
 34  13  46  1   
 35  14  15  1   
 36  14  47  1   
 37  14  48  1   
 38  15  16  ar  
 39  15  17  ar  
 40  16  18  ar  
 41  16  49  1   
 42  17  19  ar  
 43  17  50  1   
 44  18  20  ar  
 45  18  51  1   
 46  19  20  ar  
 47  19  52  1   
 48  20  21  1   
 49  21  22  ar  
 50  21  23  ar  
 51  22  24  ar  
 52  22  53  1   
 53  23  25  ar  
 54  23  54  1   
 55  24  26  ar  
 56  24  55  1   
 57  25  26  ar  
 58  25  56  1   
 59  26  57  1   
@<TRIPOS>SUBSTRUCTURE
  1 ****  16 GROUP 4 **** **** 0

# MOE 2024.06 (io_trps.svl 2023.06)
