@<TRIPOS>MOLECULE
NONAME
47 48 1 0 0 
SMALL
USER_CHARGES


@<TRIPOS>ATOM
  1 S        3.6520    -5.2900    -0.4910 S.3   1 <1>  -0.3320 
  2 C        5.1820    -4.3960    -0.1580 C.ar  1 <1>   0.1020 
  3 C        2.2690    -4.1390    -0.1050 C.3   1 <1>   0.0700 
  4 C        6.3640    -5.0540    -0.4390 C.ar  1 <1>  -0.1500 
  5 C        5.1920    -3.1080     0.3560 C.ar  1 <1>  -0.1500 
  6 C        0.9750    -4.8910    -0.4300 C.3   1 <1>   0.3430 
  7 C        7.5720    -4.4200    -0.2070 C.ar  1 <1>  -0.1500 
  8 C        6.4050    -2.4810     0.5840 C.ar  1 <1>  -0.1500 
  9 N       -0.2540    -4.0790    -0.1480 N.4   1 <1>  -0.9590 
 10 C        7.5980    -3.1320     0.3060 C.ar  1 <1>  -0.1430 
 11 C       -1.4650    -4.9630    -0.2320 C.3   1 <1>   0.3430 
 12 C       -0.3750    -2.9070    -1.0700 C.3   1 <1>   0.3430 
 13 C        8.9240    -2.4390     0.5580 C.3   1 <1>  -0.0970 
 14 C       -2.7490    -4.2010     0.1180 C.3   1 <1>  -0.0190 
 15 C       -1.6170    -2.0890    -0.7080 C.3   1 <1>  -0.1600 
 16 C       -3.9310    -5.1390    -0.0540 C.2   1 <1>   0.6590 
 17 C       -2.8950    -2.9390    -0.7540 C.3   1 <1>  -0.1600 
 18 O       -3.8080    -6.2000    -0.6060 O.2   1 <1>  -0.5700 
 19 O       -5.0820    -4.7160     0.4420 O.3   1 <1>  -0.4300 
 20 C       -6.2580    -5.4880     0.3440 C.3   1 <1>   0.1200 
 21 C       -7.3910    -4.7100     1.0040 C.3   1 <1>  -0.2400 
 22 H        2.4070    -3.2720    -0.7240 H     1 <1>   0.0800 
 23 H        2.3430    -3.8970     0.9400 H     1 <1>   0.0800 
 24 H        6.3410    -6.0530    -0.8360 H     1 <1>   0.1500 
 25 H        4.2890    -2.5820     0.5830 H     1 <1>   0.1500 
 26 H        0.9540    -5.7920     0.1620 H     1 <1>   0.0800 
 27 H        0.9890    -5.1810    -1.4690 H     1 <1>   0.0800 
 28 H        8.4920    -4.9330    -0.4290 H     1 <1>   0.1500 
 29 H        6.4220    -1.4810     0.9810 H     1 <1>   0.1500 
 30 H       -0.1970    -3.7220     0.8160 H     1 <1>   0.4500 
 31 H       -1.3600    -5.8010     0.4400 H     1 <1>   0.0800 
 32 H       -1.5570    -5.3570    -1.2320 H     1 <1>   0.0800 
 33 H       -0.4580    -3.2510    -2.0890 H     1 <1>   0.0800 
 34 H        0.4980    -2.2790    -0.9960 H     1 <1>   0.0800 
 35 H        9.6840    -3.1580     0.8030 H     1 <1>   0.0800 
 36 H        8.8390    -1.7460     1.3750 H     1 <1>   0.0800 
 37 H        9.2270    -1.9020    -0.3230 H     1 <1>   0.0800 
 38 H       -2.7130    -3.9200     1.1540 H     1 <1>   0.0800 
 39 H       -1.7120    -1.2720    -1.4040 H     1 <1>   0.0800 
 40 H       -1.4930    -1.6600     0.2710 H     1 <1>   0.0800 
 41 H       -3.7340    -2.3540    -0.4130 H     1 <1>   0.0800 
 42 H       -3.0940    -3.2280    -1.7740 H     1 <1>   0.0800 
 43 H       -6.0940    -6.4290     0.8430 H     1 <1>   0.0800 
 44 H       -6.4670    -5.6640    -0.6980 H     1 <1>   0.0800 
 45 H       -7.1670    -4.5330     2.0410 H     1 <1>   0.0800 
 46 H       -8.3020    -5.2770     0.9430 H     1 <1>   0.0800 
 47 H       -7.5400    -3.7710     0.5020 H     1 <1>   0.0800 
@<TRIPOS>BOND
  1   1   2  1   
  2   1   3  1   
  3   2   4  ar  
  4   2   5  ar  
  5   3   6  1   
  6   3  22  1   
  7   3  23  1   
  8   4   7  ar  
  9   4  24  1   
 10   5   8  ar  
 11   5  25  1   
 12   6   9  1   
 13   6  26  1   
 14   6  27  1   
 15   7  10  ar  
 16   7  28  1   
 17   8  10  ar  
 18   8  29  1   
 19   9  11  1   
 20   9  12  1   
 21   9  30  1   
 22  10  13  1   
 23  11  14  1   
 24  11  31  1   
 25  11  32  1   
 26  12  15  1   
 27  12  33  1   
 28  12  34  1   
 29  13  35  1   
 30  13  36  1   
 31  13  37  1   
 32  14  16  1   
 33  14  17  1   
 34  14  38  1   
 35  15  17  1   
 36  15  39  1   
 37  15  40  1   
 38  16  18  2   
 39  16  19  1   
 40  17  41  1   
 41  17  42  1   
 42  19  20  1   
 43  20  21  1   
 44  20  43  1   
 45  20  44  1   
 46  21  45  1   
 47  21  46  1   
 48  21  47  1   
@<TRIPOS>SUBSTRUCTURE
  1 ****   6 GROUP 4 **** **** 0

# MOE 2024.06 (io_trps.svl 2023.06)
