@<TRIPOS>MOLECULE
NONAME
54 57 1 0 0 
SMALL
USER_CHARGES


@<TRIPOS>ATOM
  1 O       -1.2750     4.0410    -0.6630 O.2   1 <1>  -0.5700 
  2 C       -1.4950     2.8660    -0.4350 C.2   1 <1>   0.5440 
  3 N       -0.5000     2.1230     0.1450 N.am  1 <1>  -0.5390 
  4 C       -2.7860     2.2780    -0.7590 C.ar  1 <1>   0.0860 
  5 C        0.8760     2.4030     0.2230 C.2   1 <1>   0.1230 
  6 C       -3.3180     1.1390    -0.1230 C.ar  1 <1>   0.0830 
  7 C       -3.5570     2.8690    -1.7650 C.ar  1 <1>  -0.1500 
  8 C        1.5290     2.9530    -0.9580 C.2   1 <1>   0.6160 
  9 C        1.5140     2.1360     1.3940 C.2   1 <1>  -0.1780 
 10 O       -2.6040     0.5470     0.8710 O.3   1 <1>  -0.3630 
 11 C       -4.5610     0.6370    -0.5090 C.ar  1 <1>  -0.1500 
 12 C       -4.7880     2.3680    -2.1380 C.ar  1 <1>  -0.1500 
 13 O        1.6640     2.2430    -1.9420 O.2   1 <1>  -0.5700 
 14 N        2.0480     4.2320    -0.9800 N.am  1 <1>  -0.6600 
 15 C        2.9010     2.2940     1.7310 C.ar  1 <1>   0.0280 
 16 C       -3.0770    -0.5650     1.6030 C.3   1 <1>   0.0400 
 17 C       -5.2920     1.2470    -1.5090 C.ar  1 <1>  -0.1500 
 18 C        2.9240     4.7180    -2.0780 C.3   1 <1>   0.1400 
 19 C        1.6640     5.2740     0.0090 C.3   1 <1>   0.1400 
 20 C        3.2470     2.7010     3.0240 C.ar  1 <1>  -0.1500 
 21 C        3.9370     2.0550     0.8130 C.ar  1 <1>  -0.1500 
 22 C        4.1980     5.3270    -1.4810 C.3   1 <1>  -0.1600 
 23 C        2.9260     5.8890     0.6250 C.3   1 <1>  -0.1600 
 24 C        4.5770     2.8710     3.3420 C.ar  1 <1>   0.0830 
 25 C        5.2710     2.2320     1.1470 C.ar  1 <1>  -0.1500 
 26 C        3.8780     6.4240    -0.4550 C.3   1 <1>  -0.1600 
 27 O        5.1080     3.2590     4.5070 O.3   1 <1>  -0.3620 
 28 C        5.5660     2.6470     2.4290 C.ar  1 <1>   0.0830 
 29 C        6.5230     3.2820     4.3240 C.3   1 <1>   0.4000 
 30 O        6.7610     2.8840     2.9750 O.3   1 <1>  -0.3620 
 31 H       -0.8250     1.2380     0.5430 H     1 <1>   0.3700 
 32 H       -3.1760     3.7430    -2.2660 H     1 <1>   0.1500 
 33 H        0.9200     1.7750     2.2130 H     1 <1>   0.1500 
 34 H       -4.9850    -0.2310    -0.0420 H     1 <1>   0.1500 
 35 H       -5.3530     2.8500    -2.9180 H     1 <1>   0.1500 
 36 H       -2.3380    -0.8210     2.3410 H     1 <1>   0.0800 
 37 H       -3.2210    -1.3920     0.9300 H     1 <1>   0.0800 
 38 H       -3.9990    -0.2980     2.0900 H     1 <1>   0.0800 
 39 H       -6.2510     0.8530    -1.8000 H     1 <1>   0.1500 
 40 H        3.1870     3.9100    -2.7400 H     1 <1>   0.0800 
 41 H        2.3890     5.4580    -2.6470 H     1 <1>   0.0800 
 42 H        1.0940     6.0350    -0.4970 H     1 <1>   0.0800 
 43 H        1.0410     4.8640     0.7840 H     1 <1>   0.0800 
 44 H        2.4940     2.8890     3.7650 H     1 <1>   0.1500 
 45 H        3.6970     1.7210    -0.1810 H     1 <1>   0.1500 
 46 H        4.7640     4.5430    -1.0080 H     1 <1>   0.0800 
 47 H        4.8000     5.7350    -2.2730 H     1 <1>   0.0800 
 48 H        2.6440     6.6880     1.2870 H     1 <1>   0.0800 
 49 H        3.4280     5.1400     1.2100 H     1 <1>   0.0800 
 50 H        6.0590     2.0530     0.4390 H     1 <1>   0.1500 
 51 H        3.4160     7.2570    -0.9570 H     1 <1>   0.0800 
 52 H        4.7880     6.7710     0.0030 H     1 <1>   0.0800 
 53 H        6.8910     4.2810     4.4750 H     1 <1>   0.0800 
 54 H        6.9850     2.5790     4.9940 H     1 <1>   0.0800 
@<TRIPOS>BOND
  1   1   2  2   
  2   2   3  am  
  3   2   4  1   
  4   3   5  1   
  5   3  31  1   
  6   4   6  ar  
  7   4   7  ar  
  8   5   8  1   
  9   5   9  2   
 10   6  10  1   
 11   6  11  ar  
 12   7  12  ar  
 13   7  32  1   
 14   8  13  2   
 15   8  14  am  
 16   9  15  1   
 17   9  33  1   
 18  10  16  1   
 19  11  17  ar  
 20  11  34  1   
 21  12  17  ar  
 22  12  35  1   
 23  14  18  1   
 24  14  19  1   
 25  15  20  ar  
 26  15  21  ar  
 27  16  36  1   
 28  16  37  1   
 29  16  38  1   
 30  17  39  1   
 31  18  22  1   
 32  18  40  1   
 33  18  41  1   
 34  19  23  1   
 35  19  42  1   
 36  19  43  1   
 37  20  24  ar  
 38  20  44  1   
 39  21  25  ar  
 40  21  45  1   
 41  22  26  1   
 42  22  46  1   
 43  22  47  1   
 44  23  26  1   
 45  23  48  1   
 46  23  49  1   
 47  24  27  1   
 48  24  28  ar  
 49  25  28  ar  
 50  25  50  1   
 51  26  51  1   
 52  26  52  1   
 53  27  29  1   
 54  28  30  1   
 55  29  30  1   
 56  29  53  1   
 57  29  54  1   
@<TRIPOS>SUBSTRUCTURE
  1 ****   5 GROUP 4 **** **** 0

# MOE 2024.06 (io_trps.svl 2023.06)
