@<TRIPOS>MOLECULE
NONAME
41 43 1 0 0 
SMALL
USER_CHARGES


@<TRIPOS>ATOM
  1 CL       0.1290    -0.0150     0.2590 Cl    1 <1>  -0.1770 
  2 C        1.8490     0.2160     0.1030 C.ar  1 <1>   0.1770 
  3 C        2.3860     1.4760     0.2790 C.ar  1 <1>  -0.1500 
  4 C        2.6560    -0.8640    -0.2000 C.ar  1 <1>  -0.1500 
  5 C        3.7530     1.6510     0.1560 C.ar  1 <1>  -0.1500 
  6 C        4.0220    -0.6780    -0.3220 C.ar  1 <1>  -0.1500 
  7 C        4.6050     0.5820    -0.1370 C.ar  1 <1>   0.0860 
  8 C        6.0370     0.7890    -0.2430 C.2   1 <1>   0.5440 
  9 O        6.4730     1.8380    -0.6630 O.2   1 <1>  -0.5700 
 10 N        6.8960    -0.1980     0.1760 N.am  1 <1>  -0.4940 
 11 C        8.2640    -0.2920     0.0230 C.2   1 <1>   0.4420 
 12 S        9.0530    -1.5900     0.8620 S.3   1 <1>  -0.0800 
 13 N        9.0940     0.4140    -0.6560 N.2   1 <1>  -0.3380 
 14 C       10.5400    -1.0230     0.1870 C.2   1 <1>   0.1980 
 15 N       10.3890    -0.0070    -0.5570 N.2   1 <1>  -0.3380 
 16 C       11.8230    -1.7490     0.5260 C.3   1 <1>   0.0200 
 17 C       12.9950    -1.0000    -0.1180 C.3   1 <1>   0.3430 
 18 N       14.3230    -1.6140     0.1990 N.4   1 <1>  -0.9590 
 19 C       15.4570    -0.6980    -0.1670 C.3   1 <1>   0.3430 
 20 C       14.5480    -2.9720    -0.4130 C.3   1 <1>   0.3430 
 21 C       16.8240    -1.3240     0.1940 C.3   1 <1>   0.1200 
 22 C       15.9730    -3.4970    -0.1200 C.3   1 <1>   0.1200 
 23 O       16.6700    -2.6160     0.7190 O.3   1 <1>  -0.5600 
 24 H        1.7400     2.3060     0.5080 H     1 <1>   0.1500 
 25 H        2.2120    -1.8330    -0.3410 H     1 <1>   0.1500 
 26 H        4.1780     2.6330     0.2870 H     1 <1>   0.1500 
 27 H        4.6380    -1.5220    -0.5760 H     1 <1>   0.1500 
 28 H        6.4690    -0.9450     0.7130 H     1 <1>   0.3700 
 29 H       11.7560    -2.7520     0.1480 H     1 <1>   0.0800 
 30 H       11.9370    -1.7690     1.5940 H     1 <1>   0.0800 
 31 H       12.9780     0.0180     0.2390 H     1 <1>   0.0800 
 32 H       12.8510    -0.9680    -1.1860 H     1 <1>   0.0800 
 33 H       14.4250    -1.7510     1.2170 H     1 <1>   0.4500 
 34 H       15.3550     0.2430     0.3480 H     1 <1>   0.0800 
 35 H       15.4360    -0.4910    -1.2250 H     1 <1>   0.0800 
 36 H       14.4070    -2.9260    -1.4800 H     1 <1>   0.0800 
 37 H       13.8330    -3.6780    -0.0220 H     1 <1>   0.0800 
 38 H       17.3210    -0.7260     0.9380 H     1 <1>   0.0800 
 39 H       17.4610    -1.3770    -0.6730 H     1 <1>   0.0800 
 40 H       16.5320    -3.6190    -1.0320 H     1 <1>   0.0800 
 41 H       15.9240    -4.4530     0.3740 H     1 <1>   0.0800 
@<TRIPOS>BOND
  1   1   2  1   
  2   2   3  ar  
  3   2   4  ar  
  4   3   5  ar  
  5   3  24  1   
  6   4   6  ar  
  7   4  25  1   
  8   5   7  ar  
  9   5  26  1   
 10   6   7  ar  
 11   6  27  1   
 12   7   8  1   
 13   8   9  2   
 14   8  10  am  
 15  10  11  1   
 16  10  28  1   
 17  11  12  1   
 18  11  13  2   
 19  12  14  1   
 20  13  15  1   
 21  14  15  2   
 22  14  16  1   
 23  16  17  1   
 24  16  29  1   
 25  16  30  1   
 26  17  18  1   
 27  17  31  1   
 28  17  32  1   
 29  18  19  1   
 30  18  20  1   
 31  18  33  1   
 32  19  21  1   
 33  19  34  1   
 34  19  35  1   
 35  20  22  1   
 36  20  36  1   
 37  20  37  1   
 38  21  23  1   
 39  21  38  1   
 40  21  39  1   
 41  22  23  1   
 42  22  40  1   
 43  22  41  1   
@<TRIPOS>SUBSTRUCTURE
  1 ****  11 GROUP 4 **** **** 0

# MOE 2024.06 (io_trps.svl 2023.06)
