@<TRIPOS>MOLECULE
NONAME
52 54 1 0 0 
SMALL
USER_CHARGES


@<TRIPOS>ATOM
  1 O        1.7660     0.3700     2.0180 O.2   1 <1>  -0.5700 
  2 C        2.0520     0.9400     0.9950 C.2   1 <1>   0.6590 
  3 O        1.4880     2.0940     0.6590 O.3   1 <1>  -0.4300 
  4 C        3.0670     0.3920    -0.0070 C.3   1 <1>  -0.0190 
  5 C        0.5320     2.7130     1.4880 C.3   1 <1>   0.1200 
  6 C        3.4830    -1.0620     0.2850 C.3   1 <1>  -0.1600 
  7 C        4.3280     1.2700    -0.0720 C.3   1 <1>  -0.1600 
  8 C        0.0970     4.0130     0.8190 C.3   1 <1>  -0.2400 
  9 C        4.5240    -1.5550    -0.7200 C.3   1 <1>   0.1100 
 10 C        5.3540     0.7120    -1.0620 C.3   1 <1>   0.1100 
 11 N        5.7010    -0.6740    -0.7060 N.3   1 <1>  -0.8100 
 12 C        6.7750    -1.2360    -1.5670 C.3   1 <1>   0.2900 
 13 C        8.1280    -0.5340    -1.4530 C.2   1 <1>   0.2980 
 14 O        8.3240     0.5580    -2.1460 O.3   1 <1>  -0.0190 
 15 N        9.1240    -0.9250    -0.7660 N.2   1 <1>  -0.5650 
 16 N        9.5420     0.8990    -1.8650 N.2   1 <1>  -0.4100 
 17 C       10.0170     0.0300    -1.0450 C.2   1 <1>   0.4620 
 18 C       11.3530     0.0470    -0.4720 C.ar  1 <1>   0.0540 
 19 C       11.7550    -0.8900     0.4820 C.ar  1 <1>  -0.1500 
 20 C       12.2900     1.0070    -0.8550 C.ar  1 <1>  -0.1500 
 21 C       13.0320    -0.8790     1.0330 C.ar  1 <1>   0.0820 
 22 C       13.5650     1.0350    -0.3200 C.ar  1 <1>  -0.1500 
 23 O       13.4350    -1.7890     1.9670 O.3   1 <1>  -0.3620 
 24 C       13.9500     0.0940     0.6290 C.ar  1 <1>   0.0820 
 25 C       12.5630    -2.7800     2.4640 C.3   1 <1>   0.0400 
 26 O       15.1940     0.0800     1.1850 O.3   1 <1>  -0.3630 
 27 C       16.1810     1.0210     0.8310 C.3   1 <1>   0.0400 
 28 H        2.5930     0.4130    -0.9720 H     1 <1>   0.0800 
 29 H        0.9840     2.9030     2.4470 H     1 <1>   0.0800 
 30 H       -0.3010     2.0410     1.6080 H     1 <1>   0.0800 
 31 H        2.6190    -1.7010     0.2480 H     1 <1>   0.0800 
 32 H        3.8990    -1.1320     1.2760 H     1 <1>   0.0800 
 33 H        4.7830     1.3250     0.9020 H     1 <1>   0.0800 
 34 H        4.0620     2.2700    -0.3670 H     1 <1>   0.0800 
 35 H        0.9410     4.6680     0.6980 H     1 <1>   0.0800 
 36 H       -0.6350     4.5080     1.4320 H     1 <1>   0.0800 
 37 H       -0.3420     3.8080    -0.1410 H     1 <1>   0.0800 
 38 H        4.0960    -1.5820    -1.7090 H     1 <1>   0.0800 
 39 H        4.8190    -2.5550    -0.4480 H     1 <1>   0.0800 
 40 H        6.2310     1.3340    -1.0160 H     1 <1>   0.0800 
 41 H        4.9600     0.7490    -2.0640 H     1 <1>   0.0800 
 42 H        6.4600    -1.2210    -2.5950 H     1 <1>   0.0800 
 43 H        6.9320    -2.2630    -1.2870 H     1 <1>   0.0800 
 44 H       11.0410    -1.6310     0.7830 H     1 <1>   0.1500 
 45 H       12.0160     1.7460    -1.5880 H     1 <1>   0.1500 
 46 H       14.2410     1.7980    -0.6550 H     1 <1>   0.1500 
 47 H       13.0990    -3.3570     3.1960 H     1 <1>   0.0800 
 48 H       12.2560    -3.4140     1.6520 H     1 <1>   0.0800 
 49 H       11.7170    -2.3010     2.9250 H     1 <1>   0.0800 
 50 H       17.0670     0.8020     1.3990 H     1 <1>   0.0800 
 51 H       15.8250     2.0070     1.0730 H     1 <1>   0.0800 
 52 H       16.3890     0.9300    -0.2200 H     1 <1>   0.0800 
@<TRIPOS>BOND
  1   1   2  2   
  2   2   3  1   
  3   2   4  1   
  4   3   5  1   
  5   4   6  1   
  6   4   7  1   
  7   4  28  1   
  8   5   8  1   
  9   5  29  1   
 10   5  30  1   
 11   6   9  1   
 12   6  31  1   
 13   6  32  1   
 14   7  10  1   
 15   7  33  1   
 16   7  34  1   
 17   8  35  1   
 18   8  36  1   
 19   8  37  1   
 20   9  11  1   
 21   9  38  1   
 22   9  39  1   
 23  10  11  1   
 24  10  40  1   
 25  10  41  1   
 26  11  12  1   
 27  12  13  1   
 28  12  42  1   
 29  12  43  1   
 30  13  14  1   
 31  13  15  2   
 32  14  16  1   
 33  15  17  1   
 34  16  17  2   
 35  17  18  1   
 36  18  19  ar  
 37  18  20  ar  
 38  19  21  ar  
 39  19  44  1   
 40  20  22  ar  
 41  20  45  1   
 42  21  23  1   
 43  21  24  ar  
 44  22  24  ar  
 45  22  46  1   
 46  23  25  1   
 47  24  26  1   
 48  25  47  1   
 49  25  48  1   
 50  25  49  1   
 51  26  27  1   
 52  27  50  1   
 53  27  51  1   
 54  27  52  1   
@<TRIPOS>SUBSTRUCTURE
  1 ****  13 GROUP 4 **** **** 0

# MOE 2024.06 (io_trps.svl 2023.06)
