@<TRIPOS>MOLECULE
NONAME
39 40 1 0 0 
SMALL
USER_CHARGES


@<TRIPOS>ATOM
  1 CL      -0.2360     1.5380     2.8930 Cl    1 <1>  -0.1770 
  2 C       -1.0490     1.3920     1.3490 C.ar  1 <1>   0.1770 
  3 C       -0.4710     1.9220     0.2020 C.ar  1 <1>   0.0820 
  4 C       -2.2660     0.7340     1.3000 C.ar  1 <1>  -0.1500 
  5 O        0.7110     2.5800     0.2620 O.3   1 <1>  -0.3630 
  6 C       -1.1460     1.7770    -1.0030 C.ar  1 <1>   0.1770 
  7 C       -2.9270     0.5990     0.0880 C.ar  1 <1>  -0.1500 
  8 C        1.8660     1.8000     0.0900 C.3   1 <1>   0.1200 
  9 CL      -0.4590     2.4160    -2.4800 Cl    1 <1>  -0.1770 
 10 C       -2.3640     1.1220    -1.0670 C.ar  1 <1>  -0.1500 
 11 C        3.0710     2.7300     0.2320 C.3   1 <1>  -0.1600 
 12 C        4.3970     1.9760     0.0600 C.3   1 <1>  -0.1600 
 13 C        5.5770     2.9370     0.2220 C.3   1 <1>   0.3430 
 14 N        6.8680     2.1990     0.1540 N.4   1 <1>  -0.9590 
 15 C        7.9970     3.0630     0.6490 C.3   1 <1>   0.3430 
 16 C        7.1740     1.6970    -1.2340 C.3   1 <1>   0.3430 
 17 C        9.3610     2.3620     0.4890 C.3   1 <1>   0.1200 
 18 C        8.5750     1.0590    -1.3120 C.3   1 <1>   0.1200 
 19 O        9.5400     1.9510    -0.8350 O.3   1 <1>  -0.5600 
 20 H       -2.6910     0.3340     2.2040 H     1 <1>   0.1500 
 21 H       -3.8750     0.0890     0.0440 H     1 <1>   0.1500 
 22 H        1.8300     1.3510    -0.8880 H     1 <1>   0.0800 
 23 H        1.8740     1.0330     0.8470 H     1 <1>   0.0800 
 24 H       -2.8660     1.0240    -2.0140 H     1 <1>   0.1500 
 25 H        3.0350     3.1870     1.2070 H     1 <1>   0.0800 
 26 H        2.9930     3.5040    -0.5130 H     1 <1>   0.0800 
 27 H        4.4120     1.5270    -0.9170 H     1 <1>   0.0800 
 28 H        4.4550     1.2010     0.8060 H     1 <1>   0.0800 
 29 H        5.4910     3.4280     1.1790 H     1 <1>   0.0800 
 30 H        5.5410     3.6950    -0.5460 H     1 <1>   0.0800 
 31 H        6.8080     1.3840     0.7780 H     1 <1>   0.4500 
 32 H        7.8460     3.3110     1.6860 H     1 <1>   0.0800 
 33 H        8.0250     3.9830     0.0890 H     1 <1>   0.0800 
 34 H        7.1380     2.5160    -1.9340 H     1 <1>   0.0800 
 35 H        6.4390     0.9710    -1.5370 H     1 <1>   0.0800 
 36 H        9.4390     1.5040     1.1340 H     1 <1>   0.0800 
 37 H       10.1590     3.0440     0.7290 H     1 <1>   0.0800 
 38 H        8.8210     0.8280    -2.3340 H     1 <1>   0.0800 
 39 H        8.6240     0.1520    -0.7350 H     1 <1>   0.0800 
@<TRIPOS>BOND
  1   1   2  1   
  2   2   3  ar  
  3   2   4  ar  
  4   3   5  1   
  5   3   6  ar  
  6   4   7  ar  
  7   4  20  1   
  8   5   8  1   
  9   6   9  1   
 10   6  10  ar  
 11   7  10  ar  
 12   7  21  1   
 13   8  11  1   
 14   8  22  1   
 15   8  23  1   
 16  10  24  1   
 17  11  12  1   
 18  11  25  1   
 19  11  26  1   
 20  12  13  1   
 21  12  27  1   
 22  12  28  1   
 23  13  14  1   
 24  13  29  1   
 25  13  30  1   
 26  14  15  1   
 27  14  16  1   
 28  14  31  1   
 29  15  17  1   
 30  15  32  1   
 31  15  33  1   
 32  16  18  1   
 33  16  34  1   
 34  16  35  1   
 35  17  19  1   
 36  17  36  1   
 37  17  37  1   
 38  18  19  1   
 39  18  38  1   
 40  18  39  1   
@<TRIPOS>SUBSTRUCTURE
  1 ****  11 GROUP 4 **** **** 0

# MOE 2024.06 (io_trps.svl 2023.06)
