@<TRIPOS>MOLECULE
NONAME
37 39 1 0 0 
SMALL
USER_CHARGES


@<TRIPOS>ATOM
  1 CL       0.8130    -0.7010    -1.8010 Cl    1 <1>  -0.1770 
  2 C        2.3880    -0.4120    -1.1100 C.ar  1 <1>   0.1770 
  3 C        3.1790     0.6010    -1.6150 C.ar  1 <1>  -0.1500 
  4 C        2.8280    -1.2000    -0.0640 C.ar  1 <1>  -0.1500 
  5 C        4.4280     0.8260    -1.0620 C.ar  1 <1>  -0.1500 
  6 C        4.0790    -0.9660     0.4800 C.ar  1 <1>  -0.1500 
  7 C        4.9110     0.0500    -0.0030 C.ar  1 <1>   0.0540 
  8 C        6.2240     0.2850     0.5770 C.2   1 <1>   0.4620 
  9 N        6.7440    -0.3770     1.5500 N.2   1 <1>  -0.4100 
 10 N        7.0460     1.2430     0.1380 N.2   1 <1>  -0.5650 
 11 O        7.9160     0.1200     1.7880 O.3   1 <1>  -0.0190 
 12 C        8.0370     1.0830     0.9120 C.2   1 <1>   0.2980 
 13 C        9.3180     1.8930     0.8920 C.3   1 <1>   0.0200 
 14 C       10.4880     1.0590     0.3480 C.3   1 <1>  -0.0990 
 15 C       11.8030     1.8200     0.3100 C.2   1 <1>   0.5690 
 16 O       11.8330     2.9600     0.7110 O.2   1 <1>  -0.5700 
 17 N       12.9220     1.2010    -0.1690 N.am  1 <1>  -0.6600 
 18 C       13.0150    -0.1870    -0.6750 C.3   1 <1>   0.1400 
 19 C       14.2380     1.8730    -0.2120 C.3   1 <1>   0.1400 
 20 C       14.4180    -0.2930    -1.2620 C.3   1 <1>  -0.1600 
 21 C       15.2330     0.7580    -0.5130 C.3   1 <1>  -0.1600 
 22 H        2.8180     1.2040    -2.4290 H     1 <1>   0.1500 
 23 H        2.1980    -1.9840     0.3150 H     1 <1>   0.1500 
 24 H        5.0400     1.6170    -1.4590 H     1 <1>   0.1500 
 25 H        4.4180    -1.5820     1.2960 H     1 <1>   0.1500 
 26 H        9.5350     2.2310     1.8900 H     1 <1>   0.0800 
 27 H        9.1750     2.7600     0.2710 H     1 <1>   0.0800 
 28 H       10.2500     0.7390    -0.6490 H     1 <1>   0.0800 
 29 H       10.6200     0.1890     0.9640 H     1 <1>   0.0800 
 30 H       12.2640    -0.3830    -1.4210 H     1 <1>   0.0800 
 31 H       12.9040    -0.8710     0.1490 H     1 <1>   0.0800 
 32 H       14.4520     2.3590     0.7250 H     1 <1>   0.0800 
 33 H       14.2320     2.6030    -1.0030 H     1 <1>   0.0800 
 34 H       14.3780    -0.0440    -2.3090 H     1 <1>   0.0800 
 35 H       14.8250    -1.2820    -1.1530 H     1 <1>   0.0800 
 36 H       15.5910     0.3510     0.4170 H     1 <1>   0.0800 
 37 H       16.0710     1.1150    -1.0850 H     1 <1>   0.0800 
@<TRIPOS>BOND
  1   1   2  1   
  2   2   3  ar  
  3   2   4  ar  
  4   3   5  ar  
  5   3  22  1   
  6   4   6  ar  
  7   4  23  1   
  8   5   7  ar  
  9   5  24  1   
 10   6   7  ar  
 11   6  25  1   
 12   7   8  1   
 13   8   9  2   
 14   8  10  1   
 15   9  11  1   
 16  10  12  2   
 17  11  12  1   
 18  12  13  1   
 19  13  14  1   
 20  13  26  1   
 21  13  27  1   
 22  14  15  1   
 23  14  28  1   
 24  14  29  1   
 25  15  16  2   
 26  15  17  am  
 27  17  18  1   
 28  17  19  1   
 29  18  20  1   
 30  18  30  1   
 31  18  31  1   
 32  19  21  1   
 33  19  32  1   
 34  19  33  1   
 35  20  21  1   
 36  20  34  1   
 37  20  35  1   
 38  21  36  1   
 39  21  37  1   
@<TRIPOS>SUBSTRUCTURE
  1 ****  12 GROUP 4 **** **** 0

# MOE 2024.06 (io_trps.svl 2023.06)
