@<TRIPOS>MOLECULE
NONAME
46 47 1 0 0 
SMALL
USER_CHARGES


@<TRIPOS>ATOM
  1 O       -0.0240    -0.2690     0.1270 O.2   1 <1>  -0.5700 
  2 C       -0.1100    -1.4710    -0.0400 C.2   1 <1>   0.5440 
  3 N        1.0490    -2.2170    -0.0550 N.am  1 <1>  -0.6600 
  4 C       -1.4160    -2.0790    -0.2000 C.ar  1 <1>   0.0860 
  5 C        1.0810    -3.7000     0.1300 C.3   1 <1>   0.1400 
  6 C        2.3870    -1.5530    -0.0220 C.3   1 <1>   0.1400 
  7 C       -2.4480    -1.7970     0.6960 C.ar  1 <1>  -0.1500 
  8 C       -1.6970    -2.9590    -1.2460 C.ar  1 <1>  -0.1500 
  9 C        2.3720    -4.1430     0.8490 C.3   1 <1>   0.2000 
 10 C        3.5000    -2.5030    -0.5160 C.3   1 <1>   0.2000 
 11 C       -3.6970    -2.3790     0.5720 C.ar  1 <1>  -0.1500 
 12 C       -2.9410    -3.5460    -1.3770 C.ar  1 <1>  -0.1500 
 13 O        3.5220    -3.7360     0.1580 O.3   1 <1>  -0.5600 
 14 C        2.4590    -5.6600     0.9940 C.3   1 <1>  -0.2400 
 15 C        4.8890    -1.8900    -0.3570 C.3   1 <1>  -0.2400 
 16 C       -3.9500    -3.2670    -0.4700 C.ar  1 <1>   0.0830 
 17 O       -5.1350    -3.8840    -0.6640 O.3   1 <1>  -0.3630 
 18 C       -6.2420    -3.6560     0.1820 C.3   1 <1>   0.1200 
 19 C       -7.4310    -4.5070    -0.2900 C.3   1 <1>  -0.0800 
 20 C       -8.6680    -4.2080     0.5650 C.3   1 <1>  -0.2400 
 21 C       -7.1130    -6.0090    -0.2340 C.3   1 <1>  -0.2400 
 22 H        1.0300    -4.1820    -0.8300 H     1 <1>   0.0800 
 23 H        0.2320    -4.0120     0.7120 H     1 <1>   0.0800 
 24 H        2.6000    -1.2370     0.9840 H     1 <1>   0.0800 
 25 H        2.3660    -0.6760    -0.6450 H     1 <1>   0.0800 
 26 H       -2.2560    -1.1050     1.4980 H     1 <1>   0.1500 
 27 H       -0.9280    -3.1760    -1.9670 H     1 <1>   0.1500 
 28 H        2.4050    -3.6900     1.8250 H     1 <1>   0.0800 
 29 H        3.3270    -2.7170    -1.5560 H     1 <1>   0.0800 
 30 H       -4.4560    -2.1300     1.2890 H     1 <1>   0.1500 
 31 H       -3.1440    -4.2250    -2.1870 H     1 <1>   0.1500 
 32 H        2.4620    -6.1280     0.0260 H     1 <1>   0.0800 
 33 H        1.6190    -6.0270     1.5550 H     1 <1>   0.0800 
 34 H        3.3600    -5.9230     1.5180 H     1 <1>   0.0800 
 35 H        5.0940    -1.6970     0.6810 H     1 <1>   0.0800 
 36 H        4.9490    -0.9650    -0.9000 H     1 <1>   0.0800 
 37 H        5.6310    -2.5630    -0.7460 H     1 <1>   0.0800 
 38 H       -6.4870    -2.6090     0.1350 H     1 <1>   0.0800 
 39 H       -5.9620    -3.9240     1.1860 H     1 <1>   0.0800 
 40 H       -7.6530    -4.2350    -1.3090 H     1 <1>   0.0800 
 41 H       -8.4910    -4.4650     1.5950 H     1 <1>   0.0800 
 42 H       -9.5110    -4.7760     0.2110 H     1 <1>   0.0800 
 43 H       -8.9200    -3.1630     0.5080 H     1 <1>   0.0800 
 44 H       -6.8740    -6.3100     0.7700 H     1 <1>   0.0800 
 45 H       -6.2750    -6.2380    -0.8680 H     1 <1>   0.0800 
 46 H       -7.9570    -6.5820    -0.5750 H     1 <1>   0.0800 
@<TRIPOS>BOND
  1   1   2  2   
  2   2   3  am  
  3   2   4  1   
  4   3   5  1   
  5   3   6  1   
  6   4   7  ar  
  7   4   8  ar  
  8   5   9  1   
  9   5  22  1   
 10   5  23  1   
 11   6  10  1   
 12   6  24  1   
 13   6  25  1   
 14   7  11  ar  
 15   7  26  1   
 16   8  12  ar  
 17   8  27  1   
 18   9  13  1   
 19   9  14  1   
 20   9  28  1   
 21  10  13  1   
 22  10  15  1   
 23  10  29  1   
 24  11  16  ar  
 25  11  30  1   
 26  12  16  ar  
 27  12  31  1   
 28  14  32  1   
 29  14  33  1   
 30  14  34  1   
 31  15  35  1   
 32  15  36  1   
 33  15  37  1   
 34  16  17  1   
 35  17  18  1   
 36  18  19  1   
 37  18  38  1   
 38  18  39  1   
 39  19  20  1   
 40  19  21  1   
 41  19  40  1   
 42  20  41  1   
 43  20  42  1   
 44  20  43  1   
 45  21  44  1   
 46  21  45  1   
 47  21  46  1   
@<TRIPOS>SUBSTRUCTURE
  1 ****   4 GROUP 4 **** **** 0

# MOE 2024.06 (io_trps.svl 2023.06)
