@<TRIPOS>MOLECULE
NONAME
60 61 1 0 0 
SMALL
USER_CHARGES


@<TRIPOS>ATOM
  1 O       -5.4960    -3.5750     0.1650 O.2   1 <1>  -0.5700 
  2 C       -4.4420    -3.2540     0.6530 C.2   1 <1>   0.5690 
  3 N       -3.3720    -4.1240     0.7100 N.am  1 <1>  -0.5470 
  4 C       -4.3320    -1.8140     1.1860 C.3   1 <1>   0.4040 
  5 C       -3.3420    -5.4260     0.2350 C.ar  1 <1>   0.1170 
  6 N       -5.6710    -1.1160     1.2110 N.4   1 <1>  -0.9060 
  7 C       -4.2810    -6.4240     0.6680 C.ar  1 <1>   0.0000 
  8 C       -2.3980    -5.7760    -0.6990 C.ar  1 <1>  -0.1500 
  9 C       -5.7050     0.3450     1.2950 C.3   1 <1>   0.5030 
 10 C       -4.2490    -7.6810     0.0380 C.ar  1 <1>   0.3610 
 11 C       -5.2200    -6.2430     1.6990 C.ar  1 <1>  -0.1500 
 12 C       -2.3530    -7.0450    -1.2980 C.ar  1 <1>   0.4610 
 13 C       -5.0380     0.9980     0.0570 C.3   1 <1>  -0.1600 
 14 C       -7.1740     0.7220     1.4640 C.3   1 <1>  -0.2400 
 15 C       -4.9520     0.7660     2.5610 C.3   1 <1>  -0.2400 
 16 N       -3.2900    -7.9240    -0.9240 N.ar  1 <1>  -0.1790 
 17 C       -5.1580    -8.6800     0.4020 C.ar  1 <1>  -0.1500 
 18 C       -6.1010    -7.2350     2.0530 C.ar  1 <1>  -0.1500 
 19 N       -1.4270    -7.4190    -2.2210 N.pl3 1 <1>  -0.8380 
 20 C       -5.6060     0.8580    -1.3880 C.3   1 <1>   0.0000 
 21 C       -6.0780    -8.4610     1.3980 C.ar  1 <1>  -0.1500 
 22 C       -0.1900    -6.6190    -2.5050 C.3   1 <1>   0.1290 
 23 C       -1.5050    -8.6290    -3.1060 C.3   1 <1>   0.1290 
 24 C       -4.4830     1.2630    -2.3600 C.3   1 <1>  -0.2400 
 25 C       -6.7750     1.8260    -1.6380 C.3   1 <1>  -0.2400 
 26 C       -6.0490    -0.5640    -1.7700 C.3   1 <1>  -0.2400 
 27 H       -2.4660    -3.7320     0.9820 H     1 <1>   0.3700 
 28 H       -3.6580    -1.2790     0.5410 H     1 <1>   0.0800 
 29 H       -3.9130    -1.8320     2.1770 H     1 <1>   0.0800 
 30 H       -6.2570    -1.5080     1.9540 H     1 <1>   0.4500 
 31 H       -6.1520    -1.3860     0.3400 H     1 <1>   0.4500 
 32 H       -1.6830    -5.0420    -1.0160 H     1 <1>   0.1500 
 33 H       -5.2610    -5.3100     2.2290 H     1 <1>   0.1500 
 34 H       -4.0120     0.6800     0.0410 H     1 <1>   0.0800 
 35 H       -4.9860     2.0540     0.2590 H     1 <1>   0.0800 
 36 H       -7.5510     0.3970     2.4180 H     1 <1>   0.0800 
 37 H       -7.7870     0.2880     0.6970 H     1 <1>   0.0800 
 38 H       -7.2850     1.7910     1.4210 H     1 <1>   0.0800 
 39 H       -5.3410     0.2680     3.4330 H     1 <1>   0.0800 
 40 H       -5.0700     1.8250     2.7150 H     1 <1>   0.0800 
 41 H       -3.8980     0.5740     2.4840 H     1 <1>   0.0800 
 42 H       -3.2430    -8.8430    -1.3490 H     1 <1>   0.4570 
 43 H       -5.1450    -9.6360    -0.0930 H     1 <1>   0.1500 
 44 H       -6.8200    -7.0750     2.8410 H     1 <1>   0.1500 
 45 H       -6.7820    -9.2270     1.6850 H     1 <1>   0.1500 
 46 H        0.1390    -6.0880    -1.6290 H     1 <1>   0.0800 
 47 H       -0.3820    -5.9150    -3.2980 H     1 <1>   0.0800 
 48 H        0.6140    -7.2680    -2.8100 H     1 <1>   0.0800 
 49 H       -2.5060    -9.0170    -3.1680 H     1 <1>   0.0800 
 50 H       -0.8450    -9.3980    -2.7380 H     1 <1>   0.0800 
 51 H       -1.1980    -8.3700    -4.1060 H     1 <1>   0.0800 
 52 H       -3.6420     0.5960    -2.2840 H     1 <1>   0.0800 
 53 H       -4.1430     2.2630    -2.1550 H     1 <1>   0.0800 
 54 H       -4.8300     1.2370    -3.3790 H     1 <1>   0.0800 
 55 H       -6.5010     2.8350    -1.3810 H     1 <1>   0.0800 
 56 H       -7.6540     1.5620    -1.0850 H     1 <1>   0.0800 
 57 H       -7.0470     1.8210    -2.6800 H     1 <1>   0.0800 
 58 H       -5.2550    -1.2730    -1.6230 H     1 <1>   0.0800 
 59 H       -6.3140    -0.5940    -2.8140 H     1 <1>   0.0800 
 60 H       -6.9220    -0.8700    -1.2240 H     1 <1>   0.0800 
@<TRIPOS>BOND
  1   1   2  2   
  2   2   3  am  
  3   2   4  1   
  4   3   5  1   
  5   3  27  1   
  6   4   6  1   
  7   4  28  1   
  8   4  29  1   
  9   5   7  ar  
 10   5   8  ar  
 11   6   9  1   
 12   6  30  1   
 13   6  31  1   
 14   7  10  ar  
 15   7  11  ar  
 16   8  12  ar  
 17   8  32  1   
 18   9  13  1   
 19   9  14  1   
 20   9  15  1   
 21  10  16  ar  
 22  10  17  ar  
 23  11  18  ar  
 24  11  33  1   
 25  12  16  ar  
 26  12  19  1   
 27  13  20  1   
 28  13  34  1   
 29  13  35  1   
 30  14  36  1   
 31  14  37  1   
 32  14  38  1   
 33  15  39  1   
 34  15  40  1   
 35  15  41  1   
 36  16  42  1   
 37  17  21  ar  
 38  17  43  1   
 39  18  21  ar  
 40  18  44  1   
 41  19  22  1   
 42  19  23  1   
 43  20  24  1   
 44  20  25  1   
 45  20  26  1   
 46  21  45  1   
 47  22  46  1   
 48  22  47  1   
 49  22  48  1   
 50  23  49  1   
 51  23  50  1   
 52  23  51  1   
 53  24  52  1   
 54  24  53  1   
 55  24  54  1   
 56  25  55  1   
 57  25  56  1   
 58  25  57  1   
 59  26  58  1   
 60  26  59  1   
 61  26  60  1   
@<TRIPOS>SUBSTRUCTURE
  1 ****   2 GROUP 4 **** **** 0

# MOE 2024.06 (io_trps.svl 2023.06)
