@<TRIPOS>MOLECULE
NONAME
29 30 1 0 0 
SMALL
USER_CHARGES


@<TRIPOS>ATOM
  1 O       -0.7100     2.1790    -2.5660 O.2   1 <1>  -0.5700 
  2 C       -0.1630     2.0410    -1.4960 C.2   1 <1>   0.5690 
  3 N       -0.7990     1.5710    -0.3920 N.am  1 <1>  -0.5790 
  4 C        1.3170     2.4030    -1.3550 C.3   1 <1>   0.1710 
  5 C       -2.1980     1.1450    -0.2890 C.3   1 <1>   0.0490 
  6 N        2.0100     1.6840    -0.2470 N.3   1 <1>  -0.8100 
  7 C       -2.9000     1.3490     1.0110 C.3   1 <1>  -0.2000 
  8 C       -2.5090    -0.0310     0.5750 C.3   1 <1>  -0.2000 
  9 C        3.2770     2.3440     0.1440 C.3   1 <1>   0.1100 
 10 C        2.2370     0.2590    -0.5520 C.3   1 <1>   0.1100 
 11 C        4.2980     1.3880     0.8040 C.3   1 <1>   0.1200 
 12 C        2.8590    -0.4800     0.6560 C.3   1 <1>   0.1200 
 13 O        3.6550     0.3420     1.4710 O.3   1 <1>  -0.5600 
 14 H       -0.2090     1.4510     0.4380 H     1 <1>   0.3700 
 15 H        1.3630     3.4620    -1.1710 H     1 <1>   0.0800 
 16 H        1.8140     2.2070    -2.2880 H     1 <1>   0.0800 
 17 H       -2.7520     1.2790    -1.2060 H     1 <1>   0.1000 
 18 H       -3.9430     1.6120     0.9970 H     1 <1>   0.1000 
 19 H       -2.3650     1.8160     1.8200 H     1 <1>   0.1000 
 20 H       -1.7030    -0.5310     1.0820 H     1 <1>   0.1000 
 21 H       -3.2880    -0.7060     0.2650 H     1 <1>   0.1000 
 22 H        3.0480     3.1360     0.8350 H     1 <1>   0.0800 
 23 H        3.7450     2.7910    -0.7170 H     1 <1>   0.0800 
 24 H        2.9010     0.1730    -1.3960 H     1 <1>   0.0800 
 25 H        1.3120    -0.2220    -0.8160 H     1 <1>   0.0800 
 26 H        4.8990     1.9200     1.5190 H     1 <1>   0.0800 
 27 H        4.9490     0.9610     0.0620 H     1 <1>   0.0800 
 28 H        3.4630    -1.3020     0.3160 H     1 <1>   0.0800 
 29 H        2.0760    -0.8740     1.2790 H     1 <1>   0.0800 
@<TRIPOS>BOND
  1   1   2  2   
  2   2   3  am  
  3   2   4  1   
  4   3   5  1   
  5   3  14  1   
  6   4   6  1   
  7   4  15  1   
  8   4  16  1   
  9   5   7  1   
 10   5   8  1   
 11   5  17  1   
 12   6   9  1   
 13   6  10  1   
 14   7   8  1   
 15   7  18  1   
 16   7  19  1   
 17   8  20  1   
 18   8  21  1   
 19   9  11  1   
 20   9  22  1   
 21   9  23  1   
 22  10  12  1   
 23  10  24  1   
 24  10  25  1   
 25  11  13  1   
 26  11  26  1   
 27  11  27  1   
 28  12  13  1   
 29  12  28  1   
 30  12  29  1   
@<TRIPOS>SUBSTRUCTURE
  1 ****   6 GROUP 4 **** **** 0

# MOE 2024.06 (io_trps.svl 2023.06)
