@<TRIPOS>MOLECULE
NONAME
41 42 1 0 0 
SMALL
USER_CHARGES


@<TRIPOS>ATOM
  1 O        0.6300    -0.4960    -1.7110 O.2   1 <1>  -0.5700 
  2 C        1.2190    -1.5380    -1.8550 C.2   1 <1>   0.6590 
  3 O        0.7290    -2.6830    -1.3890 O.3   1 <1>  -0.4300 
  4 C        2.5880    -1.5980    -2.5230 C.3   1 <1>   0.1810 
  5 C       -0.3630    -2.7220    -0.5090 C.3   1 <1>   0.2000 
  6 O        3.4980    -2.4220    -1.8040 O.3   1 <1>  -0.3630 
  7 C       -0.1680    -3.9280     0.4050 C.3   1 <1>  -0.1600 
  8 C       -1.6530    -2.8380    -1.3220 C.3   1 <1>  -0.1600 
  9 C        3.6750    -2.2580    -0.4670 C.ar  1 <1>   0.0820 
 10 C       -1.3860    -4.1200     1.3020 C.3   1 <1>   0.3430 
 11 C       -2.8460    -3.0480    -0.3940 C.3   1 <1>   0.3430 
 12 C        3.9520    -3.3870     0.3000 C.ar  1 <1>  -0.1440 
 13 C        3.5750    -1.0120     0.1460 C.ar  1 <1>  -0.1500 
 14 N       -2.6160    -4.2500     0.4640 N.4   1 <1>  -0.9590 
 15 C        4.1110    -3.2580     1.6710 C.ar  1 <1>  -0.1500 
 16 C        4.0800    -4.7540    -0.3550 C.3   1 <1>  -0.0970 
 17 C        3.7330    -0.8960     1.5150 C.ar  1 <1>  -0.1500 
 18 C       -3.8120    -4.5290     1.3160 C.3   1 <1>   0.2630 
 19 C        3.9990    -2.0190     2.2770 C.ar  1 <1>  -0.1500 
 20 H        3.0090    -0.6130    -2.6020 H     1 <1>   0.0800 
 21 H        2.4870    -2.0130    -3.5080 H     1 <1>   0.0800 
 22 H       -0.3650    -1.8200     0.0830 H     1 <1>   0.0800 
 23 H        0.7010    -3.7670     1.0200 H     1 <1>   0.0800 
 24 H       -0.0060    -4.8170    -0.1790 H     1 <1>   0.0800 
 25 H       -1.5850    -3.6580    -2.0150 H     1 <1>   0.0800 
 26 H       -1.8040    -1.9320    -1.8820 H     1 <1>   0.0800 
 27 H       -1.4830    -3.2720     1.9630 H     1 <1>   0.0800 
 28 H       -1.2520    -5.0050     1.9040 H     1 <1>   0.0800 
 29 H       -3.7390    -3.1780    -0.9840 H     1 <1>   0.0800 
 30 H       -2.9750    -2.1750     0.2270 H     1 <1>   0.0800 
 31 H        3.3820    -0.1250    -0.4280 H     1 <1>   0.1500 
 32 H       -2.4730    -5.0530    -0.1670 H     1 <1>   0.4500 
 33 H        4.3280    -4.1210     2.2750 H     1 <1>   0.1500 
 34 H        4.8750    -4.7350    -1.0780 H     1 <1>   0.0800 
 35 H        3.1640    -5.0060    -0.8580 H     1 <1>   0.0800 
 36 H        4.2960    -5.5160     0.3720 H     1 <1>   0.0800 
 37 H        3.6550     0.0680     1.9860 H     1 <1>   0.1500 
 38 H       -3.9930    -3.7070     1.9890 H     1 <1>   0.0800 
 39 H       -3.6570    -5.4240     1.8980 H     1 <1>   0.0800 
 40 H       -4.6860    -4.6700     0.7000 H     1 <1>   0.0800 
 41 H        4.1270    -1.9280     3.3420 H     1 <1>   0.1500 
@<TRIPOS>BOND
  1   1   2  2   
  2   2   3  1   
  3   2   4  1   
  4   3   5  1   
  5   4   6  1   
  6   4  20  1   
  7   4  21  1   
  8   5   7  1   
  9   5   8  1   
 10   5  22  1   
 11   6   9  1   
 12   7  10  1   
 13   7  23  1   
 14   7  24  1   
 15   8  11  1   
 16   8  25  1   
 17   8  26  1   
 18   9  12  ar  
 19   9  13  ar  
 20  10  14  1   
 21  10  27  1   
 22  10  28  1   
 23  11  14  1   
 24  11  29  1   
 25  11  30  1   
 26  12  15  ar  
 27  12  16  1   
 28  13  17  ar  
 29  13  31  1   
 30  14  18  1   
 31  14  32  1   
 32  15  19  ar  
 33  15  33  1   
 34  16  34  1   
 35  16  35  1   
 36  16  36  1   
 37  17  19  ar  
 38  17  37  1   
 39  18  38  1   
 40  18  39  1   
 41  18  40  1   
 42  19  41  1   
@<TRIPOS>SUBSTRUCTURE
  1 ****   3 GROUP 4 **** **** 0

# MOE 2024.06 (io_trps.svl 2023.06)
