@<TRIPOS>MOLECULE
NONAME
36 37 1 0 0 
SMALL
USER_CHARGES


@<TRIPOS>ATOM
  1 BR      -0.1150    -0.3500     0.7420 Br    1 <1>  -0.1110 
  2 C        1.6750    -0.9140     0.2720 C.ar  1 <1>   0.1110 
  3 C        2.3520    -0.2250    -0.7260 C.ar  1 <1>  -0.1440 
  4 C        2.2300    -1.9940     0.9460 C.ar  1 <1>  -0.1440 
  5 C        3.6340    -0.6370    -1.0540 C.ar  1 <1>  -0.1500 
  6 C        1.7160     0.9530    -1.4510 C.3   1 <1>  -0.0960 
  7 C        3.5130    -2.3850     0.5980 C.ar  1 <1>  -0.1500 
  8 C        1.4710    -2.7390     2.0330 C.3   1 <1>  -0.0960 
  9 C        4.2180    -1.7150    -0.3900 C.ar  1 <1>   0.0830 
 10 O        5.4690    -2.1700    -0.6500 O.3   1 <1>  -0.3630 
 11 C        6.3250    -1.4940    -1.5610 C.3   1 <1>   0.1810 
 12 C        7.7180    -2.1160    -1.5990 C.2   1 <1>   0.5690 
 13 O        8.1450    -2.4720    -2.6750 O.2   1 <1>  -0.5700 
 14 N        8.4770    -2.2270    -0.4630 N.am  1 <1>  -0.6600 
 15 C        8.0490    -1.8710     0.9080 C.3   1 <1>   0.1400 
 16 C        9.8260    -2.8300    -0.4620 C.3   1 <1>   0.1400 
 17 C        9.3080    -2.0210     1.7550 C.3   1 <1>  -0.1600 
 18 C       10.1510    -3.0530     1.0110 C.3   1 <1>  -0.1600 
 19 H        4.1620    -0.1140    -1.8270 H     1 <1>   0.1500 
 20 H        0.8160     0.6370    -1.9460 H     1 <1>   0.0800 
 21 H        2.3840     1.3600    -2.1890 H     1 <1>   0.0800 
 22 H        1.4730     1.7300    -0.7480 H     1 <1>   0.0800 
 23 H        3.9840    -3.2160     1.0900 H     1 <1>   0.1500 
 24 H        1.2200    -2.0670     2.8340 H     1 <1>   0.0800 
 25 H        2.0630    -3.5410     2.4360 H     1 <1>   0.0800 
 26 H        0.5660    -3.1560     1.6300 H     1 <1>   0.0800 
 27 H        6.4070    -0.4680    -1.2550 H     1 <1>   0.0800 
 28 H        5.8830    -1.5510    -2.5380 H     1 <1>   0.0800 
 29 H        7.2950    -2.5690     1.2330 H     1 <1>   0.0800 
 30 H        7.6600    -0.8680     0.9490 H     1 <1>   0.0800 
 31 H       10.5190    -2.1350    -0.9040 H     1 <1>   0.0800 
 32 H        9.8350    -3.7520    -1.0180 H     1 <1>   0.0800 
 33 H        9.0790    -2.3240     2.7610 H     1 <1>   0.0800 
 34 H        9.8250    -1.0770     1.7810 H     1 <1>   0.0800 
 35 H       11.2030    -2.9460     1.2090 H     1 <1>   0.0800 
 36 H        9.8420    -4.0460     1.2880 H     1 <1>   0.0800 
@<TRIPOS>BOND
  1   1   2  1   
  2   2   3  ar  
  3   2   4  ar  
  4   3   5  ar  
  5   3   6  1   
  6   4   7  ar  
  7   4   8  1   
  8   5   9  ar  
  9   5  19  1   
 10   6  20  1   
 11   6  21  1   
 12   6  22  1   
 13   7   9  ar  
 14   7  23  1   
 15   8  24  1   
 16   8  25  1   
 17   8  26  1   
 18   9  10  1   
 19  10  11  1   
 20  11  12  1   
 21  11  27  1   
 22  11  28  1   
 23  12  13  2   
 24  12  14  am  
 25  14  15  1   
 26  14  16  1   
 27  15  17  1   
 28  15  29  1   
 29  15  30  1   
 30  16  18  1   
 31  16  31  1   
 32  16  32  1   
 33  17  18  1   
 34  17  33  1   
 35  17  34  1   
 36  18  35  1   
 37  18  36  1   
@<TRIPOS>SUBSTRUCTURE
  1 ****  10 GROUP 4 **** **** 0

# MOE 2024.06 (io_trps.svl 2023.06)
