@<TRIPOS>MOLECULE
NONAME
43 44 1 0 0 
SMALL
USER_CHARGES


@<TRIPOS>ATOM
  1 O       -7.8030     0.8650     1.5180 O.2   1 <1>  -0.5700 
  2 C       -8.5170     0.8630     0.5280 C.2   1 <1>   0.6340 
  3 O       -7.9830     1.1890    -0.6700 O.3   1 <1>  -0.0870 
  4 C       -9.9210     0.4990     0.5600 C.ar  1 <1>   0.0860 
  5 N       -6.7630     1.7120    -0.8400 N.2   1 <1>  -0.5130 
  6 C      -10.7210     0.5120    -0.5870 C.ar  1 <1>  -0.1500 
  7 C      -10.5330     0.1140     1.7560 C.ar  1 <1>  -0.1500 
  8 C       -5.7230     1.0080    -0.7120 C.2   1 <1>   0.3280 
  9 C      -12.0580     0.1540    -0.5510 C.ar  1 <1>  -0.1440 
 10 C      -11.8670    -0.2440     1.8030 C.ar  1 <1>  -0.1500 
 11 C       -4.3420     1.6460    -0.7840 C.3   1 <1>  -0.0190 
 12 C       -5.6580    -0.4700    -0.3770 C.3   1 <1>  -0.0990 
 13 C      -12.6300    -0.2240     0.6510 C.ar  1 <1>  -0.1500 
 14 C      -12.9030     0.1780    -1.8120 C.3   1 <1>  -0.0970 
 15 C       -3.4180     1.0390     0.2900 C.3   1 <1>   0.3430 
 16 C       -3.7240     1.5110    -2.1860 C.3   1 <1>  -0.2400 
 17 C       -5.1400    -0.6210     1.0610 C.3   1 <1>   0.4230 
 18 N       -4.1750     0.4540     1.4520 N.4   1 <1>  -0.9590 
 19 C       -4.4480    -1.9640     1.2610 C.3   1 <1>  -0.2400 
 20 C       -4.8950     1.5170     2.2360 C.3   1 <1>   0.2630 
 21 H      -10.2940     0.8100    -1.5290 H     1 <1>   0.1500 
 22 H       -9.9560     0.0960     2.6640 H     1 <1>   0.1500 
 23 H      -12.3150    -0.5370     2.7380 H     1 <1>   0.1500 
 24 H       -4.4520     2.6970    -0.5760 H     1 <1>   0.0800 
 25 H       -6.6190    -0.9420    -0.4610 H     1 <1>   0.0800 
 26 H       -5.0060    -0.9650    -1.0730 H     1 <1>   0.0800 
 27 H      -13.6690    -0.5020     0.6940 H     1 <1>   0.1500 
 28 H      -13.5180    -0.7020    -1.8640 H     1 <1>   0.0800 
 29 H      -12.2830     0.2100    -2.6900 H     1 <1>   0.0800 
 30 H      -13.5390     1.0450    -1.8070 H     1 <1>   0.0800 
 31 H       -2.7280     1.7920     0.6350 H     1 <1>   0.0800 
 32 H       -2.8390     0.2530    -0.1680 H     1 <1>   0.0800 
 33 H       -3.5740     0.4790    -2.4530 H     1 <1>   0.0800 
 34 H       -2.7780     2.0210    -2.2340 H     1 <1>   0.0800 
 35 H       -4.3790     1.9560    -2.9170 H     1 <1>   0.0800 
 36 H       -5.9880    -0.5790     1.7280 H     1 <1>   0.0800 
 37 H       -3.4960     0.0160     2.0900 H     1 <1>   0.4500 
 38 H       -3.5790    -2.0540     0.6340 H     1 <1>   0.0800 
 39 H       -5.1280    -2.7590     1.0090 H     1 <1>   0.0800 
 40 H       -4.1650    -2.0930     2.2910 H     1 <1>   0.0800 
 41 H       -5.6420     2.0000     1.6260 H     1 <1>   0.0800 
 42 H       -4.2010     2.2640     2.5870 H     1 <1>   0.0800 
 43 H       -5.3930     1.0820     3.0870 H     1 <1>   0.0800 
@<TRIPOS>BOND
  1   1   2  2   
  2   2   3  1   
  3   2   4  1   
  4   3   5  1   
  5   4   6  ar  
  6   4   7  ar  
  7   5   8  2   
  8   6   9  ar  
  9   6  21  1   
 10   7  10  ar  
 11   7  22  1   
 12   8  11  1   
 13   8  12  1   
 14   9  13  ar  
 15   9  14  1   
 16  10  13  ar  
 17  10  23  1   
 18  11  15  1   
 19  11  16  1   
 20  11  24  1   
 21  12  17  1   
 22  12  25  1   
 23  12  26  1   
 24  13  27  1   
 25  14  28  1   
 26  14  29  1   
 27  14  30  1   
 28  15  18  1   
 29  15  31  1   
 30  15  32  1   
 31  16  33  1   
 32  16  34  1   
 33  16  35  1   
 34  17  18  1   
 35  17  19  1   
 36  17  36  1   
 37  18  20  1   
 38  18  37  1   
 39  19  38  1   
 40  19  39  1   
 41  19  40  1   
 42  20  41  1   
 43  20  42  1   
 44  20  43  1   
@<TRIPOS>SUBSTRUCTURE
  1 ****   2 GROUP 4 **** **** 0

# MOE 2024.06 (io_trps.svl 2023.06)
