@<TRIPOS>MOLECULE
NONAME
47 51 1 0 0 
SMALL
USER_CHARGES


@<TRIPOS>ATOM
  1 S        0.0500    -0.3310     0.3380 S.3   1 <1>  -0.0800 
  2 C        1.1620    -1.3750    -0.4800 C.2   1 <1>   0.4420 
  3 C       -1.2350    -1.1930    -0.4500 C.2   1 <1>   0.1980 
  4 N        0.5660    -2.2200    -1.2390 N.2   1 <1>  -0.3380 
  5 N        2.5010    -1.1700    -0.2430 N.am  1 <1>  -0.4940 
  6 N       -0.7950    -2.1140    -1.2130 N.2   1 <1>  -0.3380 
  7 C       -2.6850    -0.7800    -0.1610 C.3   1 <1>   0.1800 
  8 C        3.5870    -1.9070    -0.5910 C.2   1 <1>   0.6900 
  9 C       -3.6710    -1.6670    -0.9600 C.3   1 <1>  -0.1600 
 10 C       -2.9240     0.6940    -0.5690 C.3   1 <1>  -0.1600 
 11 C       -3.0060    -0.9380     1.3440 C.3   1 <1>  -0.1600 
 12 O        4.6450    -1.3300    -0.7000 O.2   1 <1>  -0.5700 
 13 N        3.5660    -3.2500    -0.8070 N.am  1 <1>  -0.5470 
 14 C       -5.1310    -1.2640    -0.6790 C.3   1 <1>  -0.0800 
 15 C       -4.3800     1.1110    -0.2830 C.3   1 <1>  -0.0800 
 16 C       -4.4620    -0.5270     1.6380 C.3   1 <1>  -0.0800 
 17 C        2.6970    -4.2420    -0.3150 C.ar  1 <1>   0.1170 
 18 C       -5.3330     0.2070    -1.0850 C.3   1 <1>  -0.1600 
 19 C       -5.4150    -1.4220     0.8250 C.3   1 <1>  -0.1600 
 20 C       -4.6670     0.9420     1.2210 C.3   1 <1>  -0.1600 
 21 C        2.2070    -4.2790     0.9930 C.ar  1 <1>   0.1900 
 22 C        2.2980    -5.2650    -1.1670 C.ar  1 <1>  -0.1500 
 23 F        2.5710    -3.3600     1.8540 F     1 <1>  -0.1900 
 24 C        1.3520    -5.2660     1.4440 C.ar  1 <1>  -0.1500 
 25 C        1.4420    -6.2650    -0.7320 C.ar  1 <1>  -0.1500 
 26 C        0.9670    -6.2690     0.5700 C.ar  1 <1>  -0.1500 
 27 H        2.7600    -0.2750     0.1560 H     1 <1>   0.3700 
 28 H       -3.5260    -2.7000    -0.6940 H     1 <1>   0.0800 
 29 H       -3.4690    -1.5750    -2.0130 H     1 <1>   0.0800 
 30 H       -2.7120     0.8160    -1.6170 H     1 <1>   0.0800 
 31 H       -2.2620     1.3430    -0.0250 H     1 <1>   0.0800 
 32 H       -2.8520    -1.9610     1.6390 H     1 <1>   0.0800 
 33 H       -2.3450    -0.3260     1.9320 H     1 <1>   0.0800 
 34 H        4.4230    -3.5770    -1.2460 H     1 <1>   0.3700 
 35 H       -5.7970    -1.8940    -1.2450 H     1 <1>   0.0800 
 36 H       -4.5280     2.1390    -0.5680 H     1 <1>   0.0800 
 37 H       -4.6680    -0.6390     2.6900 H     1 <1>   0.0800 
 38 H       -6.3530     0.4980    -0.8990 H     1 <1>   0.0800 
 39 H       -5.1480     0.3240    -2.1390 H     1 <1>   0.0800 
 40 H       -5.2880    -2.4500     1.1150 H     1 <1>   0.0800 
 41 H       -6.4360    -1.1500     1.0320 H     1 <1>   0.0800 
 42 H       -5.6790     1.2410     1.4330 H     1 <1>   0.0800 
 43 H       -4.0150     1.5790     1.7930 H     1 <1>   0.0800 
 44 H        2.6480    -5.2710    -2.1840 H     1 <1>   0.1500 
 45 H        0.9970    -5.2500     2.4580 H     1 <1>   0.1500 
 46 H        1.1400    -7.0430    -1.4130 H     1 <1>   0.1500 
 47 H        0.2990    -7.0470     0.8990 H     1 <1>   0.1500 
@<TRIPOS>BOND
  1   1   2  1   
  2   1   3  1   
  3   2   4  2   
  4   2   5  1   
  5   3   6  2   
  6   3   7  1   
  7   4   6  1   
  8   5   8  am  
  9   5  27  1   
 10   7   9  1   
 11   7  10  1   
 12   7  11  1   
 13   8  12  2   
 14   8  13  am  
 15   9  14  1   
 16   9  28  1   
 17   9  29  1   
 18  10  15  1   
 19  10  30  1   
 20  10  31  1   
 21  11  16  1   
 22  11  32  1   
 23  11  33  1   
 24  13  17  1   
 25  13  34  1   
 26  14  18  1   
 27  14  19  1   
 28  14  35  1   
 29  15  18  1   
 30  15  20  1   
 31  15  36  1   
 32  16  19  1   
 33  16  20  1   
 34  16  37  1   
 35  17  21  ar  
 36  17  22  ar  
 37  18  38  1   
 38  18  39  1   
 39  19  40  1   
 40  19  41  1   
 41  20  42  1   
 42  20  43  1   
 43  21  23  1   
 44  21  24  ar  
 45  22  25  ar  
 46  22  44  1   
 47  24  26  ar  
 48  24  45  1   
 49  25  26  ar  
 50  25  46  1   
 51  26  47  1   
@<TRIPOS>SUBSTRUCTURE
  1 ****   3 GROUP 4 **** **** 0

# MOE 2024.06 (io_trps.svl 2023.06)
