@<TRIPOS>MOLECULE
NONAME
48 49 1 0 0 
SMALL
USER_CHARGES


@<TRIPOS>ATOM
  1 BR       0.1930     0.4970     1.4550 Br    1 <1>  -0.1110 
  2 C       -1.4600     0.1730     0.5120 C.ar  1 <1>   0.1110 
  3 C       -2.2140     1.2420     0.0420 C.ar  1 <1>   0.0830 
  4 C       -1.8580    -1.1380     0.3280 C.ar  1 <1>  -0.1500 
  5 O       -1.8240     2.5210     0.2220 O.3   1 <1>  -0.3630 
  6 C       -3.4070     0.9810    -0.6130 C.ar  1 <1>  -0.1500 
  7 C       -3.0480    -1.3860    -0.3390 C.ar  1 <1>  -0.1500 
  8 C       -0.9060     3.0260    -0.7220 C.3   1 <1>   0.2640 
  9 C       -3.8190    -0.3300    -0.8040 C.ar  1 <1>  -0.1500 
 10 C       -0.4370     4.4070    -0.2820 C.ar  1 <1>  -0.1440 
 11 C       -0.3690     5.4490    -1.1930 C.ar  1 <1>  -0.1500 
 12 C       -0.0760     4.6420     1.0350 C.ar  1 <1>  -0.1500 
 13 C        0.0600     6.7010    -0.7910 C.ar  1 <1>  -0.1500 
 14 C        0.3480     5.8970     1.4320 C.ar  1 <1>  -0.1500 
 15 C        0.4410     6.9520     0.5260 C.ar  1 <1>   0.0860 
 16 C        0.9130     8.2660     0.9230 C.2   1 <1>   0.5440 
 17 O        0.3300     9.2710     0.5810 O.2   1 <1>  -0.5700 
 18 N        2.0510     8.4610     1.6460 N.am  1 <1>  -0.7300 
 19 C        3.2070     7.5530     1.7720 C.3   1 <1>   0.1400 
 20 C        4.0500     7.6600     0.5000 C.3   1 <1>  -0.1600 
 21 C        5.2510     6.7180     0.5650 C.3   1 <1>   0.3430 
 22 N        5.9810     6.7080    -0.7380 N.4   1 <1>  -0.9590 
 23 C        6.9570     5.5760    -0.7850 C.3   1 <1>   0.2630 
 24 C        6.6810     8.0040    -1.0150 C.3   1 <1>   0.2630 
 25 H       -1.2530    -1.9450     0.7000 H     1 <1>   0.1500 
 26 H       -4.0080     1.8000    -0.9660 H     1 <1>   0.1500 
 27 H       -3.3770    -2.4000    -0.4920 H     1 <1>   0.1500 
 28 H       -1.4020     3.0710    -1.6750 H     1 <1>   0.0800 
 29 H       -0.0690     2.3530    -0.7850 H     1 <1>   0.0800 
 30 H       -4.7450    -0.5290    -1.3160 H     1 <1>   0.1500 
 31 H       -0.6580     5.2940    -2.2180 H     1 <1>   0.1500 
 32 H       -0.1390     3.8450     1.7580 H     1 <1>   0.1500 
 33 H        0.0950     7.5090    -1.5020 H     1 <1>   0.1500 
 34 H        0.6010     6.0670     2.4640 H     1 <1>   0.1500 
 35 H        2.2100     9.4420     1.8930 H     1 <1>   0.3700 
 36 H        2.8650     6.5420     1.9110 H     1 <1>   0.0800 
 37 H        3.7820     7.8380     2.6370 H     1 <1>   0.0800 
 38 H        4.3800     8.6780     0.3960 H     1 <1>   0.0800 
 39 H        3.4340     7.3950    -0.3420 H     1 <1>   0.0800 
 40 H        4.8980     5.7220     0.7820 H     1 <1>   0.0800 
 41 H        5.9150     7.0190     1.3600 H     1 <1>   0.0800 
 42 H        5.2830     6.5560    -1.4840 H     1 <1>   0.4500 
 43 H        7.7050     5.6920    -0.0170 H     1 <1>   0.0800 
 44 H        7.4500     5.5460    -1.7430 H     1 <1>   0.0800 
 45 H        6.4500     4.6360    -0.6320 H     1 <1>   0.0800 
 46 H        7.4000     8.2160    -0.2400 H     1 <1>   0.0800 
 47 H        5.9720     8.8150    -1.0600 H     1 <1>   0.0800 
 48 H        7.1980     7.9550    -1.9600 H     1 <1>   0.0800 
@<TRIPOS>BOND
  1   1   2  1   
  2   2   3  ar  
  3   2   4  ar  
  4   3   5  1   
  5   3   6  ar  
  6   4   7  ar  
  7   4  25  1   
  8   5   8  1   
  9   6   9  ar  
 10   6  26  1   
 11   7   9  ar  
 12   7  27  1   
 13   8  10  1   
 14   8  28  1   
 15   8  29  1   
 16   9  30  1   
 17  10  11  ar  
 18  10  12  ar  
 19  11  13  ar  
 20  11  31  1   
 21  12  14  ar  
 22  12  32  1   
 23  13  15  ar  
 24  13  33  1   
 25  14  15  ar  
 26  14  34  1   
 27  15  16  1   
 28  16  17  2   
 29  16  18  am  
 30  18  19  1   
 31  18  35  1   
 32  19  20  1   
 33  19  36  1   
 34  19  37  1   
 35  20  21  1   
 36  20  38  1   
 37  20  39  1   
 38  21  22  1   
 39  21  40  1   
 40  21  41  1   
 41  22  23  1   
 42  22  24  1   
 43  22  42  1   
 44  23  43  1   
 45  23  44  1   
 46  23  45  1   
 47  24  46  1   
 48  24  47  1   
 49  24  48  1   
@<TRIPOS>SUBSTRUCTURE
  1 ****  12 GROUP 4 **** **** 0

# MOE 2024.06 (io_trps.svl 2023.06)
