@<TRIPOS>MOLECULE
NONAME
51 53 1 0 0 
SMALL
USER_CHARGES


@<TRIPOS>ATOM
  1 S        0.0700    -0.2460     1.2110 S.o2  1 <1>   1.4470 
  2 O        0.6930    -1.4890     1.6170 O.2   1 <1>  -0.6500 
  3 O       -0.5210     0.6070     2.2180 O.2   1 <1>  -0.6500 
  4 N        1.2740     0.6600     0.4310 N.am  1 <1>  -0.8490 
  5 C       -1.1420    -0.5500    -0.1050 C.ar  1 <1>  -0.0090 
  6 C        2.0390    -0.1500    -0.5230 C.3   1 <1>   0.1960 
  7 C        2.1500     1.3260     1.3970 C.3   1 <1>   0.1960 
  8 C       -1.6020     0.4900    -0.9060 C.ar  1 <1>  -0.1500 
  9 C       -1.6430    -1.8250    -0.3450 C.ar  1 <1>  -0.1500 
 10 C        3.0030     0.7350    -1.3140 C.3   1 <1>  -0.1600 
 11 C        3.1310     2.2540     0.6760 C.3   1 <1>  -0.1600 
 12 C       -2.5230     0.2670    -1.9150 C.ar  1 <1>  -0.1500 
 13 C       -2.5650    -2.0570    -1.3510 C.ar  1 <1>  -0.1500 
 14 C        3.9560     1.4940    -0.3760 C.3   1 <1>  -0.0190 
 15 C       -3.0050    -1.0090    -2.1380 C.ar  1 <1>  -0.1500 
 16 C        4.8860     2.4350    -1.1420 C.2   1 <1>   0.5690 
 17 O        4.4030     3.2480    -1.8920 O.2   1 <1>  -0.5700 
 18 N        6.2290     2.3040    -0.9260 N.am  1 <1>  -0.5470 
 19 C        7.3620     2.9710    -1.4300 C.ar  1 <1>   0.1170 
 20 C        8.6170     2.5720    -0.9540 C.ar  1 <1>   0.0830 
 21 C        7.2960     3.9970    -2.3670 C.ar  1 <1>  -0.1500 
 22 O        8.6410     1.5600    -0.0340 O.3   1 <1>  -0.3630 
 23 C        9.7700     3.1980    -1.4190 C.ar  1 <1>  -0.1500 
 24 C        8.4460     4.6150    -2.8250 C.ar  1 <1>  -0.1500 
 25 C        9.8580     1.0850     0.4960 C.3   1 <1>   0.1200 
 26 C        9.6830     4.2170    -2.3510 C.ar  1 <1>  -0.1500 
 27 C        9.5410    -0.0360     1.4800 C.3   1 <1>  -0.2400 
 28 H        1.3660    -0.6330    -1.2130 H     1 <1>   0.0800 
 29 H        2.5890    -0.9160     0.0010 H     1 <1>   0.0800 
 30 H        2.6850     0.5890     1.9740 H     1 <1>   0.0800 
 31 H        1.5590     1.9180     2.0770 H     1 <1>   0.0800 
 32 H       -1.2300     1.4870    -0.7350 H     1 <1>   0.1500 
 33 H       -1.3070    -2.6480     0.2650 H     1 <1>   0.1500 
 34 H        2.4300     1.4330    -1.9010 H     1 <1>   0.0800 
 35 H        3.5720     0.1270    -1.9950 H     1 <1>   0.0800 
 36 H        3.7880     2.7070     1.3960 H     1 <1>   0.0800 
 37 H        2.5740     3.0430     0.2000 H     1 <1>   0.0800 
 38 H       -2.8650     1.0870    -2.5230 H     1 <1>   0.1500 
 39 H       -2.9400    -3.0520    -1.5200 H     1 <1>   0.1500 
 40 H        4.5590     0.7670     0.1380 H     1 <1>   0.0800 
 41 H       -3.7220    -1.1860    -2.9220 H     1 <1>   0.1500 
 42 H        6.5050     1.5850    -0.2570 H     1 <1>   0.3700 
 43 H        6.3490     4.3240    -2.7510 H     1 <1>   0.1500 
 44 H       10.7450     2.9140    -1.0720 H     1 <1>   0.1500 
 45 H        8.3750     5.4070    -3.5510 H     1 <1>   0.1500 
 46 H       10.3540     1.9000     0.9960 H     1 <1>   0.0800 
 47 H       10.4640     0.7190    -0.3140 H     1 <1>   0.0800 
 48 H       10.5750     4.7000    -2.7100 H     1 <1>   0.1500 
 49 H        8.9250     0.3350     2.2800 H     1 <1>   0.0800 
 50 H       10.4530    -0.4190     1.9000 H     1 <1>   0.0800 
 51 H        9.0340    -0.8400     0.9760 H     1 <1>   0.0800 
@<TRIPOS>BOND
  1   1   2  2   
  2   1   3  2   
  3   1   4  am  
  4   1   5  1   
  5   4   6  1   
  6   4   7  1   
  7   5   8  ar  
  8   5   9  ar  
  9   6  10  1   
 10   6  28  1   
 11   6  29  1   
 12   7  11  1   
 13   7  30  1   
 14   7  31  1   
 15   8  12  ar  
 16   8  32  1   
 17   9  13  ar  
 18   9  33  1   
 19  10  14  1   
 20  10  34  1   
 21  10  35  1   
 22  11  14  1   
 23  11  36  1   
 24  11  37  1   
 25  12  15  ar  
 26  12  38  1   
 27  13  15  ar  
 28  13  39  1   
 29  14  16  1   
 30  14  40  1   
 31  15  41  1   
 32  16  17  2   
 33  16  18  am  
 34  18  19  1   
 35  18  42  1   
 36  19  20  ar  
 37  19  21  ar  
 38  20  22  1   
 39  20  23  ar  
 40  21  24  ar  
 41  21  43  1   
 42  22  25  1   
 43  23  26  ar  
 44  23  44  1   
 45  24  26  ar  
 46  24  45  1   
 47  25  27  1   
 48  25  46  1   
 49  25  47  1   
 50  26  48  1   
 51  27  49  1   
 52  27  50  1   
 53  27  51  1   
@<TRIPOS>SUBSTRUCTURE
  1 ****  14 GROUP 4 **** **** 0

# MOE 2024.06 (io_trps.svl 2023.06)
