@<TRIPOS>MOLECULE
NONAME
36 36 1 0 0 
SMALL
USER_CHARGES


@<TRIPOS>ATOM
  1 F        0.1350    -0.1640     0.1460 F     1 <1>  -0.3400 
  2 C        0.4410    -1.4000     0.5210 C.3   1 <1>   1.0200 
  3 F        1.5220    -1.7450    -0.1710 F     1 <1>  -0.3400 
  4 F        0.8580    -1.2870     1.7770 F     1 <1>  -0.3400 
  5 C       -0.7350    -2.4100     0.3810 C.3   1 <1>   0.2800 
  6 O       -0.2870    -3.7440     0.6450 O.3   1 <1>  -0.6800 
  7 C       -1.2720    -2.2550    -1.0760 C.3   1 <1>   1.0200 
  8 C       -1.8180    -2.0960     1.4530 C.3   1 <1>  -0.0990 
  9 F       -0.3250    -2.2450    -2.0060 F     1 <1>  -0.3400 
 10 F       -1.9740    -1.1400    -1.2530 F     1 <1>  -0.3400 
 11 F       -2.0820    -3.2410    -1.4340 F     1 <1>  -0.3400 
 12 C       -3.1010    -2.8880     1.3160 C.2   1 <1>   0.5690 
 13 O       -3.1660    -3.9620     1.8560 O.2   1 <1>  -0.5700 
 14 N       -4.1260    -2.3190     0.6150 N.am  1 <1>  -0.5470 
 15 C       -5.4100    -2.7670     0.2520 C.ar  1 <1>   0.1170 
 16 C       -6.1760    -1.9330    -0.5690 C.ar  1 <1>   0.0830 
 17 C       -5.9470    -3.9830     0.6590 C.ar  1 <1>  -0.1500 
 18 O       -5.6120    -0.7450    -0.9500 O.3   1 <1>  -0.3620 
 19 C       -7.4510    -2.3250    -0.9630 C.ar  1 <1>  -0.1500 
 20 C       -7.2160    -4.3730     0.2670 C.ar  1 <1>  -0.1430 
 21 C       -6.2500     0.0960    -1.8860 C.3   1 <1>   0.0400 
 22 C       -7.9650    -3.5400    -0.5460 C.ar  1 <1>  -0.1500 
 23 C       -7.7770    -5.7080     0.7230 C.3   1 <1>  -0.0970 
 24 H        0.3740    -4.0550    -0.0110 H     1 <1>   0.4000 
 25 H       -2.0690    -1.0510     1.4270 H     1 <1>   0.0800 
 26 H       -1.4170    -2.2930     2.4320 H     1 <1>   0.0800 
 27 H       -3.9570    -1.3940     0.2130 H     1 <1>   0.3700 
 28 H       -5.3740    -4.6380     1.2870 H     1 <1>   0.1500 
 29 H       -8.0610    -1.7050    -1.5910 H     1 <1>   0.1500 
 30 H       -5.6050     0.9360    -2.0760 H     1 <1>   0.0800 
 31 H       -7.1810     0.4390    -1.4710 H     1 <1>   0.0800 
 32 H       -6.4110    -0.4530    -2.7970 H     1 <1>   0.0800 
 33 H       -8.9510    -3.8360    -0.8590 H     1 <1>   0.1500 
 34 H       -7.3730    -5.9760     1.6830 H     1 <1>   0.0800 
 35 H       -7.5180    -6.4720     0.0120 H     1 <1>   0.0800 
 36 H       -8.8480    -5.6580     0.8080 H     1 <1>   0.0800 
@<TRIPOS>BOND
  1   1   2  1   
  2   2   3  1   
  3   2   4  1   
  4   2   5  1   
  5   5   6  1   
  6   5   7  1   
  7   5   8  1   
  8   6  24  1   
  9   7   9  1   
 10   7  10  1   
 11   7  11  1   
 12   8  12  1   
 13   8  25  1   
 14   8  26  1   
 15  12  13  2   
 16  12  14  am  
 17  14  15  1   
 18  14  27  1   
 19  15  16  ar  
 20  15  17  ar  
 21  16  18  1   
 22  16  19  ar  
 23  17  20  ar  
 24  17  28  1   
 25  18  21  1   
 26  19  22  ar  
 27  19  29  1   
 28  20  22  ar  
 29  20  23  1   
 30  21  30  1   
 31  21  31  1   
 32  21  32  1   
 33  22  33  1   
 34  23  34  1   
 35  23  35  1   
 36  23  36  1   
@<TRIPOS>SUBSTRUCTURE
  1 ****  14 GROUP 4 **** **** 0

# MOE 2024.06 (io_trps.svl 2023.06)
