@<TRIPOS>MOLECULE
NONAME
30 30 1 0 0 
SMALL
USER_CHARGES


@<TRIPOS>ATOM
  1 S        0.5360     0.4930    -1.2320 S.o2  1 <1>   1.3330 
  2 O        1.9390     0.5310    -1.5760 O.2   1 <1>  -0.6500 
  3 O        0.0080    -0.6410    -0.5170 O.2   1 <1>  -0.6500 
  4 N        0.2290     1.9160    -0.2980 N.am  1 <1>  -0.6930 
  5 C       -0.4180     0.7800    -2.7060 C.3   1 <1>  -0.1350 
  6 C       -1.0500     2.2130     0.1640 C.ar  1 <1>   0.1990 
  7 C        1.3770     2.4540     0.4960 C.3   1 <1>   0.2570 
  8 C       -1.7510     3.3230    -0.3160 C.ar  1 <1>  -0.1440 
  9 C       -1.6470     1.4040     1.1240 C.ar  1 <1>  -0.1500 
 10 C        1.9330     1.4960     1.5580 C.2   1 <1>   0.5690 
 11 C       -3.0270     3.5870     0.1560 C.ar  1 <1>  -0.1500 
 12 C       -1.1380     4.2590    -1.3510 C.3   1 <1>  -0.0970 
 13 C       -2.9180     1.6730     1.5910 C.ar  1 <1>  -0.1500 
 14 O        1.6970     1.6930     2.7240 O.2   1 <1>  -0.5700 
 15 N        2.7070     0.4510     1.2000 N.am  1 <1>  -0.8000 
 16 C       -3.6120     2.7660     1.1050 C.ar  1 <1>  -0.1500 
 17 H       -0.3140    -0.0490    -3.3770 H     1 <1>   0.0800 
 18 H       -0.0790     1.6680    -3.2000 H     1 <1>   0.0800 
 19 H       -1.4560     0.8930    -2.4570 H     1 <1>   0.0800 
 20 H        1.0630     3.3530     0.9960 H     1 <1>   0.0800 
 21 H        2.1740     2.7190    -0.1750 H     1 <1>   0.0800 
 22 H       -1.1060     0.5560     1.5090 H     1 <1>   0.1500 
 23 H       -3.5790     4.4360    -0.2080 H     1 <1>   0.1500 
 24 H       -0.9750     3.7350    -2.2740 H     1 <1>   0.0800 
 25 H       -0.1970     4.6360    -0.9950 H     1 <1>   0.0800 
 26 H       -1.7830     5.0970    -1.5460 H     1 <1>   0.0800 
 27 H       -3.3650     1.0340     2.3340 H     1 <1>   0.1500 
 28 H        3.0130    -0.2210     1.9030 H     1 <1>   0.3700 
 29 H        2.8400     0.1810     0.2170 H     1 <1>   0.3700 
 30 H       -4.6030     2.9790     1.4660 H     1 <1>   0.1500 
@<TRIPOS>BOND
  1   1   2  2   
  2   1   3  2   
  3   1   4  am  
  4   1   5  1   
  5   4   6  1   
  6   4   7  1   
  7   5  17  1   
  8   5  18  1   
  9   5  19  1   
 10   6   8  ar  
 11   6   9  ar  
 12   7  10  1   
 13   7  20  1   
 14   7  21  1   
 15   8  11  ar  
 16   8  12  1   
 17   9  13  ar  
 18   9  22  1   
 19  10  14  2   
 20  10  15  am  
 21  11  16  ar  
 22  11  23  1   
 23  12  24  1   
 24  12  25  1   
 25  12  26  1   
 26  13  16  ar  
 27  13  27  1   
 28  15  28  1   
 29  15  29  1   
 30  16  30  1   
@<TRIPOS>SUBSTRUCTURE
  1 ****   4 GROUP 4 **** **** 0

# MOE 2024.06 (io_trps.svl 2023.06)
