@<TRIPOS>MOLECULE
NONAME
30 32 1 0 0 
SMALL
USER_CHARGES


@<TRIPOS>ATOM
  1 S        2.5510    -4.4940    -1.4020 S.3   1 <1>  -0.0800 
  2 C        1.6250    -3.4370    -0.3280 C.2   1 <1>   0.0410 
  3 C        4.0640    -4.0960    -0.6090 C.2   1 <1>  -0.1100 
  4 C        0.1980    -3.3280    -0.4940 C.2   1 <1>   0.5150 
  5 C        2.4820    -2.8550     0.5490 C.2   1 <1>  -0.1500 
  6 C        3.8520    -3.2240     0.3920 C.2   1 <1>  -0.1500 
  7 N       -0.4920    -3.9910    -1.4330 N.2   1 <1>  -0.2270 
  8 N       -0.5610    -2.5800     0.2440 N.2   1 <1>  -0.7070 
  9 N       -1.7110    -3.6630    -1.2930 N.2   1 <1>  -0.4180 
 10 N       -1.7370    -2.8150    -0.2820 N.pl3 1 <1>   0.5800 
 11 C       -2.9840    -2.1800     0.2190 C.3   1 <1>   0.1760 
 12 C       -3.9700    -3.2460     0.7350 C.3   1 <1>  -0.1600 
 13 C       -3.6340    -1.3140    -0.8760 C.3   1 <1>  -0.1600 
 14 C       -5.2940    -2.6220     1.1690 C.3   1 <1>   0.3430 
 15 C       -4.9650    -0.7270    -0.4120 C.3   1 <1>   0.3430 
 16 N       -5.8600    -1.8250     0.0460 N.4   1 <1>  -0.9060 
 17 H        4.9580    -4.5620    -0.9830 H     1 <1>   0.1500 
 18 H        2.1800    -2.1630     1.3160 H     1 <1>   0.1500 
 19 H        4.6130    -2.8180     1.0370 H     1 <1>   0.1500 
 20 H       -2.7030    -1.5440     1.0410 H     1 <1>   0.0800 
 21 H       -3.5330    -3.7560     1.5770 H     1 <1>   0.0800 
 22 H       -4.1610    -3.9810    -0.0300 H     1 <1>   0.0800 
 23 H       -3.8000    -1.8970    -1.7670 H     1 <1>   0.0800 
 24 H       -2.9690    -0.5070    -1.1320 H     1 <1>   0.0800 
 25 H       -5.1320    -1.9850     2.0240 H     1 <1>   0.0800 
 26 H       -5.9840    -3.4010     1.4560 H     1 <1>   0.0800 
 27 H       -5.4260    -0.1860    -1.2240 H     1 <1>   0.0800 
 28 H       -4.7930    -0.0350     0.3980 H     1 <1>   0.0800 
 29 H       -6.7690    -1.4310     0.3290 H     1 <1>   0.4500 
 30 H       -6.0560    -2.4520    -0.7470 H     1 <1>   0.4500 
@<TRIPOS>BOND
  1   1   2  1   
  2   1   3  1   
  3   2   4  1   
  4   2   5  2   
  5   3   6  2   
  6   3  17  1   
  7   4   7  1   
  8   4   8  2   
  9   5   6  1   
 10   5  18  1   
 11   6  19  1   
 12   7   9  2   
 13   8  10  1   
 14   9  10  1   
 15  10  11  1   
 16  11  12  1   
 17  11  13  1   
 18  11  20  1   
 19  12  14  1   
 20  12  21  1   
 21  12  22  1   
 22  13  15  1   
 23  13  23  1   
 24  13  24  1   
 25  14  16  1   
 26  14  25  1   
 27  14  26  1   
 28  15  16  1   
 29  15  27  1   
 30  15  28  1   
 31  16  29  1   
 32  16  30  1   
@<TRIPOS>SUBSTRUCTURE
  1 ****  10 GROUP 4 **** **** 0

# MOE 2024.06 (io_trps.svl 2023.06)
