@<TRIPOS>MOLECULE
NONAME
41 42 1 0 0 
SMALL
USER_CHARGES


@<TRIPOS>ATOM
  1 O        1.9350     1.1070     1.8380 O.3   1 <1>  -0.5600 
  2 C        1.9990    -0.2110     1.3620 C.3   1 <1>   0.1200 
  3 C        1.5910     2.0530     0.8640 C.3   1 <1>   0.1200 
  4 C        2.9670    -0.3370     0.1620 C.3   1 <1>   0.3430 
  5 C        2.6240     2.0690    -0.2880 C.3   1 <1>   0.3430 
  6 N        3.6410     0.9730    -0.1410 N.4   1 <1>  -0.9590 
  7 C        4.6050     0.9290    -1.2750 C.3   1 <1>   0.3430 
  8 C        5.7700     0.0060    -0.9410 C.3   1 <1>  -0.1600 
  9 C        6.8870     0.1480    -1.9730 C.3   1 <1>   0.2090 
 10 N        8.0510    -0.5980    -1.4770 N.pl3 1 <1>  -0.8690 
 11 C        9.0480    -0.0370    -0.7530 C.ar  1 <1>   0.7200 
 12 N       10.1950    -0.6890    -0.8250 N.ar  1 <1>  -0.6200 
 13 N        8.7820     1.0740    -0.0720 N.ar  1 <1>  -0.6200 
 14 C       11.1830    -0.1760    -0.1350 C.ar  1 <1>   0.1670 
 15 C        9.7860     1.5680     0.6100 C.ar  1 <1>   0.1670 
 16 C       11.0250     0.9690     0.6110 C.ar  1 <1>  -0.1500 
 17 C       12.5110    -0.9010    -0.1930 C.3   1 <1>  -0.0970 
 18 C        9.5290     2.8320     1.4020 C.3   1 <1>  -0.0970 
 19 H        1.0080    -0.5280     1.0870 H     1 <1>   0.0800 
 20 H        2.3360    -0.8340     2.1730 H     1 <1>   0.0800 
 21 H        1.5520     3.0180     1.3400 H     1 <1>   0.0800 
 22 H        0.6070     1.8230     0.4920 H     1 <1>   0.0800 
 23 H        2.4140    -0.6730    -0.7000 H     1 <1>   0.0800 
 24 H        3.7030    -1.0910     0.3880 H     1 <1>   0.0800 
 25 H        3.1190     3.0260    -0.2980 H     1 <1>   0.0800 
 26 H        2.1010     1.9650    -1.2240 H     1 <1>   0.0800 
 27 H        4.1590     1.2050     0.7220 H     1 <1>   0.4500 
 28 H        4.9910     1.9210    -1.4500 H     1 <1>   0.0800 
 29 H        4.1120     0.5940    -2.1730 H     1 <1>   0.0800 
 30 H        5.4520    -1.0210    -0.9240 H     1 <1>   0.0800 
 31 H        6.1650     0.2730     0.0240 H     1 <1>   0.0800 
 32 H        7.1570     1.1840    -2.1050 H     1 <1>   0.0800 
 33 H        6.5840    -0.2520    -2.9270 H     1 <1>   0.0800 
 34 H        8.4140    -1.3460    -2.0700 H     1 <1>   0.4000 
 35 H       11.8410     1.3810     1.1730 H     1 <1>   0.1500 
 36 H       12.8550    -0.9400    -1.2100 H     1 <1>   0.0800 
 37 H       12.3870    -1.9050     0.1690 H     1 <1>   0.0800 
 38 H       13.2500    -0.4030     0.4070 H     1 <1>   0.0800 
 39 H        9.2130     3.6150     0.7370 H     1 <1>   0.0800 
 40 H       10.4150     3.1510     1.9190 H     1 <1>   0.0800 
 41 H        8.7520     2.6530     2.1230 H     1 <1>   0.0800 
@<TRIPOS>BOND
  1   1   2  1   
  2   1   3  1   
  3   2   4  1   
  4   2  19  1   
  5   2  20  1   
  6   3   5  1   
  7   3  21  1   
  8   3  22  1   
  9   4   6  1   
 10   4  23  1   
 11   4  24  1   
 12   5   6  1   
 13   5  25  1   
 14   5  26  1   
 15   6   7  1   
 16   6  27  1   
 17   7   8  1   
 18   7  28  1   
 19   7  29  1   
 20   8   9  1   
 21   8  30  1   
 22   8  31  1   
 23   9  10  1   
 24   9  32  1   
 25   9  33  1   
 26  10  11  1   
 27  10  34  1   
 28  11  12  ar  
 29  11  13  ar  
 30  12  14  ar  
 31  13  15  ar  
 32  14  16  ar  
 33  14  17  1   
 34  15  16  ar  
 35  15  18  1   
 36  16  35  1   
 37  17  36  1   
 38  17  37  1   
 39  17  38  1   
 40  18  39  1   
 41  18  40  1   
 42  18  41  1   
@<TRIPOS>SUBSTRUCTURE
  1 ****   8 GROUP 4 **** **** 0

# MOE 2024.06 (io_trps.svl 2023.06)
