@<TRIPOS>MOLECULE
NONAME
40 41 1 0 0 
SMALL
USER_CHARGES


@<TRIPOS>ATOM
  1 S       -0.0620     0.1300    -1.0710 S.o2  1 <1>   1.3330 
  2 O       -0.6440     1.4460    -0.9860 O.2   1 <1>  -0.6500 
  3 O        0.8650    -0.2140    -2.1180 O.2   1 <1>  -0.6500 
  4 N       -1.3380    -0.9990    -1.2810 N.am  1 <1>  -0.7570 
  5 C        0.6290    -0.3610     0.5150 C.3   1 <1>  -0.0550 
  6 C       -2.5820    -1.0670    -0.6780 C.ar  1 <1>   0.1990 
  7 C        1.8500     0.4640     0.9580 C.3   1 <1>  -0.2400 
  8 C       -3.0150    -0.1670     0.2920 C.ar  1 <1>  -0.1500 
  9 C       -3.4500    -2.0910    -1.0430 C.ar  1 <1>  -0.1500 
 10 C       -4.2630    -0.2940     0.8720 C.ar  1 <1>  -0.1500 
 11 C       -4.6970    -2.2140    -0.4620 C.ar  1 <1>  -0.1500 
 12 C       -5.1430    -1.3150     0.5110 C.ar  1 <1>   0.0860 
 13 C       -6.4510    -1.4260     1.1260 C.2   1 <1>   0.5440 
 14 O       -6.6450    -1.0120     2.2530 O.2   1 <1>  -0.5700 
 15 N       -7.4960    -1.9860     0.4450 N.am  1 <1>  -0.7300 
 16 C       -8.8670    -2.1520     0.9580 C.3   1 <1>   0.2200 
 17 C       -9.3170    -3.5830     0.6970 C.3   1 <1>  -0.1600 
 18 C       -9.8150    -1.3240     0.1000 C.3   1 <1>  -0.1600 
 19 C       -9.7730    -3.6190    -0.7660 C.3   1 <1>  -0.1600 
 20 C      -10.0910    -2.1670    -1.1500 C.3   1 <1>  -0.1600 
 21 H       -1.1470    -1.5770    -2.0940 H     1 <1>   0.4200 
 22 H        0.9160    -1.3940     0.4630 H     1 <1>   0.0800 
 23 H       -0.1310    -0.2760     1.2680 H     1 <1>   0.0800 
 24 H        2.6420     0.3720     0.2340 H     1 <1>   0.0800 
 25 H        2.2100     0.1160     1.9110 H     1 <1>   0.0800 
 26 H        1.5840     1.5030     1.0460 H     1 <1>   0.0800 
 27 H       -2.3860     0.6460     0.6000 H     1 <1>   0.1500 
 28 H       -3.1390    -2.8000    -1.7880 H     1 <1>   0.1500 
 29 H       -4.5750     0.4140     1.6220 H     1 <1>   0.1500 
 30 H       -5.3360    -3.0260    -0.7600 H     1 <1>   0.1500 
 31 H       -7.3950    -2.2140    -0.5420 H     1 <1>   0.3700 
 32 H       -8.9230    -1.8890     2.0030 H     1 <1>   0.0800 
 33 H      -10.1610    -3.7930     1.3300 H     1 <1>   0.0800 
 34 H       -8.5420    -4.2980     0.9120 H     1 <1>   0.0800 
 35 H       -9.4110    -0.3530    -0.1300 H     1 <1>   0.0800 
 36 H      -10.7340    -1.1920     0.6420 H     1 <1>   0.0800 
 37 H      -10.6340    -4.2540    -0.8830 H     1 <1>   0.0800 
 38 H       -8.9790    -3.9930    -1.3890 H     1 <1>   0.0800 
 39 H       -9.4460    -1.8540    -1.9540 H     1 <1>   0.0800 
 40 H      -11.1150    -2.0590    -1.4660 H     1 <1>   0.0800 
@<TRIPOS>BOND
  1   1   2  2   
  2   1   3  2   
  3   1   4  am  
  4   1   5  1   
  5   4   6  1   
  6   4  21  1   
  7   5   7  1   
  8   5  22  1   
  9   5  23  1   
 10   6   8  ar  
 11   6   9  ar  
 12   7  24  1   
 13   7  25  1   
 14   7  26  1   
 15   8  10  ar  
 16   8  27  1   
 17   9  11  ar  
 18   9  28  1   
 19  10  12  ar  
 20  10  29  1   
 21  11  12  ar  
 22  11  30  1   
 23  12  13  1   
 24  13  14  2   
 25  13  15  am  
 26  15  16  1   
 27  15  31  1   
 28  16  17  1   
 29  16  18  1   
 30  16  32  1   
 31  17  19  1   
 32  17  33  1   
 33  17  34  1   
 34  18  20  1   
 35  18  35  1   
 36  18  36  1   
 37  19  20  1   
 38  19  37  1   
 39  19  38  1   
 40  20  39  1   
 41  20  40  1   
@<TRIPOS>SUBSTRUCTURE
  1 ****  12 GROUP 4 **** **** 0

# MOE 2024.06 (io_trps.svl 2023.06)
