@<TRIPOS>MOLECULE
NONAME
39 40 1 0 0 
SMALL
USER_CHARGES


@<TRIPOS>ATOM
  1 O        0.2960    -2.1530    -3.5380 O.2   1 <1>  -0.5700 
  2 C       -0.0790    -2.5380    -2.4580 C.2   1 <1>   0.5690 
  3 N        0.8160    -2.6330    -1.4430 N.am  1 <1>  -0.7300 
  4 C       -1.5420    -2.9370    -2.2900 C.3   1 <1>   0.1810 
  5 C        0.5900    -3.0300    -0.0420 C.3   1 <1>   0.2200 
  6 O       -2.1610    -2.2030    -1.2430 O.3   1 <1>  -0.3630 
  7 C        0.8470    -1.8270     0.8550 C.3   1 <1>  -0.1600 
  8 C        1.6780    -4.0140     0.3690 C.3   1 <1>  -0.1600 
  9 C       -3.3670    -2.5710    -0.7360 C.ar  1 <1>   0.0820 
 10 C        2.3680    -1.7540     1.0290 C.3   1 <1>  -0.1600 
 11 C        2.9010    -3.1600     0.7240 C.3   1 <1>  -0.1600 
 12 C       -3.7520    -2.0460     0.4990 C.ar  1 <1>  -0.1440 
 13 C       -4.2080    -3.4540    -1.4100 C.ar  1 <1>  -0.1500 
 14 C       -4.9650    -2.4370     1.0620 C.ar  1 <1>  -0.1440 
 15 C       -2.8430    -1.0560     1.2280 C.3   1 <1>  -0.0970 
 16 C       -5.4130    -3.8280    -0.8490 C.ar  1 <1>  -0.1500 
 17 C       -5.7860    -3.3240     0.3820 C.ar  1 <1>  -0.1500 
 18 C       -5.4310    -1.9220     2.4180 C.3   1 <1>  -0.0970 
 19 H        1.7620    -2.3120    -1.6460 H     1 <1>   0.3700 
 20 H       -1.5950    -3.9830    -2.0540 H     1 <1>   0.0800 
 21 H       -2.0760    -2.7360    -3.2000 H     1 <1>   0.0800 
 22 H       -0.3970    -3.4380     0.0980 H     1 <1>   0.0800 
 23 H        0.3950    -2.0130     1.8130 H     1 <1>   0.0800 
 24 H        0.4310    -0.9210     0.4470 H     1 <1>   0.0800 
 25 H        1.8850    -4.7380    -0.3990 H     1 <1>   0.0800 
 26 H        1.3490    -4.5340     1.2520 H     1 <1>   0.0800 
 27 H        2.6270    -1.4400     2.0250 H     1 <1>   0.0800 
 28 H        2.7820    -1.0510     0.3260 H     1 <1>   0.0800 
 29 H        3.5750    -3.1180    -0.1140 H     1 <1>   0.0800 
 30 H        3.4250    -3.5740     1.5690 H     1 <1>   0.0800 
 31 H       -3.9480    -3.8550    -2.3700 H     1 <1>   0.1500 
 32 H       -2.2550    -1.5770     1.9610 H     1 <1>   0.0800 
 33 H       -3.4200    -0.2950     1.7190 H     1 <1>   0.0800 
 34 H       -2.1790    -0.5540     0.5480 H     1 <1>   0.0800 
 35 H       -6.0630    -4.5100    -1.3690 H     1 <1>   0.1500 
 36 H       -6.7260    -3.6270     0.8070 H     1 <1>   0.1500 
 37 H       -5.6930    -0.8820     2.3430 H     1 <1>   0.0800 
 38 H       -4.6510    -2.0380     3.1480 H     1 <1>   0.0800 
 39 H       -6.2920    -2.4650     2.7630 H     1 <1>   0.0800 
@<TRIPOS>BOND
  1   1   2  2   
  2   2   3  am  
  3   2   4  1   
  4   3   5  1   
  5   3  19  1   
  6   4   6  1   
  7   4  20  1   
  8   4  21  1   
  9   5   7  1   
 10   5   8  1   
 11   5  22  1   
 12   6   9  1   
 13   7  10  1   
 14   7  23  1   
 15   7  24  1   
 16   8  11  1   
 17   8  25  1   
 18   8  26  1   
 19   9  12  ar  
 20   9  13  ar  
 21  10  11  1   
 22  10  27  1   
 23  10  28  1   
 24  11  29  1   
 25  11  30  1   
 26  12  14  ar  
 27  12  15  1   
 28  13  16  ar  
 29  13  31  1   
 30  14  17  ar  
 31  14  18  1   
 32  15  32  1   
 33  15  33  1   
 34  15  34  1   
 35  16  17  ar  
 36  16  35  1   
 37  17  36  1   
 38  18  37  1   
 39  18  38  1   
 40  18  39  1   
@<TRIPOS>SUBSTRUCTURE
  1 ****   6 GROUP 4 **** **** 0

# MOE 2024.06 (io_trps.svl 2023.06)
