@<TRIPOS>MOLECULE
NONAME
59 61 1 0 0 
SMALL
USER_CHARGES


@<TRIPOS>ATOM
  1 O       -0.5740     2.1410    -2.0890 O.2   1 <1>  -0.5700 
  2 C        0.6120     1.8830    -2.0470 C.2   1 <1>   0.6900 
  3 N        1.1140     0.9290    -1.2200 N.am  1 <1>  -0.5470 
  4 N        1.4660     2.6230    -2.7980 N.am  1 <1>  -0.7300 
  5 C        0.4260     0.1030    -0.3190 C.ar  1 <1>   0.1170 
  6 C        1.0340     3.5740    -3.8720 C.3   1 <1>   0.1400 
  7 C        0.9360    -0.1410     0.9620 C.ar  1 <1>  -0.1440 
  8 C       -0.7650    -0.5020    -0.7040 C.ar  1 <1>  -0.1500 
  9 C        0.6870     4.9760    -3.3210 C.3   1 <1>   0.3430 
 10 C        0.2510    -0.9970     1.8250 C.ar  1 <1>  -0.1440 
 11 C        2.2390     0.5330     1.4010 C.3   1 <1>  -0.0970 
 12 C       -1.4460    -1.3380     0.1560 C.ar  1 <1>  -0.1500 
 13 N       -0.3390     4.9010    -2.2430 N.4   1 <1>  -0.9590 
 14 C       -0.9360    -1.5840     1.4150 C.ar  1 <1>  -0.1500 
 15 C        0.7590    -1.3300     3.2220 C.3   1 <1>  -0.0970 
 16 C       -1.7570     4.8520    -2.7370 C.3   1 <1>   0.3430 
 17 C       -0.1930     5.9490    -1.1790 C.3   1 <1>   0.3430 
 18 C       -2.7420     4.5660    -1.5860 C.3   1 <1>   0.2090 
 19 C       -1.1510     5.7030     0.0030 C.3   1 <1>   0.2090 
 20 N       -2.5710     5.5180    -0.4390 N.pl3 1 <1>  -0.8380 
 21 C       -3.4550     5.2610     0.6210 C.ar  1 <1>   0.1000 
 22 C       -3.4040     4.1070     1.4280 C.ar  1 <1>   0.0820 
 23 C       -4.4410     6.2050     0.8720 C.ar  1 <1>  -0.1500 
 24 O       -2.4270     3.1800     1.1780 O.3   1 <1>  -0.3620 
 25 C       -4.3330     3.9380     2.4490 C.ar  1 <1>  -0.1500 
 26 C       -5.3610     6.0290     1.8900 C.ar  1 <1>  -0.1500 
 27 C       -2.4480     1.8980     1.7680 C.3   1 <1>   0.0400 
 28 C       -5.3070     4.8950     2.6780 C.ar  1 <1>  -0.1500 
 29 H        2.1240     0.8940    -1.1350 H     1 <1>   0.3700 
 30 H        2.4220     2.2700    -2.8910 H     1 <1>   0.3700 
 31 H        0.1770     3.1680    -4.3830 H     1 <1>   0.0800 
 32 H        1.8250     3.6660    -4.5970 H     1 <1>   0.0800 
 33 H       -1.1630    -0.3210    -1.6860 H     1 <1>   0.1500 
 34 H        0.3370     5.6090    -4.1200 H     1 <1>   0.0800 
 35 H        1.5900     5.4100    -2.9280 H     1 <1>   0.0800 
 36 H        2.3040     1.5330     1.0130 H     1 <1>   0.0800 
 37 H        3.0790    -0.0380     1.0490 H     1 <1>   0.0800 
 38 H        2.3070     0.6160     2.4690 H     1 <1>   0.0800 
 39 H       -2.3670    -1.7990    -0.1550 H     1 <1>   0.1500 
 40 H       -0.2180     3.9700    -1.7920 H     1 <1>   0.4500 
 41 H       -1.4740    -2.2430     2.0740 H     1 <1>   0.1500 
 42 H        1.7850    -1.6490     3.1790 H     1 <1>   0.0800 
 43 H        0.1850    -2.1250     3.6640 H     1 <1>   0.0800 
 44 H        0.6830    -0.4660     3.8580 H     1 <1>   0.0800 
 45 H       -1.8590     4.0710    -3.4730 H     1 <1>   0.0800 
 46 H       -2.0220     5.7890    -3.1950 H     1 <1>   0.0800 
 47 H       -0.4060     6.9200    -1.5930 H     1 <1>   0.0800 
 48 H        0.8180     5.9570    -0.8080 H     1 <1>   0.0800 
 49 H       -2.6020     3.5540    -1.2490 H     1 <1>   0.0800 
 50 H       -3.7500     4.6450    -1.9550 H     1 <1>   0.0800 
 51 H       -1.1060     6.5420     0.6760 H     1 <1>   0.0800 
 52 H       -0.8140     4.8370     0.5430 H     1 <1>   0.0800 
 53 H       -4.4820     7.0850     0.2580 H     1 <1>   0.1500 
 54 H       -4.3160     3.0720     3.0820 H     1 <1>   0.1500 
 55 H       -6.1170     6.7740     2.0660 H     1 <1>   0.1500 
 56 H       -1.6340     1.3290     1.3580 H     1 <1>   0.0800 
 57 H       -3.3820     1.4190     1.5330 H     1 <1>   0.0800 
 58 H       -2.3200     1.9980     2.8310 H     1 <1>   0.0800 
 59 H       -6.0220     4.7570     3.4710 H     1 <1>   0.1500 
@<TRIPOS>BOND
  1   1   2  2   
  2   2   3  am  
  3   2   4  am  
  4   3   5  1   
  5   3  29  1   
  6   4   6  1   
  7   4  30  1   
  8   5   7  ar  
  9   5   8  ar  
 10   6   9  1   
 11   6  31  1   
 12   6  32  1   
 13   7  10  ar  
 14   7  11  1   
 15   8  12  ar  
 16   8  33  1   
 17   9  13  1   
 18   9  34  1   
 19   9  35  1   
 20  10  14  ar  
 21  10  15  1   
 22  11  36  1   
 23  11  37  1   
 24  11  38  1   
 25  12  14  ar  
 26  12  39  1   
 27  13  16  1   
 28  13  17  1   
 29  13  40  1   
 30  14  41  1   
 31  15  42  1   
 32  15  43  1   
 33  15  44  1   
 34  16  18  1   
 35  16  45  1   
 36  16  46  1   
 37  17  19  1   
 38  17  47  1   
 39  17  48  1   
 40  18  20  1   
 41  18  49  1   
 42  18  50  1   
 43  19  20  1   
 44  19  51  1   
 45  19  52  1   
 46  20  21  1   
 47  21  22  ar  
 48  21  23  ar  
 49  22  24  1   
 50  22  25  ar  
 51  23  26  ar  
 52  23  53  1   
 53  24  27  1   
 54  25  28  ar  
 55  25  54  1   
 56  26  28  ar  
 57  26  55  1   
 58  27  56  1   
 59  27  57  1   
 60  27  58  1   
 61  28  59  1   
@<TRIPOS>SUBSTRUCTURE
  1 ****  24 GROUP 4 **** **** 0

# MOE 2024.06 (io_trps.svl 2023.06)
