@<TRIPOS>MOLECULE
NONAME
46 48 1 0 0 
SMALL
USER_CHARGES


@<TRIPOS>ATOM
  1 O        2.5490     2.2010    -1.8790 O.co2 1 <1>  -0.9000 
  2 C        3.1230     1.1320    -1.6600 C.2   1 <1>   0.9060 
  3 O        4.1360     0.7940    -2.2870 O.co2 1 <1>  -0.9000 
  4 C        2.5520     0.2220    -0.5880 C.3   1 <1>  -0.1860 
  5 C        3.1610     0.3450     0.8620 C.3   1 <1>  -0.0190 
  6 C        2.5090    -1.2630    -1.0310 C.3   1 <1>   0.0580 
  7 C        4.4690     1.1180     1.0770 C.2   1 <1>   0.5690 
  8 C        3.3260    -1.0730     1.4720 C.3   1 <1>   0.0580 
  9 C        3.8610    -1.8990    -0.7290 C.2   1 <1>  -0.2880 
 10 C        1.5150    -1.9770    -0.0850 C.3   1 <1>  -0.1600 
 11 O        4.6460     1.6140     2.1690 O.2   1 <1>  -0.5700 
 12 N        5.4190     1.1990     0.1150 N.am  1 <1>  -0.7300 
 13 C        4.2670    -1.8230     0.5400 C.2   1 <1>  -0.2880 
 14 C        1.9650    -1.8070     1.3950 C.3   1 <1>  -0.1600 
 15 C        6.6920     1.9360     0.1910 C.3   1 <1>   0.1400 
 16 C        7.8380     1.0110    -0.2200 C.3   1 <1>  -0.0220 
 17 C        9.1970     1.6960    -0.1010 C.2   1 <1>  -0.2760 
 18 C        9.9510     1.9960    -1.1640 C.2   1 <1>  -0.2880 
 19 C        9.6300     2.0080     1.3280 C.3   1 <1>  -0.0220 
 20 C       11.3000     2.6910    -1.0930 C.3   1 <1>  -0.0220 
 21 C       11.1290     2.3350     1.4080 C.3   1 <1>  -0.1600 
 22 C       11.5430     3.3050     0.2940 C.3   1 <1>  -0.1600 
 23 H        1.5300     0.5410    -0.5130 H     1 <1>   0.0800 
 24 H        2.4310     0.8680     1.4530 H     1 <1>   0.0800 
 25 H        2.2290    -1.3680    -2.0660 H     1 <1>   0.0800 
 26 H        3.7020    -1.0310     2.4800 H     1 <1>   0.0800 
 27 H        4.3810    -2.3460    -1.5590 H     1 <1>   0.1500 
 28 H        1.4890    -3.0230    -0.3360 H     1 <1>   0.0800 
 29 H        0.5250    -1.5800    -0.2220 H     1 <1>   0.0800 
 30 H        5.1450     0.8970    -0.8460 H     1 <1>   0.3700 
 31 H        5.1830    -2.2020     0.9580 H     1 <1>   0.1500 
 32 H        1.2240    -1.2520     1.9430 H     1 <1>   0.0800 
 33 H        2.0600    -2.7760     1.8520 H     1 <1>   0.0800 
 34 H        6.8400     2.2930     1.1940 H     1 <1>   0.0800 
 35 H        6.6480     2.7810    -0.4730 H     1 <1>   0.0800 
 36 H        7.6750     0.7060    -1.2390 H     1 <1>   0.0800 
 37 H        7.8250     0.1300     0.3960 H     1 <1>   0.0800 
 38 H        9.6540     1.7610    -2.1720 H     1 <1>   0.1500 
 39 H        9.4250     1.1660     1.9660 H     1 <1>   0.0800 
 40 H        9.0630     2.8470     1.6910 H     1 <1>   0.0800 
 41 H       11.3450     3.4690    -1.8350 H     1 <1>   0.0800 
 42 H       12.0700     1.9720    -1.3120 H     1 <1>   0.0800 
 43 H       11.6920     1.4230     1.3050 H     1 <1>   0.0800 
 44 H       11.3530     2.7600     2.3700 H     1 <1>   0.0800 
 45 H       10.9620     4.2070     0.3840 H     1 <1>   0.0800 
 46 H       12.5820     3.5660     0.3960 H     1 <1>   0.0800 
@<TRIPOS>BOND
  1   1   2  ar  
  2   2   3  ar  
  3   2   4  1   
  4   4   5  1   
  5   4   6  1   
  6   4  23  1   
  7   5   7  1   
  8   5   8  1   
  9   5  24  1   
 10   6   9  1   
 11   6  10  1   
 12   6  25  1   
 13   7  11  2   
 14   7  12  am  
 15   8  13  1   
 16   8  14  1   
 17   8  26  1   
 18   9  13  2   
 19   9  27  1   
 20  10  14  1   
 21  10  28  1   
 22  10  29  1   
 23  12  15  1   
 24  12  30  1   
 25  13  31  1   
 26  14  32  1   
 27  14  33  1   
 28  15  16  1   
 29  15  34  1   
 30  15  35  1   
 31  16  17  1   
 32  16  36  1   
 33  16  37  1   
 34  17  18  2   
 35  17  19  1   
 36  18  20  1   
 37  18  38  1   
 38  19  21  1   
 39  19  39  1   
 40  19  40  1   
 41  20  22  1   
 42  20  41  1   
 43  20  42  1   
 44  21  22  1   
 45  21  43  1   
 46  21  44  1   
 47  22  45  1   
 48  22  46  1   
@<TRIPOS>SUBSTRUCTURE
  1 ****  12 GROUP 4 **** **** 0

# MOE 2024.06 (io_trps.svl 2023.06)
