@<TRIPOS>MOLECULE
NONAME
36 36 1 0 0 
SMALL
USER_CHARGES


@<TRIPOS>ATOM
  1 S        0.1970    -0.0380    -1.0240 S.o2  1 <1>   1.4470 
  2 O        0.8320    -1.3360    -0.9960 O.2   1 <1>  -0.6500 
  3 O        0.2150     0.7130    -2.2600 O.2   1 <1>  -0.6500 
  4 N        1.1530     0.8110     0.0640 N.am  1 <1>  -0.9140 
  5 C       -1.4830    -0.0260    -0.2820 C.ar  1 <1>  -0.0090 
  6 C        2.3990     1.2630    -0.5230 C.3   1 <1>   0.1960 
  7 C       -2.0850     1.1780     0.1150 C.ar  1 <1>  -0.1430 
  8 C       -2.2260    -1.2040    -0.1020 C.ar  1 <1>  -0.1430 
  9 C        3.2460     1.9110     0.5680 C.3   1 <1>  -0.1600 
 10 C       -3.3400     1.1880     0.7030 C.ar  1 <1>  -0.1500 
 11 C       -1.4190     2.5390    -0.0740 C.3   1 <1>  -0.0970 
 12 C       -3.4800    -1.1710     0.4890 C.ar  1 <1>  -0.1500 
 13 C       -1.7270    -2.5770    -0.5410 C.3   1 <1>  -0.0970 
 14 C        4.5530     2.4430    -0.0170 C.3   1 <1>   0.1200 
 15 C       -4.0430     0.0180     0.9000 C.ar  1 <1>  -0.1430 
 16 O        5.3060     2.9690     1.0140 O.3   1 <1>  -0.6800 
 17 C       -5.4160     0.0410     1.5470 C.3   1 <1>  -0.0970 
 18 H        1.3910     0.1020     0.7550 H     1 <1>   0.4200 
 19 H        2.1910     1.9820    -1.3000 H     1 <1>   0.0800 
 20 H        2.9270     0.4280    -0.9580 H     1 <1>   0.0800 
 21 H        3.4720     1.1800     1.3240 H     1 <1>   0.0800 
 22 H        2.6920     2.7240     1.0040 H     1 <1>   0.0800 
 23 H       -3.7840     2.1180     1.0120 H     1 <1>   0.1500 
 24 H       -0.6460     2.6800     0.6600 H     1 <1>   0.0800 
 25 H       -2.1320     3.3360     0.0390 H     1 <1>   0.0800 
 26 H       -0.9950     2.6300    -1.0570 H     1 <1>   0.0800 
 27 H       -4.0350    -2.0820     0.6300 H     1 <1>   0.1500 
 28 H       -0.9140    -2.8960     0.0870 H     1 <1>   0.0800 
 29 H       -1.3970    -2.5500    -1.5640 H     1 <1>   0.0800 
 30 H       -2.5050    -3.3160    -0.4740 H     1 <1>   0.0800 
 31 H        4.3750     3.2200    -0.7410 H     1 <1>   0.0800 
 32 H        5.1250     1.6520    -0.4720 H     1 <1>   0.0800 
 33 H        4.8350     3.7080     1.4460 H     1 <1>   0.4000 
 34 H       -5.4910     0.8590     2.2410 H     1 <1>   0.0800 
 35 H       -5.5950    -0.8740     2.0820 H     1 <1>   0.0800 
 36 H       -6.1710     0.1560     0.7910 H     1 <1>   0.0800 
@<TRIPOS>BOND
  1   1   2  2   
  2   1   3  2   
  3   1   4  am  
  4   1   5  1   
  5   4   6  1   
  6   4  18  1   
  7   5   7  ar  
  8   5   8  ar  
  9   6   9  1   
 10   6  19  1   
 11   6  20  1   
 12   7  10  ar  
 13   7  11  1   
 14   8  12  ar  
 15   8  13  1   
 16   9  14  1   
 17   9  21  1   
 18   9  22  1   
 19  10  15  ar  
 20  10  23  1   
 21  11  24  1   
 22  11  25  1   
 23  11  26  1   
 24  12  15  ar  
 25  12  27  1   
 26  13  28  1   
 27  13  29  1   
 28  13  30  1   
 29  14  16  1   
 30  14  31  1   
 31  14  32  1   
 32  15  17  1   
 33  16  33  1   
 34  17  34  1   
 35  17  35  1   
 36  17  36  1   
@<TRIPOS>SUBSTRUCTURE
  1 ****   5 GROUP 4 **** **** 0

# MOE 2024.06 (io_trps.svl 2023.06)
