@<TRIPOS>MOLECULE
NONAME
42 43 1 0 0 
SMALL
USER_CHARGES


@<TRIPOS>ATOM
  1 S       -0.0960     0.2010    -0.0330 S.o2  1 <1>   1.3330 
  2 O        0.3740     0.2100     1.3340 O.2   1 <1>  -0.6500 
  3 O        0.5020    -0.6870    -1.0030 O.2   1 <1>  -0.6500 
  4 N       -1.7570    -0.1020     0.0130 N.am  1 <1>  -0.8490 
  5 C       -0.0200     1.8500    -0.7020 C.3   1 <1>  -0.1350 
  6 C       -2.4000     0.5590     1.1520 C.3   1 <1>   0.3340 
  7 C       -2.1090    -1.5340    -0.0650 C.3   1 <1>   0.1960 
  8 C       -3.8550     0.8310     0.8270 C.2   1 <1>  -0.1240 
  9 C       -3.1170    -1.7660    -1.1920 C.3   1 <1>   0.1200 
 10 C       -4.1310     2.0060     0.0590 C.2   1 <1>   0.6160 
 11 C       -4.8630     0.0100     1.2190 C.2   1 <1>  -0.1780 
 12 O       -3.7100    -3.0150    -1.0080 O.3   1 <1>  -0.5600 
 13 O       -3.2810     2.8080    -0.2900 O.2   1 <1>  -0.5700 
 14 N       -5.4240     2.2510    -0.2830 N.am  1 <1>  -0.5470 
 15 C       -6.2190     0.2890     0.8540 C.ar  1 <1>   0.0280 
 16 C       -4.6920    -3.3080    -1.9480 C.3   1 <1>   0.0400 
 17 C       -6.4910     1.4340     0.0840 C.ar  1 <1>   0.1170 
 18 C       -7.2760    -0.5410     1.2270 C.ar  1 <1>  -0.1500 
 19 C       -7.8050     1.7270    -0.2950 C.ar  1 <1>  -0.1430 
 20 C       -8.5670    -0.2460     0.8500 C.ar  1 <1>  -0.1500 
 21 C       -8.8300     0.8860     0.0910 C.ar  1 <1>  -0.1500 
 22 C       -8.1220     2.9630    -1.1280 C.3   1 <1>  -0.0970 
 23 H        1.0020     2.1520    -0.8190 H     1 <1>   0.0800 
 24 H       -0.5140     2.5470    -0.0550 H     1 <1>   0.0800 
 25 H       -0.5000     1.8780    -1.6610 H     1 <1>   0.0800 
 26 H       -1.9180     1.4980     1.3720 H     1 <1>   0.0800 
 27 H       -2.3120    -0.0530     2.0350 H     1 <1>   0.0800 
 28 H       -2.5350    -1.8710     0.8640 H     1 <1>   0.0800 
 29 H       -1.2420    -2.1410    -0.2620 H     1 <1>   0.0800 
 30 H       -2.6170    -1.7520    -2.1450 H     1 <1>   0.0800 
 31 H       -3.8900    -1.0180    -1.1700 H     1 <1>   0.0800 
 32 H       -4.6830    -0.8790     1.7980 H     1 <1>   0.1500 
 33 H       -5.5830     3.0960    -0.8260 H     1 <1>   0.3700 
 34 H       -5.0810    -4.2870    -1.7310 H     1 <1>   0.0800 
 35 H       -4.2560    -3.3010    -2.9320 H     1 <1>   0.0800 
 36 H       -5.4820    -2.5800    -1.8770 H     1 <1>   0.0800 
 37 H       -7.0760    -1.4190     1.8130 H     1 <1>   0.1500 
 38 H       -9.3780    -0.8910     1.1410 H     1 <1>   0.1500 
 39 H       -9.8470     1.0960    -0.1920 H     1 <1>   0.1500 
 40 H       -7.5920     2.9240    -2.0630 H     1 <1>   0.0800 
 41 H       -7.8340     3.8510    -0.5940 H     1 <1>   0.0800 
 42 H       -9.1740     3.0240    -1.3400 H     1 <1>   0.0800 
@<TRIPOS>BOND
  1   1   2  2   
  2   1   3  2   
  3   1   4  am  
  4   1   5  1   
  5   4   6  1   
  6   4   7  1   
  7   5  23  1   
  8   5  24  1   
  9   5  25  1   
 10   6   8  1   
 11   6  26  1   
 12   6  27  1   
 13   7   9  1   
 14   7  28  1   
 15   7  29  1   
 16   8  10  1   
 17   8  11  2   
 18   9  12  1   
 19   9  30  1   
 20   9  31  1   
 21  10  13  2   
 22  10  14  am  
 23  11  15  1   
 24  11  32  1   
 25  12  16  1   
 26  14  17  1   
 27  14  33  1   
 28  15  17  ar  
 29  15  18  ar  
 30  16  34  1   
 31  16  35  1   
 32  16  36  1   
 33  17  19  ar  
 34  18  20  ar  
 35  18  37  1   
 36  19  21  ar  
 37  19  22  1   
 38  20  21  ar  
 39  20  38  1   
 40  21  39  1   
 41  22  40  1   
 42  22  41  1   
 43  22  42  1   
@<TRIPOS>SUBSTRUCTURE
  1 ****   8 GROUP 4 **** **** 0

# MOE 2024.06 (io_trps.svl 2023.06)
