@<TRIPOS>MOLECULE
NONAME
42 43 1 0 0 
SMALL
USER_CHARGES


@<TRIPOS>ATOM
  1 N       -0.0110     0.0500     0.1670 N.3   1 <1>  -0.8100 
  2 C        1.1980     0.7920     0.6210 C.3   1 <1>   0.1900 
  3 C       -0.0910    -1.3470     0.7010 C.3   1 <1>   0.1100 
  4 C       -1.2940     0.7580     0.4790 C.3   1 <1>   0.1100 
  5 C        1.2240     2.2010    -0.0010 C.3   1 <1>  -0.1600 
  6 C        2.4750     0.0340     0.2090 C.3   1 <1>  -0.1600 
  7 C       -1.3370    -2.1310     0.2160 C.3   1 <1>   0.3430 
  8 C       -2.5650    -0.0240     0.0590 C.3   1 <1>   0.3430 
  9 C        2.5360     2.9430     0.2470 C.3   1 <1>   0.3430 
 10 C        3.7530     0.8340     0.4480 C.3   1 <1>   0.3430 
 11 N       -2.2060    -1.2850    -0.6580 N.4   1 <1>  -0.9590 
 12 N        3.6730     2.1370    -0.2650 N.4   1 <1>  -0.9590 
 13 C       -3.3910    -2.0170    -1.1940 C.3   1 <1>   0.2630 
 14 C        4.9410     2.9090    -0.1750 C.3   1 <1>   0.3430 
 15 C        6.0000     2.2630    -1.0620 C.3   1 <1>  -0.2400 
 16 H        1.1770     0.8840     1.6960 H     1 <1>   0.0800 
 17 H       -0.0890    -1.3260     1.7780 H     1 <1>   0.0800 
 18 H        0.7660    -1.9150     0.3880 H     1 <1>   0.0800 
 19 H       -1.3290     1.6980    -0.0410 H     1 <1>   0.0800 
 20 H       -1.3490     0.9700     1.5340 H     1 <1>   0.0800 
 21 H        0.4490     2.8070     0.4290 H     1 <1>   0.0800 
 22 H        1.0550     2.1370    -1.0610 H     1 <1>   0.0800 
 23 H        2.4210    -0.2350    -0.8310 H     1 <1>   0.0800 
 24 H        2.5710    -0.8670     0.7860 H     1 <1>   0.0800 
 25 H       -1.8950    -2.4730     1.0720 H     1 <1>   0.0800 
 26 H       -1.0100    -3.0020    -0.3280 H     1 <1>   0.0800 
 27 H       -3.1680     0.6030    -0.5760 H     1 <1>   0.0800 
 28 H       -3.1450    -0.2540     0.9370 H     1 <1>   0.0800 
 29 H        2.6600     3.1200     1.3040 H     1 <1>   0.0800 
 30 H        2.5060     3.8970    -0.2540 H     1 <1>   0.0800 
 31 H        4.5970     0.2660     0.0900 H     1 <1>   0.0800 
 32 H        3.8850     1.0030     1.5050 H     1 <1>   0.0800 
 33 H       -1.5870    -0.9820    -1.4270 H     1 <1>   0.4500 
 34 H        3.4990     1.9440    -1.2610 H     1 <1>   0.4500 
 35 H       -4.0340    -2.3320    -0.3890 H     1 <1>   0.0800 
 36 H       -3.0740    -2.8880    -1.7450 H     1 <1>   0.0800 
 37 H       -3.9540    -1.3800    -1.8580 H     1 <1>   0.0800 
 38 H        5.2850     2.9500     0.8470 H     1 <1>   0.0800 
 39 H        4.7760     3.9190    -0.5160 H     1 <1>   0.0800 
 40 H        6.2730     1.2860    -0.7070 H     1 <1>   0.0800 
 41 H        6.8870     2.8720    -1.0480 H     1 <1>   0.0800 
 42 H        5.6600     2.2000    -2.0810 H     1 <1>   0.0800 
@<TRIPOS>BOND
  1   1   2  1   
  2   1   3  1   
  3   1   4  1   
  4   2   5  1   
  5   2   6  1   
  6   2  16  1   
  7   3   7  1   
  8   3  17  1   
  9   3  18  1   
 10   4   8  1   
 11   4  19  1   
 12   4  20  1   
 13   5   9  1   
 14   5  21  1   
 15   5  22  1   
 16   6  10  1   
 17   6  23  1   
 18   6  24  1   
 19   7  11  1   
 20   7  25  1   
 21   7  26  1   
 22   8  11  1   
 23   8  27  1   
 24   8  28  1   
 25   9  12  1   
 26   9  29  1   
 27   9  30  1   
 28  10  12  1   
 29  10  31  1   
 30  10  32  1   
 31  11  13  1   
 32  11  33  1   
 33  12  14  1   
 34  12  34  1   
 35  13  35  1   
 36  13  36  1   
 37  13  37  1   
 38  14  15  1   
 39  14  38  1   
 40  14  39  1   
 41  15  40  1   
 42  15  41  1   
 43  15  42  1   
@<TRIPOS>SUBSTRUCTURE
  1 ****   2 GROUP 4 **** **** 0

# MOE 2024.06 (io_trps.svl 2023.06)
