@<TRIPOS>MOLECULE
NONAME
31 33 1 0 0 
SMALL
USER_CHARGES


@<TRIPOS>ATOM
  1 CL       0.8610     1.0190    -0.1930 Cl    1 <1>  -0.1770 
  2 C        2.0430    -0.2670    -0.1250 C.ar  1 <1>   0.1770 
  3 C        3.3780     0.0310    -0.1650 C.ar  1 <1>  -0.1500 
  4 C        1.5900    -1.5840    -0.0310 C.ar  1 <1>  -0.1500 
  5 C        4.3000    -1.0210    -0.1080 C.ar  1 <1>   0.0000 
  6 C        2.4960    -2.6180     0.0240 C.ar  1 <1>  -0.1500 
  7 C        3.8770    -2.3490    -0.0150 C.ar  1 <1>  -0.1520 
  8 C        5.6980    -1.0430    -0.1250 C.2   1 <1>  -0.1810 
  9 N        5.0070    -3.1600     0.0190 N.pl3 1 <1>   0.0480 
 10 C        6.1180    -2.3350    -0.0560 C.2   1 <1>  -0.2370 
 11 C        6.6350     0.1480    -0.2110 C.3   1 <1>   0.0210 
 12 C        5.1600    -4.6460     0.1160 C.3   1 <1>   0.0960 
 13 C        7.5060    -2.7130    -0.0690 C.2   1 <1>   0.5940 
 14 C        8.0240    -0.2400     0.3260 C.3   1 <1>  -0.1600 
 15 C        3.8790    -5.4790     0.1810 C.3   1 <1>  -0.2400 
 16 O        7.9240    -3.8390     0.0340 O.2   1 <1>  -0.5700 
 17 C        8.5170    -1.5870    -0.2470 C.3   1 <1>  -0.0990 
 18 H        3.7180     1.0460    -0.2380 H     1 <1>   0.1500 
 19 H        0.5320    -1.7680    -0.0020 H     1 <1>   0.1500 
 20 H        2.1220    -3.6170     0.0960 H     1 <1>   0.1500 
 21 H        6.2410     0.9670     0.3660 H     1 <1>   0.0800 
 22 H        6.7090     0.4600    -1.2380 H     1 <1>   0.0800 
 23 H        5.7460    -4.8550     0.9940 H     1 <1>   0.0800 
 24 H        5.7310    -4.9690    -0.7370 H     1 <1>   0.0800 
 25 H        7.9610    -0.3280     1.3980 H     1 <1>   0.0800 
 26 H        8.7320     0.5380     0.1010 H     1 <1>   0.0800 
 27 H        3.3120    -5.2300     1.0600 H     1 <1>   0.0800 
 28 H        4.1390    -6.5210     0.2410 H     1 <1>   0.0800 
 29 H        3.2920    -5.3370    -0.7090 H     1 <1>   0.0800 
 30 H        8.7130    -1.4830    -1.2980 H     1 <1>   0.0800 
 31 H        9.4360    -1.8670     0.2350 H     1 <1>   0.0800 
@<TRIPOS>BOND
  1   1   2  1   
  2   2   3  ar  
  3   2   4  ar  
  4   3   5  ar  
  5   3  18  1   
  6   4   6  ar  
  7   4  19  1   
  8   5   7  ar  
  9   5   8  1   
 10   6   7  ar  
 11   6  20  1   
 12   7   9  1   
 13   8  10  2   
 14   8  11  1   
 15   9  10  1   
 16   9  12  1   
 17  10  13  1   
 18  11  14  1   
 19  11  21  1   
 20  11  22  1   
 21  12  15  1   
 22  12  23  1   
 23  12  24  1   
 24  13  16  2   
 25  13  17  1   
 26  14  17  1   
 27  14  25  1   
 28  14  26  1   
 29  15  27  1   
 30  15  28  1   
 31  15  29  1   
 32  17  30  1   
 33  17  31  1   
@<TRIPOS>SUBSTRUCTURE
  1 ****   5 GROUP 4 **** **** 0

# MOE 2024.06 (io_trps.svl 2023.06)
