@<TRIPOS>MOLECULE
NONAME
27 27 1 0 0 
SMALL
USER_CHARGES


@<TRIPOS>ATOM
  1 O        3.6630    -1.3020    -0.0250 O.co2 1 <1>  -0.9000 
  2 C        3.0540    -1.4930    -1.0890 C.2   1 <1>   0.9060 
  3 O        3.5890    -1.5250    -2.1890 O.co2 1 <1>  -0.9000 
  4 C        1.6100    -1.9010    -0.9640 C.3   1 <1>  -0.1860 
  5 C        1.7700    -3.2530    -0.2560 C.3   1 <1>   0.4230 
  6 C        0.8260    -0.7260    -0.2910 C.3   1 <1>  -0.1600 
  7 N        1.9680    -2.9810     1.1640 N.4   1 <1>  -0.8530 
  8 C        0.7020    -4.3430    -0.4750 C.3   1 <1>  -0.1600 
  9 C       -0.6710    -0.9200    -0.0340 C.3   1 <1>  -0.0220 
 10 C       -0.7710    -3.9710    -0.2700 C.3   1 <1>  -0.0220 
 11 C       -0.9260    -1.8760     1.1210 C.2   1 <1>  -0.2880 
 12 C       -0.9800    -3.2060     1.0230 C.2   1 <1>  -0.2880 
 13 H        1.2380    -2.0640    -1.9580 H     1 <1>   0.0800 
 14 H        2.6900    -3.6780    -0.6300 H     1 <1>   0.0800 
 15 H        1.2990    -0.4330     0.6300 H     1 <1>   0.0800 
 16 H        0.9240     0.1230    -0.9480 H     1 <1>   0.0800 
 17 H        1.0990    -2.5740     1.5250 H     1 <1>   0.4500 
 18 H        2.7150    -2.2440     1.1540 H     1 <1>   0.4500 
 19 H        2.2880    -3.7860     1.6940 H     1 <1>   0.4500 
 20 H        0.8040    -4.6870    -1.4900 H     1 <1>   0.0800 
 21 H        0.9400    -5.1830     0.1530 H     1 <1>   0.0800 
 22 H       -1.1530    -1.2490    -0.9370 H     1 <1>   0.0800 
 23 H       -1.1110     0.0320     0.2120 H     1 <1>   0.0800 
 24 H       -1.3770    -4.8610    -0.2620 H     1 <1>   0.0800 
 25 H       -1.1000    -3.3910    -1.1120 H     1 <1>   0.0800 
 26 H       -1.0690    -1.3580     2.0580 H     1 <1>   0.1500 
 27 H       -1.1710    -3.8490     1.8680 H     1 <1>   0.1500 
@<TRIPOS>BOND
  1   1   2  ar  
  2   2   3  ar  
  3   2   4  1   
  4   4   5  1   
  5   4   6  1   
  6   4  13  1   
  7   5   7  1   
  8   5   8  1   
  9   5  14  1   
 10   6   9  1   
 11   6  15  1   
 12   6  16  1   
 13   7  17  1   
 14   7  18  1   
 15   7  19  1   
 16   8  10  1   
 17   8  20  1   
 18   8  21  1   
 19   9  11  1   
 20   9  22  1   
 21   9  23  1   
 22  10  12  1   
 23  10  24  1   
 24  10  25  1   
 25  11  12  2   
 26  11  26  1   
 27  12  27  1   
@<TRIPOS>SUBSTRUCTURE
  1 ****   4 GROUP 4 **** **** 0

# MOE 2024.06 (io_trps.svl 2023.06)
