@<TRIPOS>MOLECULE
NONAME
25 26 1 0 0 
SMALL
USER_CHARGES


@<TRIPOS>ATOM
  1 S        0.0920    -0.2880     0.0160 S.3   1 <1>  -0.0800 
  2 C        1.6200     0.5510    -0.0010 C.2   1 <1>   0.1240 
  3 C       -0.7770     1.2470    -0.0230 C.2   1 <1>  -0.1400 
  4 N        2.8310    -0.0520     0.0160 N.pl3 1 <1>  -0.5340 
  5 C        1.4760     1.8970    -0.0340 C.2   1 <1>  -0.0860 
  6 C        0.0840     2.2880    -0.0460 C.2   1 <1>  -0.1810 
  7 C       -2.2910     1.1360    -0.0230 C.3   1 <1>  -0.0600 
  8 C        3.9300     0.7500    -0.0020 C.2   1 <1>   0.6410 
  9 C        2.6940     2.6550    -0.0500 C.2   1 <1>   0.8670 
 10 C       -0.2990     3.7600    -0.0820 C.3   1 <1>  -0.0590 
 11 S        5.5230    -0.0430     0.0200 S.3   1 <1>  -0.3710 
 12 N        3.9160     2.0300    -0.0320 N.2   1 <1>  -0.6610 
 13 O        2.6900     3.8760    -0.0790 O.2   1 <1>  -0.5700 
 14 C        5.2270    -1.8680     0.0630 C.3   1 <1>   0.2700 
 15 C        6.5330    -2.5870     0.0830 C.1   1 <1>   0.3570 
 16 N        7.5040    -3.1790     0.0980 N.1   1 <1>  -0.5570 
 17 H        2.8890    -1.0650     0.0400 H     1 <1>   0.4000 
 18 H       -2.6140     0.5810    -0.8850 H     1 <1>   0.0800 
 19 H       -2.7510     2.1050    -0.0470 H     1 <1>   0.0800 
 20 H       -2.6180     0.6230     0.8630 H     1 <1>   0.0800 
 21 H       -1.3640     3.8910    -0.0880 H     1 <1>   0.0800 
 22 H        0.1040     4.2220    -0.9660 H     1 <1>   0.0800 
 23 H        0.1000     4.2640     0.7800 H     1 <1>   0.0800 
 24 H        4.6720    -2.1290    -0.8180 H     1 <1>   0.0800 
 25 H        4.6680    -2.0870     0.9540 H     1 <1>   0.0800 
@<TRIPOS>BOND
  1   1   2  1   
  2   1   3  1   
  3   2   4  1   
  4   2   5  2   
  5   3   6  2   
  6   3   7  1   
  7   4   8  1   
  8   4  17  1   
  9   5   6  1   
 10   5   9  1   
 11   6  10  1   
 12   7  18  1   
 13   7  19  1   
 14   7  20  1   
 15   8  11  1   
 16   8  12  2   
 17   9  12  1   
 18   9  13  2   
 19  10  21  1   
 20  10  22  1   
 21  10  23  1   
 22  11  14  1   
 23  14  15  1   
 24  14  24  1   
 25  14  25  1   
 26  15  16  3   
@<TRIPOS>SUBSTRUCTURE
  1 ****   4 GROUP 4 **** **** 0

# MOE 2024.06 (io_trps.svl 2023.06)
