@<TRIPOS>MOLECULE
NONAME
41 43 1 0 0 
SMALL
USER_CHARGES


@<TRIPOS>ATOM
  1 F        0.2120    -0.5920     0.8240 F     1 <1>  -0.3400 
  2 C        0.2310    -1.5660    -0.0750 C.3   1 <1>   1.1640 
  3 F        1.0900    -2.4730     0.3730 F     1 <1>  -0.3400 
  4 F        0.7690    -1.0520    -1.1740 F     1 <1>  -0.3400 
  5 C       -1.1750    -2.1450    -0.3130 C.ar  1 <1>  -0.1440 
  6 C       -2.0040    -1.6240    -1.3010 C.ar  1 <1>  -0.1500 
  7 C       -1.6520    -3.1980     0.4610 C.ar  1 <1>  -0.1500 
  8 C       -3.2700    -2.1390    -1.5100 C.ar  1 <1>  -0.1500 
  9 C       -2.9190    -3.7140     0.2550 C.ar  1 <1>  -0.1500 
 10 C       -3.7400    -3.1830    -0.7280 C.ar  1 <1>  -0.1430 
 11 C       -5.1390    -3.7290    -0.9420 C.3   1 <1>   0.4870 
 12 N       -6.0170    -3.2230     0.1460 N.4   1 <1>  -0.9590 
 13 C       -7.3810    -3.8740     0.1000 C.3   1 <1>   0.3430 
 14 C       -6.1170    -1.7100     0.1160 C.3   1 <1>   0.3430 
 15 C       -8.3370    -3.3120     1.1720 C.3   1 <1>   0.2090 
 16 C       -7.0910    -1.1490     1.1730 C.3   1 <1>   0.2090 
 17 N       -8.4110    -1.8280     1.0440 N.pl3 1 <1>  -0.8380 
 18 C       -9.3830    -1.2430     0.2660 C.ar  1 <1>   0.7200 
 19 N       -9.9760    -2.0210    -0.6390 N.ar  1 <1>  -0.6200 
 20 N       -9.6060     0.0490     0.4680 N.ar  1 <1>  -0.6200 
 21 C      -10.9090    -1.4470    -1.3620 C.ar  1 <1>   0.1600 
 22 C      -10.5440     0.5950    -0.2690 C.ar  1 <1>   0.1600 
 23 C      -11.2390    -0.1220    -1.2120 C.ar  1 <1>  -0.1500 
 24 H       -1.6620    -0.8090    -1.9210 H     1 <1>   0.1500 
 25 H       -1.0310    -3.6260     1.2330 H     1 <1>   0.1500 
 26 H       -3.8790    -1.7140    -2.2920 H     1 <1>   0.1500 
 27 H       -3.2480    -4.5360     0.8700 H     1 <1>   0.1500 
 28 H       -5.1070    -4.8070    -0.9250 H     1 <1>   0.0800 
 29 H       -5.5160    -3.4140    -1.9020 H     1 <1>   0.0800 
 30 H       -5.5680    -3.4700     1.0350 H     1 <1>   0.4500 
 31 H       -7.2890    -4.9390     0.2360 H     1 <1>   0.0800 
 32 H       -7.8340    -3.7000    -0.8630 H     1 <1>   0.0800 
 33 H       -6.4660    -1.3930    -0.8530 H     1 <1>   0.0800 
 34 H       -5.1440    -1.2740     0.2740 H     1 <1>   0.0800 
 35 H       -7.9870    -3.5700     2.1560 H     1 <1>   0.0800 
 36 H       -9.3160    -3.7480     1.0560 H     1 <1>   0.0800 
 37 H       -7.1920    -0.0860     1.0340 H     1 <1>   0.0800 
 38 H       -6.7000    -1.3080     2.1620 H     1 <1>   0.0800 
 39 H      -11.4270    -2.0450    -2.0930 H     1 <1>   0.1500 
 40 H      -10.7630     1.6390    -0.1170 H     1 <1>   0.1500 
 41 H      -12.0070     0.3360    -1.8070 H     1 <1>   0.1500 
@<TRIPOS>BOND
  1   1   2  1   
  2   2   3  1   
  3   2   4  1   
  4   2   5  1   
  5   5   6  ar  
  6   5   7  ar  
  7   6   8  ar  
  8   6  24  1   
  9   7   9  ar  
 10   7  25  1   
 11   8  10  ar  
 12   8  26  1   
 13   9  10  ar  
 14   9  27  1   
 15  10  11  1   
 16  11  12  1   
 17  11  28  1   
 18  11  29  1   
 19  12  13  1   
 20  12  14  1   
 21  12  30  1   
 22  13  15  1   
 23  13  31  1   
 24  13  32  1   
 25  14  16  1   
 26  14  33  1   
 27  14  34  1   
 28  15  17  1   
 29  15  35  1   
 30  15  36  1   
 31  16  17  1   
 32  16  37  1   
 33  16  38  1   
 34  17  18  1   
 35  18  19  ar  
 36  18  20  ar  
 37  19  21  ar  
 38  20  22  ar  
 39  21  23  ar  
 40  21  39  1   
 41  22  23  ar  
 42  22  40  1   
 43  23  41  1   
@<TRIPOS>SUBSTRUCTURE
  1 ****  14 GROUP 4 **** **** 0

# MOE 2024.06 (io_trps.svl 2023.06)
