@<TRIPOS>MOLECULE
NONAME
49 51 1 0 0 
SMALL
USER_CHARGES


@<TRIPOS>ATOM
  1 O        0.1560    -0.5910    -0.2410 O.2   1 <1>  -0.5700 
  2 C       -0.6420    -1.2380    -0.8880 C.2   1 <1>   0.6340 
  3 O       -0.4480    -1.3660    -2.2050 O.3   1 <1>  -0.4300 
  4 C       -1.8060    -1.8800    -0.3020 C.ar  1 <1>   0.0860 
  5 C        0.6580    -0.7720    -2.8570 C.3   1 <1>   0.0400 
  6 C       -2.7340    -2.5860    -1.0710 C.ar  1 <1>  -0.1500 
  7 C       -2.0450    -1.8160     1.0730 C.ar  1 <1>  -0.1500 
  8 C       -3.8400    -3.1890    -0.5000 C.ar  1 <1>  -0.1500 
  9 C       -3.1480    -2.4180     1.6490 C.ar  1 <1>  -0.1500 
 10 C       -4.0580    -3.1100     0.8650 C.ar  1 <1>  -0.1440 
 11 C       -5.2790    -3.7720     1.4880 C.3   1 <1>   0.2530 
 12 N       -6.5210    -3.1420     0.9970 N.3   1 <1>  -0.8100 
 13 C       -7.7230    -3.8650     1.4780 C.3   1 <1>   0.1100 
 14 C       -6.5990    -1.7010     1.3520 C.3   1 <1>   0.1100 
 15 C       -9.0420    -3.2150     0.9900 C.3   1 <1>   0.3430 
 16 C       -7.8890    -1.0310     0.8180 C.3   1 <1>   0.3430 
 17 N       -8.7660    -2.0240     0.1180 N.4   1 <1>  -0.9590 
 18 C       -9.9770    -1.4320    -0.5060 C.3   1 <1>   0.4860 
 19 C      -10.7100    -2.5110    -1.2800 C.ar  1 <1>  -0.1430 
 20 C      -10.1820    -3.0090    -2.4640 C.ar  1 <1>  -0.1500 
 21 C      -11.9130    -3.0140    -0.8050 C.ar  1 <1>  -0.1500 
 22 C      -10.8450    -4.0060    -3.1570 C.ar  1 <1>  -0.1500 
 23 C      -12.5740    -4.0110    -1.5000 C.ar  1 <1>  -0.1500 
 24 C      -12.0400    -4.5080    -2.6740 C.ar  1 <1>  -0.1500 
 25 H        0.6040    -1.0090    -3.9040 H     1 <1>   0.0800 
 26 H        1.5650    -1.1670    -2.4320 H     1 <1>   0.0800 
 27 H        0.6140     0.2940    -2.7140 H     1 <1>   0.0800 
 28 H       -2.5880    -2.6650    -2.1350 H     1 <1>   0.1500 
 29 H       -1.3480    -1.2830     1.6980 H     1 <1>   0.1500 
 30 H       -4.5370    -3.7240    -1.1220 H     1 <1>   0.1500 
 31 H       -3.2900    -2.3450     2.7140 H     1 <1>   0.1500 
 32 H       -5.2300    -3.7070     2.5620 H     1 <1>   0.0800 
 33 H       -5.2750    -4.8150     1.2170 H     1 <1>   0.0800 
 34 H       -7.7260    -3.8990     2.5550 H     1 <1>   0.0800 
 35 H       -7.6900    -4.8820     1.1240 H     1 <1>   0.0800 
 36 H       -5.7540    -1.1770     0.9380 H     1 <1>   0.0800 
 37 H       -6.5560    -1.5850     2.4220 H     1 <1>   0.0800 
 38 H       -9.6310    -2.9210     1.8430 H     1 <1>   0.0800 
 39 H       -9.6060    -3.9510     0.4410 H     1 <1>   0.0800 
 40 H       -7.6110    -0.2440     0.1370 H     1 <1>   0.0800 
 41 H       -8.4200    -0.5820     1.6410 H     1 <1>   0.0800 
 42 H       -8.1690    -2.4160    -0.6250 H     1 <1>   0.4500 
 43 H       -9.6980    -0.6380    -1.1790 H     1 <1>   0.0800 
 44 H      -10.6250    -1.0250     0.2530 H     1 <1>   0.0800 
 45 H       -9.2560    -2.6300    -2.8630 H     1 <1>   0.1500 
 46 H      -12.3520    -2.6390     0.1050 H     1 <1>   0.1500 
 47 H      -10.4360    -4.3930    -4.0750 H     1 <1>   0.1500 
 48 H      -13.5090    -4.4010    -1.1320 H     1 <1>   0.1500 
 49 H      -12.5560    -5.2830    -3.2160 H     1 <1>   0.1500 
@<TRIPOS>BOND
  1   1   2  2   
  2   2   3  1   
  3   2   4  1   
  4   3   5  1   
  5   4   6  ar  
  6   4   7  ar  
  7   5  25  1   
  8   5  26  1   
  9   5  27  1   
 10   6   8  ar  
 11   6  28  1   
 12   7   9  ar  
 13   7  29  1   
 14   8  10  ar  
 15   8  30  1   
 16   9  10  ar  
 17   9  31  1   
 18  10  11  1   
 19  11  12  1   
 20  11  32  1   
 21  11  33  1   
 22  12  13  1   
 23  12  14  1   
 24  13  15  1   
 25  13  34  1   
 26  13  35  1   
 27  14  16  1   
 28  14  36  1   
 29  14  37  1   
 30  15  17  1   
 31  15  38  1   
 32  15  39  1   
 33  16  17  1   
 34  16  40  1   
 35  16  41  1   
 36  17  18  1   
 37  17  42  1   
 38  18  19  1   
 39  18  43  1   
 40  18  44  1   
 41  19  20  ar  
 42  19  21  ar  
 43  20  22  ar  
 44  20  45  1   
 45  21  23  ar  
 46  21  46  1   
 47  22  24  ar  
 48  22  47  1   
 49  23  24  ar  
 50  23  48  1   
 51  24  49  1   
@<TRIPOS>SUBSTRUCTURE
  1 ****  12 GROUP 4 **** **** 0

# MOE 2024.06 (io_trps.svl 2023.06)
