@<TRIPOS>MOLECULE
NONAME
50 51 1 0 0 
SMALL
USER_CHARGES


@<TRIPOS>ATOM
  1 O       -1.2840     1.6990     2.1890 O.2   1 <1>  -0.5700 
  2 C       -1.5140     2.0960     1.0610 C.2   1 <1>   0.6160 
  3 N       -0.4740     2.6090     0.3050 N.am  1 <1>  -0.6600 
  4 C       -2.8770     2.0020     0.5550 C.2   1 <1>   0.1230 
  5 C       -0.5750     2.9200    -1.1500 C.3   1 <1>   0.1400 
  6 C        0.8900     2.8050     0.8750 C.3   1 <1>   0.1400 
  7 N       -3.5460     3.1620     0.1070 N.am  1 <1>  -0.5390 
  8 C       -3.5080     0.7990     0.4800 C.2   1 <1>  -0.1780 
  9 C        0.4250     2.0630    -1.9330 C.3   1 <1>  -0.1600 
 10 C        1.8980     1.9420     0.1100 C.3   1 <1>  -0.1600 
 11 C       -3.4330     4.4780     0.4280 C.2   1 <1>   0.5690 
 12 C       -4.8370     0.4840     0.0360 C.ar  1 <1>   0.0280 
 13 C        1.8550     2.2240    -1.3980 C.3   1 <1>  -0.1600 
 14 O       -4.0840     5.2850    -0.1800 O.2   1 <1>  -0.5700 
 15 C       -2.5430     4.9630     1.5490 C.3   1 <1>  -0.1790 
 16 C       -5.0540    -0.6460    -0.7520 C.ar  1 <1>  -0.1500 
 17 C       -5.9430     1.2650     0.3730 C.ar  1 <1>  -0.1500 
 18 C       -6.3230    -0.9830    -1.2100 C.ar  1 <1>   0.0820 
 19 C       -7.2110     0.9450    -0.0740 C.ar  1 <1>  -0.1500 
 20 O       -6.5580    -2.0660    -2.0020 O.3   1 <1>  -0.3620 
 21 C       -7.4080    -0.1780    -0.8580 C.ar  1 <1>   0.0820 
 22 C       -5.5050    -2.8100    -2.5750 C.3   1 <1>   0.0400 
 23 O       -8.6710    -0.4470    -1.2780 O.3   1 <1>  -0.2320 
 24 C       -9.3490    -1.5620    -1.0120 C.2   1 <1>   0.6590 
 25 O      -10.3150    -1.8610    -1.6600 O.2   1 <1>  -0.5700 
 26 C       -8.9340    -2.4130     0.1720 C.3   1 <1>  -0.1790 
 27 H       -1.5640     2.7290    -1.5230 H     1 <1>   0.0800 
 28 H       -0.3570     3.9640    -1.3000 H     1 <1>   0.0800 
 29 H        1.1590     3.8440     0.7860 H     1 <1>   0.0800 
 30 H        0.9140     2.5460     1.9190 H     1 <1>   0.0800 
 31 H       -4.3040     2.9990    -0.5580 H     1 <1>   0.3700 
 32 H       -2.9450    -0.0660     0.7880 H     1 <1>   0.1500 
 33 H        0.1270     1.0310    -1.8620 H     1 <1>   0.0800 
 34 H        0.3950     2.3420    -2.9710 H     1 <1>   0.0800 
 35 H        2.8870     2.1340     0.4860 H     1 <1>   0.0800 
 36 H        1.6740     0.9050     0.2950 H     1 <1>   0.0800 
 37 H        2.1940     3.2290    -1.5830 H     1 <1>   0.0800 
 38 H        2.5160     1.5490    -1.9140 H     1 <1>   0.0800 
 39 H       -2.6080     4.3020     2.3920 H     1 <1>   0.0800 
 40 H       -2.8560     5.9430     1.8580 H     1 <1>   0.0800 
 41 H       -1.5260     5.0190     1.2100 H     1 <1>   0.0800 
 42 H       -4.2040    -1.2510    -1.0000 H     1 <1>   0.1500 
 43 H       -5.8140     2.1290     1.0020 H     1 <1>   0.1500 
 44 H       -8.0510     1.5650     0.1860 H     1 <1>   0.1500 
 45 H       -5.9360    -3.5550    -3.2190 H     1 <1>   0.0800 
 46 H       -4.9450    -3.2870    -1.7900 H     1 <1>   0.0800 
 47 H       -4.8810    -2.1490    -3.1490 H     1 <1>   0.0800 
 48 H       -8.7260    -1.7900     1.0210 H     1 <1>   0.0800 
 49 H       -8.0650    -2.9910    -0.0740 H     1 <1>   0.0800 
 50 H       -9.7330    -3.0860     0.4230 H     1 <1>   0.0800 
@<TRIPOS>BOND
  1   1   2  2   
  2   2   3  am  
  3   2   4  1   
  4   3   5  1   
  5   3   6  1   
  6   4   7  1   
  7   4   8  2   
  8   5   9  1   
  9   5  27  1   
 10   5  28  1   
 11   6  10  1   
 12   6  29  1   
 13   6  30  1   
 14   7  11  am  
 15   7  31  1   
 16   8  12  1   
 17   8  32  1   
 18   9  13  1   
 19   9  33  1   
 20   9  34  1   
 21  10  13  1   
 22  10  35  1   
 23  10  36  1   
 24  11  14  2   
 25  11  15  1   
 26  12  16  ar  
 27  12  17  ar  
 28  13  37  1   
 29  13  38  1   
 30  15  39  1   
 31  15  40  1   
 32  15  41  1   
 33  16  18  ar  
 34  16  42  1   
 35  17  19  ar  
 36  17  43  1   
 37  18  20  1   
 38  18  21  ar  
 39  19  21  ar  
 40  19  44  1   
 41  20  22  1   
 42  21  23  1   
 43  22  45  1   
 44  22  46  1   
 45  22  47  1   
 46  23  24  1   
 47  24  25  2   
 48  24  26  1   
 49  26  48  1   
 50  26  49  1   
 51  26  50  1   
@<TRIPOS>SUBSTRUCTURE
  1 ****   8 GROUP 4 **** **** 0

# MOE 2024.06 (io_trps.svl 2023.06)
