@<TRIPOS>MOLECULE
NONAME
35 36 1 0 0 
SMALL
USER_CHARGES


@<TRIPOS>ATOM
  1 CL      -1.8100     0.9710     1.8850 Cl    1 <1>  -0.1770 
  2 C       -0.9120     2.1940     1.0180 C.ar  1 <1>   0.1770 
  3 C       -1.3270     2.5700    -0.2480 C.ar  1 <1>  -0.1440 
  4 C        0.1900     2.7710     1.6240 C.ar  1 <1>  -0.1500 
  5 C       -0.6050     3.5590    -0.8960 C.ar  1 <1>   0.1770 
  6 C       -2.5250     1.9140    -0.9020 C.3   1 <1>   0.4870 
  7 C        0.9010     3.7540     0.9550 C.ar  1 <1>  -0.1500 
  8 CL      -1.1060     4.0910    -2.4810 Cl    1 <1>  -0.1770 
  9 C        0.5000     4.1520    -0.3110 C.ar  1 <1>  -0.1500 
 10 N       -3.7730     2.3990    -0.2520 N.4   1 <1>  -0.9590 
 11 C       -4.9540     1.5600    -0.6380 C.3   1 <1>   0.3430 
 12 C       -4.0180     3.8490    -0.4900 C.3   1 <1>   0.3430 
 13 C       -6.2980     2.2230    -0.2780 C.3   1 <1>  -0.0800 
 14 C       -5.1080     4.3390     0.4700 C.3   1 <1>  -0.1600 
 15 C       -6.1450     3.2630     0.8500 C.3   1 <1>  -0.1600 
 16 C       -7.3280     1.1360     0.0600 C.3   1 <1>   0.1200 
 17 O       -8.5800     1.7090     0.1520 O.3   1 <1>  -0.6800 
 18 H        0.4910     2.4550     2.6080 H     1 <1>   0.1500 
 19 H       -2.4420     0.8460    -0.7820 H     1 <1>   0.0800 
 20 H       -2.5470     2.1320    -1.9570 H     1 <1>   0.0800 
 21 H        1.7630     4.2090     1.4170 H     1 <1>   0.1500 
 22 H        1.0430     4.9160    -0.8410 H     1 <1>   0.1500 
 23 H       -3.6380     2.2890     0.7630 H     1 <1>   0.4500 
 24 H       -4.8820     0.6090    -0.1340 H     1 <1>   0.0800 
 25 H       -4.9410     1.3700    -1.7000 H     1 <1>   0.0800 
 26 H       -4.3400     3.9950    -1.5090 H     1 <1>   0.0800 
 27 H       -3.1180     4.4240    -0.3350 H     1 <1>   0.0800 
 28 H       -6.6490     2.7260    -1.1640 H     1 <1>   0.0800 
 29 H       -5.6100     5.1670     0.0000 H     1 <1>   0.0800 
 30 H       -4.6500     4.7240     1.3660 H     1 <1>   0.0800 
 31 H       -5.8300     2.7660     1.7520 H     1 <1>   0.0800 
 32 H       -7.0870     3.7430     1.0560 H     1 <1>   0.0800 
 33 H       -7.1080     0.6450     0.9940 H     1 <1>   0.0800 
 34 H       -7.3760     0.3980    -0.7240 H     1 <1>   0.0800 
 35 H       -8.6840     2.2270     0.9750 H     1 <1>   0.4000 
@<TRIPOS>BOND
  1   1   2  1   
  2   2   3  ar  
  3   2   4  ar  
  4   3   5  ar  
  5   3   6  1   
  6   4   7  ar  
  7   4  18  1   
  8   5   8  1   
  9   5   9  ar  
 10   6  10  1   
 11   6  19  1   
 12   6  20  1   
 13   7   9  ar  
 14   7  21  1   
 15   9  22  1   
 16  10  11  1   
 17  10  12  1   
 18  10  23  1   
 19  11  13  1   
 20  11  24  1   
 21  11  25  1   
 22  12  14  1   
 23  12  26  1   
 24  12  27  1   
 25  13  15  1   
 26  13  16  1   
 27  13  28  1   
 28  14  15  1   
 29  14  29  1   
 30  14  30  1   
 31  15  31  1   
 32  15  32  1   
 33  16  17  1   
 34  16  33  1   
 35  16  34  1   
 36  17  35  1   
@<TRIPOS>SUBSTRUCTURE
  1 ****  10 GROUP 4 **** **** 0

# MOE 2024.06 (io_trps.svl 2023.06)
