@<TRIPOS>MOLECULE
NONAME
38 40 1 0 0 
SMALL
USER_CHARGES


@<TRIPOS>ATOM
  1 O       -0.6110     1.1550    -2.0040 O.2   1 <1>  -0.5700 
  2 C       -0.1000     1.7280    -1.0780 C.2   1 <1>   0.5690 
  3 N       -0.5480     2.8730    -0.5020 N.am  1 <1>  -0.4200 
  4 C        1.1580     1.2420    -0.3950 C.3   1 <1>  -0.0990 
  5 C        0.2550     3.2650     0.5220 C.2   1 <1>   0.5690 
  6 C       -1.7580     3.6040    -0.9340 C.3   1 <1>   0.1400 
  7 C        1.4040     2.2980     0.7000 C.3   1 <1>  -0.0990 
  8 O        0.1000     4.2380     1.2130 O.2   1 <1>  -0.5700 
  9 C       -2.9400     3.2250    -0.0350 C.3   1 <1>  -0.1600 
 10 C       -4.2540     3.8890    -0.4830 C.3   1 <1>   0.2440 
 11 C       -4.1050     5.4040    -0.6570 C.ar  1 <1>  -0.1440 
 12 C       -5.3800     3.5510     0.4870 C.2   1 <1>  -0.0400 
 13 C       -4.5040     6.0070    -1.8430 C.ar  1 <1>  -0.1500 
 14 C       -3.5730     6.1970     0.3520 C.ar  1 <1>  -0.1500 
 15 O       -5.6740     2.2810     0.6990 O.3   1 <1>  -0.2800 
 16 C       -6.1970     4.3460     1.2150 C.2   1 <1>  -0.1500 
 17 C       -4.3680     7.3730    -2.0190 C.ar  1 <1>  -0.1500 
 18 C       -3.4350     7.5630     0.1770 C.ar  1 <1>  -0.1500 
 19 C       -6.6710     2.2370     1.5600 C.2   1 <1>  -0.0100 
 20 C       -7.0440     3.4820     1.9210 C.2   1 <1>  -0.1500 
 21 C       -3.8320     8.1520    -1.0090 C.ar  1 <1>  -0.1500 
 22 H        1.9670     1.2080    -1.1020 H     1 <1>   0.0800 
 23 H        0.9920     0.2670     0.0250 H     1 <1>   0.0800 
 24 H       -1.9770     3.3580    -1.9590 H     1 <1>   0.0800 
 25 H       -1.5630     4.6620    -0.8750 H     1 <1>   0.0800 
 26 H        2.3370     2.8110     0.5550 H     1 <1>   0.0800 
 27 H        1.3680     1.8660     1.6830 H     1 <1>   0.0800 
 28 H       -2.7260     3.5110     0.9790 H     1 <1>   0.0800 
 29 H       -3.0740     2.1570    -0.0610 H     1 <1>   0.0800 
 30 H       -4.5230     3.4620    -1.4340 H     1 <1>   0.0800 
 31 H       -4.9260     5.4180    -2.6390 H     1 <1>   0.1500 
 32 H       -3.2610     5.7570     1.2840 H     1 <1>   0.1500 
 33 H       -6.2210     5.4210     1.2630 H     1 <1>   0.1500 
 34 H       -4.6800     7.8310    -2.9410 H     1 <1>   0.1500 
 35 H       -3.0180     8.1650     0.9650 H     1 <1>   0.1500 
 36 H       -7.0530     1.2780     1.8610 H     1 <1>   0.1500 
 37 H       -7.8200     3.7850     2.6010 H     1 <1>   0.1500 
 38 H       -3.7250     9.2140    -1.1450 H     1 <1>   0.1500 
@<TRIPOS>BOND
  1   1   2  2   
  2   2   3  am  
  3   2   4  1   
  4   3   5  am  
  5   3   6  1   
  6   4   7  1   
  7   4  22  1   
  8   4  23  1   
  9   5   7  1   
 10   5   8  2   
 11   6   9  1   
 12   6  24  1   
 13   6  25  1   
 14   7  26  1   
 15   7  27  1   
 16   9  10  1   
 17   9  28  1   
 18   9  29  1   
 19  10  11  1   
 20  10  12  1   
 21  10  30  1   
 22  11  13  ar  
 23  11  14  ar  
 24  12  15  1   
 25  12  16  2   
 26  13  17  ar  
 27  13  31  1   
 28  14  18  ar  
 29  14  32  1   
 30  15  19  1   
 31  16  20  1   
 32  16  33  1   
 33  17  21  ar  
 34  17  34  1   
 35  18  21  ar  
 36  18  35  1   
 37  19  20  2   
 38  19  36  1   
 39  20  37  1   
 40  21  38  1   
@<TRIPOS>SUBSTRUCTURE
  1 ****   9 GROUP 4 **** **** 0

# MOE 2024.06 (io_trps.svl 2023.06)
