@<TRIPOS>MOLECULE
NONAME
30 30 1 0 0 
SMALL
USER_CHARGES


@<TRIPOS>ATOM
  1 S       -0.1790     0.4350    -0.0070 S.3   1 <1>  -0.2660 
  2 C        1.2610    -0.6510    -0.0090 C.1   1 <1>   0.5930 
  3 C       -1.5840    -0.7610    -0.0080 C.3   1 <1>   0.0700 
  4 N        2.1500    -1.3610    -0.0100 N.1   1 <1>  -0.5570 
  5 C       -2.8890     0.0380    -0.0070 C.3   1 <1>  -0.1600 
  6 C       -4.1090    -0.8920    -0.0070 C.3   1 <1>  -0.1600 
  7 C       -5.4130    -0.0850    -0.0060 C.3   1 <1>  -0.1600 
  8 C       -6.6370    -1.0020    -0.0060 C.3   1 <1>   0.1200 
  9 O       -7.7890    -0.1920    -0.0050 O.3   1 <1>  -0.3630 
 10 C       -9.0400    -0.7300    -0.0050 C.ar  1 <1>   0.0820 
 11 C      -10.1380     0.1260    -0.0030 C.ar  1 <1>   0.1900 
 12 C       -9.2850    -2.1020    -0.0060 C.ar  1 <1>  -0.1500 
 13 F       -9.9510     1.4220    -0.0020 F     1 <1>  -0.1900 
 14 C      -11.4400    -0.3370    -0.0030 C.ar  1 <1>  -0.1500 
 15 C      -10.5870    -2.5790    -0.0060 C.ar  1 <1>  -0.1500 
 16 C      -11.6630    -1.7040    -0.0040 C.ar  1 <1>  -0.1500 
 17 H       -1.4880    -1.3690     0.8740 H     1 <1>   0.0800 
 18 H       -1.4890    -1.3670    -0.8920 H     1 <1>   0.0800 
 19 H       -2.9170     0.6690    -0.8790 H     1 <1>   0.0800 
 20 H       -2.9170     0.6670     0.8660 H     1 <1>   0.0800 
 21 H       -4.0780    -1.5240     0.8650 H     1 <1>   0.0800 
 22 H       -4.0790    -1.5220    -0.8810 H     1 <1>   0.0800 
 23 H       -5.4500     0.5430    -0.8790 H     1 <1>   0.0800 
 24 H       -5.4490     0.5410     0.8690 H     1 <1>   0.0800 
 25 H       -6.6530    -1.6160     0.8770 H     1 <1>   0.0800 
 26 H       -6.6540    -1.6140    -0.8910 H     1 <1>   0.0800 
 27 H       -8.4810    -2.8130    -0.0070 H     1 <1>   0.1500 
 28 H      -12.2580     0.3610    -0.0020 H     1 <1>   0.1500 
 29 H      -10.7670    -3.6410    -0.0070 H     1 <1>   0.1500 
 30 H      -12.6700    -2.0850    -0.0040 H     1 <1>   0.1500 
@<TRIPOS>BOND
  1   1   2  1   
  2   1   3  1   
  3   2   4  3   
  4   3   5  1   
  5   3  17  1   
  6   3  18  1   
  7   5   6  1   
  8   5  19  1   
  9   5  20  1   
 10   6   7  1   
 11   6  21  1   
 12   6  22  1   
 13   7   8  1   
 14   7  23  1   
 15   7  24  1   
 16   8   9  1   
 17   8  25  1   
 18   8  26  1   
 19   9  10  1   
 20  10  11  ar  
 21  10  12  ar  
 22  11  13  1   
 23  11  14  ar  
 24  12  15  ar  
 25  12  27  1   
 26  14  16  ar  
 27  14  28  1   
 28  15  16  ar  
 29  15  29  1   
 30  16  30  1   
@<TRIPOS>SUBSTRUCTURE
  1 ****   8 GROUP 4 **** **** 0

# MOE 2024.06 (io_trps.svl 2023.06)
