@<TRIPOS>MOLECULE
NONAME
31 31 1 0 0 
SMALL
USER_CHARGES


@<TRIPOS>ATOM
  1 O        3.3510     0.9900    -1.6890 O.2   1 <1>  -0.5700 
  2 C        2.5990     1.3200    -0.8100 C.2   1 <1>   0.6590 
  3 O        1.9920     0.4400    -0.0240 O.3   1 <1>  -0.4300 
  4 C        2.3020     2.7760    -0.5320 C.3   1 <1>  -0.0990 
  5 C        2.1870    -0.9500    -0.1790 C.3   1 <1>   0.0400 
  6 C        3.0630     3.2800     0.7040 C.3   1 <1>  -0.0990 
  7 C        2.7900     4.7470     0.9490 C.2   1 <1>   0.5690 
  8 O        1.8010     5.0660     1.5590 O.2   1 <1>  -0.5700 
  9 N        3.6570     5.6620     0.4630 N.am  1 <1>  -0.7300 
 10 C        3.5140     7.1120     0.6480 C.3   1 <1>   0.2840 
 11 C        4.7950     7.7700     0.1730 C.ar  1 <1>  -0.1440 
 12 C        4.9150     8.2080    -1.1380 C.ar  1 <1>  -0.1500 
 13 C        5.8630     7.9300     1.0430 C.ar  1 <1>  -0.1500 
 14 C        6.0870     8.8020    -1.5720 C.ar  1 <1>  -0.1500 
 15 C        7.0350     8.5240     0.6100 C.ar  1 <1>  -0.1500 
 16 C        7.1480     8.9600    -0.6980 C.ar  1 <1>  -0.1500 
 17 H        1.2440     2.8920    -0.3820 H     1 <1>   0.0800 
 18 H        2.5840     3.3540    -1.3930 H     1 <1>   0.0800 
 19 H        3.2320    -1.1720    -0.0430 H     1 <1>   0.0800 
 20 H        1.8730    -1.2370    -1.1670 H     1 <1>   0.0800 
 21 H        1.5990    -1.4620     0.5610 H     1 <1>   0.0800 
 22 H        4.1190     3.1280     0.5730 H     1 <1>   0.0800 
 23 H        2.7510     2.7260     1.5720 H     1 <1>   0.0800 
 24 H        4.4990     5.3870    -0.0460 H     1 <1>   0.3700 
 25 H        3.3380     7.3290     1.6880 H     1 <1>   0.0800 
 26 H        2.6710     7.4660     0.0790 H     1 <1>   0.0800 
 27 H        4.0960     8.0870    -1.8260 H     1 <1>   0.1500 
 28 H        5.7840     7.5910     2.0620 H     1 <1>   0.1500 
 29 H        6.1740     9.1410    -2.5900 H     1 <1>   0.1500 
 30 H        7.8600     8.6470     1.2910 H     1 <1>   0.1500 
 31 H        8.0590     9.4230    -1.0350 H     1 <1>   0.1500 
@<TRIPOS>BOND
  1   1   2  2   
  2   2   3  1   
  3   2   4  1   
  4   3   5  1   
  5   4   6  1   
  6   4  17  1   
  7   4  18  1   
  8   5  19  1   
  9   5  20  1   
 10   5  21  1   
 11   6   7  1   
 12   6  22  1   
 13   6  23  1   
 14   7   8  2   
 15   7   9  am  
 16   9  10  1   
 17   9  24  1   
 18  10  11  1   
 19  10  25  1   
 20  10  26  1   
 21  11  12  ar  
 22  11  13  ar  
 23  12  14  ar  
 24  12  27  1   
 25  13  15  ar  
 26  13  28  1   
 27  14  16  ar  
 28  14  29  1   
 29  15  16  ar  
 30  15  30  1   
 31  16  31  1   
@<TRIPOS>SUBSTRUCTURE
  1 ****   9 GROUP 4 **** **** 0

# MOE 2024.06 (io_trps.svl 2023.06)
