@<TRIPOS>MOLECULE
NONAME
34 35 1 0 0 
SMALL
USER_CHARGES


@<TRIPOS>ATOM
  1 CL      -1.1680     0.4210     1.5480 Cl    1 <1>  -0.1770 
  2 C       -2.3970    -0.4990     0.7170 C.ar  1 <1>   0.1770 
  3 C       -3.6770     0.0110     0.6270 C.ar  1 <1>  -0.1500 
  4 C       -2.0680    -1.7220     0.1650 C.ar  1 <1>  -0.1500 
  5 C       -4.6580    -0.7150    -0.0290 C.ar  1 <1>   0.0820 
  6 C       -3.0460    -2.4490    -0.4940 C.ar  1 <1>  -0.1500 
  7 O       -5.8900    -0.1510    -0.0750 O.3   1 <1>  -0.3630 
  8 C       -4.3350    -1.9490    -0.5930 C.ar  1 <1>  -0.1500 
  9 C       -7.0120    -0.8020    -0.6380 C.3   1 <1>   0.4800 
 10 O       -7.9170     0.2260    -0.9670 O.3   1 <1>  -0.5600 
 11 C       -7.6300    -1.8140     0.3710 C.3   1 <1>   0.2000 
 12 C       -8.6090     0.7560     0.1330 C.3   1 <1>   0.2000 
 13 O       -7.2600    -3.1300     0.0890 O.3   1 <1>  -0.6800 
 14 C       -9.1630    -1.7230     0.3470 C.3   1 <1>   0.2000 
 15 C       -9.6710    -0.2840     0.5860 C.3   1 <1>   0.2000 
 16 C       -9.1090     2.1880    -0.1750 C.3   1 <1>   0.1200 
 17 O       -9.7220    -2.5990     1.2780 O.3   1 <1>  -0.6800 
 18 O      -10.8710    -0.1510    -0.1140 O.3   1 <1>  -0.6800 
 19 O      -10.0590     2.2370    -1.1900 O.3   1 <1>  -0.6800 
 20 H       -3.9090     0.9650     1.0610 H     1 <1>   0.1500 
 21 H       -1.0640    -2.0970     0.2510 H     1 <1>   0.1500 
 22 H       -2.8050    -3.4040    -0.9290 H     1 <1>   0.1500 
 23 H       -5.0660    -2.5410    -1.1110 H     1 <1>   0.1500 
 24 H       -6.7270    -1.2820    -1.5580 H     1 <1>   0.0800 
 25 H       -7.2740    -1.5830     1.3600 H     1 <1>   0.0800 
 26 H       -7.8960     0.8650     0.9330 H     1 <1>   0.0800 
 27 H       -7.8120    -3.7200     0.6490 H     1 <1>   0.4000 
 28 H       -9.4830    -2.0420    -0.6310 H     1 <1>   0.0800 
 29 H       -9.8860    -0.1280     1.6290 H     1 <1>   0.0800 
 30 H       -8.2770     2.8010    -0.4760 H     1 <1>   0.0800 
 31 H       -9.5520     2.6200     0.7050 H     1 <1>   0.0800 
 32 H      -10.6990    -2.5310     1.2360 H     1 <1>   0.4000 
 33 H      -10.6750    -0.1720    -1.0770 H     1 <1>   0.4000 
 34 H      -10.8600     1.7500    -0.9010 H     1 <1>   0.4000 
@<TRIPOS>BOND
  1   1   2  1   
  2   2   3  ar  
  3   2   4  ar  
  4   3   5  ar  
  5   3  20  1   
  6   4   6  ar  
  7   4  21  1   
  8   5   7  1   
  9   5   8  ar  
 10   6   8  ar  
 11   6  22  1   
 12   7   9  1   
 13   8  23  1   
 14   9  10  1   
 15   9  11  1   
 16   9  24  1   
 17  10  12  1   
 18  11  13  1   
 19  11  14  1   
 20  11  25  1   
 21  12  15  1   
 22  12  16  1   
 23  12  26  1   
 24  13  27  1   
 25  14  15  1   
 26  14  17  1   
 27  14  28  1   
 28  15  18  1   
 29  15  29  1   
 30  16  19  1   
 31  16  30  1   
 32  16  31  1   
 33  17  32  1   
 34  18  33  1   
 35  19  34  1   
@<TRIPOS>SUBSTRUCTURE
  1 ****   7 GROUP 4 **** **** 0

# MOE 2024.06 (io_trps.svl 2023.06)
