@<TRIPOS>MOLECULE
NONAME
40 42 1 0 0 
SMALL
USER_CHARGES


@<TRIPOS>ATOM
  1 S       -0.0790     0.1240     0.6190 S.3   1 <1>  -0.0800 
  2 C        0.0560     1.7380    -0.0470 C.2   1 <1>   0.1660 
  3 C       -1.6650    -0.0940    -0.1190 C.2   1 <1>  -0.1400 
  4 N        1.1350     2.5250     0.1620 N.2   1 <1>  -0.5760 
  5 C       -1.0440     2.0580    -0.7740 C.2   1 <1>  -0.0860 
  6 C       -2.0210     1.0060    -0.8100 C.2   1 <1>  -0.1500 
  7 C       -2.3600    -1.4180     0.1180 C.3   1 <1>  -0.0600 
  8 C        1.0660     3.6840    -0.3990 C.2   1 <1>   0.6510 
  9 C       -1.0670     3.3460    -1.3740 C.2   1 <1>   0.7160 
 10 S        2.4680     4.7590    -0.1570 S.3   1 <1>  -0.3710 
 11 N        0.0220     4.1630    -1.1600 N.am  1 <1>  -0.4200 
 12 O       -2.0090     3.7220    -2.0570 O.2   1 <1>  -0.5700 
 13 C        3.6070     3.7800     0.9410 C.3   1 <1>   0.1310 
 14 C       -0.0020     5.5530    -1.6920 C.3   1 <1>   0.3200 
 15 C        4.8820     4.5530     1.2200 C.2   1 <1>   0.6590 
 16 C       -0.4490     6.5420    -0.6260 C.2   1 <1>  -0.0400 
 17 O        5.1340     4.9820     2.3170 O.2   1 <1>  -0.5700 
 18 O        5.7090     4.7090     0.1940 O.3   1 <1>  -0.4300 
 19 O       -0.4540     7.8240    -0.9390 O.3   1 <1>  -0.2800 
 20 C       -0.8650     6.3700     0.6490 C.2   1 <1>  -0.1500 
 21 C        6.9230     5.4100     0.3290 C.3   1 <1>   0.1200 
 22 C       -0.8670     8.4940     0.1180 C.2   1 <1>  -0.0100 
 23 C       -1.1390     7.6530     1.1370 C.2   1 <1>  -0.1500 
 24 C        7.6290     5.3990    -1.0240 C.3   1 <1>  -0.2400 
 25 H       -2.9400     1.1380    -1.3550 H     1 <1>   0.1500 
 26 H       -1.7560    -2.2220    -0.2640 H     1 <1>   0.0800 
 27 H       -3.3130    -1.4320    -0.3790 H     1 <1>   0.0800 
 28 H       -2.5140    -1.5670     1.1710 H     1 <1>   0.0800 
 29 H        3.8310     2.8580     0.4370 H     1 <1>   0.0800 
 30 H        3.0800     3.5840     1.8560 H     1 <1>   0.0800 
 31 H       -0.6720     5.6260    -2.5300 H     1 <1>   0.0800 
 32 H        0.9720     5.8320    -2.0530 H     1 <1>   0.0800 
 33 H       -0.9780     5.4600     1.2130 H     1 <1>   0.1500 
 34 H        7.5190     4.9210     1.0810 H     1 <1>   0.0800 
 35 H        6.7020     6.4170     0.6410 H     1 <1>   0.0800 
 36 H       -0.9380     9.5660     0.0580 H     1 <1>   0.1500 
 37 H       -1.4920     7.8850     2.1270 H     1 <1>   0.1500 
 38 H        7.8330     4.3880    -1.3270 H     1 <1>   0.0800 
 39 H        8.5600     5.9290    -0.9500 H     1 <1>   0.0800 
 40 H        7.0170     5.8810    -1.7650 H     1 <1>   0.0800 
@<TRIPOS>BOND
  1   1   2  1   
  2   1   3  1   
  3   2   4  1   
  4   2   5  2   
  5   3   6  2   
  6   3   7  1   
  7   4   8  2   
  8   5   6  1   
  9   5   9  1   
 10   6  25  1   
 11   7  26  1   
 12   7  27  1   
 13   7  28  1   
 14   8  10  1   
 15   8  11  1   
 16   9  11  am  
 17   9  12  2   
 18  10  13  1   
 19  11  14  1   
 20  13  15  1   
 21  13  29  1   
 22  13  30  1   
 23  14  16  1   
 24  14  31  1   
 25  14  32  1   
 26  15  17  2   
 27  15  18  1   
 28  16  19  1   
 29  16  20  2   
 30  18  21  1   
 31  19  22  1   
 32  20  23  1   
 33  20  33  1   
 34  21  24  1   
 35  21  34  1   
 36  21  35  1   
 37  22  23  2   
 38  22  36  1   
 39  23  37  1   
 40  24  38  1   
 41  24  39  1   
 42  24  40  1   
@<TRIPOS>SUBSTRUCTURE
  1 ****   8 GROUP 4 **** **** 0

# MOE 2024.06 (io_trps.svl 2023.06)
