@<TRIPOS>MOLECULE
NONAME
46 47 1 0 0 
SMALL
USER_CHARGES


@<TRIPOS>ATOM
  1 O        0.2500     0.8930    -1.5280 O.2   1 <1>  -0.5700 
  2 C        0.2260     1.6690    -0.5940 C.2   1 <1>   0.5440 
  3 N       -0.9400     1.8300     0.1010 N.am  1 <1>  -0.7300 
  4 C        1.4180     2.4040    -0.2070 C.ar  1 <1>   0.0860 
  5 C       -2.2140     1.1530    -0.1910 C.3   1 <1>   0.2200 
  6 C        2.6850     1.8530    -0.3810 C.ar  1 <1>  -0.1500 
  7 C        1.3450     3.6820     0.3530 C.ar  1 <1>  -0.1500 
  8 C       -3.3090     2.2110    -0.3540 C.3   1 <1>  -0.1600 
  9 C       -2.5370     0.1890     0.9550 C.3   1 <1>  -0.1600 
 10 C        3.8340     2.5280    -0.0050 C.ar  1 <1>   0.0830 
 11 C        2.4840     4.3680     0.7330 C.ar  1 <1>  -0.1500 
 12 C       -4.6860     1.5600    -0.5530 C.3   1 <1>  -0.1600 
 13 C       -3.9120    -0.4660     0.7590 C.3   1 <1>  -0.1600 
 14 O        5.0120     1.8920    -0.2160 O.3   1 <1>  -0.3630 
 15 C        3.7310     3.7960     0.5580 C.ar  1 <1>  -0.1500 
 16 C       -5.0120     0.5920     0.5930 C.3   1 <1>  -0.1600 
 17 C        6.2440     2.5020     0.1060 C.3   1 <1>   0.1200 
 18 C        7.3690     1.5430    -0.2640 C.3   1 <1>   0.1200 
 19 O        8.5810     2.1480     0.0600 O.3   1 <1>  -0.5600 
 20 C        9.6930     1.3710    -0.2300 C.3   1 <1>   0.1200 
 21 C       10.9270     2.1660     0.1780 C.3   1 <1>  -0.2400 
 22 H       -0.9370     2.3840     0.9540 H     1 <1>   0.3700 
 23 H       -2.1290     0.5920    -1.1090 H     1 <1>   0.0800 
 24 H        2.7760     0.8760    -0.8190 H     1 <1>   0.1500 
 25 H        0.3860     4.1490     0.4840 H     1 <1>   0.1500 
 26 H       -3.0810     2.8270    -1.2070 H     1 <1>   0.0800 
 27 H       -3.3410     2.8350     0.5210 H     1 <1>   0.0800 
 28 H       -2.5330     0.7220     1.8880 H     1 <1>   0.0800 
 29 H       -1.7820    -0.5770     0.9940 H     1 <1>   0.0800 
 30 H        2.4020     5.3520     1.1630 H     1 <1>   0.1500 
 31 H       -4.6930     1.0220    -1.4860 H     1 <1>   0.0800 
 32 H       -5.4430     2.3230    -0.6070 H     1 <1>   0.0800 
 33 H       -4.1380    -1.0930     1.6050 H     1 <1>   0.0800 
 34 H       -3.8860    -1.0920    -0.1170 H     1 <1>   0.0800 
 35 H        4.6010     4.3480     0.8620 H     1 <1>   0.1500 
 36 H       -5.9520     0.1050     0.3960 H     1 <1>   0.0800 
 37 H       -5.1150     1.1460     1.5100 H     1 <1>   0.0800 
 38 H        6.2590     2.7020     1.1630 H     1 <1>   0.0800 
 39 H        6.3310     3.4120    -0.4600 H     1 <1>   0.0800 
 40 H        7.3540     1.3430    -1.3210 H     1 <1>   0.0800 
 41 H        7.2780     0.6290     0.2970 H     1 <1>   0.0800 
 42 H        9.7070     1.1630    -1.2870 H     1 <1>   0.0800 
 43 H        9.6320     0.4510     0.3270 H     1 <1>   0.0800 
 44 H       10.9700     3.0870    -0.3740 H     1 <1>   0.0800 
 45 H       11.8130     1.5960    -0.0320 H     1 <1>   0.0800 
 46 H       10.8950     2.3790     1.2310 H     1 <1>   0.0800 
@<TRIPOS>BOND
  1   1   2  2   
  2   2   3  am  
  3   2   4  1   
  4   3   5  1   
  5   3  22  1   
  6   4   6  ar  
  7   4   7  ar  
  8   5   8  1   
  9   5   9  1   
 10   5  23  1   
 11   6  10  ar  
 12   6  24  1   
 13   7  11  ar  
 14   7  25  1   
 15   8  12  1   
 16   8  26  1   
 17   8  27  1   
 18   9  13  1   
 19   9  28  1   
 20   9  29  1   
 21  10  14  1   
 22  10  15  ar  
 23  11  15  ar  
 24  11  30  1   
 25  12  16  1   
 26  12  31  1   
 27  12  32  1   
 28  13  16  1   
 29  13  33  1   
 30  13  34  1   
 31  14  17  1   
 32  15  35  1   
 33  16  36  1   
 34  16  37  1   
 35  17  18  1   
 36  17  38  1   
 37  17  39  1   
 38  18  19  1   
 39  18  40  1   
 40  18  41  1   
 41  19  20  1   
 42  20  21  1   
 43  20  42  1   
 44  20  43  1   
 45  21  44  1   
 46  21  45  1   
 47  21  46  1   
@<TRIPOS>SUBSTRUCTURE
  1 ****   4 GROUP 4 **** **** 0

# MOE 2024.06 (io_trps.svl 2023.06)
