@<TRIPOS>MOLECULE
NONAME
56 59 1 0 0 
SMALL
USER_CHARGES


@<TRIPOS>ATOM
  1 O        0.1410     1.1020    -0.6550 O.2   1 <1>  -0.5700 
  2 C        0.6040     1.9940     0.0230 C.2   1 <1>   0.5440 
  3 N       -0.0990     3.0850     0.4620 N.am  1 <1>  -0.4200 
  4 C        1.9500     2.0830     0.5130 C.ar  1 <1>   0.0860 
  5 C        0.7340     3.8620     1.2250 C.2   1 <1>   0.5440 
  6 C       -1.5230     3.3660     0.1690 C.3   1 <1>   0.1400 
  7 C        2.0290     3.2460     1.2620 C.ar  1 <1>   0.0860 
  8 C        3.0580     1.2610     0.3590 C.ar  1 <1>  -0.1500 
  9 O        0.4000     4.8910     1.7720 O.2   1 <1>  -0.5700 
 10 C       -1.7120     3.9110    -1.2590 C.3   1 <1>  -0.0800 
 11 C        3.2300     3.5940     1.8650 C.ar  1 <1>  -0.1500 
 12 C        4.2750     1.5850     0.9630 C.ar  1 <1>   0.0860 
 13 C       -0.9710     5.2390    -1.4800 C.3   1 <1>  -0.2400 
 14 C       -3.2060     4.1060    -1.5490 C.3   1 <1>  -0.2400 
 15 C        4.3310     2.7700     1.7090 C.ar  1 <1>  -0.1500 
 16 C        5.4540     0.7530     0.8230 C.2   1 <1>   0.3980 
 17 O        6.5440     1.2780     0.7570 O.2   1 <1>  -0.5700 
 18 C        5.3630    -0.6940     0.7620 C.ar  1 <1>   0.0860 
 19 C        6.2480    -1.4240    -0.0340 C.ar  1 <1>  -0.1500 
 20 C        4.4130    -1.4130     1.5020 C.ar  1 <1>  -0.1500 
 21 C        6.1790    -2.8080    -0.0950 C.ar  1 <1>   0.0860 
 22 C        4.3380    -2.7940     1.4460 C.ar  1 <1>  -0.1500 
 23 C        6.9400    -3.7910    -0.8140 C.2   1 <1>   0.5440 
 24 C        5.2280    -3.4940     0.6420 C.ar  1 <1>   0.0860 
 25 O        7.8510    -3.5870    -1.5860 O.2   1 <1>  -0.5700 
 26 N        6.4590    -5.0360    -0.4990 N.am  1 <1>  -0.4200 
 27 C        5.4130    -4.8920     0.3750 C.2   1 <1>   0.5440 
 28 C        6.9750    -6.3180    -1.0320 C.3   1 <1>   0.1400 
 29 O        4.7660    -5.8120     0.8290 O.2   1 <1>  -0.5700 
 30 C        8.2820    -6.7380    -0.3350 C.3   1 <1>  -0.0800 
 31 C        8.8240    -8.0230    -0.9750 C.3   1 <1>  -0.2400 
 32 C        8.0930    -6.9600     1.1740 C.3   1 <1>  -0.2400 
 33 H       -1.8980     4.0790     0.8840 H     1 <1>   0.0800 
 34 H       -2.0810     2.4530     0.2820 H     1 <1>   0.0800 
 35 H        2.9590     0.3740    -0.2430 H     1 <1>   0.1500 
 36 H       -1.3350     3.1790    -1.9550 H     1 <1>   0.0800 
 37 H        3.2900     4.5020     2.4420 H     1 <1>   0.1500 
 38 H       -1.2890     5.9740    -0.7610 H     1 <1>   0.0800 
 39 H       -1.1650     5.6160    -2.4680 H     1 <1>   0.0800 
 40 H        0.0910     5.1040    -1.3800 H     1 <1>   0.0800 
 41 H       -3.6310     4.8330    -0.8780 H     1 <1>   0.0800 
 42 H       -3.7350     3.1770    -1.4310 H     1 <1>   0.0800 
 43 H       -3.3490     4.4470    -2.5590 H     1 <1>   0.0800 
 44 H        5.2660     3.0450     2.1710 H     1 <1>   0.1500 
 45 H        7.0030    -0.9110    -0.6080 H     1 <1>   0.1500 
 46 H        3.7260    -0.8840     2.1410 H     1 <1>   0.1500 
 47 H        3.6040    -3.3390     2.0170 H     1 <1>   0.1500 
 48 H        7.1520    -6.2020    -2.0870 H     1 <1>   0.0800 
 49 H        6.2280    -7.0820    -0.9000 H     1 <1>   0.0800 
 50 H        9.0130    -5.9610    -0.4850 H     1 <1>   0.0800 
 51 H        8.1280    -8.8340    -0.8490 H     1 <1>   0.0800 
 52 H        9.7590    -8.3000    -0.5210 H     1 <1>   0.0800 
 53 H        8.9940    -7.8730    -2.0270 H     1 <1>   0.0800 
 54 H        7.3260    -7.6940     1.3560 H     1 <1>   0.0800 
 55 H        7.8090    -6.0450     1.6610 H     1 <1>   0.0800 
 56 H        9.0090    -7.3030     1.6210 H     1 <1>   0.0800 
@<TRIPOS>BOND
  1   1   2  2   
  2   2   3  am  
  3   2   4  1   
  4   3   5  am  
  5   3   6  1   
  6   4   7  ar  
  7   4   8  ar  
  8   5   7  1   
  9   5   9  2   
 10   6  10  1   
 11   6  33  1   
 12   6  34  1   
 13   7  11  ar  
 14   8  12  ar  
 15   8  35  1   
 16  10  13  1   
 17  10  14  1   
 18  10  36  1   
 19  11  15  ar  
 20  11  37  1   
 21  12  15  ar  
 22  12  16  1   
 23  13  38  1   
 24  13  39  1   
 25  13  40  1   
 26  14  41  1   
 27  14  42  1   
 28  14  43  1   
 29  15  44  1   
 30  16  17  2   
 31  16  18  1   
 32  18  19  ar  
 33  18  20  ar  
 34  19  21  ar  
 35  19  45  1   
 36  20  22  ar  
 37  20  46  1   
 38  21  23  1   
 39  21  24  ar  
 40  22  24  ar  
 41  22  47  1   
 42  23  25  2   
 43  23  26  am  
 44  24  27  1   
 45  26  27  am  
 46  26  28  1   
 47  27  29  2   
 48  28  30  1   
 49  28  48  1   
 50  28  49  1   
 51  30  31  1   
 52  30  32  1   
 53  30  50  1   
 54  31  51  1   
 55  31  52  1   
 56  31  53  1   
 57  32  54  1   
 58  32  55  1   
 59  32  56  1   
@<TRIPOS>SUBSTRUCTURE
  1 ****  20 GROUP 4 **** **** 0

# MOE 2024.06 (io_trps.svl 2023.06)
