@<TRIPOS>MOLECULE
NONAME
45 46 1 0 0 
SMALL
USER_CHARGES


@<TRIPOS>ATOM
  1 CL       0.9310     0.2190    -0.3870 Cl    1 <1>  -0.1770 
  2 C        1.5360    -1.4180    -0.3670 C.ar  1 <1>   0.1770 
  3 C        1.6840    -2.1010    -1.5590 C.ar  1 <1>  -0.1500 
  4 C        1.8600    -2.0070     0.8410 C.ar  1 <1>  -0.1500 
  5 C        2.1620    -3.4010    -1.5410 C.ar  1 <1>  -0.1500 
  6 C        2.3380    -3.3070     0.8530 C.ar  1 <1>  -0.1500 
  7 C        2.4890    -4.0100    -0.3360 C.ar  1 <1>  -0.1430 
  8 C        3.0040    -5.4400    -0.3110 C.3   1 <1>   0.2640 
  9 O        4.3610    -5.4110     0.0120 O.3   1 <1>  -0.5600 
 10 C        4.9850    -6.6580     0.0390 C.3   1 <1>   0.1200 
 11 C        6.4660    -6.4430     0.3840 C.3   1 <1>   0.2000 
 12 O        6.9580    -5.4120    -0.4150 O.3   1 <1>  -0.6800 
 13 C        7.3330    -7.7020     0.1710 C.3   1 <1>   0.3430 
 14 N        8.7660    -7.3200    -0.0270 N.4   1 <1>  -0.9590 
 15 C        9.5200    -8.3060    -0.8480 C.3   1 <1>   0.3430 
 16 C        9.4540    -6.9770     1.2490 C.3   1 <1>   0.3430 
 17 C       10.9060    -7.7500    -1.1750 C.3   1 <1>  -0.1600 
 18 C       10.8390    -6.4050     0.9490 C.3   1 <1>  -0.1600 
 19 C       11.6790    -7.3660     0.0960 C.3   1 <1>  -0.0800 
 20 C       13.0270    -6.7310    -0.2640 C.3   1 <1>  -0.2400 
 21 H        1.4270    -1.6190    -2.4850 H     1 <1>   0.1500 
 22 H        1.7380    -1.4540     1.7540 H     1 <1>   0.1500 
 23 H        2.2790    -3.9320    -2.4700 H     1 <1>   0.1500 
 24 H        2.5970    -3.7700     1.7890 H     1 <1>   0.1500 
 25 H        2.8850    -5.9040    -1.2740 H     1 <1>   0.0800 
 26 H        2.4800    -6.0110     0.4360 H     1 <1>   0.0800 
 27 H        4.8850    -7.1130    -0.9320 H     1 <1>   0.0800 
 28 H        4.5050    -7.2730     0.7810 H     1 <1>   0.0800 
 29 H        6.5380    -6.1220     1.4090 H     1 <1>   0.0800 
 30 H        6.2420    -4.7310    -0.4760 H     1 <1>   0.4000 
 31 H        6.9770    -8.2030    -0.7140 H     1 <1>   0.0800 
 32 H        7.2260    -8.3800     1.0020 H     1 <1>   0.0800 
 33 H        8.6970    -6.4320    -0.5620 H     1 <1>   0.4500 
 34 H        8.9900    -8.5050    -1.7660 H     1 <1>   0.0800 
 35 H        9.6230    -9.2310    -0.3050 H     1 <1>   0.0800 
 36 H        9.5540    -7.8600     1.8600 H     1 <1>   0.0800 
 37 H        8.8780    -6.2460     1.7940 H     1 <1>   0.0800 
 38 H       10.8000    -6.8930    -1.8180 H     1 <1>   0.0800 
 39 H       11.4600    -8.4950    -1.7190 H     1 <1>   0.0800 
 40 H       11.3450    -6.2140     1.8790 H     1 <1>   0.0800 
 41 H       10.7260    -5.4600     0.4450 H     1 <1>   0.0800 
 42 H       11.8700    -8.2600     0.6680 H     1 <1>   0.0800 
 43 H       12.8890    -5.8310    -0.8370 H     1 <1>   0.0800 
 44 H       13.6220    -7.4160    -0.8420 H     1 <1>   0.0800 
 45 H       13.5760    -6.4850     0.6290 H     1 <1>   0.0800 
@<TRIPOS>BOND
  1   1   2  1   
  2   2   3  ar  
  3   2   4  ar  
  4   3   5  ar  
  5   3  21  1   
  6   4   6  ar  
  7   4  22  1   
  8   5   7  ar  
  9   5  23  1   
 10   6   7  ar  
 11   6  24  1   
 12   7   8  1   
 13   8   9  1   
 14   8  25  1   
 15   8  26  1   
 16   9  10  1   
 17  10  11  1   
 18  10  27  1   
 19  10  28  1   
 20  11  12  1   
 21  11  13  1   
 22  11  29  1   
 23  12  30  1   
 24  13  14  1   
 25  13  31  1   
 26  13  32  1   
 27  14  15  1   
 28  14  16  1   
 29  14  33  1   
 30  15  17  1   
 31  15  34  1   
 32  15  35  1   
 33  16  18  1   
 34  16  36  1   
 35  16  37  1   
 36  17  19  1   
 37  17  38  1   
 38  17  39  1   
 39  18  19  1   
 40  18  40  1   
 41  18  41  1   
 42  19  20  1   
 43  19  42  1   
 44  20  43  1   
 45  20  44  1   
 46  20  45  1   
@<TRIPOS>SUBSTRUCTURE
  1 ****  12 GROUP 4 **** **** 0

# MOE 2024.06 (io_trps.svl 2023.06)
