@<TRIPOS>MOLECULE
NONAME
30 31 1 0 0 
SMALL
USER_CHARGES


@<TRIPOS>ATOM
  1 O       -8.1670    -1.5480     1.0660 O.3   1 <1>  -0.3630 
  2 C       -6.9880    -1.8330     0.4610 C.ar  1 <1>   0.0830 
  3 C       -9.3470    -2.0150     0.4350 C.3   1 <1>   0.1200 
  4 C       -6.9100    -2.7670    -0.5710 C.ar  1 <1>   0.0830 
  5 C       -5.8500    -1.1700     0.8820 C.ar  1 <1>  -0.1500 
  6 C       -9.1340    -3.4270    -0.1300 C.3   1 <1>   0.1200 
  7 O       -8.0070    -3.4470    -0.9860 O.3   1 <1>  -0.3630 
  8 C       -5.6950    -3.0150    -1.1820 C.ar  1 <1>  -0.1500 
  9 C       -4.6260    -1.4140     0.2700 C.ar  1 <1>  -0.1430 
 10 C       -4.5580    -2.3430    -0.7650 C.ar  1 <1>  -0.1500 
 11 C       -3.4070    -0.6360     0.7460 C.3   1 <1>   0.5660 
 12 N       -2.9740     0.2610    -0.3380 N.4   1 <1>  -0.9060 
 13 C       -2.2420    -1.5460     1.1150 C.3   1 <1>  -0.2400 
 14 C       -3.9980     1.2930    -0.6830 C.3   1 <1>   0.2630 
 15 H       -9.5970    -1.3320    -0.3570 H     1 <1>   0.0800 
 16 H      -10.1370    -2.0120     1.1650 H     1 <1>   0.0800 
 17 H       -5.9490    -0.4660     1.6900 H     1 <1>   0.1500 
 18 H       -9.9880    -3.7450    -0.6980 H     1 <1>   0.0800 
 19 H       -8.9600    -4.1270     0.6680 H     1 <1>   0.0800 
 20 H       -5.6500    -3.7390    -1.9780 H     1 <1>   0.1500 
 21 H       -3.6300    -2.5690    -1.2610 H     1 <1>   0.1500 
 22 H       -3.6800    -0.0530     1.6120 H     1 <1>   0.0800 
 23 H       -2.7990    -0.3290    -1.1590 H     1 <1>   0.4500 
 24 H       -2.0850     0.7000    -0.0730 H     1 <1>   0.4500 
 25 H       -1.8920    -2.1100     0.2700 H     1 <1>   0.0800 
 26 H       -2.5660    -2.2430     1.8680 H     1 <1>   0.0800 
 27 H       -1.4300    -0.9730     1.5250 H     1 <1>   0.0800 
 28 H       -4.9170     0.8200    -0.9930 H     1 <1>   0.0800 
 29 H       -3.6460     1.9170    -1.4890 H     1 <1>   0.0800 
 30 H       -4.2060     1.9180     0.1710 H     1 <1>   0.0800 
@<TRIPOS>BOND
  1   1   2  1   
  2   1   3  1   
  3   2   4  ar  
  4   2   5  ar  
  5   3   6  1   
  6   3  15  1   
  7   3  16  1   
  8   4   7  1   
  9   4   8  ar  
 10   5   9  ar  
 11   5  17  1   
 12   6   7  1   
 13   6  18  1   
 14   6  19  1   
 15   8  10  ar  
 16   8  20  1   
 17   9  10  ar  
 18   9  11  1   
 19  10  21  1   
 20  11  12  1   
 21  11  13  1   
 22  11  22  1   
 23  12  14  1   
 24  12  23  1   
 25  12  24  1   
 26  13  25  1   
 27  13  26  1   
 28  13  27  1   
 29  14  28  1   
 30  14  29  1   
 31  14  30  1   
@<TRIPOS>SUBSTRUCTURE
  1 ****   5 GROUP 4 **** **** 0

# MOE 2024.06 (io_trps.svl 2023.06)
