@<TRIPOS>MOLECULE
NONAME
47 49 1 0 0 
SMALL
USER_CHARGES


@<TRIPOS>ATOM
  1 CL      -2.8600     0.8050    -2.5410 Cl    1 <1>  -0.1770 
  2 C       -2.2180     2.3440    -2.0300 C.ar  1 <1>   0.1770 
  3 C       -1.3900     2.4010    -0.9260 C.ar  1 <1>  -0.1500 
  4 C       -2.5470     3.4840    -2.7380 C.ar  1 <1>  -0.1500 
  5 C       -0.8850     3.6250    -0.5190 C.ar  1 <1>  -0.1500 
  6 C       -2.0400     4.7060    -2.3300 C.ar  1 <1>  -0.1500 
  7 C       -1.2110     4.7830    -1.2160 C.ar  1 <1>  -0.1430 
  8 C       -0.6680     6.1240    -0.7560 C.3   1 <1>   0.4870 
  9 N       -1.7750     6.9140    -0.1580 N.4   1 <1>  -0.9590 
 10 C       -1.4010     8.3270     0.1800 C.3   1 <1>   0.3430 
 11 C       -2.4480     6.2420     1.0030 C.3   1 <1>   0.3430 
 12 C       -2.5900     9.1000     0.8060 C.3   1 <1>   0.1100 
 13 C       -3.7060     7.0280     1.4440 C.3   1 <1>   0.1100 
 14 N       -3.8600     8.3370     0.7460 N.3   1 <1>  -0.8100 
 15 C       -4.9780     9.1200     1.3570 C.3   1 <1>   0.1710 
 16 C       -6.3340     8.4080     1.3270 C.2   1 <1>   0.5690 
 17 O       -6.8190     8.0680     2.3780 O.2   1 <1>  -0.5700 
 18 N       -6.8880     8.1550     0.1020 N.am  1 <1>  -0.5470 
 19 C       -8.0980     7.5450    -0.2680 C.ar  1 <1>   0.1170 
 20 C       -8.2500     7.1200    -1.5840 C.ar  1 <1>  -0.1500 
 21 C       -9.1600     7.3570     0.6120 C.ar  1 <1>  -0.1500 
 22 C       -9.4210     6.5180    -2.0080 C.ar  1 <1>  -0.1500 
 23 C      -10.3330     6.7550     0.1920 C.ar  1 <1>  -0.1500 
 24 C      -10.4660     6.3340    -1.1190 C.ar  1 <1>  -0.1500 
 25 H       -1.1460     1.4950    -0.3990 H     1 <1>   0.1500 
 26 H       -3.1910     3.4070    -3.5970 H     1 <1>   0.1500 
 27 H       -0.2350     3.6560     0.3400 H     1 <1>   0.1500 
 28 H       -2.2970     5.5870    -2.8940 H     1 <1>   0.1500 
 29 H       -0.2530     6.6480    -1.6020 H     1 <1>   0.0800 
 30 H        0.1150     5.9730    -0.0310 H     1 <1>   0.0800 
 31 H       -2.5310     6.9960    -0.8530 H     1 <1>   0.4500 
 32 H       -1.0860     8.8410    -0.7130 H     1 <1>   0.0800 
 33 H       -0.5750     8.3370     0.8710 H     1 <1>   0.0800 
 34 H       -1.7650     6.1720     1.8330 H     1 <1>   0.0800 
 35 H       -2.7430     5.2400     0.7360 H     1 <1>   0.0800 
 36 H       -2.7070    10.0360     0.2850 H     1 <1>   0.0800 
 37 H       -2.3540     9.3310     1.8310 H     1 <1>   0.0800 
 38 H       -3.6630     7.1790     2.5110 H     1 <1>   0.0800 
 39 H       -4.5710     6.4160     1.2490 H     1 <1>   0.0800 
 40 H       -5.0860    10.0540     0.8350 H     1 <1>   0.0800 
 41 H       -4.7450     9.3460     2.3840 H     1 <1>   0.0800 
 42 H       -6.2870     8.4060    -0.6800 H     1 <1>   0.3700 
 43 H       -7.4500     7.2560    -2.2860 H     1 <1>   0.1500 
 44 H       -9.0820     7.6810     1.6330 H     1 <1>   0.1500 
 45 H       -9.5230     6.1920    -3.0280 H     1 <1>   0.1500 
 46 H      -11.1420     6.6160     0.8870 H     1 <1>   0.1500 
 47 H      -11.3780     5.8660    -1.4450 H     1 <1>   0.1500 
@<TRIPOS>BOND
  1   1   2  1   
  2   2   3  ar  
  3   2   4  ar  
  4   3   5  ar  
  5   3  25  1   
  6   4   6  ar  
  7   4  26  1   
  8   5   7  ar  
  9   5  27  1   
 10   6   7  ar  
 11   6  28  1   
 12   7   8  1   
 13   8   9  1   
 14   8  29  1   
 15   8  30  1   
 16   9  10  1   
 17   9  11  1   
 18   9  31  1   
 19  10  12  1   
 20  10  32  1   
 21  10  33  1   
 22  11  13  1   
 23  11  34  1   
 24  11  35  1   
 25  12  14  1   
 26  12  36  1   
 27  12  37  1   
 28  13  14  1   
 29  13  38  1   
 30  13  39  1   
 31  14  15  1   
 32  15  16  1   
 33  15  40  1   
 34  15  41  1   
 35  16  17  2   
 36  16  18  am  
 37  18  19  1   
 38  18  42  1   
 39  19  20  ar  
 40  19  21  ar  
 41  20  22  ar  
 42  20  43  1   
 43  21  23  ar  
 44  21  44  1   
 45  22  24  ar  
 46  22  45  1   
 47  23  24  ar  
 48  23  46  1   
 49  24  47  1   
@<TRIPOS>SUBSTRUCTURE
  1 ****  13 GROUP 4 **** **** 0

# MOE 2024.06 (io_trps.svl 2023.06)
