@<TRIPOS>MOLECULE
NONAME
47 48 1 0 0 
SMALL
USER_CHARGES


@<TRIPOS>ATOM
  1 O       -0.1810    -0.6710     0.6710 O.2   1 <1>  -0.5700 
  2 C        0.3850     0.3790     0.8520 C.2   1 <1>   0.5690 
  3 N        1.7100     0.5840     0.6170 N.am  1 <1>  -0.5470 
  4 C       -0.4170     1.5570     1.3730 C.3   1 <1>  -0.0990 
  5 C        2.7450    -0.2150     0.1090 C.ar  1 <1>   0.1170 
  6 C       -0.5180     2.6980     0.3450 C.3   1 <1>  -0.1600 
  7 C        3.9520     0.4380    -0.1810 C.ar  1 <1>   0.1000 
  8 C        2.6330    -1.5810    -0.1100 C.ar  1 <1>  -0.1500 
  9 C       -1.3350     3.8730     0.8940 C.3   1 <1>  -0.1600 
 10 N        4.0710     1.8240     0.0400 N.pl3 1 <1>  -0.8380 
 11 C        5.0120    -0.3000    -0.6910 C.ar  1 <1>  -0.1500 
 12 C        3.7010    -2.3030    -0.6150 C.ar  1 <1>  -0.1500 
 13 C       -1.4240     5.0060    -0.1320 C.3   1 <1>  -0.2400 
 14 C        5.0330     2.2930     1.0880 C.3   1 <1>   0.2090 
 15 C        3.9490     2.7160    -1.1590 C.3   1 <1>   0.2090 
 16 C        4.8910    -1.6620    -0.9070 C.ar  1 <1>  -0.1500 
 17 C        6.3770     2.7780     0.5090 C.3   1 <1>   0.1400 
 18 C        5.3160     3.1520    -1.7110 C.3   1 <1>   0.1400 
 19 N        6.1740     3.7270    -0.6290 N.am  1 <1>  -0.6600 
 20 C        6.6080     5.0240    -0.6800 C.2   1 <1>   0.5690 
 21 O        6.3110     5.7630    -1.5870 O.2   1 <1>  -0.5700 
 22 C        7.4830     5.5870     0.4150 C.3   1 <1>  -0.1790 
 23 H        2.0590     1.5350     0.7520 H     1 <1>   0.3700 
 24 H        0.0460     1.9130     2.2750 H     1 <1>   0.0800 
 25 H       -1.4040     1.2120     1.6230 H     1 <1>   0.0800 
 26 H       -0.9840     2.3220    -0.5500 H     1 <1>   0.0800 
 27 H        0.4690     3.0420     0.0860 H     1 <1>   0.0800 
 28 H        1.7130    -2.0890     0.1140 H     1 <1>   0.1500 
 29 H       -0.8770     4.2470     1.7940 H     1 <1>   0.0800 
 30 H       -2.3300     3.5390     1.1390 H     1 <1>   0.0800 
 31 H        5.9350     0.1920    -0.9250 H     1 <1>   0.1500 
 32 H        3.6000    -3.3620    -0.7800 H     1 <1>   0.1500 
 33 H       -0.4430     5.3720    -0.3770 H     1 <1>   0.0800 
 34 H       -2.0020     5.8200     0.2680 H     1 <1>   0.0800 
 35 H       -1.9000     4.6600    -1.0330 H     1 <1>   0.0800 
 36 H        5.2160     1.4950     1.7860 H     1 <1>   0.0800 
 37 H        4.5790     3.1020     1.6320 H     1 <1>   0.0800 
 38 H        3.3890     3.5940    -0.8880 H     1 <1>   0.0800 
 39 H        3.4030     2.2050    -1.9330 H     1 <1>   0.0800 
 40 H        5.7200    -2.2220    -1.3020 H     1 <1>   0.1500 
 41 H        6.9360     1.9300     0.1590 H     1 <1>   0.0800 
 42 H        6.9470     3.2350     1.2970 H     1 <1>   0.0800 
 43 H        5.1640     3.8700    -2.4970 H     1 <1>   0.0800 
 44 H        5.8130     2.3010    -2.1410 H     1 <1>   0.0800 
 45 H        6.9380     5.6170     1.3380 H     1 <1>   0.0800 
 46 H        7.7820     6.5870     0.1590 H     1 <1>   0.0800 
 47 H        8.3640     4.9840     0.5250 H     1 <1>   0.0800 
@<TRIPOS>BOND
  1   1   2  2   
  2   2   3  am  
  3   2   4  1   
  4   3   5  1   
  5   3  23  1   
  6   4   6  1   
  7   4  24  1   
  8   4  25  1   
  9   5   7  ar  
 10   5   8  ar  
 11   6   9  1   
 12   6  26  1   
 13   6  27  1   
 14   7  10  1   
 15   7  11  ar  
 16   8  12  ar  
 17   8  28  1   
 18   9  13  1   
 19   9  29  1   
 20   9  30  1   
 21  10  14  1   
 22  10  15  1   
 23  11  16  ar  
 24  11  31  1   
 25  12  16  ar  
 26  12  32  1   
 27  13  33  1   
 28  13  34  1   
 29  13  35  1   
 30  14  17  1   
 31  14  36  1   
 32  14  37  1   
 33  15  18  1   
 34  15  38  1   
 35  15  39  1   
 36  16  40  1   
 37  17  19  1   
 38  17  41  1   
 39  17  42  1   
 40  18  19  1   
 41  18  43  1   
 42  18  44  1   
 43  19  20  am  
 44  20  21  2   
 45  20  22  1   
 46  22  45  1   
 47  22  46  1   
 48  22  47  1   
@<TRIPOS>SUBSTRUCTURE
  1 ****  10 GROUP 4 **** **** 0

# MOE 2024.06 (io_trps.svl 2023.06)
