@<TRIPOS>MOLECULE
NONAME
30 30 1 0 0 
SMALL
USER_CHARGES


@<TRIPOS>ATOM
  1 CL      -0.1590    -0.3140    -1.5840 Cl    1 <1>  -0.1770 
  2 C        1.3030    -0.7790    -0.7390 C.ar  1 <1>   0.1770 
  3 C        1.4100    -2.0610    -0.1910 C.ar  1 <1>   0.1990 
  4 C        2.3230     0.1470    -0.6390 C.ar  1 <1>  -0.1500 
  5 N        0.3820    -2.9980    -0.2980 N.am  1 <1>  -0.6930 
  6 C        2.5900    -2.3920     0.4700 C.ar  1 <1>  -0.1500 
  7 C        3.4790    -0.2170     0.0240 C.ar  1 <1>   0.1770 
  8 S       -0.6710    -3.3250     1.0350 S.o2  1 <1>   1.3330 
  9 C        0.5020    -4.0480    -1.3580 C.3   1 <1>   0.2570 
 10 C        3.6230    -1.4760     0.5790 C.ar  1 <1>  -0.1500 
 11 CL       4.7830     0.9370     0.1640 Cl    1 <1>  -0.1770 
 12 O       -1.3500    -4.5640     0.7370 O.2   1 <1>  -0.6500 
 13 O        0.1050    -3.1900     2.2420 O.2   1 <1>  -0.6500 
 14 C       -1.8450    -1.9930     0.9270 C.3   1 <1>  -0.1350 
 15 C        1.3590    -5.2500    -0.9450 C.2   1 <1>   0.5690 
 16 O        2.4580    -5.3720    -1.4320 O.2   1 <1>  -0.5700 
 17 N        0.8680    -6.1460    -0.0460 N.am  1 <1>  -0.7300 
 18 C        1.5860    -7.3320     0.4820 C.3   1 <1>   0.0600 
 19 H        2.2230     1.1270    -1.0660 H     1 <1>   0.1500 
 20 H        2.6940    -3.3730     0.9020 H     1 <1>   0.1500 
 21 H        0.9460    -3.6090    -2.2330 H     1 <1>   0.0800 
 22 H       -0.4760    -4.3970    -1.6340 H     1 <1>   0.0800 
 23 H        4.5340    -1.7350     1.0910 H     1 <1>   0.1500 
 24 H       -2.3310    -2.0030    -0.0280 H     1 <1>   0.0800 
 25 H       -1.3500    -1.0510     1.0550 H     1 <1>   0.0800 
 26 H       -2.5880    -2.0960     1.6940 H     1 <1>   0.0800 
 27 H       -0.0530    -5.9510     0.3790 H     1 <1>   0.3700 
 28 H        2.5440    -7.4350     0.0010 H     1 <1>   0.0800 
 29 H        1.0050    -8.2190     0.2980 H     1 <1>   0.0800 
 30 H        1.7380    -7.2200     1.5410 H     1 <1>   0.0800 
@<TRIPOS>BOND
  1   1   2  1   
  2   2   3  ar  
  3   2   4  ar  
  4   3   5  1   
  5   3   6  ar  
  6   4   7  ar  
  7   4  19  1   
  8   5   8  am  
  9   5   9  1   
 10   6  10  ar  
 11   6  20  1   
 12   7  10  ar  
 13   7  11  1   
 14   8  12  2   
 15   8  13  2   
 16   8  14  1   
 17   9  15  1   
 18   9  21  1   
 19   9  22  1   
 20  10  23  1   
 21  14  24  1   
 22  14  25  1   
 23  14  26  1   
 24  15  16  2   
 25  15  17  am  
 26  17  18  1   
 27  17  27  1   
 28  18  28  1   
 29  18  29  1   
 30  18  30  1   
@<TRIPOS>SUBSTRUCTURE
  1 ****   3 GROUP 4 **** **** 0

# MOE 2024.06 (io_trps.svl 2023.06)
