@<TRIPOS>MOLECULE
NONAME
48 52 1 0 0 
SMALL
USER_CHARGES


@<TRIPOS>ATOM
  1 O       -0.9590     0.4580    -1.3550 O.2   1 <1>  -0.5700 
  2 C       -0.9630     1.6710    -1.2320 C.2   1 <1>   0.5440 
  3 N       -2.1310     2.3420    -1.4840 N.am  1 <1>  -0.7300 
  4 C        0.2350     2.4090    -0.8210 C.ar  1 <1>   0.3960 
  5 C       -3.4590     1.7440    -1.7650 C.3   1 <1>   0.1400 
  6 N        0.1720     3.7160    -0.6460 N.ar  1 <1>  -0.6200 
  7 C        1.4430     1.7040    -0.6160 C.ar  1 <1>  -0.1500 
  8 C       -4.5250     2.1980    -0.7440 C.3   1 <1>   0.0000 
  9 C        1.2900     4.3760    -0.2630 C.ar  1 <1>   0.3100 
 10 C        2.5800     2.3440    -0.2320 C.ar  1 <1>  -0.1500 
 11 C       -4.1380     1.7740     0.6940 C.3   1 <1>  -0.1600 
 12 C       -5.8750     1.5310    -1.1000 C.3   1 <1>  -0.1600 
 13 C       -4.7200     3.7340    -0.7720 C.3   1 <1>  -0.1600 
 14 C        2.5270     3.7320    -0.0420 C.ar  1 <1>   0.0000 
 15 C        1.2220     5.7660    -0.0750 C.ar  1 <1>  -0.1500 
 16 C       -5.2280     2.1960     1.6980 C.3   1 <1>  -0.0800 
 17 C       -6.9740     1.9490    -0.1060 C.3   1 <1>  -0.0800 
 18 C       -5.8120     4.1630     0.2260 C.3   1 <1>  -0.0800 
 19 C        3.6400     4.4980     0.3550 C.ar  1 <1>  -0.1500 
 20 C        2.3160     6.4950     0.3110 C.ar  1 <1>  -0.1500 
 21 C       -6.5580     1.5220     1.3140 C.3   1 <1>  -0.1600 
 22 C       -5.4000     3.7250     1.6440 C.3   1 <1>  -0.1600 
 23 C       -7.1400     3.4790    -0.1490 C.3   1 <1>  -0.1600 
 24 C        3.5390     5.8520     0.5280 C.ar  1 <1>  -0.1500 
 25 H       -2.1130     3.3550    -1.3380 H     1 <1>   0.3700 
 26 H       -3.3810     0.6700    -1.7440 H     1 <1>   0.0800 
 27 H       -3.7620     2.0320    -2.7560 H     1 <1>   0.0800 
 28 H        1.4420     0.6390    -0.7720 H     1 <1>   0.1500 
 29 H        3.5050     1.8170    -0.0740 H     1 <1>   0.1500 
 30 H       -3.2050     2.2290     0.9760 H     1 <1>   0.0800 
 31 H       -4.0010     0.7070     0.7340 H     1 <1>   0.0800 
 32 H       -5.7680     0.4600    -1.0820 H     1 <1>   0.0800 
 33 H       -6.1710     1.8120    -2.0960 H     1 <1>   0.0800 
 34 H       -4.9940     4.0510    -1.7630 H     1 <1>   0.0800 
 35 H       -3.8010     4.2300    -0.5130 H     1 <1>   0.0800 
 36 H        0.2760     6.2450    -0.2460 H     1 <1>   0.1500 
 37 H       -4.9410     1.8960     2.6910 H     1 <1>   0.0800 
 38 H       -7.9040     1.4750    -0.3700 H     1 <1>   0.0800 
 39 H       -5.9330     5.2320     0.1960 H     1 <1>   0.0800 
 40 H        4.5780     3.9980     0.5200 H     1 <1>   0.1500 
 41 H        2.2500     7.5600     0.4520 H     1 <1>   0.1500 
 42 H       -7.3230     1.8020     2.0170 H     1 <1>   0.0800 
 43 H       -6.4500     0.4530     1.3570 H     1 <1>   0.0800 
 44 H       -6.1500     4.0320     2.3520 H     1 <1>   0.0800 
 45 H       -4.4760     4.2040     1.9190 H     1 <1>   0.0800 
 46 H       -7.9110     3.7810     0.5370 H     1 <1>   0.0800 
 47 H       -7.4420     3.7850    -1.1360 H     1 <1>   0.0800 
 48 H        4.3910     6.4360     0.8320 H     1 <1>   0.1500 
@<TRIPOS>BOND
  1   1   2  2   
  2   2   3  am  
  3   2   4  1   
  4   3   5  1   
  5   3  25  1   
  6   4   6  ar  
  7   4   7  ar  
  8   5   8  1   
  9   5  26  1   
 10   5  27  1   
 11   6   9  ar  
 12   7  10  ar  
 13   7  28  1   
 14   8  11  1   
 15   8  12  1   
 16   8  13  1   
 17   9  14  ar  
 18   9  15  ar  
 19  10  14  ar  
 20  10  29  1   
 21  11  16  1   
 22  11  30  1   
 23  11  31  1   
 24  12  17  1   
 25  12  32  1   
 26  12  33  1   
 27  13  18  1   
 28  13  34  1   
 29  13  35  1   
 30  14  19  ar  
 31  15  20  ar  
 32  15  36  1   
 33  16  21  1   
 34  16  22  1   
 35  16  37  1   
 36  17  21  1   
 37  17  23  1   
 38  17  38  1   
 39  18  22  1   
 40  18  23  1   
 41  18  39  1   
 42  19  24  ar  
 43  19  40  1   
 44  20  24  ar  
 45  20  41  1   
 46  21  42  1   
 47  21  43  1   
 48  22  44  1   
 49  22  45  1   
 50  23  46  1   
 51  23  47  1   
 52  24  48  1   
@<TRIPOS>SUBSTRUCTURE
  1 ****   3 GROUP 4 **** **** 0

# MOE 2024.06 (io_trps.svl 2023.06)
