@<TRIPOS>MOLECULE
NONAME
44 45 1 0 0 
SMALL
USER_CHARGES


@<TRIPOS>ATOM
  1 O        0.8470     0.1820     0.5870 O.3   1 <1>  -0.3630 
  2 C        1.8210    -0.5490    -0.0080 C.ar  1 <1>   0.0830 
  3 C       -0.3150     0.4260    -0.1770 C.3   1 <1>   0.0400 
  4 C        1.6510    -1.8820    -0.3990 C.ar  1 <1>   0.0830 
  5 C        3.0340     0.0800    -0.2290 C.ar  1 <1>  -0.1500 
  6 O        0.5130    -2.5810    -0.1730 O.3   1 <1>  -0.3630 
  7 C        2.6830    -2.5390    -1.0470 C.ar  1 <1>  -0.1500 
  8 C        4.0740    -0.5890    -0.8570 C.ar  1 <1>  -0.1430 
  9 C        0.1890    -2.8410     1.1750 C.3   1 <1>   0.0400 
 10 C        3.8900    -1.8990    -1.2740 C.ar  1 <1>  -0.1500 
 11 C        5.4030     0.1090    -1.0720 C.3   1 <1>  -0.0170 
 12 C        6.2150     0.0030     0.2200 C.3   1 <1>   0.3430 
 13 N        7.5790     0.5890     0.0700 N.4   1 <1>  -0.9590 
 14 C        8.4960     0.1630     1.1720 C.3   1 <1>   0.4860 
 15 C        7.6010     2.0720    -0.1190 C.3   1 <1>   0.2630 
 16 C        9.9280     0.1430     0.6410 C.ar  1 <1>   0.1670 
 17 N       10.0760    -0.2510    -0.6220 N.ar  1 <1>  -0.6200 
 18 C       10.9760     0.5300     1.4630 C.ar  1 <1>  -0.1500 
 19 C       11.3230    -0.2690    -1.0730 C.ar  1 <1>   0.1600 
 20 C       12.2650     0.5100     0.9740 C.ar  1 <1>  -0.1500 
 21 C       12.4310     0.0970    -0.3300 C.ar  1 <1>  -0.1500 
 22 H       -0.9320     1.1200     0.3630 H     1 <1>   0.0800 
 23 H       -0.8470    -0.4960    -0.3250 H     1 <1>   0.0800 
 24 H       -0.0270     0.8460    -1.1240 H     1 <1>   0.0800 
 25 H        3.1400     1.1000     0.0930 H     1 <1>   0.1500 
 26 H        2.5360    -3.5560    -1.3660 H     1 <1>   0.1500 
 27 H       -0.6810    -3.4720     1.1960 H     1 <1>   0.0800 
 28 H       -0.0190    -1.9150     1.6790 H     1 <1>   0.0800 
 29 H        1.0190    -3.3430     1.6410 H     1 <1>   0.0800 
 30 H        4.6760    -2.4350    -1.7780 H     1 <1>   0.1500 
 31 H        5.2200     1.1370    -1.3270 H     1 <1>   0.0800 
 32 H        5.9310    -0.3610    -1.8820 H     1 <1>   0.0800 
 33 H        6.2980    -1.0410     0.4760 H     1 <1>   0.0800 
 34 H        5.6850     0.4990     1.0170 H     1 <1>   0.0800 
 35 H        8.0500     0.1650    -0.7560 H     1 <1>   0.4500 
 36 H        8.2470    -0.8360     1.4880 H     1 <1>   0.0800 
 37 H        8.4130     0.8250     2.0170 H     1 <1>   0.0800 
 38 H        7.1700     2.5680     0.7350 H     1 <1>   0.0800 
 39 H        7.0430     2.3470    -0.9990 H     1 <1>   0.0800 
 40 H        8.6170     2.4140    -0.2450 H     1 <1>   0.0800 
 41 H       10.8040     0.8420     2.4780 H     1 <1>   0.1500 
 42 H       11.4740    -0.5920    -2.0910 H     1 <1>   0.1500 
 43 H       13.1070     0.8010     1.5810 H     1 <1>   0.1500 
 44 H       13.4130     0.0560    -0.7680 H     1 <1>   0.1500 
@<TRIPOS>BOND
  1   1   2  1   
  2   1   3  1   
  3   2   4  ar  
  4   2   5  ar  
  5   3  22  1   
  6   3  23  1   
  7   3  24  1   
  8   4   6  1   
  9   4   7  ar  
 10   5   8  ar  
 11   5  25  1   
 12   6   9  1   
 13   7  10  ar  
 14   7  26  1   
 15   8  10  ar  
 16   8  11  1   
 17   9  27  1   
 18   9  28  1   
 19   9  29  1   
 20  10  30  1   
 21  11  12  1   
 22  11  31  1   
 23  11  32  1   
 24  12  13  1   
 25  12  33  1   
 26  12  34  1   
 27  13  14  1   
 28  13  15  1   
 29  13  35  1   
 30  14  16  1   
 31  14  36  1   
 32  14  37  1   
 33  15  38  1   
 34  15  39  1   
 35  15  40  1   
 36  16  17  ar  
 37  16  18  ar  
 38  17  19  ar  
 39  18  20  ar  
 40  18  41  1   
 41  19  21  ar  
 42  19  42  1   
 43  20  21  ar  
 44  20  43  1   
 45  21  44  1   
@<TRIPOS>SUBSTRUCTURE
  1 ****  12 GROUP 4 **** **** 0

# MOE 2024.06 (io_trps.svl 2023.06)
