@<TRIPOS>MOLECULE
NONAME
54 56 1 0 0 
SMALL
USER_CHARGES


@<TRIPOS>ATOM
  1 O       -0.6840    -1.8260    -2.9520 O.2   1 <1>  -0.5700 
  2 C       -0.1650    -1.9100    -1.8650 C.2   1 <1>   0.5690 
  3 N       -0.8130    -1.5990    -0.6960 N.am  1 <1>  -0.5470 
  4 C        1.2690    -2.4520    -1.7720 C.3   1 <1>   0.1710 
  5 C       -2.1050    -1.0970    -0.4640 C.ar  1 <1>   0.1170 
  6 N        2.3550    -1.4410    -1.6320 N.3   1 <1>  -0.8100 
  7 C       -2.6930    -1.3130     0.7770 C.ar  1 <1>  -0.1500 
  8 C       -2.8190    -0.3750    -1.4150 C.ar  1 <1>  -0.1500 
  9 C        3.6830    -2.0980    -1.6830 C.3   1 <1>   0.1100 
 10 C        2.2450    -0.6080    -0.4080 C.3   1 <1>   0.1100 
 11 C       -3.9580    -0.8300     1.0650 C.ar  1 <1>  -0.1500 
 12 C       -4.0830     0.1100    -1.1340 C.ar  1 <1>  -0.1500 
 13 C        4.8460    -1.0930    -1.5750 C.3   1 <1>   0.2090 
 14 C        3.3940     0.4120    -0.2870 C.3   1 <1>   0.2090 
 15 C       -4.6630    -0.1120     0.1040 C.ar  1 <1>   0.0820 
 16 N        4.7180    -0.2680    -0.3410 N.pl3 1 <1>  -0.8380 
 17 O       -5.9080     0.3990     0.2980 O.3   1 <1>  -0.3620 
 18 C        5.8210     0.5110    -0.0080 C.ar  1 <1>   0.1000 
 19 C       -6.5990     0.1920     1.5070 C.3   1 <1>   0.1200 
 20 C        6.5530     0.2130     1.1310 C.ar  1 <1>  -0.1500 
 21 C        6.2150     1.5890    -0.7940 C.ar  1 <1>  -0.1500 
 22 C       -7.9620     0.8690     1.3920 C.3   1 <1>  -0.2400 
 23 C        7.6560     0.9670     1.4920 C.ar  1 <1>   0.0820 
 24 C        7.3150     2.3510    -0.4440 C.ar  1 <1>  -0.1500 
 25 O        8.3080     0.5990     2.6250 O.3   1 <1>  -0.3620 
 26 C        8.0380     2.0450     0.6960 C.ar  1 <1>  -0.1500 
 27 C        9.4410     1.3040     3.0780 C.3   1 <1>   0.0400 
 28 H       -0.2750    -1.7800     0.1470 H     1 <1>   0.3700 
 29 H        1.4450    -3.0110    -2.6740 H     1 <1>   0.0800 
 30 H        1.3200    -3.1440    -0.9510 H     1 <1>   0.0800 
 31 H       -2.1620    -1.8690     1.5270 H     1 <1>   0.1500 
 32 H       -2.3900    -0.1840    -2.3820 H     1 <1>   0.1500 
 33 H        3.7800    -2.6330    -2.6120 H     1 <1>   0.0800 
 34 H        3.7710    -2.8060    -0.8770 H     1 <1>   0.0800 
 35 H        2.2550    -1.2370     0.4650 H     1 <1>   0.0800 
 36 H        1.3210    -0.0590    -0.4280 H     1 <1>   0.0800 
 37 H       -4.3760    -1.0210     2.0350 H     1 <1>   0.1500 
 38 H       -4.6290     0.6650    -1.8750 H     1 <1>   0.1500 
 39 H        4.8430    -0.4550    -2.4410 H     1 <1>   0.0800 
 40 H        5.7810    -1.6250    -1.5500 H     1 <1>   0.0800 
 41 H        3.3070     0.9440     0.6450 H     1 <1>   0.0800 
 42 H        3.3190     1.1250    -1.0890 H     1 <1>   0.0800 
 43 H       -6.0260     0.6280     2.3070 H     1 <1>   0.0800 
 44 H       -6.7130    -0.8670     1.6590 H     1 <1>   0.0800 
 45 H        6.2540    -0.6180     1.7400 H     1 <1>   0.1500 
 46 H        5.6540     1.8250    -1.6780 H     1 <1>   0.1500 
 47 H       -7.8370     1.9230     1.2240 H     1 <1>   0.0800 
 48 H       -8.5160     0.7290     2.3020 H     1 <1>   0.0800 
 49 H       -8.5200     0.4390     0.5790 H     1 <1>   0.0800 
 50 H        7.6090     3.1830    -1.0600 H     1 <1>   0.1500 
 51 H        8.8870     2.6510     0.9460 H     1 <1>   0.1500 
 52 H        9.7850     0.8370     3.9830 H     1 <1>   0.0800 
 53 H        9.1620     2.3230     3.2760 H     1 <1>   0.0800 
 54 H       10.2080     1.2510     2.3260 H     1 <1>   0.0800 
@<TRIPOS>BOND
  1   1   2  2   
  2   2   3  am  
  3   2   4  1   
  4   3   5  1   
  5   3  28  1   
  6   4   6  1   
  7   4  29  1   
  8   4  30  1   
  9   5   7  ar  
 10   5   8  ar  
 11   6   9  1   
 12   6  10  1   
 13   7  11  ar  
 14   7  31  1   
 15   8  12  ar  
 16   8  32  1   
 17   9  13  1   
 18   9  33  1   
 19   9  34  1   
 20  10  14  1   
 21  10  35  1   
 22  10  36  1   
 23  11  15  ar  
 24  11  37  1   
 25  12  15  ar  
 26  12  38  1   
 27  13  16  1   
 28  13  39  1   
 29  13  40  1   
 30  14  16  1   
 31  14  41  1   
 32  14  42  1   
 33  15  17  1   
 34  16  18  1   
 35  17  19  1   
 36  18  20  ar  
 37  18  21  ar  
 38  19  22  1   
 39  19  43  1   
 40  19  44  1   
 41  20  23  ar  
 42  20  45  1   
 43  21  24  ar  
 44  21  46  1   
 45  22  47  1   
 46  22  48  1   
 47  22  49  1   
 48  23  25  1   
 49  23  26  ar  
 50  24  26  ar  
 51  24  50  1   
 52  25  27  1   
 53  26  51  1   
 54  27  52  1   
 55  27  53  1   
 56  27  54  1   
@<TRIPOS>SUBSTRUCTURE
  1 ****  10 GROUP 4 **** **** 0

# MOE 2024.06 (io_trps.svl 2023.06)
