@<TRIPOS>MOLECULE
NONAME
35 37 1 0 0 
SMALL
USER_CHARGES


@<TRIPOS>ATOM
  1 S       -0.2900    -0.0430    -0.0870 S.3   1 <1>  -0.3320 
  2 C       -2.0630    -0.2780     0.0180 C.ar  1 <1>   0.7220 
  3 C        0.4280    -1.6540    -0.6620 C.3   1 <1>   0.0700 
  4 N       -2.7400     0.7910     0.5020 N.ar  1 <1>  -0.3100 
  5 N       -2.5460    -1.4330    -0.3730 N.ar  1 <1>  -0.5670 
  6 C        0.9850    -2.4390     0.5380 C.3   1 <1>  -0.0800 
  7 N       -4.0360     0.7390     0.6280 N.ar  1 <1>  -0.2560 
  8 C       -3.8710    -1.4670    -0.2360 C.ar  1 <1>   0.1050 
  9 C        1.7740    -3.6550     0.0380 C.3   1 <1>  -0.2400 
 10 C       -0.1210    -2.9080     1.4950 C.3   1 <1>  -0.2400 
 11 C       -4.6130    -0.4080     0.2530 C.ar  1 <1>   0.2560 
 12 N       -4.7100    -2.5000    -0.5370 N.pl3 1 <1>   0.0330 
 13 C       -5.9750    -0.8170     0.2500 C.ar  1 <1>   0.0000 
 14 C       -6.0050    -2.1190    -0.2450 C.ar  1 <1>  -0.1520 
 15 C       -7.1640    -0.1910     0.6240 C.ar  1 <1>  -0.1500 
 16 C       -7.2070    -2.8150    -0.3760 C.ar  1 <1>  -0.1430 
 17 C       -8.3540    -0.8740     0.4960 C.ar  1 <1>  -0.1500 
 18 C       -8.3740    -2.1790    -0.0020 C.ar  1 <1>  -0.1500 
 19 C       -7.2230    -4.2340    -0.9170 C.3   1 <1>  -0.0970 
 20 H        1.2180    -1.3960    -1.3440 H     1 <1>   0.0800 
 21 H       -0.3270    -2.2050    -1.1920 H     1 <1>   0.0800 
 22 H        1.6620    -1.7980     1.0780 H     1 <1>   0.0800 
 23 H        1.1340    -4.3260    -0.5090 H     1 <1>   0.0800 
 24 H        2.2010    -4.1900     0.8680 H     1 <1>   0.0800 
 25 H        2.5770    -3.3420    -0.6070 H     1 <1>   0.0800 
 26 H       -0.8430    -3.5110     0.9740 H     1 <1>   0.0800 
 27 H       -0.6280    -2.0660     1.9310 H     1 <1>   0.0800 
 28 H        0.3000    -3.4890     2.2960 H     1 <1>   0.0800 
 29 H       -4.4140    -3.4010    -0.9160 H     1 <1>   0.2700 
 30 H       -7.1330     0.8150     1.0050 H     1 <1>   0.1500 
 31 H       -9.2800    -0.4050     0.7790 H     1 <1>   0.1500 
 32 H       -9.3210    -2.6820    -0.0880 H     1 <1>   0.1500 
 33 H       -6.8190    -4.2530    -1.9130 H     1 <1>   0.0800 
 34 H       -8.2270    -4.6180    -0.9510 H     1 <1>   0.0800 
 35 H       -6.6360    -4.8760    -0.2850 H     1 <1>   0.0800 
@<TRIPOS>BOND
  1   1   2  1   
  2   1   3  1   
  3   2   4  ar  
  4   2   5  ar  
  5   3   6  1   
  6   3  20  1   
  7   3  21  1   
  8   4   7  ar  
  9   5   8  ar  
 10   6   9  1   
 11   6  10  1   
 12   6  22  1   
 13   7  11  ar  
 14   8  11  ar  
 15   8  12  1   
 16   9  23  1   
 17   9  24  1   
 18   9  25  1   
 19  10  26  1   
 20  10  27  1   
 21  10  28  1   
 22  11  13  1   
 23  12  14  1   
 24  12  29  1   
 25  13  14  ar  
 26  13  15  ar  
 27  14  16  ar  
 28  15  17  ar  
 29  15  30  1   
 30  16  18  ar  
 31  16  19  1   
 32  17  18  ar  
 33  17  31  1   
 34  18  32  1   
 35  19  33  1   
 36  19  34  1   
 37  19  35  1   
@<TRIPOS>SUBSTRUCTURE
  1 ****   8 GROUP 4 **** **** 0

# MOE 2024.06 (io_trps.svl 2023.06)
