@<TRIPOS>MOLECULE
NONAME
33 34 1 0 0 
SMALL
USER_CHARGES


@<TRIPOS>ATOM
  1 F       -0.1650     0.7660    -1.5110 F     1 <1>  -0.1900 
  2 C        0.5590     1.6680    -0.8880 C.ar  1 <1>   0.1900 
  3 C       -0.0730     2.6770    -0.1510 C.ar  1 <1>   0.1000 
  4 C        1.9310     1.5660    -1.0030 C.ar  1 <1>  -0.1500 
  5 N       -1.4690     2.7750    -0.0390 N.pl3 1 <1>  -0.8380 
  6 C        0.7600     3.5970     0.4830 C.ar  1 <1>  -0.1500 
  7 C        2.7290     2.4990    -0.3630 C.ar  1 <1>  -0.1500 
  8 C       -2.1970     1.7140     0.7150 C.3   1 <1>   0.2090 
  9 C       -2.1510     4.1000     0.0280 C.3   1 <1>   0.2090 
 10 C        2.1400     3.5110     0.3780 C.ar  1 <1>  -0.1500 
 11 C       -3.6720     1.6470     0.2730 C.3   1 <1>   0.1100 
 12 C       -3.6270     3.9730    -0.3950 C.3   1 <1>   0.1100 
 13 N       -4.3590     2.9550     0.4020 N.3   1 <1>  -0.8100 
 14 C       -5.7750     2.8460    -0.0570 C.3   1 <1>   0.1710 
 15 C       -6.6550     4.0490     0.3050 C.2   1 <1>   0.5690 
 16 O       -7.5860     4.3520    -0.3970 O.2   1 <1>  -0.5700 
 17 N       -6.3770     4.7580     1.4160 N.am  1 <1>  -0.8000 
 18 H        2.3640     0.7720    -1.5840 H     1 <1>   0.1500 
 19 H        0.3270     4.3830     1.0700 H     1 <1>   0.1500 
 20 H        3.8010     2.4390    -0.4410 H     1 <1>   0.1500 
 21 H       -2.1510     1.9300     1.7680 H     1 <1>   0.0800 
 22 H       -1.7290     0.7600     0.5480 H     1 <1>   0.0800 
 23 H       -1.6490     4.7930    -0.6240 H     1 <1>   0.0800 
 24 H       -2.1040     4.4790     1.0340 H     1 <1>   0.0800 
 25 H        2.7590     4.2360     0.8780 H     1 <1>   0.1500 
 26 H       -4.1780     0.9160     0.8780 H     1 <1>   0.0800 
 27 H       -3.7040     1.3160    -0.7510 H     1 <1>   0.0800 
 28 H       -3.6580     3.7100    -1.4390 H     1 <1>   0.0800 
 29 H       -4.1000     4.9320    -0.2810 H     1 <1>   0.0800 
 30 H       -6.2260     1.9830     0.3970 H     1 <1>   0.0800 
 31 H       -5.8040     2.7080    -1.1240 H     1 <1>   0.0800 
 32 H       -6.9420     5.5630     1.6830 H     1 <1>   0.3700 
 33 H       -5.5510     4.5310     1.9740 H     1 <1>   0.3700 
@<TRIPOS>BOND
  1   1   2  1   
  2   2   3  ar  
  3   2   4  ar  
  4   3   5  1   
  5   3   6  ar  
  6   4   7  ar  
  7   4  18  1   
  8   5   8  1   
  9   5   9  1   
 10   6  10  ar  
 11   6  19  1   
 12   7  10  ar  
 13   7  20  1   
 14   8  11  1   
 15   8  21  1   
 16   8  22  1   
 17   9  12  1   
 18   9  23  1   
 19   9  24  1   
 20  10  25  1   
 21  11  13  1   
 22  11  26  1   
 23  11  27  1   
 24  12  13  1   
 25  12  28  1   
 26  12  29  1   
 27  13  14  1   
 28  14  15  1   
 29  14  30  1   
 30  14  31  1   
 31  15  16  2   
 32  15  17  am  
 33  17  32  1   
 34  17  33  1   
@<TRIPOS>SUBSTRUCTURE
  1 ****   5 GROUP 4 **** **** 0

# MOE 2024.06 (io_trps.svl 2023.06)
