@<TRIPOS>MOLECULE
NONAME
30 31 1 0 0 
SMALL
USER_CHARGES


@<TRIPOS>ATOM
  1 O       -0.6900     0.0830    -0.9920 O.2   1 <1>  -0.5700 
  2 C       -1.6310     0.7660    -0.6470 C.2   1 <1>   0.7060 
  3 O       -2.8640     0.2620    -0.7630 O.3   1 <1>  -0.2330 
  4 C       -1.4870     2.0860    -0.1210 C.2   1 <1>  -0.1360 
  5 C       -3.9740     0.9510    -0.4020 C.ar  1 <1>   0.0820 
  6 C       -2.5610     2.8150     0.2530 C.2   1 <1>  -0.1780 
  7 C       -3.8650     2.2480     0.1180 C.ar  1 <1>   0.0280 
  8 C       -5.2130     0.3520    -0.5550 C.ar  1 <1>  -0.1500 
  9 C       -5.0350     2.9180     0.4750 C.ar  1 <1>  -0.1500 
 10 C       -6.3650     1.0260    -0.1970 C.ar  1 <1>   0.0830 
 11 C       -6.2700     2.3190     0.3220 C.ar  1 <1>  -0.1500 
 12 O       -7.5350     0.3740    -0.3750 O.3   1 <1>  -0.3620 
 13 C       -8.7740     0.9490    -0.0230 C.3   1 <1>   0.1200 
 14 C       -9.8960    -0.0510    -0.3180 C.3   1 <1>  -0.1600 
 15 C       -9.7570    -1.3480     0.4930 C.3   1 <1>  -0.1600 
 16 C      -10.9190    -2.3040     0.2080 C.3   1 <1>  -0.2400 
 17 H       -0.4810     2.4510    -0.0450 H     1 <1>   0.1500 
 18 H       -2.4770     3.8110     0.6520 H     1 <1>   0.1500 
 19 H       -5.2830    -0.6430    -0.9550 H     1 <1>   0.1500 
 20 H       -4.9700     3.9140     0.8750 H     1 <1>   0.1500 
 21 H       -7.1490     2.8660     0.6070 H     1 <1>   0.1500 
 22 H       -8.9070     1.8440    -0.6050 H     1 <1>   0.0800 
 23 H       -8.7500     1.1900     1.0260 H     1 <1>   0.0800 
 24 H       -9.8970    -0.2730    -1.3710 H     1 <1>   0.0800 
 25 H      -10.8360     0.4140    -0.0810 H     1 <1>   0.0800 
 26 H       -9.7360    -1.1180     1.5450 H     1 <1>   0.0800 
 27 H       -8.8300    -1.8360     0.2420 H     1 <1>   0.0800 
 28 H      -11.8570    -1.8490     0.4750 H     1 <1>   0.0800 
 29 H      -10.8010    -3.2060     0.7820 H     1 <1>   0.0800 
 30 H      -10.9430    -2.5640    -0.8360 H     1 <1>   0.0800 
@<TRIPOS>BOND
  1   1   2  2   
  2   2   3  1   
  3   2   4  1   
  4   3   5  1   
  5   4   6  2   
  6   4  17  1   
  7   5   7  ar  
  8   5   8  ar  
  9   6   7  1   
 10   6  18  1   
 11   7   9  ar  
 12   8  10  ar  
 13   8  19  1   
 14   9  11  ar  
 15   9  20  1   
 16  10  11  ar  
 17  10  12  1   
 18  11  21  1   
 19  12  13  1   
 20  13  14  1   
 21  13  22  1   
 22  13  23  1   
 23  14  15  1   
 24  14  24  1   
 25  14  25  1   
 26  15  16  1   
 27  15  26  1   
 28  15  27  1   
 29  16  28  1   
 30  16  29  1   
 31  16  30  1   
@<TRIPOS>SUBSTRUCTURE
  1 ****   8 GROUP 4 **** **** 0

# MOE 2024.06 (io_trps.svl 2023.06)
