@<TRIPOS>MOLECULE
NONAME
46 48 1 0 0 
SMALL
USER_CHARGES


@<TRIPOS>ATOM
  1 F       -0.1850    -2.3430     1.7770 F     1 <1>  -0.1900 
  2 C       -1.1580    -2.0650     0.9400 C.ar  1 <1>   0.1900 
  3 C       -1.0770    -2.5150    -0.3840 C.ar  1 <1>   0.1000 
  4 C       -2.2240    -1.3300     1.4190 C.ar  1 <1>  -0.1500 
  5 N       -0.0140    -3.2620    -0.9110 N.pl3 1 <1>  -0.8380 
  6 C       -2.1360    -2.1880    -1.2210 C.ar  1 <1>  -0.1500 
  7 C       -3.2640    -1.0220     0.5580 C.ar  1 <1>  -0.1500 
  8 C        1.2740    -2.5420    -1.1560 C.3   1 <1>   0.2090 
  9 C        0.0970    -4.6910    -0.4880 C.3   1 <1>   0.2090 
 10 C       -3.2160    -1.4520    -0.7590 C.ar  1 <1>  -0.1500 
 11 C        2.3070    -2.7940    -0.0370 C.3   1 <1>   0.3430 
 12 C        1.1570    -4.8970     0.6160 C.3   1 <1>   0.3430 
 13 N        2.4800    -4.2600     0.2830 N.4   1 <1>  -0.9590 
 14 C        3.4770    -4.4620     1.3670 C.3   1 <1>   0.4860 
 15 C        4.8160    -3.9430     0.8860 C.ar  1 <1>  -0.1430 
 16 C        5.5510    -4.6560    -0.0500 C.ar  1 <1>  -0.1500 
 17 C        5.3140    -2.7430     1.3710 C.ar  1 <1>  -0.1500 
 18 C        6.7610    -4.1640    -0.5060 C.ar  1 <1>  -0.1500 
 19 C        6.5240    -2.2550     0.9130 C.ar  1 <1>  -0.1500 
 20 C        7.2520    -2.9600    -0.0310 C.ar  1 <1>  -0.1430 
 21 C        8.5830    -2.4230    -0.5330 C.3   1 <1>  -0.0170 
 22 C        9.7310    -2.9310     0.3420 C.3   1 <1>  -0.2400 
 23 H       -2.2440    -1.0050     2.4440 H     1 <1>   0.1500 
 24 H       -2.1090    -2.5170    -2.2450 H     1 <1>   0.1500 
 25 H       -4.1070    -0.4510     0.9090 H     1 <1>   0.1500 
 26 H        1.0840    -1.4850    -1.2290 H     1 <1>   0.0800 
 27 H        1.6800    -2.8620    -2.1000 H     1 <1>   0.0800 
 28 H        0.3480    -5.2900    -1.3470 H     1 <1>   0.0800 
 29 H       -0.8600    -5.0320    -0.1280 H     1 <1>   0.0800 
 30 H       -4.0250    -1.2120    -1.4290 H     1 <1>   0.1500 
 31 H        1.9810    -2.2700     0.8450 H     1 <1>   0.0800 
 32 H        3.2510    -2.3700    -0.3380 H     1 <1>   0.0800 
 33 H        1.2880    -5.9540     0.7790 H     1 <1>   0.0800 
 34 H        0.7740    -4.4720     1.5280 H     1 <1>   0.0800 
 35 H        2.8590    -4.7020    -0.5630 H     1 <1>   0.4500 
 36 H        3.5650    -5.5100     1.6040 H     1 <1>   0.0800 
 37 H        3.1740    -3.9330     2.2560 H     1 <1>   0.0800 
 38 H        5.2010    -5.6000    -0.4340 H     1 <1>   0.1500 
 39 H        4.7740    -2.1740     2.1100 H     1 <1>   0.1500 
 40 H        7.3270    -4.7240    -1.2320 H     1 <1>   0.1500 
 41 H        6.9060    -1.3230     1.2960 H     1 <1>   0.1500 
 42 H        8.5710    -1.3470    -0.5200 H     1 <1>   0.0800 
 43 H        8.7420    -2.7340    -1.5510 H     1 <1>   0.0800 
 44 H        9.5940    -2.6100     1.3600 H     1 <1>   0.0800 
 45 H       10.6690    -2.5470    -0.0180 H     1 <1>   0.0800 
 46 H        9.7670    -4.0060     0.3220 H     1 <1>   0.0800 
@<TRIPOS>BOND
  1   1   2  1   
  2   2   3  ar  
  3   2   4  ar  
  4   3   5  1   
  5   3   6  ar  
  6   4   7  ar  
  7   4  23  1   
  8   5   8  1   
  9   5   9  1   
 10   6  10  ar  
 11   6  24  1   
 12   7  10  ar  
 13   7  25  1   
 14   8  11  1   
 15   8  26  1   
 16   8  27  1   
 17   9  12  1   
 18   9  28  1   
 19   9  29  1   
 20  10  30  1   
 21  11  13  1   
 22  11  31  1   
 23  11  32  1   
 24  12  13  1   
 25  12  33  1   
 26  12  34  1   
 27  13  14  1   
 28  13  35  1   
 29  14  15  1   
 30  14  36  1   
 31  14  37  1   
 32  15  16  ar  
 33  15  17  ar  
 34  16  18  ar  
 35  16  38  1   
 36  17  19  ar  
 37  17  39  1   
 38  18  20  ar  
 39  18  40  1   
 40  19  20  ar  
 41  19  41  1   
 42  20  21  1   
 43  21  22  1   
 44  21  42  1   
 45  21  43  1   
 46  22  44  1   
 47  22  45  1   
 48  22  46  1   
@<TRIPOS>SUBSTRUCTURE
  1 ****  11 GROUP 4 **** **** 0

# MOE 2024.06 (io_trps.svl 2023.06)
