@<TRIPOS>MOLECULE
NONAME
47 48 1 0 0 
SMALL
USER_CHARGES


@<TRIPOS>ATOM
  1 O       -0.8580     1.3620     2.0250 O.2   1 <1>  -0.5700 
  2 C       -1.6330     1.7410     1.1910 C.2   1 <1>   0.6590 
  3 O       -2.9460     1.6100     1.2680 O.3   1 <1>  -0.4300 
  4 C       -1.2700     2.4040    -0.1170 C.3   1 <1>  -0.0190 
  5 C       -3.5680     2.1000     0.1040 C.3   1 <1>   0.2800 
  6 C       -1.2980     3.9440     0.0520 C.3   1 <1>  -0.0190 
  7 C       -2.4700     1.9700    -0.9490 C.3   1 <1>  -0.1600 
  8 C       -3.8680     3.5990     0.3030 C.3   1 <1>  -0.1600 
  9 C       -4.8120     1.2680    -0.1930 C.3   1 <1>  -0.2400 
 10 C       -0.0350     4.4100     0.7800 C.2   1 <1>   0.6590 
 11 C       -2.6220     4.4170     0.7360 C.3   1 <1>  -0.0800 
 12 O       -0.0580     4.9920     1.8330 O.2   1 <1>  -0.5700 
 13 O        1.1060     4.1340     0.1610 O.3   1 <1>  -0.4300 
 14 C       -2.8780     5.9150     0.5090 C.3   1 <1>  -0.2400 
 15 C        2.3520     4.4850     0.7310 C.3   1 <1>   0.1200 
 16 C        3.4660     3.9900    -0.1870 C.3   1 <1>   0.1200 
 17 O        4.6870     4.3820     0.3530 O.3   1 <1>  -0.5600 
 18 C        5.7900     3.9760    -0.3880 C.3   1 <1>   0.1200 
 19 C        7.0440     4.4780     0.3260 C.3   1 <1>  -0.1600 
 20 C        8.3160     4.0710    -0.4290 C.3   1 <1>  -0.1600 
 21 C        9.5690     4.5760     0.2920 C.3   1 <1>  -0.2400 
 22 H       -0.3420     2.0350    -0.5150 H     1 <1>   0.0800 
 23 H       -1.2550     4.3770    -0.9310 H     1 <1>   0.0800 
 24 H       -2.6410     2.5820    -1.8170 H     1 <1>   0.0800 
 25 H       -2.3680     0.9420    -1.2560 H     1 <1>   0.0800 
 26 H       -4.6450     3.7130     1.0390 H     1 <1>   0.0800 
 27 H       -4.2500     3.9900    -0.6230 H     1 <1>   0.0800 
 28 H       -4.5520     0.2300    -0.2980 H     1 <1>   0.0800 
 29 H       -5.2720     1.6010    -1.1060 H     1 <1>   0.0800 
 30 H       -5.5240     1.3720     0.6060 H     1 <1>   0.0800 
 31 H       -2.5150     4.2690     1.8000 H     1 <1>   0.0800 
 32 H       -2.9920     6.1320    -0.5380 H     1 <1>   0.0800 
 33 H       -2.0620     6.5010     0.8950 H     1 <1>   0.0800 
 34 H       -3.7730     6.2190     1.0220 H     1 <1>   0.0800 
 35 H        2.4260     4.0210     1.6990 H     1 <1>   0.0800 
 36 H        2.3900     5.5560     0.8300 H     1 <1>   0.0800 
 37 H        3.3670     4.4290    -1.1640 H     1 <1>   0.0800 
 38 H        3.4460     2.9150    -0.2480 H     1 <1>   0.0800 
 39 H        5.7210     4.3990    -1.3750 H     1 <1>   0.0800 
 40 H        5.7920     2.9000    -0.4450 H     1 <1>   0.0800 
 41 H        7.0680     4.0650     1.3200 H     1 <1>   0.0800 
 42 H        6.9980     5.5500     0.4000 H     1 <1>   0.0800 
 43 H        8.2930     4.4790    -1.4250 H     1 <1>   0.0800 
 44 H        8.3630     2.9980    -0.5070 H     1 <1>   0.0800 
 45 H        9.5530     5.6500     0.3640 H     1 <1>   0.0800 
 46 H       10.4510     4.2830    -0.2500 H     1 <1>   0.0800 
 47 H        9.6240     4.1640     1.2840 H     1 <1>   0.0800 
@<TRIPOS>BOND
  1   1   2  2   
  2   2   3  1   
  3   2   4  1   
  4   3   5  1   
  5   4   6  1   
  6   4   7  1   
  7   4  22  1   
  8   5   7  1   
  9   5   8  1   
 10   5   9  1   
 11   6  10  1   
 12   6  11  1   
 13   6  23  1   
 14   7  24  1   
 15   7  25  1   
 16   8  11  1   
 17   8  26  1   
 18   8  27  1   
 19   9  28  1   
 20   9  29  1   
 21   9  30  1   
 22  10  12  2   
 23  10  13  1   
 24  11  14  1   
 25  11  31  1   
 26  13  15  1   
 27  14  32  1   
 28  14  33  1   
 29  14  34  1   
 30  15  16  1   
 31  15  35  1   
 32  15  36  1   
 33  16  17  1   
 34  16  37  1   
 35  16  38  1   
 36  17  18  1   
 37  18  19  1   
 38  18  39  1   
 39  18  40  1   
 40  19  20  1   
 41  19  41  1   
 42  19  42  1   
 43  20  21  1   
 44  20  43  1   
 45  20  44  1   
 46  21  45  1   
 47  21  46  1   
 48  21  47  1   
@<TRIPOS>SUBSTRUCTURE
  1 ****  13 GROUP 4 **** **** 0

# MOE 2024.06 (io_trps.svl 2023.06)
