@<TRIPOS>MOLECULE
NONAME
54 56 1 0 0 
SMALL
USER_CHARGES


@<TRIPOS>ATOM
  1 O       -2.3000     1.1480    -1.9910 O.2   1 <1>  -0.5700 
  2 C       -2.4500     1.3140    -0.7950 C.2   1 <1>   0.5440 
  3 N       -2.0320     2.5040    -0.2360 N.am  1 <1>  -0.6600 
  4 C       -3.0780     0.2730    -0.0020 C.ar  1 <1>   0.0860 
  5 C       -2.6520     3.1030     0.9860 C.3   1 <1>   0.1400 
  6 C       -1.2000     3.4800    -1.0040 C.3   1 <1>   0.1400 
  7 C       -4.2550    -0.3410    -0.4300 C.ar  1 <1>  -0.1500 
  8 C       -2.5330    -0.1530     1.2100 C.ar  1 <1>  -0.1500 
  9 C       -3.4910     4.3440     0.6310 C.3   1 <1>   0.2090 
 10 C       -2.0070     4.7360    -1.3770 C.3   1 <1>   0.2090 
 11 C       -4.8730    -1.3210     0.3250 C.ar  1 <1>  -0.1500 
 12 C       -3.1450    -1.1320     1.9710 C.ar  1 <1>  -0.1500 
 13 N       -2.7410     5.3290    -0.2110 N.pl3 1 <1>  -0.8380 
 14 C       -4.3200    -1.7160     1.5300 C.ar  1 <1>  -0.1500 
 15 C       -2.1680     6.4310     0.4520 C.ar  1 <1>   0.1000 
 16 C       -2.8140     7.6760     0.4240 C.ar  1 <1>   0.1170 
 17 C       -0.9740     6.3080     1.1510 C.ar  1 <1>  -0.1500 
 18 N       -4.0140     7.7380    -0.2980 N.am  1 <1>  -0.5470 
 19 C       -2.2520     8.7590     1.0850 C.ar  1 <1>  -0.1500 
 20 C       -0.4200     7.3940     1.8080 C.ar  1 <1>  -0.1500 
 21 C       -5.0260     8.6460    -0.3730 C.2   1 <1>   0.5690 
 22 C       -1.0590     8.6200     1.7750 C.ar  1 <1>  -0.1500 
 23 O       -5.0220     9.7070     0.2000 O.2   1 <1>  -0.5700 
 24 C       -6.2250     8.2900    -1.2350 C.3   1 <1>  -0.0990 
 25 C       -6.8480     6.9130    -0.9220 C.3   1 <1>  -0.0800 
 26 C       -8.0240     6.6400    -1.8660 C.3   1 <1>  -0.2400 
 27 C       -7.3240     6.8300     0.5350 C.3   1 <1>  -0.2400 
 28 H       -1.8750     3.3880     1.6730 H     1 <1>   0.0800 
 29 H       -3.2860     2.3930     1.4830 H     1 <1>   0.0800 
 30 H       -0.8180     3.0280    -1.9020 H     1 <1>   0.0800 
 31 H       -0.3530     3.7650    -0.4070 H     1 <1>   0.0800 
 32 H       -4.6810    -0.0410    -1.3720 H     1 <1>   0.1500 
 33 H       -1.6140     0.2900     1.5520 H     1 <1>   0.1500 
 34 H       -3.8170     4.8240     1.5380 H     1 <1>   0.0800 
 35 H       -4.3700     4.0290     0.0950 H     1 <1>   0.0800 
 36 H       -2.7210     4.4700    -2.1380 H     1 <1>   0.0800 
 37 H       -1.3440     5.4730    -1.7950 H     1 <1>   0.0800 
 38 H       -5.7820    -1.7790    -0.0250 H     1 <1>   0.1500 
 39 H       -2.7090    -1.4450     2.9040 H     1 <1>   0.1500 
 40 H       -4.7990    -2.4780     2.1200 H     1 <1>   0.1500 
 41 H       -0.4750     5.3600     1.1850 H     1 <1>   0.1500 
 42 H       -4.1650     6.8430    -0.7700 H     1 <1>   0.3700 
 43 H       -2.7400     9.7150     1.0630 H     1 <1>   0.1500 
 44 H        0.5060     7.2850     2.3450 H     1 <1>   0.1500 
 45 H       -0.6340     9.4670     2.2840 H     1 <1>   0.1500 
 46 H       -5.9090     8.3180    -2.2620 H     1 <1>   0.0800 
 47 H       -6.9700     9.0550    -1.1060 H     1 <1>   0.0800 
 48 H       -6.1090     6.1450    -1.0830 H     1 <1>   0.0800 
 49 H       -8.7960     7.3780    -1.7340 H     1 <1>   0.0800 
 50 H       -8.4420     5.6680    -1.6710 H     1 <1>   0.0800 
 51 H       -7.6970     6.6660    -2.8910 H     1 <1>   0.0800 
 52 H       -8.0500     7.5980     0.7400 H     1 <1>   0.0800 
 53 H       -6.5000     6.9530     1.2150 H     1 <1>   0.0800 
 54 H       -7.7750     5.8720     0.7280 H     1 <1>   0.0800 
@<TRIPOS>BOND
  1   1   2  2   
  2   2   3  am  
  3   2   4  1   
  4   3   5  1   
  5   3   6  1   
  6   4   7  ar  
  7   4   8  ar  
  8   5   9  1   
  9   5  28  1   
 10   5  29  1   
 11   6  10  1   
 12   6  30  1   
 13   6  31  1   
 14   7  11  ar  
 15   7  32  1   
 16   8  12  ar  
 17   8  33  1   
 18   9  13  1   
 19   9  34  1   
 20   9  35  1   
 21  10  13  1   
 22  10  36  1   
 23  10  37  1   
 24  11  14  ar  
 25  11  38  1   
 26  12  14  ar  
 27  12  39  1   
 28  13  15  1   
 29  14  40  1   
 30  15  16  ar  
 31  15  17  ar  
 32  16  18  1   
 33  16  19  ar  
 34  17  20  ar  
 35  17  41  1   
 36  18  21  am  
 37  18  42  1   
 38  19  22  ar  
 39  19  43  1   
 40  20  22  ar  
 41  20  44  1   
 42  21  23  2   
 43  21  24  1   
 44  22  45  1   
 45  24  25  1   
 46  24  46  1   
 47  24  47  1   
 48  25  26  1   
 49  25  27  1   
 50  25  48  1   
 51  26  49  1   
 52  26  50  1   
 53  26  51  1   
 54  27  52  1   
 55  27  53  1   
 56  27  54  1   
@<TRIPOS>SUBSTRUCTURE
  1 ****   9 GROUP 4 **** **** 0

# MOE 2024.06 (io_trps.svl 2023.06)
