@<TRIPOS>MOLECULE
NONAME
41 43 1 0 0 
SMALL
USER_CHARGES


@<TRIPOS>ATOM
  1 S       -0.1690     0.2120     1.4490 S.3   1 <1>  -0.0800 
  2 C        0.7210     0.1290    -0.0650 C.2   1 <1>   0.4340 
  3 C       -1.5820    -0.3790     0.5990 C.ar  1 <1>   0.0400 
  4 S        2.4360     0.6310    -0.0540 S.3   1 <1>  -0.2860 
  5 N        0.0700    -0.2620    -1.0830 N.2   1 <1>  -0.5650 
  6 C       -1.2420    -0.5650    -0.7310 C.ar  1 <1>   0.2270 
  7 C       -2.8410    -0.6360     1.1080 C.ar  1 <1>  -0.1500 
  8 C        3.0340     0.4460     1.6970 C.3   1 <1>   0.1310 
  9 C       -2.2200    -1.0330    -1.5970 C.ar  1 <1>  -0.1500 
 10 C       -3.8040    -1.1030     0.2290 C.ar  1 <1>  -0.1500 
 11 C        2.9020    -0.9850     2.2080 C.2   1 <1>   0.5690 
 12 C       -3.4930    -1.3000    -1.1160 C.ar  1 <1>  -0.1500 
 13 O        2.2070    -1.1810     3.1720 O.2   1 <1>  -0.5700 
 14 N        3.5590    -2.0330     1.6550 N.am  1 <1>  -0.7300 
 15 C        4.4670    -2.0870     0.4920 C.3   1 <1>   0.2200 
 16 C        4.0120    -3.1920    -0.4850 C.3   1 <1>  -0.0800 
 17 C        5.8860    -2.3490     1.0090 C.3   1 <1>  -0.1600 
 18 C        5.0170    -3.3310    -1.6420 C.3   1 <1>  -0.1600 
 19 C        2.6070    -2.9300    -1.0550 C.3   1 <1>  -0.2400 
 20 C        6.8830    -2.4890    -0.1500 C.3   1 <1>  -0.1600 
 21 C        6.4410    -3.5840    -1.1280 C.3   1 <1>  -0.1600 
 22 H       -3.0550    -0.4770     2.1500 H     1 <1>   0.1500 
 23 H        2.4560     1.1170     2.3050 H     1 <1>   0.0800 
 24 H        4.0640     0.7480     1.7090 H     1 <1>   0.0800 
 25 H       -1.9710    -1.1820    -2.6310 H     1 <1>   0.1500 
 26 H       -4.7970    -1.3160     0.5840 H     1 <1>   0.1500 
 27 H       -4.2520    -1.6630    -1.7870 H     1 <1>   0.1500 
 28 H        3.3740    -2.9370     2.0910 H     1 <1>   0.3700 
 29 H        4.4650    -1.1460    -0.0270 H     1 <1>   0.0800 
 30 H        3.9920    -4.1270     0.0480 H     1 <1>   0.0800 
 31 H        5.8950    -3.2560     1.5890 H     1 <1>   0.0800 
 32 H        6.1930    -1.5370     1.6430 H     1 <1>   0.0800 
 33 H        5.0100    -2.4320    -2.2350 H     1 <1>   0.0800 
 34 H        4.7230    -4.1460    -2.2810 H     1 <1>   0.0800 
 35 H        2.5850    -2.0050    -1.6030 H     1 <1>   0.0800 
 36 H        1.8770    -2.8750    -0.2680 H     1 <1>   0.0800 
 37 H        2.3180    -3.7250    -1.7200 H     1 <1>   0.0800 
 38 H        7.8580    -2.7260     0.2400 H     1 <1>   0.0800 
 39 H        6.9570    -1.5510    -0.6740 H     1 <1>   0.0800 
 40 H        7.1220    -3.6200    -1.9600 H     1 <1>   0.0800 
 41 H        6.4760    -4.5400    -0.6330 H     1 <1>   0.0800 
@<TRIPOS>BOND
  1   1   2  1   
  2   1   3  1   
  3   2   4  1   
  4   2   5  2   
  5   3   6  ar  
  6   3   7  ar  
  7   4   8  1   
  8   5   6  1   
  9   6   9  ar  
 10   7  10  ar  
 11   7  22  1   
 12   8  11  1   
 13   8  23  1   
 14   8  24  1   
 15   9  12  ar  
 16   9  25  1   
 17  10  12  ar  
 18  10  26  1   
 19  11  13  2   
 20  11  14  am  
 21  12  27  1   
 22  14  15  1   
 23  14  28  1   
 24  15  16  1   
 25  15  17  1   
 26  15  29  1   
 27  16  18  1   
 28  16  19  1   
 29  16  30  1   
 30  17  20  1   
 31  17  31  1   
 32  17  32  1   
 33  18  21  1   
 34  18  33  1   
 35  18  34  1   
 36  19  35  1   
 37  19  36  1   
 38  19  37  1   
 39  20  21  1   
 40  20  38  1   
 41  20  39  1   
 42  21  40  1   
 43  21  41  1   
@<TRIPOS>SUBSTRUCTURE
  1 ****   2 GROUP 4 **** **** 0

# MOE 2024.06 (io_trps.svl 2023.06)
