@<TRIPOS>MOLECULE
NONAME
38 39 1 0 0 
SMALL
USER_CHARGES


@<TRIPOS>ATOM
  1 O       -0.1480    -0.6330    -0.4580 O.2   1 <1>  -0.5700 
  2 C       -0.4040    -1.7970    -0.2140 C.2   1 <1>   0.6900 
  3 N       -1.6330    -2.1530     0.2680 N.am  1 <1>  -0.6600 
  4 N        0.5240    -2.7580    -0.4350 N.am  1 <1>  -0.7300 
  5 C       -2.7520    -1.1580     0.2590 C.3   1 <1>   0.3200 
  6 C       -1.9280    -3.4590     0.9220 C.3   1 <1>   0.0600 
  7 C        1.8760    -2.5220    -0.9710 C.3   1 <1>   0.1400 
  8 C       -4.0350    -1.7450    -0.3110 C.2   1 <1>   0.2980 
  9 C        2.8310    -3.5320    -0.3470 C.3   1 <1>  -0.2400 
 10 O       -4.0720    -2.0490    -1.5820 O.3   1 <1>  -0.0190 
 11 N       -5.1020    -1.9850     0.3370 N.2   1 <1>  -0.5650 
 12 N       -5.2640    -2.5260    -1.7580 N.2   1 <1>  -0.4100 
 13 C       -5.8780    -2.4900    -0.6290 C.2   1 <1>   0.4620 
 14 C       -7.2410    -2.9350    -0.3890 C.ar  1 <1>   0.0540 
 15 C       -8.0140    -3.4850    -1.4130 C.ar  1 <1>  -0.1500 
 16 C       -7.8370    -2.8360     0.8700 C.ar  1 <1>  -0.1500 
 17 C       -9.3110    -3.9130    -1.1940 C.ar  1 <1>  -0.1500 
 18 C       -9.1340    -3.2620     1.0940 C.ar  1 <1>  -0.1500 
 19 C       -9.8810    -3.8030     0.0620 C.ar  1 <1>  -0.1440 
 20 C      -11.3030    -4.2730     0.3060 C.3   1 <1>  -0.0970 
 21 H        0.2110    -3.7240    -0.4060 H     1 <1>   0.3700 
 22 H       -2.4900    -0.2940    -0.3260 H     1 <1>   0.0800 
 23 H       -2.9320    -0.8310     1.2670 H     1 <1>   0.0800 
 24 H       -1.0250    -3.9130     1.2920 H     1 <1>   0.0800 
 25 H       -2.3960    -4.1220     0.2150 H     1 <1>   0.0800 
 26 H       -2.5950    -3.3120     1.7550 H     1 <1>   0.0800 
 27 H        2.1920    -1.5190    -0.7360 H     1 <1>   0.0800 
 28 H        1.8590    -2.6340    -2.0430 H     1 <1>   0.0800 
 29 H        2.8440    -3.4160     0.7230 H     1 <1>   0.0800 
 30 H        3.8250    -3.3630    -0.7180 H     1 <1>   0.0800 
 31 H        2.5390    -4.5350    -0.6000 H     1 <1>   0.0800 
 32 H       -7.5920    -3.5800    -2.3990 H     1 <1>   0.1500 
 33 H       -7.2770    -2.4180     1.6880 H     1 <1>   0.1500 
 34 H       -9.8750    -4.3330    -2.0080 H     1 <1>   0.1500 
 35 H       -9.5590    -3.1710     2.0780 H     1 <1>   0.1500 
 36 H      -11.2990    -5.3070     0.6000 H     1 <1>   0.0800 
 37 H      -11.8920    -4.1680    -0.5880 H     1 <1>   0.0800 
 38 H      -11.7630    -3.6910     1.0840 H     1 <1>   0.0800 
@<TRIPOS>BOND
  1   1   2  2   
  2   2   3  am  
  3   2   4  am  
  4   3   5  1   
  5   3   6  1   
  6   4   7  1   
  7   4  21  1   
  8   5   8  1   
  9   5  22  1   
 10   5  23  1   
 11   6  24  1   
 12   6  25  1   
 13   6  26  1   
 14   7   9  1   
 15   7  27  1   
 16   7  28  1   
 17   8  10  1   
 18   8  11  2   
 19   9  29  1   
 20   9  30  1   
 21   9  31  1   
 22  10  12  1   
 23  11  13  1   
 24  12  13  2   
 25  13  14  1   
 26  14  15  ar  
 27  14  16  ar  
 28  15  17  ar  
 29  15  32  1   
 30  16  18  ar  
 31  16  33  1   
 32  17  19  ar  
 33  17  34  1   
 34  18  19  ar  
 35  18  35  1   
 36  19  20  1   
 37  20  36  1   
 38  20  37  1   
 39  20  38  1   
@<TRIPOS>SUBSTRUCTURE
  1 ****   8 GROUP 4 **** **** 0

# MOE 2024.06 (io_trps.svl 2023.06)
