@<TRIPOS>MOLECULE
NONAME
31 31 1 0 0 
SMALL
USER_CHARGES


@<TRIPOS>ATOM
  1 BR      -0.1740    -0.3800     1.3190 Br    1 <1>  -0.1110 
  2 C        1.4650    -1.1070     0.6050 C.ar  1 <1>   0.1110 
  3 C        1.4990    -2.4300     0.1850 C.ar  1 <1>   0.0820 
  4 C        2.5670    -0.2770     0.5370 C.ar  1 <1>  -0.1500 
  5 O        0.3630    -3.1700     0.2940 O.3   1 <1>  -0.3630 
  6 C        2.6990    -2.9220    -0.3230 C.ar  1 <1>  -0.1500 
  7 C        3.7550    -0.7770     0.0280 C.ar  1 <1>  -0.1430 
  8 C        0.3260    -4.5280    -0.0630 C.3   1 <1>   0.1200 
  9 C        3.8120    -2.0970    -0.3970 C.ar  1 <1>  -0.1500 
 10 C        4.9860     0.1070    -0.0610 C.3   1 <1>  -0.0960 
 11 C       -1.0990    -5.0200     0.2130 C.3   1 <1>   0.3430 
 12 N       -1.3050    -6.4660    -0.1460 N.4   1 <1>  -0.9590 
 13 C       -2.7620    -6.8020    -0.0800 C.3   1 <1>   0.2630 
 14 C       -0.5240    -7.3870     0.7420 C.3   1 <1>   0.2630 
 15 H        2.4900     0.7410     0.8760 H     1 <1>   0.1500 
 16 H        2.7950    -3.9340    -0.6670 H     1 <1>   0.1500 
 17 H        1.0470    -5.0480     0.5430 H     1 <1>   0.0800 
 18 H        0.5670    -4.6060    -1.1080 H     1 <1>   0.0800 
 19 H        4.7340    -2.4880    -0.7910 H     1 <1>   0.1500 
 20 H        4.7070     1.1450    -0.0770 H     1 <1>   0.0800 
 21 H        5.5370    -0.1090    -0.9580 H     1 <1>   0.0800 
 22 H        5.6220    -0.0670     0.7890 H     1 <1>   0.0800 
 23 H       -1.7760    -4.4110    -0.3630 H     1 <1>   0.0800 
 24 H       -1.3200    -4.8720     1.2570 H     1 <1>   0.0800 
 25 H       -0.9950    -6.6040    -1.1210 H     1 <1>   0.4500 
 26 H       -3.1340    -6.6660     0.9230 H     1 <1>   0.0800 
 27 H       -2.9240    -7.8270    -0.3720 H     1 <1>   0.0800 
 28 H       -3.3240    -6.1640    -0.7440 H     1 <1>   0.0800 
 29 H       -0.8170    -7.2540     1.7710 H     1 <1>   0.0800 
 30 H        0.5320    -7.1910     0.6560 H     1 <1>   0.0800 
 31 H       -0.7030    -8.4140     0.4650 H     1 <1>   0.0800 
@<TRIPOS>BOND
  1   1   2  1   
  2   2   3  ar  
  3   2   4  ar  
  4   3   5  1   
  5   3   6  ar  
  6   4   7  ar  
  7   4  15  1   
  8   5   8  1   
  9   6   9  ar  
 10   6  16  1   
 11   7   9  ar  
 12   7  10  1   
 13   8  11  1   
 14   8  17  1   
 15   8  18  1   
 16   9  19  1   
 17  10  20  1   
 18  10  21  1   
 19  10  22  1   
 20  11  12  1   
 21  11  23  1   
 22  11  24  1   
 23  12  13  1   
 24  12  14  1   
 25  12  25  1   
 26  13  26  1   
 27  13  27  1   
 28  13  28  1   
 29  14  29  1   
 30  14  30  1   
 31  14  31  1   
@<TRIPOS>SUBSTRUCTURE
  1 ****   5 GROUP 4 **** **** 0

# MOE 2024.06 (io_trps.svl 2023.06)
