@<TRIPOS>MOLECULE
NONAME
26 26 1 0 0 
SMALL
USER_CHARGES


@<TRIPOS>ATOM
  1 CL      -0.7480     0.0830    -1.9120 Cl    1 <1>  -0.1770 
  2 C       -1.8740     0.8770    -0.8420 C.ar  1 <1>   0.1770 
  3 C       -3.0470     0.2320    -0.4960 C.ar  1 <1>  -0.1500 
  4 C       -1.5740     2.1370    -0.3580 C.ar  1 <1>  -0.1500 
  5 C       -3.9460     0.8580     0.3550 C.ar  1 <1>  -0.1440 
  6 C       -2.4720     2.7640     0.4890 C.ar  1 <1>  -0.1500 
  7 C       -3.6510     2.1260     0.8410 C.ar  1 <1>  -0.1500 
  8 C       -5.2410     0.1710     0.7500 C.3   1 <1>   0.3390 
  9 N       -6.3240     0.8150     0.0400 N.am  1 <1>  -0.9140 
 10 S       -7.7100    -0.1140     0.0760 S.o2  1 <1>   1.3330 
 11 O       -7.8200    -0.6690     1.4040 O.2   1 <1>  -0.6500 
 12 O       -7.5720    -0.9750    -1.0730 O.2   1 <1>  -0.6500 
 13 C       -9.0170     1.0900    -0.1950 C.3   1 <1>  -0.0550 
 14 C      -10.4320     0.4890    -0.2520 C.3   1 <1>  -0.2400 
 15 H       -3.2420    -0.7470    -0.8940 H     1 <1>   0.1500 
 16 H       -0.6550     2.6160    -0.6420 H     1 <1>   0.1500 
 17 H       -2.2560     3.7460     0.8740 H     1 <1>   0.1500 
 18 H       -4.3480     2.6210     1.4970 H     1 <1>   0.1500 
 19 H       -5.3990     0.2530     1.8130 H     1 <1>   0.0800 
 20 H       -5.1930    -0.8760     0.4920 H     1 <1>   0.0800 
 21 H       -6.0420     0.8070    -0.9380 H     1 <1>   0.4200 
 22 H       -8.8290     1.6070    -1.1160 H     1 <1>   0.0800 
 23 H       -8.9850     1.8160     0.5950 H     1 <1>   0.0800 
 24 H      -10.5000    -0.2250    -1.0550 H     1 <1>   0.0800 
 25 H      -11.1600     1.2640    -0.4140 H     1 <1>   0.0800 
 26 H      -10.6590    -0.0120     0.6740 H     1 <1>   0.0800 
@<TRIPOS>BOND
  1   1   2  1   
  2   2   3  ar  
  3   2   4  ar  
  4   3   5  ar  
  5   3  15  1   
  6   4   6  ar  
  7   4  16  1   
  8   5   7  ar  
  9   5   8  1   
 10   6   7  ar  
 11   6  17  1   
 12   7  18  1   
 13   8   9  1   
 14   8  19  1   
 15   8  20  1   
 16   9  10  am  
 17   9  21  1   
 18  10  11  2   
 19  10  12  2   
 20  10  13  1   
 21  13  14  1   
 22  13  22  1   
 23  13  23  1   
 24  14  24  1   
 25  14  25  1   
 26  14  26  1   
@<TRIPOS>SUBSTRUCTURE
  1 ****   8 GROUP 4 **** **** 0

# MOE 2024.06 (io_trps.svl 2023.06)
