@<TRIPOS>MOLECULE
NONAME
37 38 1 0 0 
SMALL
USER_CHARGES


@<TRIPOS>ATOM
  1 S        0.0470     0.1450    -0.9650 S.o2  1 <1>   1.3330 
  2 O       -1.1330    -0.6390    -1.2370 O.2   1 <1>  -0.6500 
  3 O        0.5170     1.1490    -1.8880 O.2   1 <1>  -0.6500 
  4 N        1.3300    -0.9800    -0.6820 N.am  1 <1>  -0.6930 
  5 C       -0.1350     0.8840     0.6430 C.3   1 <1>  -0.1350 
  6 C        2.6630    -0.7140    -0.4700 C.ar  1 <1>   0.1990 
  7 C        1.0190    -2.3860    -0.3470 C.3   1 <1>   0.1960 
  8 C        3.3230    -1.8300    -0.0060 C.ar  1 <1>  -0.1440 
  9 C        3.3690     0.4670    -0.6520 C.ar  1 <1>  -0.1500 
 10 C        2.3610    -2.9920     0.1040 C.3   1 <1>  -0.0160 
 11 C        4.6700    -1.7980     0.2880 C.ar  1 <1>  -0.1500 
 12 C        4.7200     0.5060    -0.3570 C.ar  1 <1>  -0.1500 
 13 C        5.4070    -0.6220     0.1140 C.ar  1 <1>   0.0860 
 14 C        6.8260    -0.5860     0.4100 C.2   1 <1>   0.5440 
 15 O        7.3060    -1.3300     1.2440 O.2   1 <1>  -0.5700 
 16 N        7.6550     0.2730    -0.2570 N.am  1 <1>  -0.7300 
 17 C        9.1060     0.4200    -0.0170 C.3   1 <1>   0.1400 
 18 C        9.4660     1.9050    -0.0480 C.3   1 <1>  -0.1600 
 19 C       10.9650     2.1190     0.1930 C.3   1 <1>  -0.2400 
 20 H       -0.3740     0.1340     1.3710 H     1 <1>   0.0800 
 21 H       -0.9230     1.6100     0.6250 H     1 <1>   0.0800 
 22 H        0.7750     1.3700     0.9320 H     1 <1>   0.0800 
 23 H        0.6370    -2.8900    -1.2190 H     1 <1>   0.0800 
 24 H        0.2900    -2.4260     0.4440 H     1 <1>   0.0800 
 25 H        2.8680     1.3420    -1.0230 H     1 <1>   0.1500 
 26 H        2.6520    -3.7950    -0.5470 H     1 <1>   0.0800 
 27 H        2.2990    -3.3490     1.1160 H     1 <1>   0.0800 
 28 H        5.1690    -2.6790     0.6550 H     1 <1>   0.1500 
 29 H        5.2520     1.4300    -0.4900 H     1 <1>   0.1500 
 30 H        7.2900     0.7890    -1.0570 H     1 <1>   0.3700 
 31 H        9.6460    -0.1130    -0.7810 H     1 <1>   0.0800 
 32 H        9.3650    -0.0010     0.9400 H     1 <1>   0.0800 
 33 H        8.9110     2.4180     0.7180 H     1 <1>   0.0800 
 34 H        9.2010     2.3210    -1.0040 H     1 <1>   0.0800 
 35 H       11.2500     1.7270     1.1530 H     1 <1>   0.0800 
 36 H       11.1940     3.1700     0.1720 H     1 <1>   0.0800 
 37 H       11.5440     1.6270    -0.5690 H     1 <1>   0.0800 
@<TRIPOS>BOND
  1   1   2  2   
  2   1   3  2   
  3   1   4  am  
  4   1   5  1   
  5   4   6  1   
  6   4   7  1   
  7   5  20  1   
  8   5  21  1   
  9   5  22  1   
 10   6   8  ar  
 11   6   9  ar  
 12   7  10  1   
 13   7  23  1   
 14   7  24  1   
 15   8  10  1   
 16   8  11  ar  
 17   9  12  ar  
 18   9  25  1   
 19  10  26  1   
 20  10  27  1   
 21  11  13  ar  
 22  11  28  1   
 23  12  13  ar  
 24  12  29  1   
 25  13  14  1   
 26  14  15  2   
 27  14  16  am  
 28  16  17  1   
 29  16  30  1   
 30  17  18  1   
 31  17  31  1   
 32  17  32  1   
 33  18  19  1   
 34  18  33  1   
 35  18  34  1   
 36  19  35  1   
 37  19  36  1   
 38  19  37  1   
@<TRIPOS>SUBSTRUCTURE
  1 ****  12 GROUP 4 **** **** 0

# MOE 2024.06 (io_trps.svl 2023.06)
