@<TRIPOS>MOLECULE
NONAME
36 37 1 0 0 
SMALL
USER_CHARGES


@<TRIPOS>ATOM
  1 S       -0.3610     0.0090    -0.6600 S.o2  1 <1>   1.0900 
  2 O       -0.9140     1.3420    -0.5910 O.2   1 <1>  -0.6500 
  3 O       -0.9650    -1.0150    -1.4790 O.2   1 <1>  -0.6500 
  4 C        1.3690     0.1300    -1.0530 C.3   1 <1>  -0.0550 
  5 C       -0.1290    -0.5950     1.0030 C.3   1 <1>  -0.0550 
  6 C        2.1350     0.1600     0.2780 C.3   1 <1>   0.3560 
  7 C        1.3750    -0.8370     1.1880 C.3   1 <1>  -0.1600 
  8 N        3.5920    -0.1070     0.1120 N.am  1 <1>  -0.8490 
  9 C        2.0450     1.5540     0.9330 C.3   1 <1>  -0.2400 
 10 S        4.1160    -1.7300     0.1470 S.o2  1 <1>   1.4470 
 11 C        4.1990     0.6350    -1.0170 C.3   1 <1>   0.1160 
 12 O        3.8810    -2.2510     1.4750 O.2   1 <1>  -0.6500 
 13 O        3.5020    -2.3630    -1.0000 O.2   1 <1>  -0.6500 
 14 C        5.9160    -1.6430    -0.0880 C.ar  1 <1>  -0.0090 
 15 C        6.5160    -2.1130    -1.2560 C.ar  1 <1>  -0.1500 
 16 C        6.7310    -1.0860     0.8960 C.ar  1 <1>  -0.1500 
 17 C        7.8870    -2.0280    -1.4440 C.ar  1 <1>  -0.1500 
 18 C        8.1030    -0.9920     0.7270 C.ar  1 <1>  -0.1500 
 19 C        8.6560    -1.4660    -0.4450 C.ar  1 <1>   0.1900 
 20 F        9.9470    -1.3810    -0.6150 F     1 <1>  -0.1900 
 21 H        1.5590     1.0030    -1.6450 H     1 <1>   0.0800 
 22 H        1.6550    -0.7440    -1.6050 H     1 <1>   0.0800 
 23 H       -0.6830    -1.5000     1.1670 H     1 <1>   0.0800 
 24 H       -0.4680     0.1430     1.7050 H     1 <1>   0.0800 
 25 H        1.5310    -1.8490     0.8630 H     1 <1>   0.0800 
 26 H        1.6650    -0.7500     2.2210 H     1 <1>   0.0800 
 27 H        1.0400     1.8120     1.2100 H     1 <1>   0.0800 
 28 H        2.3860     2.3310     0.2760 H     1 <1>   0.0800 
 29 H        2.6420     1.5740     1.8270 H     1 <1>   0.0800 
 30 H        3.9770     0.1490    -1.9530 H     1 <1>   0.0800 
 31 H        5.2680     0.6840    -0.9020 H     1 <1>   0.0800 
 32 H        3.8470     1.6490    -1.0650 H     1 <1>   0.0800 
 33 H        5.9050    -2.5530    -2.0280 H     1 <1>   0.1500 
 34 H        6.2810    -0.7240     1.8060 H     1 <1>   0.1500 
 35 H        8.3520    -2.3910    -2.3430 H     1 <1>   0.1500 
 36 H        8.7320    -0.5630     1.4860 H     1 <1>   0.1500 
@<TRIPOS>BOND
  1   1   2  2   
  2   1   3  2   
  3   1   4  1   
  4   1   5  1   
  5   4   6  1   
  6   4  21  1   
  7   4  22  1   
  8   5   7  1   
  9   5  23  1   
 10   5  24  1   
 11   6   7  1   
 12   6   8  1   
 13   6   9  1   
 14   7  25  1   
 15   7  26  1   
 16   8  10  am  
 17   8  11  1   
 18   9  27  1   
 19   9  28  1   
 20   9  29  1   
 21  10  12  2   
 22  10  13  2   
 23  10  14  1   
 24  11  30  1   
 25  11  31  1   
 26  11  32  1   
 27  14  15  ar  
 28  14  16  ar  
 29  15  17  ar  
 30  15  33  1   
 31  16  18  ar  
 32  16  34  1   
 33  17  19  ar  
 34  17  35  1   
 35  18  19  ar  
 36  18  36  1   
 37  19  20  1   
@<TRIPOS>SUBSTRUCTURE
  1 ****   8 GROUP 4 **** **** 0

# MOE 2024.06 (io_trps.svl 2023.06)
