@<TRIPOS>MOLECULE
NONAME
43 44 1 0 0 
SMALL
USER_CHARGES


@<TRIPOS>ATOM
  1 BR       0.6170     0.5830    -0.3000 Br    1 <1>  -0.1110 
  2 C        2.2240    -0.4450    -0.0310 C.ar  1 <1>   0.1110 
  3 C        2.3310    -1.2320     1.1000 C.ar  1 <1>  -0.1500 
  4 C        3.2290    -0.3700    -0.9770 C.ar  1 <1>  -0.1500 
  5 C        3.4890    -1.9670     1.2860 C.ar  1 <1>  -0.1500 
  6 C        4.3800    -1.1110    -0.7770 C.ar  1 <1>  -0.1500 
  7 C        4.5220    -1.9140     0.3520 C.ar  1 <1>   0.1990 
  8 N        5.6860    -2.6500     0.5300 N.am  1 <1>  -0.6930 
  9 S        5.6150    -4.3790     0.4540 S.o2  1 <1>   1.3330 
 10 C        6.6020    -2.1260     1.5990 C.3   1 <1>   0.2570 
 11 O        4.9640    -4.8150     1.6650 O.2   1 <1>  -0.6500 
 12 O        6.9210    -4.8590     0.0790 O.2   1 <1>  -0.6500 
 13 C        4.5280    -4.6740    -0.9260 C.3   1 <1>  -0.1350 
 14 C        8.0840    -2.5230     1.5140 C.2   1 <1>   0.5690 
 15 O        8.5580    -3.0310     2.5060 O.2   1 <1>  -0.5700 
 16 N        8.8510    -2.2740     0.3980 N.am  1 <1>  -0.6600 
 17 C        8.3680    -1.5880    -0.8300 C.3   1 <1>   0.1400 
 18 C       10.2140    -2.8620     0.2690 C.3   1 <1>   0.1400 
 19 C        9.3630    -0.5010    -1.2510 C.3   1 <1>  -0.1600 
 20 C       11.2180    -1.7800    -0.1400 C.3   1 <1>  -0.1600 
 21 C       10.7810    -1.0630    -1.4260 C.3   1 <1>  -0.0800 
 22 C       11.7670     0.0550    -1.7840 C.3   1 <1>  -0.2400 
 23 H        1.5280    -1.2660     1.8150 H     1 <1>   0.1500 
 24 H        3.1090     0.2550    -1.8450 H     1 <1>   0.1500 
 25 H        3.5940    -2.5890     2.1590 H     1 <1>   0.1500 
 26 H        5.1760    -1.0720    -1.4980 H     1 <1>   0.1500 
 27 H        6.2320    -2.4630     2.5520 H     1 <1>   0.0800 
 28 H        6.5580    -1.0520     1.6030 H     1 <1>   0.0800 
 29 H        3.5540    -4.2720    -0.7300 H     1 <1>   0.0800 
 30 H        4.4340    -5.7290    -1.0950 H     1 <1>   0.0800 
 31 H        4.9240    -4.2190    -1.8120 H     1 <1>   0.0800 
 32 H        7.4110    -1.1310    -0.6630 H     1 <1>   0.0800 
 33 H        8.2640    -2.3170    -1.6150 H     1 <1>   0.0800 
 34 H       10.1860    -3.6390    -0.4760 H     1 <1>   0.0800 
 35 H       10.5270    -3.3090     1.1970 H     1 <1>   0.0800 
 36 H        9.3650     0.2720    -0.5030 H     1 <1>   0.0800 
 37 H        9.0310    -0.0620    -2.1760 H     1 <1>   0.0800 
 38 H       12.1810    -2.2350    -0.2850 H     1 <1>   0.0800 
 39 H       11.3070    -1.0740     0.6680 H     1 <1>   0.0800 
 40 H       10.7710    -1.7800    -2.2300 H     1 <1>   0.0800 
 41 H       11.8070     0.7910    -1.0000 H     1 <1>   0.0800 
 42 H       11.4680     0.5390    -2.6960 H     1 <1>   0.0800 
 43 H       12.7540    -0.3500    -1.9240 H     1 <1>   0.0800 
@<TRIPOS>BOND
  1   1   2  1   
  2   2   3  ar  
  3   2   4  ar  
  4   3   5  ar  
  5   3  23  1   
  6   4   6  ar  
  7   4  24  1   
  8   5   7  ar  
  9   5  25  1   
 10   6   7  ar  
 11   6  26  1   
 12   7   8  1   
 13   8   9  am  
 14   8  10  1   
 15   9  11  2   
 16   9  12  2   
 17   9  13  1   
 18  10  14  1   
 19  10  27  1   
 20  10  28  1   
 21  13  29  1   
 22  13  30  1   
 23  13  31  1   
 24  14  15  2   
 25  14  16  am  
 26  16  17  1   
 27  16  18  1   
 28  17  19  1   
 29  17  32  1   
 30  17  33  1   
 31  18  20  1   
 32  18  34  1   
 33  18  35  1   
 34  19  21  1   
 35  19  36  1   
 36  19  37  1   
 37  20  21  1   
 38  20  38  1   
 39  20  39  1   
 40  21  22  1   
 41  21  40  1   
 42  22  41  1   
 43  22  42  1   
 44  22  43  1   
@<TRIPOS>SUBSTRUCTURE
  1 ****   8 GROUP 4 **** **** 0

# MOE 2024.06 (io_trps.svl 2023.06)
