@<TRIPOS>MOLECULE
NONAME
44 46 1 0 0 
SMALL
USER_CHARGES


@<TRIPOS>ATOM
  1 O       -2.3540    -0.0450    -1.4030 O.3   1 <1>  -0.3630 
  2 C       -2.5880     0.6910    -0.2790 C.ar  1 <1>   0.0830 
  3 C       -1.1260    -0.0190    -2.0970 C.3   1 <1>   0.0400 
  4 C       -1.7860     1.7180     0.2490 C.ar  1 <1>   0.0830 
  5 C       -3.7580     0.3540     0.3820 C.ar  1 <1>  -0.1500 
  6 O       -0.6360     2.1290    -0.3240 O.3   1 <1>  -0.5330 
  7 C       -2.1740     2.3650     1.4120 C.ar  1 <1>  -0.1500 
  8 C       -4.1520     1.0100     1.5380 C.ar  1 <1>  -0.1440 
  9 C       -3.3490     2.0150     2.0540 C.ar  1 <1>  -0.1500 
 10 C       -5.4510     0.6290     2.2210 C.3   1 <1>   0.4860 
 11 N       -6.5850     1.0370     1.3500 N.4   1 <1>  -0.9590 
 12 C       -6.6120     2.5300     1.1240 C.3   1 <1>   0.3430 
 13 C       -7.9070     0.5450     1.8790 C.3   1 <1>   0.3430 
 14 C       -7.7960     2.9720     0.2400 C.3   1 <1>   0.2090 
 15 C       -9.0930     0.9770     0.9940 C.3   1 <1>   0.2090 
 16 N       -9.0950     2.4520     0.7640 N.pl3 1 <1>  -0.8380 
 17 C      -10.1950     2.9120     0.0750 C.ar  1 <1>   0.4100 
 18 N      -10.3410     2.4570    -1.1620 N.ar  1 <1>  -0.6200 
 19 C      -11.0740     3.8030     0.6820 C.ar  1 <1>  -0.1500 
 20 C      -11.4010     2.9080    -1.8140 C.ar  1 <1>   0.1600 
 21 C      -12.1700     4.2630    -0.0080 C.ar  1 <1>  -0.1500 
 22 C      -12.3300     3.7950    -1.2970 C.ar  1 <1>  -0.1500 
 23 H       -1.1570    -0.7720    -2.8630 H     1 <1>   0.0800 
 24 H       -0.3290    -0.2310    -1.4070 H     1 <1>   0.0800 
 25 H       -0.9990     0.9500    -2.5440 H     1 <1>   0.0800 
 26 H       -4.3480    -0.4430    -0.0350 H     1 <1>   0.1500 
 27 H       -0.1830     2.8330     0.1740 H     1 <1>   0.4500 
 28 H       -1.5600     3.1460     1.8240 H     1 <1>   0.1500 
 29 H       -3.6210     2.5350     2.9580 H     1 <1>   0.1500 
 30 H       -5.5210     1.1170     3.1790 H     1 <1>   0.0800 
 31 H       -5.4680    -0.4380     2.3780 H     1 <1>   0.0800 
 32 H       -6.4270     0.6100     0.4280 H     1 <1>   0.4500 
 33 H       -5.6940     2.8480     0.6580 H     1 <1>   0.0800 
 34 H       -6.6950     3.0380     2.0710 H     1 <1>   0.0800 
 35 H       -8.0700     0.9400     2.8680 H     1 <1>   0.0800 
 36 H       -7.8990    -0.5300     1.9490 H     1 <1>   0.0800 
 37 H       -7.6470     2.6210    -0.7680 H     1 <1>   0.0800 
 38 H       -7.8340     4.0480     0.2070 H     1 <1>   0.0800 
 39 H      -10.0170     0.6950     1.4710 H     1 <1>   0.0800 
 40 H       -9.0460     0.4640     0.0480 H     1 <1>   0.0800 
 41 H      -10.8810     4.1210     1.6880 H     1 <1>   0.1500 
 42 H      -11.5400     2.5520    -2.8210 H     1 <1>   0.1500 
 43 H      -12.8700     4.9530     0.4310 H     1 <1>   0.1500 
 44 H      -13.1660     4.1130    -1.8930 H     1 <1>   0.1500 
@<TRIPOS>BOND
  1   1   2  1   
  2   1   3  1   
  3   2   4  ar  
  4   2   5  ar  
  5   3  23  1   
  6   3  24  1   
  7   3  25  1   
  8   4   6  1   
  9   4   7  ar  
 10   5   8  ar  
 11   5  26  1   
 12   6  27  1   
 13   7   9  ar  
 14   7  28  1   
 15   8   9  ar  
 16   8  10  1   
 17   9  29  1   
 18  10  11  1   
 19  10  30  1   
 20  10  31  1   
 21  11  12  1   
 22  11  13  1   
 23  11  32  1   
 24  12  14  1   
 25  12  33  1   
 26  12  34  1   
 27  13  15  1   
 28  13  35  1   
 29  13  36  1   
 30  14  16  1   
 31  14  37  1   
 32  14  38  1   
 33  15  16  1   
 34  15  39  1   
 35  15  40  1   
 36  16  17  1   
 37  17  18  ar  
 38  17  19  ar  
 39  18  20  ar  
 40  19  21  ar  
 41  19  41  1   
 42  20  22  ar  
 43  20  42  1   
 44  21  22  ar  
 45  21  43  1   
 46  22  44  1   
@<TRIPOS>SUBSTRUCTURE
  1 ****  12 GROUP 4 **** **** 0

# MOE 2024.06 (io_trps.svl 2023.06)
