@<TRIPOS>MOLECULE
NONAME
42 45 1 0 0 
SMALL
USER_CHARGES


@<TRIPOS>ATOM
  1 S       -0.5540     0.1370     0.3670 S.3   1 <1>  -0.0800 
  2 C       -2.0290     0.7040    -0.3950 C.2   1 <1>   0.1660 
  3 C       -0.0100     1.7900     0.6050 C.2   1 <1>  -0.1400 
  4 N       -2.9780    -0.1520    -0.8510 N.2   1 <1>  -0.5760 
  5 C       -2.0700     2.0630    -0.4500 C.2   1 <1>  -0.0860 
  6 C       -0.8970     2.6740     0.1200 C.2   1 <1>  -0.1810 
  7 C        1.3130     2.0740     1.2820 C.3   1 <1>   0.0200 
  8 C       -4.0080     0.4070    -1.3830 C.2   1 <1>   0.4500 
  9 C       -3.2330     2.6360    -1.0390 C.2   1 <1>   0.7160 
 10 C       -0.6470     4.1720     0.1930 C.3   1 <1>   0.0210 
 11 C        1.3750     3.5670     1.6540 C.3   1 <1>  -0.1600 
 12 N       -4.1920     1.7650    -1.5130 N.am  1 <1>  -0.4200 
 13 O       -3.4100     3.8440    -1.1260 O.2   1 <1>  -0.5700 
 14 C        0.8310     4.4690     0.5270 C.3   1 <1>  -0.1600 
 15 C       -5.4520     2.2640    -2.1440 C.3   1 <1>   0.2010 
 16 C       -6.6880     1.8690    -1.3390 C.2   1 <1>   0.5690 
 17 O       -7.3160     0.9230    -1.7520 O.2   1 <1>  -0.5700 
 18 N       -7.0560     2.5300    -0.1930 N.am  1 <1>  -0.6600 
 19 C       -8.1850     2.0370     0.6550 C.3   1 <1>   0.1400 
 20 C       -6.3590     3.7190     0.3940 C.3   1 <1>   0.1400 
 21 C       -9.0870     3.1960     1.1060 C.3   1 <1>   0.1200 
 22 C       -7.3700     4.7740     0.8770 C.3   1 <1>   0.1200 
 23 O       -8.3270     4.1990     1.7180 O.3   1 <1>  -0.5600 
 24 H        2.1100     1.8260     0.6030 H     1 <1>   0.0800 
 25 H        1.4140     1.4700     2.1660 H     1 <1>   0.0800 
 26 H       -4.7960    -0.2220    -1.7610 H     1 <1>   0.0600 
 27 H       -1.2840     4.5920     0.9510 H     1 <1>   0.0800 
 28 H       -0.8940     4.6340    -0.7470 H     1 <1>   0.0800 
 29 H        2.3920     3.8360     1.8820 H     1 <1>   0.0800 
 30 H        0.7850     3.7280     2.5400 H     1 <1>   0.0800 
 31 H        0.9310     5.5030     0.8060 H     1 <1>   0.0800 
 32 H        1.4230     4.3100    -0.3580 H     1 <1>   0.0800 
 33 H       -5.5360     1.8300    -3.1240 H     1 <1>   0.0800 
 34 H       -5.4320     3.3290    -2.2740 H     1 <1>   0.0800 
 35 H       -7.7850     1.5450     1.5240 H     1 <1>   0.0800 
 36 H       -8.7810     1.3200     0.1160 H     1 <1>   0.0800 
 37 H       -5.7140     4.1840    -0.3250 H     1 <1>   0.0800 
 38 H       -5.7570     3.4010     1.2270 H     1 <1>   0.0800 
 39 H       -9.8090     2.8480     1.8230 H     1 <1>   0.0800 
 40 H       -9.6100     3.6200     0.2660 H     1 <1>   0.0800 
 41 H       -7.8730     5.2280     0.0410 H     1 <1>   0.0800 
 42 H       -6.8640     5.5430     1.4340 H     1 <1>   0.0800 
@<TRIPOS>BOND
  1   1   2  1   
  2   1   3  1   
  3   2   4  1   
  4   2   5  2   
  5   3   6  2   
  6   3   7  1   
  7   4   8  2   
  8   5   6  1   
  9   5   9  1   
 10   6  10  1   
 11   7  11  1   
 12   7  24  1   
 13   7  25  1   
 14   8  12  1   
 15   8  26  1   
 16   9  12  am  
 17   9  13  2   
 18  10  14  1   
 19  10  27  1   
 20  10  28  1   
 21  11  14  1   
 22  11  29  1   
 23  11  30  1   
 24  12  15  1   
 25  14  31  1   
 26  14  32  1   
 27  15  16  1   
 28  15  33  1   
 29  15  34  1   
 30  16  17  2   
 31  16  18  am  
 32  18  19  1   
 33  18  20  1   
 34  19  21  1   
 35  19  35  1   
 36  19  36  1   
 37  20  22  1   
 38  20  37  1   
 39  20  38  1   
 40  21  23  1   
 41  21  39  1   
 42  21  40  1   
 43  22  23  1   
 44  22  41  1   
 45  22  42  1   
@<TRIPOS>SUBSTRUCTURE
  1 ****   9 GROUP 4 **** **** 0

# MOE 2024.06 (io_trps.svl 2023.06)
