@<TRIPOS>MOLECULE
NONAME
38 39 1 0 0 
SMALL
USER_CHARGES


@<TRIPOS>ATOM
  1 CL      -2.2460     2.2280    -3.4090 Cl    1 <1>  -0.1770 
  2 C       -2.7680     1.9170    -1.7680 C.ar  1 <1>   0.1770 
  3 C       -1.9510     2.2160    -0.6900 C.ar  1 <1>   0.1900 
  4 C       -4.0150     1.3650    -1.5500 C.ar  1 <1>  -0.1500 
  5 F       -0.7690     2.7410    -0.8900 F     1 <1>  -0.1900 
  6 C       -2.3550     1.9740     0.6100 C.ar  1 <1>  -0.1500 
  7 C       -4.4410     1.1190    -0.2520 C.ar  1 <1>   0.0830 
  8 C       -3.6080     1.4210     0.8290 C.ar  1 <1>  -0.1500 
  9 O       -5.6790     0.5850    -0.1180 O.3   1 <1>  -0.3630 
 10 C       -6.2810     0.4160     1.1590 C.3   1 <1>   0.1810 
 11 C       -7.7080    -0.1170     1.0450 C.2   1 <1>   0.5690 
 12 O       -7.9640    -1.1240     1.6620 O.2   1 <1>  -0.5700 
 13 N       -8.6710     0.5290     0.3030 N.am  1 <1>  -0.6600 
 14 C      -10.0450    -0.0380     0.1500 C.3   1 <1>   0.1400 
 15 C       -8.4660     1.7910    -0.4740 C.3   1 <1>   0.1400 
 16 C      -11.1170     1.0330     0.4060 C.3   1 <1>   0.1960 
 17 C       -9.6030     2.8000    -0.2290 C.3   1 <1>   0.1960 
 18 N      -10.9340     2.2120    -0.4640 N.am  1 <1>  -0.8490 
 19 S      -12.1600     3.3630    -0.2660 S.o2  1 <1>   1.3330 
 20 O      -12.5930     3.3110     1.1110 O.2   1 <1>  -0.6500 
 21 O      -11.6980     4.6080    -0.8330 O.2   1 <1>  -0.6500 
 22 C      -13.4560     2.7380    -1.3130 C.3   1 <1>  -0.1350 
 23 H       -4.6530     1.1270    -2.3810 H     1 <1>   0.1500 
 24 H       -1.6990     2.2140     1.4290 H     1 <1>   0.1500 
 25 H       -3.9120     1.2320     1.8420 H     1 <1>   0.1500 
 26 H       -6.2950     1.3650     1.6610 H     1 <1>   0.0800 
 27 H       -5.6870    -0.2840     1.7170 H     1 <1>   0.0800 
 28 H      -10.1970    -0.8540     0.8350 H     1 <1>   0.0800 
 29 H      -10.1580    -0.4220    -0.8490 H     1 <1>   0.0800 
 30 H       -8.4310     1.5530    -1.5230 H     1 <1>   0.0800 
 31 H       -7.5360     2.2590    -0.2120 H     1 <1>   0.0800 
 32 H      -11.0710     1.3270     1.4430 H     1 <1>   0.0800 
 33 H      -12.0860     0.6000     0.2300 H     1 <1>   0.0800 
 34 H       -9.4550     3.6350    -0.8920 H     1 <1>   0.0800 
 35 H       -9.5420     3.1680     0.7820 H     1 <1>   0.0800 
 36 H      -13.7780     1.7730    -0.9760 H     1 <1>   0.0800 
 37 H      -13.1040     2.6550    -2.3220 H     1 <1>   0.0800 
 38 H      -14.2940     3.4060    -1.2940 H     1 <1>   0.0800 
@<TRIPOS>BOND
  1   1   2  1   
  2   2   3  ar  
  3   2   4  ar  
  4   3   5  1   
  5   3   6  ar  
  6   4   7  ar  
  7   4  23  1   
  8   6   8  ar  
  9   6  24  1   
 10   7   8  ar  
 11   7   9  1   
 12   8  25  1   
 13   9  10  1   
 14  10  11  1   
 15  10  26  1   
 16  10  27  1   
 17  11  12  2   
 18  11  13  am  
 19  13  14  1   
 20  13  15  1   
 21  14  16  1   
 22  14  28  1   
 23  14  29  1   
 24  15  17  1   
 25  15  30  1   
 26  15  31  1   
 27  16  18  1   
 28  16  32  1   
 29  16  33  1   
 30  17  18  1   
 31  17  34  1   
 32  17  35  1   
 33  18  19  am  
 34  19  20  2   
 35  19  21  2   
 36  19  22  1   
 37  22  36  1   
 38  22  37  1   
 39  22  38  1   
@<TRIPOS>SUBSTRUCTURE
  1 ****  15 GROUP 4 **** **** 0

# MOE 2024.06 (io_trps.svl 2023.06)
