@<TRIPOS>MOLECULE
NONAME
31 31 1 0 0 
SMALL
USER_CHARGES


@<TRIPOS>ATOM
  1 F        1.0900    -2.2550    -1.1410 F     1 <1>  -0.1900 
  2 C        1.3740    -2.0760     0.1240 C.ar  1 <1>   0.1900 
  3 C        2.1000    -0.9620     0.5270 C.ar  1 <1>  -0.1440 
  4 C        0.9160    -3.0300     1.0160 C.ar  1 <1>  -0.1500 
  5 C        2.3540    -0.8240     1.8840 C.ar  1 <1>  -0.1500 
  6 C        2.6010     0.0900    -0.4640 C.3   1 <1>  -0.0160 
  7 C        1.1850    -2.8730     2.3650 C.ar  1 <1>  -0.1500 
  8 C        1.9040    -1.7690     2.7940 C.ar  1 <1>  -0.1500 
  9 C        3.9990     0.6200    -0.0940 C.3   1 <1>  -1.0000 
 10 N        4.1180     1.8640     0.4360 N.pl3 1 <1>   0.8400 
 11 N        5.0970    -0.1550    -0.3160 N.pl3 1 <1>   0.8400 
 12 O        3.3920     2.7900    -0.0990 O.2   1 <1>  -0.6330 
 13 N        4.8850     2.1300     1.4970 N.2   1 <1>  -0.2700 
 14 O        6.2490     0.4310    -0.3400 O.2   1 <1>  -0.6330 
 15 N        5.0030    -1.4610    -0.5680 N.2   1 <1>  -0.2700 
 16 O        4.9410     3.4430     1.7670 O.3   1 <1>  -0.2170 
 17 O        6.2000    -2.0290    -0.7640 O.3   1 <1>  -0.2170 
 18 C        6.0150     4.0870     1.1260 C.3   1 <1>   0.0400 
 19 C        6.1160    -3.4110    -0.9750 C.3   1 <1>   0.0400 
 20 H        0.3600    -3.8740     0.6550 H     1 <1>   0.1500 
 21 H        2.9130     0.0280     2.2290 H     1 <1>   0.1500 
 22 H        1.8780     0.8870    -0.4910 H     1 <1>   0.0800 
 23 H        2.6380    -0.3220    -1.4580 H     1 <1>   0.0800 
 24 H        0.8400    -3.6020     3.0750 H     1 <1>   0.1500 
 25 H        2.1200    -1.6370     3.8390 H     1 <1>   0.1500 
 26 H        6.0240     5.1150     1.4350 H     1 <1>   0.0800 
 27 H        5.8690     4.0190     0.0620 H     1 <1>   0.0800 
 28 H        6.9300     3.5970     1.4090 H     1 <1>   0.0800 
 29 H        5.6640    -3.8630    -0.1100 H     1 <1>   0.0800 
 30 H        7.1100    -3.7890    -1.1200 H     1 <1>   0.0800 
 31 H        5.5150    -3.5880    -1.8500 H     1 <1>   0.0800 
@<TRIPOS>BOND
  1   1   2  1   
  2   2   3  ar  
  3   2   4  ar  
  4   3   5  ar  
  5   3   6  1   
  6   4   7  ar  
  7   4  20  1   
  8   5   8  ar  
  9   5  21  1   
 10   6   9  1   
 11   6  22  1   
 12   6  23  1   
 13   7   8  ar  
 14   7  24  1   
 15   8  25  1   
 16   9  10  1   
 17   9  11  1   
 18  10  12  2   
 19  10  13  2   
 20  11  14  2   
 21  11  15  2   
 22  13  16  1   
 23  15  17  1   
 24  16  18  1   
 25  17  19  1   
 26  18  26  1   
 27  18  27  1   
 28  18  28  1   
 29  19  29  1   
 30  19  30  1   
 31  19  31  1   
@<TRIPOS>SUBSTRUCTURE
  1 ****   9 GROUP 4 **** **** 0

# MOE 2024.06 (io_trps.svl 2023.06)
