@<TRIPOS>MOLECULE
NONAME
53 55 1 0 0 
SMALL
USER_CHARGES


@<TRIPOS>ATOM
  1 O        1.2100     0.6730     2.6790 O.2   1 <1>  -0.5700 
  2 C        0.9020    -0.2140     1.9190 C.2   1 <1>   0.5690 
  3 N        1.5070    -0.4160     0.7090 N.am  1 <1>  -0.5470 
  4 C       -0.1920    -1.2060     2.3390 C.3   1 <1>   0.1710 
  5 C        2.4830     0.2870    -0.0180 C.ar  1 <1>   0.1170 
  6 N       -1.5310    -1.0390     1.7020 N.3   1 <1>  -0.8100 
  7 C        2.6620    -0.0500    -1.3650 C.ar  1 <1>   0.0830 
  8 C        3.2730     1.2880     0.5360 C.ar  1 <1>  -0.1500 
  9 C       -1.5160    -1.1930     0.2230 C.3   1 <1>   0.1100 
 10 C       -2.5030    -1.9840     2.3070 C.3   1 <1>   0.1100 
 11 O        1.8640    -1.0400    -1.8710 O.3   1 <1>  -0.3630 
 12 C        3.6180     0.6150    -2.1270 C.ar  1 <1>  -0.1500 
 13 C        4.2220     1.9450    -0.2270 C.ar  1 <1>  -0.1500 
 14 C       -2.9140    -1.0450    -0.4080 C.3   1 <1>   0.2090 
 15 C       -3.9200    -1.8380     1.7210 C.3   1 <1>   0.2090 
 16 C        1.9560    -1.4310    -3.2240 C.3   1 <1>   0.0400 
 17 C        4.3950     1.6090    -1.5580 C.ar  1 <1>  -0.1500 
 18 N       -3.8780    -1.9720     0.2410 N.pl3 1 <1>  -0.8380 
 19 C       -4.9890    -2.4270    -0.4670 C.ar  1 <1>   0.1000 
 20 C       -6.2080    -1.7380    -0.5560 C.ar  1 <1>  -0.1430 
 21 C       -4.8540    -3.6490    -1.1120 C.ar  1 <1>  -0.1500 
 22 C       -7.2660    -2.3030    -1.2670 C.ar  1 <1>  -0.1430 
 23 C       -6.3830    -0.3790     0.1220 C.3   1 <1>  -0.0970 
 24 C       -5.8980    -4.1980    -1.8260 C.ar  1 <1>  -0.1500 
 25 C       -7.1010    -3.5260    -1.9000 C.ar  1 <1>  -0.1500 
 26 C       -8.6250    -1.6240    -1.3790 C.3   1 <1>  -0.0970 
 27 H        1.1100    -1.1720     0.1520 H     1 <1>   0.3700 
 28 H       -0.3100    -1.1010     3.4030 H     1 <1>   0.0800 
 29 H        0.1680    -2.2020     2.1530 H     1 <1>   0.0800 
 30 H        3.1550     1.5600     1.5680 H     1 <1>   0.1500 
 31 H       -1.1250    -2.1600    -0.0400 H     1 <1>   0.0800 
 32 H       -0.8880    -0.4380    -0.2130 H     1 <1>   0.0800 
 33 H       -2.5540    -1.8120     3.3670 H     1 <1>   0.0800 
 34 H       -2.1740    -2.9960     2.1460 H     1 <1>   0.0800 
 35 H        3.7780     0.3770    -3.1610 H     1 <1>   0.1500 
 36 H        4.8240     2.7180     0.2180 H     1 <1>   0.1500 
 37 H       -2.8650    -1.2580    -1.4610 H     1 <1>   0.0800 
 38 H       -3.2480    -0.0300    -0.2850 H     1 <1>   0.0800 
 39 H       -4.3110    -0.8730     1.9890 H     1 <1>   0.0800 
 40 H       -4.5670    -2.5940     2.1300 H     1 <1>   0.0800 
 41 H        1.2350    -2.2090    -3.3990 H     1 <1>   0.0800 
 42 H        2.9470    -1.8040    -3.4140 H     1 <1>   0.0800 
 43 H        1.7370    -0.5840    -3.8490 H     1 <1>   0.0800 
 44 H        5.1340     2.1230    -2.1480 H     1 <1>   0.1500 
 45 H       -3.9160    -4.1650    -1.0410 H     1 <1>   0.1500 
 46 H       -5.4470     0.1360     0.2090 H     1 <1>   0.0800 
 47 H       -6.7930    -0.5180     1.1050 H     1 <1>   0.0800 
 48 H       -7.0350     0.2590    -0.4430 H     1 <1>   0.0800 
 49 H       -5.7760    -5.1460    -2.3190 H     1 <1>   0.1500 
 50 H       -7.9110    -3.9650    -2.4550 H     1 <1>   0.1500 
 51 H       -8.5500    -0.7590    -2.0130 H     1 <1>   0.0800 
 52 H       -8.9720    -1.3230    -0.4070 H     1 <1>   0.0800 
 53 H       -9.3560    -2.2900    -1.8000 H     1 <1>   0.0800 
@<TRIPOS>BOND
  1   1   2  2   
  2   2   3  am  
  3   2   4  1   
  4   3   5  1   
  5   3  27  1   
  6   4   6  1   
  7   4  28  1   
  8   4  29  1   
  9   5   7  ar  
 10   5   8  ar  
 11   6   9  1   
 12   6  10  1   
 13   7  11  1   
 14   7  12  ar  
 15   8  13  ar  
 16   8  30  1   
 17   9  14  1   
 18   9  31  1   
 19   9  32  1   
 20  10  15  1   
 21  10  33  1   
 22  10  34  1   
 23  11  16  1   
 24  12  17  ar  
 25  12  35  1   
 26  13  17  ar  
 27  13  36  1   
 28  14  18  1   
 29  14  37  1   
 30  14  38  1   
 31  15  18  1   
 32  15  39  1   
 33  15  40  1   
 34  16  41  1   
 35  16  42  1   
 36  16  43  1   
 37  17  44  1   
 38  18  19  1   
 39  19  20  ar  
 40  19  21  ar  
 41  20  22  ar  
 42  20  23  1   
 43  21  24  ar  
 44  21  45  1   
 45  22  25  ar  
 46  22  26  1   
 47  23  46  1   
 48  23  47  1   
 49  23  48  1   
 50  24  25  ar  
 51  24  49  1   
 52  25  50  1   
 53  26  51  1   
 54  26  52  1   
 55  26  53  1   
@<TRIPOS>SUBSTRUCTURE
  1 ****   9 GROUP 4 **** **** 0

# MOE 2024.06 (io_trps.svl 2023.06)
