@<TRIPOS>MOLECULE
NONAME
44 45 1 0 0 
SMALL
USER_CHARGES


@<TRIPOS>ATOM
  1 S       -0.8950     0.2600     0.4270 S.3   1 <1>  -0.0800 
  2 C       -1.6320     1.4650    -0.6190 C.2   1 <1>  -0.1400 
  3 C        0.3860     1.3700     0.8770 C.2   1 <1>  -0.1100 
  4 C       -0.9210     2.6090    -0.5960 C.2   1 <1>  -0.1500 
  5 C       -2.8950     1.0590    -1.3480 C.3   1 <1>   0.5230 
  6 C        0.2280     2.5530     0.2570 C.2   1 <1>  -0.1500 
  7 N       -3.9220     0.6950    -0.3370 N.4   1 <1>  -0.9590 
  8 C       -5.0990     0.0330    -0.9820 C.3   1 <1>   0.3430 
  9 C       -4.3170     1.8750     0.4870 C.3   1 <1>   0.3430 
 10 C       -6.1320    -0.4220     0.0570 C.3   1 <1>  -0.0190 
 11 C       -5.3070     1.4400     1.5680 C.3   1 <1>  -0.1600 
 12 C       -7.3350    -0.9910    -0.6870 C.2   1 <1>   0.5690 
 13 C       -6.5420     0.7530     0.9670 C.3   1 <1>  -0.1600 
 14 O       -7.5600    -0.5200    -1.7790 O.2   1 <1>  -0.5700 
 15 N       -8.1160    -1.9840    -0.1500 N.am  1 <1>  -0.6600 
 16 C       -7.9290    -2.6010     1.1910 C.3   1 <1>   0.1400 
 17 C       -9.2890    -2.5020    -0.9090 C.3   1 <1>   0.1400 
 18 C       -7.0770    -3.8610     1.0600 C.3   1 <1>  -0.2400 
 19 C      -10.5380    -1.7130    -0.5230 C.3   1 <1>  -0.2400 
 20 H        1.1350     1.0160     1.5650 H     1 <1>   0.1500 
 21 H       -1.1400     3.5110    -1.1440 H     1 <1>   0.1500 
 22 H       -2.6790     0.2120    -1.9800 H     1 <1>   0.0800 
 23 H       -3.2450     1.8700    -1.9640 H     1 <1>   0.0800 
 24 H        0.8820     3.4020     0.3620 H     1 <1>   0.1500 
 25 H       -3.4640     0.0240     0.2950 H     1 <1>   0.4500 
 26 H       -4.7810    -0.8220    -1.5570 H     1 <1>   0.0800 
 27 H       -5.5750     0.7260    -1.6590 H     1 <1>   0.0800 
 28 H       -4.7770     2.6220    -0.1410 H     1 <1>   0.0800 
 29 H       -3.4470     2.3120     0.9520 H     1 <1>   0.0800 
 30 H       -5.6820    -1.1990     0.6440 H     1 <1>   0.0800 
 31 H       -5.6210     2.3090     2.1230 H     1 <1>   0.0800 
 32 H       -4.8150     0.7800     2.2610 H     1 <1>   0.0800 
 33 H       -7.1860     0.4040     1.7560 H     1 <1>   0.0800 
 34 H       -7.1030     1.4700     0.3880 H     1 <1>   0.0800 
 35 H       -8.8890    -2.8550     1.6100 H     1 <1>   0.0800 
 36 H       -7.4610    -1.9070     1.8660 H     1 <1>   0.0800 
 37 H       -9.4330    -3.5480    -0.6980 H     1 <1>   0.0800 
 38 H       -9.1160    -2.4030    -1.9690 H     1 <1>   0.0800 
 39 H       -7.5690    -4.5830     0.4330 H     1 <1>   0.0800 
 40 H       -6.9340    -4.3020     2.0310 H     1 <1>   0.0800 
 41 H       -6.1130    -3.6310     0.6450 H     1 <1>   0.0800 
 42 H      -10.7520    -1.8220     0.5250 H     1 <1>   0.0800 
 43 H      -11.3800    -2.0770    -1.0820 H     1 <1>   0.0800 
 44 H      -10.4020    -0.6720    -0.7560 H     1 <1>   0.0800 
@<TRIPOS>BOND
  1   1   2  1   
  2   1   3  1   
  3   2   4  2   
  4   2   5  1   
  5   3   6  2   
  6   3  20  1   
  7   4   6  1   
  8   4  21  1   
  9   5   7  1   
 10   5  22  1   
 11   5  23  1   
 12   6  24  1   
 13   7   8  1   
 14   7   9  1   
 15   7  25  1   
 16   8  10  1   
 17   8  26  1   
 18   8  27  1   
 19   9  11  1   
 20   9  28  1   
 21   9  29  1   
 22  10  12  1   
 23  10  13  1   
 24  10  30  1   
 25  11  13  1   
 26  11  31  1   
 27  11  32  1   
 28  12  14  2   
 29  12  15  am  
 30  13  33  1   
 31  13  34  1   
 32  15  16  1   
 33  15  17  1   
 34  16  18  1   
 35  16  35  1   
 36  16  36  1   
 37  17  19  1   
 38  17  37  1   
 39  17  38  1   
 40  18  39  1   
 41  18  40  1   
 42  18  41  1   
 43  19  42  1   
 44  19  43  1   
 45  19  44  1   
@<TRIPOS>SUBSTRUCTURE
  1 ****   8 GROUP 4 **** **** 0

# MOE 2024.06 (io_trps.svl 2023.06)
