@<TRIPOS>MOLECULE
NONAME
48 49 1 0 0 
SMALL
USER_CHARGES


@<TRIPOS>ATOM
  1 O       -4.1260    -3.6590     1.3990 O.2   1 <1>  -0.5700 
  2 C       -4.2320    -4.0960     0.2750 C.2   1 <1>   0.5690 
  3 N       -3.1590    -4.3590    -0.5320 N.am  1 <1>  -0.5470 
  4 C       -5.6720    -4.3340    -0.2330 C.3   1 <1>   0.4840 
  5 C       -1.8070    -4.1710    -0.2120 C.ar  1 <1>   0.1170 
  6 N       -6.7030    -3.6290     0.6160 N.4   1 <1>  -0.9590 
  7 C       -6.0700    -5.8070    -0.1790 C.3   1 <1>  -0.1600 
  8 C       -0.9940    -5.2830     0.0140 C.ar  1 <1>  -0.1430 
  9 C       -1.2550    -2.8900    -0.1420 C.ar  1 <1>  -0.1430 
 10 C       -7.8280    -4.5620     0.9010 C.3   1 <1>   0.3430 
 11 C       -7.1570    -2.3130     0.0860 C.3   1 <1>   0.3430 
 12 C       -7.5780    -5.7870     0.0340 C.3   1 <1>  -0.1600 
 13 C        0.3480    -5.1060     0.3080 C.ar  1 <1>  -0.1500 
 14 C       -1.5490    -6.7010    -0.0440 C.3   1 <1>  -0.0970 
 15 C        0.0890    -2.7380     0.1570 C.ar  1 <1>  -0.1500 
 16 C       -2.0870    -1.6370    -0.3900 C.3   1 <1>  -0.0970 
 17 C       -5.9980    -1.3200     0.0140 C.3   1 <1>  -0.1600 
 18 C        0.8950    -3.8380     0.3840 C.ar  1 <1>  -0.1430 
 19 C       -6.4920     0.0580    -0.4160 C.3   1 <1>   0.1200 
 20 C        2.3670    -3.6580     0.7090 C.3   1 <1>  -0.0970 
 21 O       -5.3850     0.8450    -0.6430 O.3   1 <1>  -0.6800 
 22 H       -3.3010    -4.8230    -1.4290 H     1 <1>   0.3700 
 23 H       -5.7520    -3.9860    -1.2490 H     1 <1>   0.0800 
 24 H       -6.1860    -3.4530     1.5000 H     1 <1>   0.4500 
 25 H       -5.5890    -6.2810     0.6620 H     1 <1>   0.0800 
 26 H       -5.7910    -6.3300    -1.0770 H     1 <1>   0.0800 
 27 H       -8.7850    -4.1190     0.6770 H     1 <1>   0.0800 
 28 H       -7.8060    -4.8450     1.9420 H     1 <1>   0.0800 
 29 H       -7.9170    -1.9110     0.7380 H     1 <1>   0.0800 
 30 H       -7.5900    -2.4390    -0.8940 H     1 <1>   0.0800 
 31 H       -7.9370    -6.6860     0.5070 H     1 <1>   0.0800 
 32 H       -8.0880    -5.6660    -0.9060 H     1 <1>   0.0800 
 33 H        0.9780    -5.9600     0.4840 H     1 <1>   0.1500 
 34 H       -2.3620    -6.8050     0.6510 H     1 <1>   0.0800 
 35 H       -0.7940    -7.4210     0.2160 H     1 <1>   0.0800 
 36 H       -1.8970    -6.9230    -1.0360 H     1 <1>   0.0800 
 37 H        0.5180    -1.7530     0.2150 H     1 <1>   0.1500 
 38 H       -2.6620    -1.7390    -1.2920 H     1 <1>   0.0800 
 39 H       -1.4580    -0.7720    -0.4940 H     1 <1>   0.0800 
 40 H       -2.7510    -1.4730     0.4390 H     1 <1>   0.0800 
 41 H       -5.2790    -1.6530    -0.7130 H     1 <1>   0.0800 
 42 H       -5.5270    -1.2370     0.9780 H     1 <1>   0.0800 
 43 H       -7.1010     0.5290     0.3390 H     1 <1>   0.0800 
 44 H       -7.0430     0.0050    -1.3410 H     1 <1>   0.0800 
 45 H        2.7090    -4.4450     1.3560 H     1 <1>   0.0800 
 46 H        2.5310    -2.7180     1.2060 H     1 <1>   0.0800 
 47 H        2.9450    -3.6770    -0.1970 H     1 <1>   0.0800 
 48 H       -4.9560     1.1190     0.1930 H     1 <1>   0.4000 
@<TRIPOS>BOND
  1   1   2  2   
  2   2   3  am  
  3   2   4  1   
  4   3   5  1   
  5   3  22  1   
  6   4   6  1   
  7   4   7  1   
  8   4  23  1   
  9   5   8  ar  
 10   5   9  ar  
 11   6  10  1   
 12   6  11  1   
 13   6  24  1   
 14   7  12  1   
 15   7  25  1   
 16   7  26  1   
 17   8  13  ar  
 18   8  14  1   
 19   9  15  ar  
 20   9  16  1   
 21  10  12  1   
 22  10  27  1   
 23  10  28  1   
 24  11  17  1   
 25  11  29  1   
 26  11  30  1   
 27  12  31  1   
 28  12  32  1   
 29  13  18  ar  
 30  13  33  1   
 31  14  34  1   
 32  14  35  1   
 33  14  36  1   
 34  15  18  ar  
 35  15  37  1   
 36  16  38  1   
 37  16  39  1   
 38  16  40  1   
 39  17  19  1   
 40  17  41  1   
 41  17  42  1   
 42  18  20  1   
 43  19  21  1   
 44  19  43  1   
 45  19  44  1   
 46  20  45  1   
 47  20  46  1   
 48  20  47  1   
 49  21  48  1   
@<TRIPOS>SUBSTRUCTURE
  1 ****   2 GROUP 4 **** **** 0

# MOE 2024.06 (io_trps.svl 2023.06)
