@<TRIPOS>MOLECULE
NONAME
28 28 1 0 0 
SMALL
USER_CHARGES


@<TRIPOS>ATOM
  1 O       -0.2710    -0.0660     0.4670 O.2   1 <1>  -0.5700 
  2 C       -0.0070     1.1080     0.5000 C.2   1 <1>   0.5690 
  3 N        1.2470     1.6260     0.4040 N.am  1 <1>  -0.5470 
  4 C       -1.1510     2.0980     0.6330 C.3   1 <1>  -0.0990 
  5 C        2.4770     1.0470     0.3210 C.ar  1 <1>   0.7370 
  6 C       -1.3780     2.9270    -0.6420 C.3   1 <1>  -0.2400 
  7 N        3.3860     1.8640    -0.1770 N.ar  1 <1>  -0.6200 
  8 N        2.6550    -0.1870     0.7540 N.ar  1 <1>  -0.6200 
  9 C        4.5970     1.3710    -0.2780 C.ar  1 <1>   0.3930 
 10 C        3.8720    -0.6600     0.6440 C.ar  1 <1>   0.3930 
 11 O        5.5060     2.2160    -0.7980 O.3   1 <1>  -0.3630 
 12 C        4.9020     0.0890     0.1230 C.ar  1 <1>  -0.1500 
 13 O        4.0320    -1.9230     1.0820 O.3   1 <1>  -0.3630 
 14 C        6.8560     1.8660    -1.0070 C.3   1 <1>   0.0400 
 15 C        5.2490    -2.6290     0.9890 C.3   1 <1>   0.0400 
 16 H        1.3150     2.6250     0.2640 H     1 <1>   0.3700 
 17 H       -0.9520     2.7490     1.4640 H     1 <1>   0.0800 
 18 H       -2.0490     1.5490     0.8590 H     1 <1>   0.0800 
 19 H       -0.5120     3.5230    -0.8720 H     1 <1>   0.0800 
 20 H       -2.2210     3.5820    -0.5100 H     1 <1>   0.0800 
 21 H       -1.5780     2.2740    -1.4740 H     1 <1>   0.0800 
 22 H        5.8910    -0.3040     0.0360 H     1 <1>   0.1500 
 23 H        7.3560     2.7150    -1.4380 H     1 <1>   0.0800 
 24 H        6.9020     1.0330    -1.6860 H     1 <1>   0.0800 
 25 H        7.3060     1.6220    -0.0610 H     1 <1>   0.0800 
 26 H        5.0900    -3.6160     1.3850 H     1 <1>   0.0800 
 27 H        5.9950    -2.1190     1.5720 H     1 <1>   0.0800 
 28 H        5.5380    -2.6950    -0.0450 H     1 <1>   0.0800 
@<TRIPOS>BOND
  1   1   2  2   
  2   2   3  am  
  3   2   4  1   
  4   3   5  1   
  5   3  16  1   
  6   4   6  1   
  7   4  17  1   
  8   4  18  1   
  9   5   7  ar  
 10   5   8  ar  
 11   6  19  1   
 12   6  20  1   
 13   6  21  1   
 14   7   9  ar  
 15   8  10  ar  
 16   9  11  1   
 17   9  12  ar  
 18  10  12  ar  
 19  10  13  1   
 20  11  14  1   
 21  12  22  1   
 22  13  15  1   
 23  14  23  1   
 24  14  24  1   
 25  14  25  1   
 26  15  26  1   
 27  15  27  1   
 28  15  28  1   
@<TRIPOS>SUBSTRUCTURE
  1 ****   5 GROUP 4 **** **** 0

# MOE 2024.06 (io_trps.svl 2023.06)
