@<TRIPOS>MOLECULE
NONAME
29 29 1 0 0 
SMALL
USER_CHARGES


@<TRIPOS>ATOM
  1 S       -0.7120     0.9010     1.2080 S.3   1 <1>  -0.2660 
  2 C       -1.1500    -0.8360     1.0060 C.1   1 <1>   0.5930 
  3 C       -1.1240     1.6050    -0.4600 C.3   1 <1>   0.2110 
  4 N       -1.3980    -1.9360     0.8530 N.1   1 <1>  -0.5570 
  5 C       -0.0350     2.5860    -0.8700 C.2   1 <1>   0.6590 
  6 C       -2.5130     2.2560    -0.4050 C.3   1 <1>  -0.0160 
  7 O        0.6460     2.3850    -1.8430 O.2   1 <1>  -0.5700 
  8 O        0.1090     3.6680    -0.1120 O.3   1 <1>  -0.4300 
  9 C       -3.5970     1.2290    -0.1170 C.ar  1 <1>  -0.1440 
 10 C        1.1050     4.6410    -0.3460 C.3   1 <1>   0.1200 
 11 C       -4.1750     1.1500     1.1410 C.ar  1 <1>  -0.1500 
 12 C       -4.0080     0.3540    -1.1120 C.ar  1 <1>  -0.1500 
 13 C        2.3940     4.1960     0.3410 C.3   1 <1>  -0.2400 
 14 C       -5.1470     0.2020     1.4050 C.ar  1 <1>  -0.1500 
 15 C       -4.9800    -0.5950    -0.8480 C.ar  1 <1>  -0.1500 
 16 C       -5.5500    -0.6720     0.4110 C.ar  1 <1>  -0.1500 
 17 H       -1.1250     0.7820    -1.1510 H     1 <1>   0.0800 
 18 H       -2.7220     2.7240    -1.3510 H     1 <1>   0.0800 
 19 H       -2.5230     3.0270     0.3460 H     1 <1>   0.0800 
 20 H        0.7590     5.5700     0.0720 H     1 <1>   0.0800 
 21 H        1.2440     4.7620    -1.4080 H     1 <1>   0.0800 
 22 H       -3.8690     1.8210     1.9250 H     1 <1>   0.1500 
 23 H       -3.5770     0.4010    -2.0960 H     1 <1>   0.1500 
 24 H        2.2290     4.0620     1.3950 H     1 <1>   0.0800 
 25 H        3.1530     4.9450     0.2050 H     1 <1>   0.0800 
 26 H        2.7490     3.2760    -0.0890 H     1 <1>   0.0800 
 27 H       -5.5900     0.1420     2.3830 H     1 <1>   0.1500 
 28 H       -5.2930    -1.2750    -1.6200 H     1 <1>   0.1500 
 29 H       -6.3030    -1.4120     0.6160 H     1 <1>   0.1500 
@<TRIPOS>BOND
  1   1   2  1   
  2   1   3  1   
  3   2   4  3   
  4   3   5  1   
  5   3   6  1   
  6   3  17  1   
  7   5   7  2   
  8   5   8  1   
  9   6   9  1   
 10   6  18  1   
 11   6  19  1   
 12   8  10  1   
 13   9  11  ar  
 14   9  12  ar  
 15  10  13  1   
 16  10  20  1   
 17  10  21  1   
 18  11  14  ar  
 19  11  22  1   
 20  12  15  ar  
 21  12  23  1   
 22  13  24  1   
 23  13  25  1   
 24  13  26  1   
 25  14  16  ar  
 26  14  27  1   
 27  15  16  ar  
 28  15  28  1   
 29  16  29  1   
@<TRIPOS>SUBSTRUCTURE
  1 ****   3 GROUP 4 **** **** 0

# MOE 2024.06 (io_trps.svl 2023.06)
