@<TRIPOS>MOLECULE
NONAME
22 22 1 0 0 
SMALL
USER_CHARGES


@<TRIPOS>ATOM
  1 N        3.5600     1.9430     0.1930 N.1   1 <1>  -0.5570 
  2 C        2.6530     2.6230     0.1340 C.1   1 <1>   0.3570 
  3 C        1.4200     3.4510     0.0540 C.3   1 <1>   0.0400 
  4 C        0.1780     2.5430     0.0090 C.3   1 <1>  -0.0170 
  5 C       -1.1890     3.2460    -0.0740 C.ar  1 <1>   0.2170 
  6 N       -2.3260     2.4920    -0.1170 N.ar  1 <1>  -0.2100 
  7 C       -1.2920     4.6310    -0.1070 C.ar  1 <1>  -0.1500 
  8 C       -3.5400     3.0900    -0.1910 C.ar  1 <1>   0.2110 
  9 C       -2.2900     0.9970    -0.0850 C.3   1 <1>   0.2480 
 10 C       -2.5280     5.2490    -0.1830 C.ar  1 <1>  -0.1500 
 11 C       -3.6620     4.4630    -0.2250 C.ar  1 <1>  -0.1500 
 12 H        1.4800     4.0570    -0.8320 H     1 <1>   0.0800 
 13 H        1.3910     4.0920     0.9170 H     1 <1>   0.0800 
 14 H        0.1920     1.9290     0.8940 H     1 <1>   0.0800 
 15 H        0.2810     1.8940    -0.8440 H     1 <1>   0.0800 
 16 H       -0.4270     5.2690    -0.0760 H     1 <1>   0.1500 
 17 H       -4.4310     2.4830    -0.2240 H     1 <1>   0.1500 
 18 H       -1.7360     0.6250    -0.9290 H     1 <1>   0.0800 
 19 H       -3.2850     0.5890    -0.1270 H     1 <1>   0.0800 
 20 H       -1.8250     0.6600     0.8250 H     1 <1>   0.0800 
 21 H       -2.6060     6.3260    -0.2080 H     1 <1>   0.1500 
 22 H       -4.6350     4.9240    -0.2830 H     1 <1>   0.1500 
@<TRIPOS>BOND
  1   1   2  3   
  2   2   3  1   
  3   3   4  1   
  4   3  12  1   
  5   3  13  1   
  6   4   5  1   
  7   4  14  1   
  8   4  15  1   
  9   5   6  ar  
 10   5   7  ar  
 11   6   8  ar  
 12   6   9  1   
 13   7  10  ar  
 14   7  16  1   
 15   8  11  ar  
 16   8  17  1   
 17   9  18  1   
 18   9  19  1   
 19   9  20  1   
 20  10  11  ar  
 21  10  21  1   
 22  11  22  1   
@<TRIPOS>SUBSTRUCTURE
  1 ****   5 GROUP 4 **** **** 0

# MOE 2024.06 (io_trps.svl 2023.06)
