@<TRIPOS>MOLECULE
NONAME
37 38 1 0 0 
SMALL
USER_CHARGES


@<TRIPOS>ATOM
  1 S       -0.1130     0.8190     0.8430 S.o2  1 <1>   1.3330 
  2 O        0.4370     1.3610     2.0620 O.2   1 <1>  -0.6500 
  3 O       -0.2660     1.6680    -0.3150 O.2   1 <1>  -0.6500 
  4 N        0.8840    -0.4580     0.3730 N.am  1 <1>  -0.8490 
  5 C       -1.6610     0.0270     1.2340 C.3   1 <1>  -0.1350 
  6 C        2.2850    -0.0480     0.3320 C.3   1 <1>   0.3390 
  7 C        0.4420    -1.0980    -0.8960 C.3   1 <1>   0.2570 
  8 C        3.1630    -1.2930     0.2650 C.ar  1 <1>  -0.1440 
  9 C       -0.1290    -2.4980    -0.6690 C.2   1 <1>   0.5690 
 10 C        3.8780    -1.6030    -0.8860 C.ar  1 <1>  -0.1500 
 11 C        3.2360    -2.1310     1.3730 C.ar  1 <1>  -0.1500 
 12 O       -1.2770    -2.7170    -0.9770 O.2   1 <1>  -0.5700 
 13 N        0.6810    -3.4380    -0.1140 N.am  1 <1>  -0.5790 
 14 C        4.6530    -2.7490    -0.9390 C.ar  1 <1>  -0.1500 
 15 C        4.0090    -3.2790     1.3330 C.ar  1 <1>  -0.1500 
 16 C        0.3230    -4.8300     0.1790 C.3   1 <1>   0.0490 
 17 C        4.7030    -3.5670     0.1730 C.ar  1 <1>   0.1900 
 18 C        0.8300    -5.4300     1.4470 C.3   1 <1>  -0.2000 
 19 C        1.4070    -5.8550     0.1300 C.3   1 <1>  -0.2000 
 20 F        5.4270    -4.6520     0.1260 F     1 <1>  -0.1900 
 21 H       -2.3610     0.7520     1.5990 H     1 <1>   0.0800 
 22 H       -1.5120    -0.7180     1.9910 H     1 <1>   0.0800 
 23 H       -2.0780    -0.4430     0.3650 H     1 <1>   0.0800 
 24 H        2.5430     0.4930     1.2270 H     1 <1>   0.0800 
 25 H        2.4600     0.6030    -0.5100 H     1 <1>   0.0800 
 26 H        1.2590    -1.1900    -1.5870 H     1 <1>   0.0800 
 27 H       -0.3100    -0.5080    -1.3900 H     1 <1>   0.0800 
 28 H        3.8360    -0.9560    -1.7470 H     1 <1>   0.1500 
 29 H        2.6850    -1.8880     2.2670 H     1 <1>   0.1500 
 30 H        1.6120    -3.1480     0.2040 H     1 <1>   0.3700 
 31 H        5.2110    -3.0070    -1.8210 H     1 <1>   0.1500 
 32 H        4.0770    -3.9380     2.1800 H     1 <1>   0.1500 
 33 H       -0.6640    -5.1000    -0.1640 H     1 <1>   0.1000 
 34 H        0.2020    -6.1270     1.9750 H     1 <1>   0.1000 
 35 H        1.4200    -4.8220     2.1090 H     1 <1>   0.1000 
 36 H        2.4040    -5.5470    -0.1300 H     1 <1>   0.1000 
 37 H        1.1700    -6.8380    -0.2350 H     1 <1>   0.1000 
@<TRIPOS>BOND
  1   1   2  2   
  2   1   3  2   
  3   1   4  am  
  4   1   5  1   
  5   4   6  1   
  6   4   7  1   
  7   5  21  1   
  8   5  22  1   
  9   5  23  1   
 10   6   8  1   
 11   6  24  1   
 12   6  25  1   
 13   7   9  1   
 14   7  26  1   
 15   7  27  1   
 16   8  10  ar  
 17   8  11  ar  
 18   9  12  2   
 19   9  13  am  
 20  10  14  ar  
 21  10  28  1   
 22  11  15  ar  
 23  11  29  1   
 24  13  16  1   
 25  13  30  1   
 26  14  17  ar  
 27  14  31  1   
 28  15  17  ar  
 29  15  32  1   
 30  16  18  1   
 31  16  19  1   
 32  16  33  1   
 33  17  20  1   
 34  18  19  1   
 35  18  34  1   
 36  18  35  1   
 37  19  36  1   
 38  19  37  1   
@<TRIPOS>SUBSTRUCTURE
  1 ****  13 GROUP 4 **** **** 0

# MOE 2024.06 (io_trps.svl 2023.06)
