@<TRIPOS>MOLECULE
NONAME
49 51 1 0 0 
SMALL
USER_CHARGES


@<TRIPOS>ATOM
  1 N       -0.9550     0.6600    -0.0930 N.2   1 <1>  -0.5030 
  2 N       -1.5370     1.3990     0.8870 N.pl3 1 <1>  -0.4870 
  3 C       -1.2390    -0.5830    -0.2600 C.2   1 <1>   0.3030 
  4 C       -0.7370     2.5450     1.3830 C.3   1 <1>   0.1100 
  5 C       -3.0030     1.6660     0.8160 C.3   1 <1>   0.1100 
  6 C       -2.1200    -1.4100     0.5350 C.ar  1 <1>   0.0860 
  7 C       -0.5570    -1.2800    -1.4240 C.3   1 <1>  -0.1790 
  8 C       -1.0060     3.7840     0.5150 C.3   1 <1>   0.3430 
  9 C       -3.2680     2.9190    -0.0320 C.3   1 <1>   0.3430 
 10 C       -3.1020    -2.2100    -0.0560 C.ar  1 <1>  -0.1500 
 11 C       -2.0240    -1.4480     1.9280 C.ar  1 <1>  -0.1500 
 12 N       -2.4730     4.1100     0.4410 N.4   1 <1>  -0.9590 
 13 C       -3.9480    -2.9960     0.7030 C.ar  1 <1>  -0.1500 
 14 C       -2.8660    -2.2310     2.6940 C.ar  1 <1>  -0.1500 
 15 C       -2.7260     5.3010    -0.4090 C.3   1 <1>   0.4860 
 16 C       -3.8330    -3.0080     2.0810 C.ar  1 <1>  -0.1500 
 17 C       -4.1850     5.6860    -0.2700 C.ar  1 <1>  -0.1440 
 18 C       -5.0780     5.4210    -1.2970 C.ar  1 <1>  -0.1500 
 19 C       -4.6420     6.2990     0.8880 C.ar  1 <1>  -0.1500 
 20 C       -6.4150     5.7530    -1.1610 C.ar  1 <1>  -0.1500 
 21 C       -5.9790     6.6290     1.0200 C.ar  1 <1>  -0.1500 
 22 C       -6.8720     6.3570    -0.0030 C.ar  1 <1>  -0.1440 
 23 C       -8.3390     6.7220     0.1440 C.3   1 <1>  -0.0970 
 24 H       -0.9850     2.7390     2.4110 H     1 <1>   0.0800 
 25 H        0.3070     2.2900     1.3330 H     1 <1>   0.0800 
 26 H       -3.5090     0.8290     0.3710 H     1 <1>   0.0800 
 27 H       -3.3920     1.7950     1.8100 H     1 <1>   0.0800 
 28 H       -1.2320    -1.3570    -2.2550 H     1 <1>   0.0800 
 29 H       -0.2410    -2.2650    -1.1310 H     1 <1>   0.0800 
 30 H        0.3090    -0.7250    -1.7360 H     1 <1>   0.0800 
 31 H       -0.6290     3.5810    -0.4740 H     1 <1>   0.0800 
 32 H       -0.4590     4.6210     0.9170 H     1 <1>   0.0800 
 33 H       -4.3220     3.1450    -0.0040 H     1 <1>   0.0800 
 34 H       -3.0040     2.6920    -1.0520 H     1 <1>   0.0800 
 35 H       -3.2090    -2.2140    -1.1260 H     1 <1>   0.1500 
 36 H       -1.2700    -0.8490     2.4090 H     1 <1>   0.1500 
 37 H       -2.8110     4.3360     1.3830 H     1 <1>   0.4500 
 38 H       -4.6980    -3.6040     0.2240 H     1 <1>   0.1500 
 39 H       -2.7700    -2.2410     3.7660 H     1 <1>   0.1500 
 40 H       -2.1100     6.1260    -0.0890 H     1 <1>   0.0800 
 41 H       -2.4980     5.0810    -1.4390 H     1 <1>   0.0800 
 42 H       -4.4900    -3.6210     2.6740 H     1 <1>   0.1500 
 43 H       -4.7520     4.9570    -2.2130 H     1 <1>   0.1500 
 44 H       -3.9720     6.5320     1.6980 H     1 <1>   0.1500 
 45 H       -7.1020     5.5430    -1.9640 H     1 <1>   0.1500 
 46 H       -6.3260     7.1030     1.9220 H     1 <1>   0.1500 
 47 H       -8.8770     5.9020     0.5850 H     1 <1>   0.0800 
 48 H       -8.7700     6.9440    -0.8160 H     1 <1>   0.0800 
 49 H       -8.4510     7.5880     0.7710 H     1 <1>   0.0800 
@<TRIPOS>BOND
  1   1   2  1   
  2   1   3  2   
  3   2   4  1   
  4   2   5  1   
  5   3   6  1   
  6   3   7  1   
  7   4   8  1   
  8   4  24  1   
  9   4  25  1   
 10   5   9  1   
 11   5  26  1   
 12   5  27  1   
 13   6  10  ar  
 14   6  11  ar  
 15   7  28  1   
 16   7  29  1   
 17   7  30  1   
 18   8  12  1   
 19   8  31  1   
 20   8  32  1   
 21   9  12  1   
 22   9  33  1   
 23   9  34  1   
 24  10  13  ar  
 25  10  35  1   
 26  11  14  ar  
 27  11  36  1   
 28  12  15  1   
 29  12  37  1   
 30  13  16  ar  
 31  13  38  1   
 32  14  16  ar  
 33  14  39  1   
 34  15  17  1   
 35  15  40  1   
 36  15  41  1   
 37  16  42  1   
 38  17  18  ar  
 39  17  19  ar  
 40  18  20  ar  
 41  18  43  1   
 42  19  21  ar  
 43  19  44  1   
 44  20  22  ar  
 45  20  45  1   
 46  21  22  ar  
 47  21  46  1   
 48  22  23  1   
 49  23  47  1   
 50  23  48  1   
 51  23  49  1   
@<TRIPOS>SUBSTRUCTURE
  1 ****   5 GROUP 4 **** **** 0

# MOE 2024.06 (io_trps.svl 2023.06)
