@<TRIPOS>MOLECULE
NONAME
43 45 1 0 0 
SMALL
USER_CHARGES


@<TRIPOS>ATOM
  1 CL      -2.3450     1.0740     1.9800 Cl    1 <1>  -0.1770 
  2 C       -1.2710     2.1530     1.1260 C.ar  1 <1>   0.1770 
  3 C       -1.5240     2.4490    -0.2030 C.ar  1 <1>  -0.1440 
  4 C       -0.1930     2.7000     1.8000 C.ar  1 <1>  -0.1500 
  5 C       -0.6630     3.3250    -0.8440 C.ar  1 <1>   0.1770 
  6 C       -2.6970     1.8260    -0.9280 C.3   1 <1>   0.4870 
  7 C        0.6590     3.5690     1.1370 C.ar  1 <1>  -0.1500 
  8 CL      -0.9580     3.7530    -2.5100 Cl    1 <1>  -0.1770 
  9 C        0.4220     3.8840    -0.1910 C.ar  1 <1>  -0.1500 
 10 N       -3.9570     2.4860    -0.4960 N.4   1 <1>  -0.9590 
 11 C       -5.1520     1.7490    -0.9890 C.3   1 <1>   0.4860 
 12 C       -4.0350     3.9230    -0.8970 C.3   1 <1>   0.3430 
 13 C       -6.4220     2.4250    -0.5030 C.ar  1 <1>  -0.1430 
 14 C       -5.1870     4.6120    -0.1610 C.3   1 <1>  -0.0170 
 15 C       -6.4500     3.7620    -0.1280 C.ar  1 <1>  -0.1430 
 16 C       -7.5890     1.6820    -0.4430 C.ar  1 <1>  -0.1500 
 17 C       -7.6400     4.3310     0.2960 C.ar  1 <1>  -0.1500 
 18 C       -8.7850     2.2360    -0.0210 C.ar  1 <1>   0.0830 
 19 C       -8.8190     3.5910     0.3570 C.ar  1 <1>   0.0830 
 20 O       -9.8250     1.3530    -0.0280 O.3   1 <1>  -0.3620 
 21 O       -9.9850     4.1630     0.7760 O.3   1 <1>  -0.3620 
 22 C      -11.1380     1.6850     0.3640 C.3   1 <1>   0.0400 
 23 C      -10.0830     5.5170     1.1600 C.3   1 <1>   0.0400 
 24 H       -0.0210     2.4480     2.8330 H     1 <1>   0.1500 
 25 H       -2.7340     0.7750    -0.6890 H     1 <1>   0.0800 
 26 H       -2.5740     1.9220    -1.9940 H     1 <1>   0.0800 
 27 H        1.5030     3.9980     1.6540 H     1 <1>   0.1500 
 28 H        1.0770     4.5590    -0.7170 H     1 <1>   0.1500 
 29 H       -4.0010     2.4420     0.5320 H     1 <1>   0.4500 
 30 H       -5.1330     0.7330    -0.6280 H     1 <1>   0.0800 
 31 H       -5.1560     1.7280    -2.0670 H     1 <1>   0.0800 
 32 H       -4.1990     3.9930    -1.9600 H     1 <1>   0.0800 
 33 H       -3.1140     4.4330    -0.6640 H     1 <1>   0.0800 
 34 H       -5.3930     5.5520    -0.6420 H     1 <1>   0.0800 
 35 H       -4.8830     4.8260     0.8490 H     1 <1>   0.0800 
 36 H       -7.5970     0.6450    -0.7280 H     1 <1>   0.1500 
 37 H       -7.6310     5.3660     0.5820 H     1 <1>   0.1500 
 38 H      -11.7500     0.8070     0.2640 H     1 <1>   0.0800 
 39 H      -11.5090     2.4630    -0.2780 H     1 <1>   0.0800 
 40 H      -11.1250     2.0060     1.3910 H     1 <1>   0.0800 
 41 H      -11.1030     5.7110     1.4400 H     1 <1>   0.0800 
 42 H       -9.8100     6.1390     0.3260 H     1 <1>   0.0800 
 43 H       -9.4370     5.6900     2.0030 H     1 <1>   0.0800 
@<TRIPOS>BOND
  1   1   2  1   
  2   2   3  ar  
  3   2   4  ar  
  4   3   5  ar  
  5   3   6  1   
  6   4   7  ar  
  7   4  24  1   
  8   5   8  1   
  9   5   9  ar  
 10   6  10  1   
 11   6  25  1   
 12   6  26  1   
 13   7   9  ar  
 14   7  27  1   
 15   9  28  1   
 16  10  11  1   
 17  10  12  1   
 18  10  29  1   
 19  11  13  1   
 20  11  30  1   
 21  11  31  1   
 22  12  14  1   
 23  12  32  1   
 24  12  33  1   
 25  13  15  ar  
 26  13  16  ar  
 27  14  15  1   
 28  14  34  1   
 29  14  35  1   
 30  15  17  ar  
 31  16  18  ar  
 32  16  36  1   
 33  17  19  ar  
 34  17  37  1   
 35  18  19  ar  
 36  18  20  1   
 37  19  21  1   
 38  20  22  1   
 39  21  23  1   
 40  22  38  1   
 41  22  39  1   
 42  22  40  1   
 43  23  41  1   
 44  23  42  1   
 45  23  43  1   
@<TRIPOS>SUBSTRUCTURE
  1 ****  10 GROUP 4 **** **** 0

# MOE 2024.06 (io_trps.svl 2023.06)
