@<TRIPOS>MOLECULE
NONAME
39 41 1 0 0 
SMALL
USER_CHARGES


@<TRIPOS>ATOM
  1 CL       1.0590     0.5010    -2.4790 Cl    1 <1>  -0.1770 
  2 C        2.0520     0.1460    -1.0890 C.ar  1 <1>   0.1770 
  3 C        1.9310    -1.0820    -0.4590 C.ar  1 <1>  -0.1440 
  4 C        2.9340     1.1110    -0.6340 C.ar  1 <1>  -0.1500 
  5 C        2.7170    -1.3140     0.6570 C.ar  1 <1>   0.1770 
  6 C        0.9800    -2.1410    -0.9740 C.3   1 <1>   0.4870 
  7 C        3.7160     0.8530     0.4800 C.ar  1 <1>  -0.1500 
  8 CL       2.5740    -2.8360     1.5020 Cl    1 <1>  -0.1770 
  9 C        3.6060    -0.3650     1.1300 C.ar  1 <1>  -0.1500 
 10 N       -0.2030    -2.2260    -0.0740 N.4   1 <1>  -0.9590 
 11 C       -1.0270    -3.4490    -0.3890 C.3   1 <1>   0.3430 
 12 C       -1.0310    -0.9620    -0.1230 C.3   1 <1>   0.3430 
 13 C       -2.2660    -3.5430     0.5170 C.3   1 <1>   0.1400 
 14 C       -2.3090    -1.0500     0.7360 C.3   1 <1>   0.1400 
 15 N       -3.0700    -2.2910     0.4050 N.am  1 <1>  -0.6600 
 16 C       -4.1920    -2.2590    -0.4000 C.2   1 <1>   0.7150 
 17 O       -4.2390    -3.0730    -1.3050 O.2   1 <1>  -0.5700 
 18 C       -5.2570    -1.2900    -0.2370 C.2   1 <1>   0.0550 
 19 O       -5.3090    -0.4650     0.8070 O.3   1 <1>  -0.2800 
 20 C       -6.3380    -1.0430    -1.0290 C.2   1 <1>  -0.1500 
 21 C       -6.3800     0.2900     0.7010 C.2   1 <1>  -0.0100 
 22 C       -7.0630    -0.0180    -0.4210 C.2   1 <1>  -0.1500 
 23 H        3.0090     2.0550    -1.1480 H     1 <1>   0.1500 
 24 H        1.4940    -3.0900    -0.9920 H     1 <1>   0.0800 
 25 H        0.6670    -1.9120    -1.9800 H     1 <1>   0.0800 
 26 H        4.4070     1.5990     0.8400 H     1 <1>   0.1500 
 27 H        4.2080    -0.5770     1.9990 H     1 <1>   0.1500 
 28 H        0.1600    -2.3320     0.8840 H     1 <1>   0.4500 
 29 H       -0.4310    -4.3380    -0.2640 H     1 <1>   0.0800 
 30 H       -1.3630    -3.4130    -1.4130 H     1 <1>   0.0800 
 31 H       -1.3240    -0.7670    -1.1420 H     1 <1>   0.0800 
 32 H       -0.4420    -0.1230     0.2110 H     1 <1>   0.0800 
 33 H       -1.9700    -3.6910     1.5410 H     1 <1>   0.0800 
 34 H       -2.8600    -4.3940     0.2260 H     1 <1>   0.0800 
 35 H       -2.9070    -0.1750     0.5490 H     1 <1>   0.0800 
 36 H       -2.0560    -1.0540     1.7820 H     1 <1>   0.0800 
 37 H       -6.6000    -1.5370    -1.9490 H     1 <1>   0.1500 
 38 H       -6.5880     1.0200     1.4640 H     1 <1>   0.1500 
 39 H       -7.9760     0.4140    -0.7930 H     1 <1>   0.1500 
@<TRIPOS>BOND
  1   1   2  1   
  2   2   3  ar  
  3   2   4  ar  
  4   3   5  ar  
  5   3   6  1   
  6   4   7  ar  
  7   4  23  1   
  8   5   8  1   
  9   5   9  ar  
 10   6  10  1   
 11   6  24  1   
 12   6  25  1   
 13   7   9  ar  
 14   7  26  1   
 15   9  27  1   
 16  10  11  1   
 17  10  12  1   
 18  10  28  1   
 19  11  13  1   
 20  11  29  1   
 21  11  30  1   
 22  12  14  1   
 23  12  31  1   
 24  12  32  1   
 25  13  15  1   
 26  13  33  1   
 27  13  34  1   
 28  14  15  1   
 29  14  35  1   
 30  14  36  1   
 31  15  16  am  
 32  16  17  2   
 33  16  18  1   
 34  18  19  1   
 35  18  20  2   
 36  19  21  1   
 37  20  22  1   
 38  20  37  1   
 39  21  22  2   
 40  21  38  1   
 41  22  39  1   
@<TRIPOS>SUBSTRUCTURE
  1 ****  12 GROUP 4 **** **** 0

# MOE 2024.06 (io_trps.svl 2023.06)
