@<TRIPOS>MOLECULE
NONAME
49 50 1 0 0 
SMALL
USER_CHARGES


@<TRIPOS>ATOM
  1 O       -2.5810    -1.2200    -2.5760 O.2   1 <1>  -0.5700 
  2 C       -2.2050    -0.8550    -1.4820 C.2   1 <1>   0.6340 
  3 O       -1.0310    -1.2850    -1.0150 O.3   1 <1>  -0.4300 
  4 C       -2.9660     0.0360    -0.6440 C.ar  1 <1>   0.0860 
  5 C       -0.1740    -2.0980    -1.7910 C.3   1 <1>   0.0400 
  6 C       -2.4660     1.2960    -0.3050 C.ar  1 <1>   0.0000 
  7 C       -4.2150    -0.3340    -0.1450 C.ar  1 <1>   0.1660 
  8 C       -3.2470     2.0990     0.5280 C.ar  1 <1>   0.0860 
  9 C       -1.1870     1.7570    -0.7920 C.ar  1 <1>   0.0000 
 10 N       -4.9600     0.4200     0.6410 N.ar  1 <1>  -0.6200 
 11 C       -4.8210    -1.6880    -0.4840 C.3   1 <1>  -0.0960 
 12 C       -4.4750     1.6040     0.9650 C.ar  1 <1>   0.1670 
 13 C       -2.7880     3.4030     0.9270 C.2   1 <1>   0.6340 
 14 C       -0.1190     1.9520     0.0780 C.ar  1 <1>  -0.1500 
 15 C       -0.9880     2.0280    -2.1430 C.ar  1 <1>  -0.1500 
 16 C       -5.3670     2.4330     1.8760 C.3   1 <1>  -0.0970 
 17 O       -2.4370     3.6620     2.0590 O.2   1 <1>  -0.5700 
 18 O       -2.7370     4.3510    -0.0110 O.3   1 <1>  -0.4300 
 19 C        1.1140     2.4110    -0.3590 C.ar  1 <1>   0.1170 
 20 C        0.2350     2.4760    -2.6020 C.ar  1 <1>  -0.1500 
 21 C       -2.1930     5.6290     0.2490 C.3   1 <1>   0.0400 
 22 N        2.1350     2.5860     0.5880 N.am  1 <1>  -0.5470 
 23 C        1.2800     2.6660    -1.7170 C.ar  1 <1>  -0.1500 
 24 C        3.2980     3.3020     0.5450 C.2   1 <1>   0.5690 
 25 O        3.6480     3.9690    -0.3970 O.2   1 <1>  -0.5700 
 26 C        4.1890     3.2610     1.7740 C.3   1 <1>  -0.0990 
 27 C        4.8010     1.8730     2.0240 C.3   1 <1>  -0.2400 
 28 H        0.7080    -2.3130    -1.2140 H     1 <1>   0.0800 
 29 H        0.0910    -1.5650    -2.6870 H     1 <1>   0.0800 
 30 H       -0.6880    -3.0110    -2.0390 H     1 <1>   0.0800 
 31 H       -5.1360    -1.6980    -1.5120 H     1 <1>   0.0800 
 32 H       -5.6780    -1.8840     0.1370 H     1 <1>   0.0800 
 33 H       -4.1060    -2.4740    -0.3270 H     1 <1>   0.0800 
 34 H       -0.2610     1.7470     1.1240 H     1 <1>   0.1500 
 35 H       -1.7970     1.8870    -2.8410 H     1 <1>   0.1500 
 36 H       -4.9200     2.5130     2.8500 H     1 <1>   0.0800 
 37 H       -6.3320     1.9710     1.9810 H     1 <1>   0.0800 
 38 H       -5.5090     3.4180     1.4700 H     1 <1>   0.0800 
 39 H        0.3780     2.6790    -3.6490 H     1 <1>   0.1500 
 40 H       -2.2590     6.2160    -0.6480 H     1 <1>   0.0800 
 41 H       -1.1630     5.5130     0.5400 H     1 <1>   0.0800 
 42 H       -2.7550     6.0930     1.0410 H     1 <1>   0.0800 
 43 H        1.9620     2.1270     1.4790 H     1 <1>   0.3700 
 44 H        2.2260     3.0120    -2.0920 H     1 <1>   0.1500 
 45 H        3.6160     3.5680     2.6290 H     1 <1>   0.0800 
 46 H        4.9820     3.9750     1.6420 H     1 <1>   0.0800 
 47 H        4.0350     1.1390     2.1970 H     1 <1>   0.0800 
 48 H        5.4470     1.9040     2.8840 H     1 <1>   0.0800 
 49 H        5.3830     1.5690     1.1710 H     1 <1>   0.0800 
@<TRIPOS>BOND
  1   1   2  2   
  2   2   3  1   
  3   2   4  1   
  4   3   5  1   
  5   4   6  ar  
  6   4   7  ar  
  7   5  28  1   
  8   5  29  1   
  9   5  30  1   
 10   6   8  ar  
 11   6   9  1   
 12   7  10  ar  
 13   7  11  1   
 14   8  12  ar  
 15   8  13  1   
 16   9  14  ar  
 17   9  15  ar  
 18  10  12  ar  
 19  11  31  1   
 20  11  32  1   
 21  11  33  1   
 22  12  16  1   
 23  13  17  2   
 24  13  18  1   
 25  14  19  ar  
 26  14  34  1   
 27  15  20  ar  
 28  15  35  1   
 29  16  36  1   
 30  16  37  1   
 31  16  38  1   
 32  18  21  1   
 33  19  22  1   
 34  19  23  ar  
 35  20  23  ar  
 36  20  39  1   
 37  21  40  1   
 38  21  41  1   
 39  21  42  1   
 40  22  24  am  
 41  22  43  1   
 42  23  44  1   
 43  24  25  2   
 44  24  26  1   
 45  26  27  1   
 46  26  45  1   
 47  26  46  1   
 48  27  47  1   
 49  27  48  1   
 50  27  49  1   
@<TRIPOS>SUBSTRUCTURE
  1 ****   9 GROUP 4 **** **** 0

# MOE 2024.06 (io_trps.svl 2023.06)
