@<TRIPOS>MOLECULE
NONAME
55 56 1 0 0 
SMALL
USER_CHARGES


@<TRIPOS>ATOM
  1 O        0.6100     0.0050     0.1650 O.3   1 <1>  -0.3630 
  2 C       -0.6290    -0.5490     0.0620 C.ar  1 <1>   0.0830 
  3 C        1.7860    -0.7670     0.1140 C.3   1 <1>   0.1200 
  4 C       -1.7380     0.3000     0.1050 C.ar  1 <1>  -0.1440 
  5 C       -0.8150    -1.9230    -0.0830 C.ar  1 <1>  -0.1500 
  6 C        2.9780     0.1830     0.2390 C.3   1 <1>  -0.1600 
  7 C       -3.0070    -0.2540     0.0000 C.ar  1 <1>  -0.1500 
  8 C       -1.5900     1.8190     0.2640 C.3   1 <1>   0.0640 
  9 C       -2.0860    -2.4610    -0.1880 C.ar  1 <1>  -0.1430 
 10 C        4.3000    -0.5820     0.1310 C.3   1 <1>   0.1100 
 11 C       -3.1820    -1.6190    -0.1440 C.ar  1 <1>  -0.1500 
 12 C       -2.2560     2.3010     1.5580 C.3   1 <1>  -0.2400 
 13 C       -2.1670     2.5560    -0.9490 C.3   1 <1>  -0.2400 
 14 C       -2.2810    -3.9580    -0.3440 C.3   1 <1>  -0.0970 
 15 N        5.4420     0.2950     0.4440 N.3   1 <1>  -0.8100 
 16 C        5.7200     1.2810    -0.6230 C.3   1 <1>   0.1100 
 17 C        6.6450    -0.4960     0.7680 C.3   1 <1>   0.1100 
 18 C        6.8960     2.2050    -0.2440 C.3   1 <1>   0.3430 
 19 C        7.8290     0.4100     1.1620 C.3   1 <1>   0.3430 
 20 N        8.1370     1.4260     0.0930 N.4   1 <1>  -0.9590 
 21 C        9.2420     2.3390     0.4800 C.3   1 <1>   0.3430 
 22 C       10.5660     1.5850     0.4560 C.3   1 <1>  -0.2400 
 23 H        1.8070    -1.2850    -0.8290 H     1 <1>   0.0800 
 24 H        1.7670    -1.4680     0.9300 H     1 <1>   0.0800 
 25 H        0.0210    -2.5930    -0.1140 H     1 <1>   0.1500 
 26 H        2.9290     0.6730     1.1950 H     1 <1>   0.0800 
 27 H        2.9060     0.9140    -0.5440 H     1 <1>   0.0800 
 28 H       -3.8760     0.3770     0.0310 H     1 <1>   0.1500 
 29 H       -0.5500     2.0830     0.3280 H     1 <1>   0.0800 
 30 H        4.4100    -1.0050    -0.8540 H     1 <1>   0.0800 
 31 H        4.2750    -1.3910     0.8420 H     1 <1>   0.0800 
 32 H       -4.1770    -2.0200    -0.2220 H     1 <1>   0.1500 
 33 H       -3.3170     2.1330     1.5330 H     1 <1>   0.0800 
 34 H       -2.0760     3.3510     1.6990 H     1 <1>   0.0800 
 35 H       -1.8430     1.7670     2.3960 H     1 <1>   0.0800 
 36 H       -3.2270     2.3960    -1.0310 H     1 <1>   0.0800 
 37 H       -1.6960     2.1980    -1.8470 H     1 <1>   0.0800 
 38 H       -1.9840     3.6120    -0.8640 H     1 <1>   0.0800 
 39 H       -1.4260    -4.4040    -0.8200 H     1 <1>   0.0800 
 40 H       -3.1480    -4.1610    -0.9470 H     1 <1>   0.0800 
 41 H       -2.4170    -4.4090     0.6220 H     1 <1>   0.0800 
 42 H        4.8530     1.8980    -0.7810 H     1 <1>   0.0800 
 43 H        5.9370     0.7740    -1.5480 H     1 <1>   0.0800 
 44 H        6.9210    -1.1100    -0.0720 H     1 <1>   0.0800 
 45 H        6.4250    -1.1480     1.5970 H     1 <1>   0.0800 
 46 H        6.5970     2.7950     0.6060 H     1 <1>   0.0800 
 47 H        7.0940     2.8770    -1.0620 H     1 <1>   0.0800 
 48 H        8.6940    -0.2050     1.3470 H     1 <1>   0.0800 
 49 H        7.5770     0.9150     2.0800 H     1 <1>   0.0800 
 50 H        8.4180     0.9130    -0.7510 H     1 <1>   0.4500 
 51 H        9.0620     2.7470     1.4620 H     1 <1>   0.0800 
 52 H        9.2960     3.1590    -0.2200 H     1 <1>   0.0800 
 53 H       10.5960     0.8160     1.2060 H     1 <1>   0.0800 
 54 H       11.3650     2.2740     0.6670 H     1 <1>   0.0800 
 55 H       10.7470     1.1570    -0.5140 H     1 <1>   0.0800 
@<TRIPOS>BOND
  1   1   2  1   
  2   1   3  1   
  3   2   4  ar  
  4   2   5  ar  
  5   3   6  1   
  6   3  23  1   
  7   3  24  1   
  8   4   7  ar  
  9   4   8  1   
 10   5   9  ar  
 11   5  25  1   
 12   6  10  1   
 13   6  26  1   
 14   6  27  1   
 15   7  11  ar  
 16   7  28  1   
 17   8  12  1   
 18   8  13  1   
 19   8  29  1   
 20   9  11  ar  
 21   9  14  1   
 22  10  15  1   
 23  10  30  1   
 24  10  31  1   
 25  11  32  1   
 26  12  33  1   
 27  12  34  1   
 28  12  35  1   
 29  13  36  1   
 30  13  37  1   
 31  13  38  1   
 32  14  39  1   
 33  14  40  1   
 34  14  41  1   
 35  15  16  1   
 36  15  17  1   
 37  16  18  1   
 38  16  42  1   
 39  16  43  1   
 40  17  19  1   
 41  17  44  1   
 42  17  45  1   
 43  18  20  1   
 44  18  46  1   
 45  18  47  1   
 46  19  20  1   
 47  19  48  1   
 48  19  49  1   
 49  20  21  1   
 50  20  50  1   
 51  21  22  1   
 52  21  51  1   
 53  21  52  1   
 54  22  53  1   
 55  22  54  1   
 56  22  55  1   
@<TRIPOS>SUBSTRUCTURE
  1 ****   6 GROUP 4 **** **** 0

# MOE 2024.06 (io_trps.svl 2023.06)
