@<TRIPOS>MOLECULE
NONAME
33 33 1 0 0 
SMALL
USER_CHARGES


@<TRIPOS>ATOM
  1 S        0.0230    -0.3910    -0.9540 S.o2  1 <1>   1.3330 
  2 O        1.2030    -0.6920    -1.7370 O.2   1 <1>  -0.6500 
  3 O       -1.1960    -0.0490    -1.6490 O.2   1 <1>  -0.6500 
  4 N       -0.2600    -1.6920     0.1020 N.am  1 <1>  -0.8490 
  5 C        0.3690     0.9520     0.1640 C.3   1 <1>  -0.1350 
  6 C       -1.5120    -2.4210    -0.1990 C.3   1 <1>   0.2760 
  7 C        0.9600    -2.5080     0.3920 C.3   1 <1>   0.2570 
  8 C       -2.6580    -1.7300     0.5610 C.3   1 <1>  -0.1600 
  9 C       -1.5040    -3.9220     0.1630 C.3   1 <1>  -0.1600 
 10 C        2.1670    -1.7650     0.9940 C.2   1 <1>   0.5690 
 11 C       -4.0170    -2.3800     0.2630 C.3   1 <1>  -0.1600 
 12 C       -2.8530    -4.5850    -0.1530 C.3   1 <1>  -0.1600 
 13 O        2.2740    -1.6590     2.1890 O.2   1 <1>  -0.5700 
 14 N        3.1170    -1.2370     0.1970 N.am  1 <1>  -0.8000 
 15 C       -3.9990    -3.8800     0.5820 C.3   1 <1>  -0.1600 
 16 H        1.2260     0.7390     0.7700 H     1 <1>   0.0800 
 17 H       -0.4720     1.1140     0.8090 H     1 <1>   0.0800 
 18 H        0.5550     1.8510    -0.3900 H     1 <1>   0.0800 
 19 H       -1.7110    -2.3640    -1.2580 H     1 <1>   0.0800 
 20 H        1.2780    -3.0030    -0.5080 H     1 <1>   0.0800 
 21 H        0.7210    -3.2650     1.1150 H     1 <1>   0.0800 
 22 H       -2.7150    -0.6930     0.2880 H     1 <1>   0.0800 
 23 H       -2.4630    -1.7870     1.6180 H     1 <1>   0.0800 
 24 H       -1.3100    -4.0420     1.2150 H     1 <1>   0.0800 
 25 H       -0.7450    -4.4330    -0.4010 H     1 <1>   0.0800 
 26 H       -4.2580    -2.2380    -0.7770 H     1 <1>   0.0800 
 27 H       -4.7830    -1.8980     0.8460 H     1 <1>   0.0800 
 28 H       -2.8240    -5.6210     0.1390 H     1 <1>   0.0800 
 29 H       -3.0320    -4.5460    -1.2140 H     1 <1>   0.0800 
 30 H        3.9170    -0.7490     0.5990 H     1 <1>   0.3700 
 31 H        2.9640    -1.1260    -0.8160 H     1 <1>   0.3700 
 32 H       -4.9380    -4.3210     0.2960 H     1 <1>   0.0800 
 33 H       -3.8800    -4.0160     1.6430 H     1 <1>   0.0800 
@<TRIPOS>BOND
  1   1   2  2   
  2   1   3  2   
  3   1   4  am  
  4   1   5  1   
  5   4   6  1   
  6   4   7  1   
  7   5  16  1   
  8   5  17  1   
  9   5  18  1   
 10   6   8  1   
 11   6   9  1   
 12   6  19  1   
 13   7  10  1   
 14   7  20  1   
 15   7  21  1   
 16   8  11  1   
 17   8  22  1   
 18   8  23  1   
 19   9  12  1   
 20   9  24  1   
 21   9  25  1   
 22  10  13  2   
 23  10  14  am  
 24  11  15  1   
 25  11  26  1   
 26  11  27  1   
 27  12  15  1   
 28  12  28  1   
 29  12  29  1   
 30  14  30  1   
 31  14  31  1   
 32  15  32  1   
 33  15  33  1   
@<TRIPOS>SUBSTRUCTURE
  1 ****   4 GROUP 4 **** **** 0

# MOE 2024.06 (io_trps.svl 2023.06)
