@<TRIPOS>MOLECULE
NONAME
38 38 1 0 0 
SMALL
USER_CHARGES


@<TRIPOS>ATOM
  1 O        1.5260     2.7080     1.0620 O.2   1 <1>  -0.5700 
  2 C        1.3510     3.6920     0.3830 C.2   1 <1>   0.5690 
  3 N        0.1160     4.1330    -0.0220 N.am  1 <1>  -0.5470 
  4 C        2.6120     4.4680    -0.0380 C.3   1 <1>   0.4040 
  5 C       -1.1630     3.5930     0.1990 C.ar  1 <1>   0.1170 
  6 N        3.8790     3.6380     0.0530 N.4   1 <1>  -0.9590 
  7 C       -2.2630     4.4250     0.0380 C.ar  1 <1>  -0.1500 
  8 C       -1.3890     2.2640     0.5520 C.ar  1 <1>  -0.1500 
  9 C        5.1240     4.4510     0.1050 C.3   1 <1>   0.3430 
 10 C        3.9070     2.5960    -1.0100 C.3   1 <1>   0.3430 
 11 C       -3.5530     3.9610     0.2260 C.ar  1 <1>   0.0830 
 12 C       -2.6750     1.7900     0.7440 C.ar  1 <1>  -0.1500 
 13 C        5.2180     5.1610     1.4510 C.3   1 <1>  -0.2400 
 14 C        4.8460     1.4700    -0.5970 C.3   1 <1>  -0.2400 
 15 O       -4.5540     4.8590     0.0440 O.3   1 <1>  -0.3630 
 16 C       -3.7600     2.6330     0.5830 C.ar  1 <1>  -0.1500 
 17 C       -5.9050     4.4960     0.2250 C.3   1 <1>   0.0400 
 18 H        0.0740     5.0230    -0.5180 H     1 <1>   0.3700 
 19 H        2.6930     5.3190     0.6150 H     1 <1>   0.0800 
 20 H        2.4860     4.8280    -1.0440 H     1 <1>   0.0800 
 21 H        3.7820     3.1160     0.9420 H     1 <1>   0.4500 
 22 H       -2.1350     5.4550    -0.2330 H     1 <1>   0.1500 
 23 H       -0.5690     1.5830     0.6790 H     1 <1>   0.1500 
 24 H        5.1380     5.1690    -0.7000 H     1 <1>   0.0800 
 25 H        5.9830     3.8100    -0.0030 H     1 <1>   0.0800 
 26 H        4.2220     3.0230    -1.9490 H     1 <1>   0.0800 
 27 H        2.9180     2.1820    -1.1390 H     1 <1>   0.0800 
 28 H       -2.8310     0.7610     1.0190 H     1 <1>   0.1500 
 29 H        4.4440     5.8970     1.5700 H     1 <1>   0.0800 
 30 H        6.1630     5.6720     1.5110 H     1 <1>   0.0800 
 31 H        5.1750     4.4530     2.2600 H     1 <1>   0.0800 
 32 H        5.8660     1.8030    -0.5330 H     1 <1>   0.0800 
 33 H        4.8040     0.6900    -1.3370 H     1 <1>   0.0800 
 34 H        4.5400     1.0460     0.3430 H     1 <1>   0.0800 
 35 H       -4.7470     2.2400     0.7370 H     1 <1>   0.1500 
 36 H       -6.5120     5.3620     0.0350 H     1 <1>   0.0800 
 37 H       -6.0450     4.1680     1.2400 H     1 <1>   0.0800 
 38 H       -6.1530     3.7150    -0.4710 H     1 <1>   0.0800 
@<TRIPOS>BOND
  1   1   2  2   
  2   2   3  am  
  3   2   4  1   
  4   3   5  1   
  5   3  18  1   
  6   4   6  1   
  7   4  19  1   
  8   4  20  1   
  9   5   7  ar  
 10   5   8  ar  
 11   6   9  1   
 12   6  10  1   
 13   6  21  1   
 14   7  11  ar  
 15   7  22  1   
 16   8  12  ar  
 17   8  23  1   
 18   9  13  1   
 19   9  24  1   
 20   9  25  1   
 21  10  14  1   
 22  10  26  1   
 23  10  27  1   
 24  11  15  1   
 25  11  16  ar  
 26  12  16  ar  
 27  12  28  1   
 28  13  29  1   
 29  13  30  1   
 30  13  31  1   
 31  14  32  1   
 32  14  33  1   
 33  14  34  1   
 34  15  17  1   
 35  16  35  1   
 36  17  36  1   
 37  17  37  1   
 38  17  38  1   
@<TRIPOS>SUBSTRUCTURE
  1 ****   3 GROUP 4 **** **** 0

# MOE 2024.06 (io_trps.svl 2023.06)
