@<TRIPOS>MOLECULE
NONAME
41 43 1 0 0 
SMALL
USER_CHARGES


@<TRIPOS>ATOM
  1 O        0.1510    -0.3100     0.0820 O.co2 1 <1>  -0.9000 
  2 C        1.2670    -0.4860    -0.4210 C.2   1 <1>   0.9060 
  3 O        1.4170    -0.6490    -1.6320 O.co2 1 <1>  -0.9000 
  4 C        2.4640    -0.4220     0.5170 C.3   1 <1>  -0.1860 
  5 C        3.0350     1.1280     0.8930 C.3   1 <1>  -0.0190 
  6 C        3.7360    -1.3010    -0.0370 C.3   1 <1>  -0.0800 
  7 C        2.2150     2.3900     0.5540 C.2   1 <1>   0.5690 
  8 C        4.5910     1.2010     0.3620 C.3   1 <1>  -0.0800 
  9 C        4.1670    -0.0570     0.1860 C.3   1 <1>  -0.1600 
 10 C        5.2970    -1.2170    -0.5160 C.3   1 <1>  -0.1600 
 11 O        2.8060     3.4470     0.5260 O.2   1 <1>  -0.5700 
 12 N        0.8610     2.3180     0.3800 N.am  1 <1>  -0.5470 
 13 C        5.8610     0.3120    -0.1500 C.3   1 <1>  -0.1600 
 14 C       -0.1120     3.2870     0.1040 C.ar  1 <1>   0.1170 
 15 C        0.0430     4.6420     0.3800 C.ar  1 <1>  -0.1500 
 16 C       -1.3050     2.8610    -0.4630 C.ar  1 <1>  -0.1500 
 17 C       -0.9630     5.5530     0.0970 C.ar  1 <1>  -0.1440 
 18 C       -2.3150     3.7600    -0.7510 C.ar  1 <1>  -0.1500 
 19 C       -2.1450     5.1050    -0.4730 C.ar  1 <1>  -0.1500 
 20 C       -0.7660     7.0280     0.4050 C.3   1 <1>  -0.0170 
 21 C       -0.1430     7.7470    -0.7930 C.3   1 <1>  -0.2400 
 22 H        2.1110    -0.8690     1.4310 H     1 <1>   0.0800 
 23 H        3.0760     1.1710     1.9720 H     1 <1>   0.0800 
 24 H        3.7950    -2.0710     0.7180 H     1 <1>   0.0800 
 25 H        4.5230     1.9270    -0.4390 H     1 <1>   0.0800 
 26 H        3.8400     0.2320    -0.9080 H     1 <1>   0.0800 
 27 H        4.4770    -0.3550     1.2790 H     1 <1>   0.0800 
 28 H        5.3560    -1.3890    -1.5810 H     1 <1>   0.0800 
 29 H        5.8950    -1.9710    -0.0290 H     1 <1>   0.0800 
 30 H        0.4880     1.3520     0.3190 H     1 <1>   0.3700 
 31 H        6.6110     0.2580     0.6240 H     1 <1>   0.0800 
 32 H        6.3190     0.7610    -1.0170 H     1 <1>   0.0800 
 33 H        0.9590     4.9840     0.8220 H     1 <1>   0.1500 
 34 H       -1.4300     1.8120    -0.6800 H     1 <1>   0.1500 
 35 H       -3.2300     3.4080    -1.1940 H     1 <1>   0.1500 
 36 H       -2.9330     5.7990    -0.7020 H     1 <1>   0.1500 
 37 H       -0.1240     7.1330     1.2630 H     1 <1>   0.0800 
 38 H       -1.7130     7.4780     0.6470 H     1 <1>   0.0800 
 39 H        0.8120     7.3080    -1.0270 H     1 <1>   0.0800 
 40 H       -0.0020     8.7890    -0.5700 H     1 <1>   0.0800 
 41 H       -0.7820     7.6560    -1.6530 H     1 <1>   0.0800 
@<TRIPOS>BOND
  1   1   2  ar  
  2   2   3  ar  
  3   2   4  1   
  4   4   5  1   
  5   4   6  1   
  6   4  22  1   
  7   5   7  1   
  8   5   8  1   
  9   5  23  1   
 10   6   9  1   
 11   6  10  1   
 12   6  24  1   
 13   7  11  2   
 14   7  12  am  
 15   8   9  1   
 16   8  13  1   
 17   8  25  1   
 18   9  26  1   
 19   9  27  1   
 20  10  13  1   
 21  10  28  1   
 22  10  29  1   
 23  12  14  1   
 24  12  30  1   
 25  13  31  1   
 26  13  32  1   
 27  14  15  ar  
 28  14  16  ar  
 29  15  17  ar  
 30  15  33  1   
 31  16  18  ar  
 32  16  34  1   
 33  17  19  ar  
 34  17  20  1   
 35  18  19  ar  
 36  18  35  1   
 37  19  36  1   
 38  20  21  1   
 39  20  37  1   
 40  20  38  1   
 41  21  39  1   
 42  21  40  1   
 43  21  41  1   
@<TRIPOS>SUBSTRUCTURE
  1 ****  12 GROUP 4 **** **** 0

# MOE 2024.06 (io_trps.svl 2023.06)
