@<TRIPOS>MOLECULE
NONAME
33 33 1 0 0 
SMALL
USER_CHARGES


@<TRIPOS>ATOM
  1 CL      -0.0280    -0.1020    -0.6240 Cl    1 <1>  -0.1770 
  2 C        0.8820     1.3800    -0.4840 C.ar  1 <1>   0.1770 
  3 C        0.2080     2.5790    -0.3610 C.ar  1 <1>  -0.1500 
  4 C        2.2610     1.3310    -0.4980 C.ar  1 <1>  -0.1500 
  5 C        0.9100     3.7750    -0.2400 C.ar  1 <1>  -0.0090 
  6 C        2.9750     2.5090    -0.3910 C.ar  1 <1>  -0.1500 
  7 S        0.0620     5.3710    -0.0820 S.o2  1 <1>   1.4470 
  8 C        2.3030     3.7260    -0.2670 C.ar  1 <1>   0.0830 
  9 O        0.4670     6.0880     1.1040 O.2   1 <1>  -0.6500 
 10 O        0.0030     6.0420    -1.3620 O.2   1 <1>  -0.6500 
 11 N       -1.5160     4.9510     0.3100 N.am  1 <1>  -0.9140 
 12 O        2.9600     4.9080    -0.1740 O.3   1 <1>  -0.3620 
 13 C       -2.4890     5.9380    -0.1200 C.3   1 <1>   0.1960 
 14 C        4.3650     5.0020    -0.1630 C.3   1 <1>   0.1200 
 15 C       -3.8570     5.5500     0.4380 C.3   1 <1>  -0.1600 
 16 C        4.7300     6.4760    -0.0280 C.3   1 <1>  -0.2400 
 17 C       -4.9380     6.5500     0.0100 C.3   1 <1>  -0.2400 
 18 H       -0.8680     2.5680    -0.3640 H     1 <1>   0.1500 
 19 H        2.7610     0.3840    -0.5940 H     1 <1>   0.1500 
 20 H        4.0480     2.4600    -0.4080 H     1 <1>   0.1500 
 21 H       -1.4990     4.9890     1.3280 H     1 <1>   0.4200 
 22 H       -2.5280     5.9630    -1.1980 H     1 <1>   0.0800 
 23 H       -2.2060     6.9160     0.2370 H     1 <1>   0.0800 
 24 H        4.7430     4.5990    -1.0860 H     1 <1>   0.0800 
 25 H        4.7390     4.4400     0.6760 H     1 <1>   0.0800 
 26 H       -3.8140     5.5210     1.5130 H     1 <1>   0.0800 
 27 H       -4.1220     4.5710     0.0770 H     1 <1>   0.0800 
 28 H        4.3370     7.0310    -0.8620 H     1 <1>   0.0800 
 29 H        5.7990     6.5890    -0.0120 H     1 <1>   0.0800 
 30 H        4.3270     6.8740     0.8860 H     1 <1>   0.0800 
 31 H       -4.7060     7.5360     0.3730 H     1 <1>   0.0800 
 32 H       -5.8920     6.2540     0.4110 H     1 <1>   0.0800 
 33 H       -5.0150     6.5840    -1.0630 H     1 <1>   0.0800 
@<TRIPOS>BOND
  1   1   2  1   
  2   2   3  ar  
  3   2   4  ar  
  4   3   5  ar  
  5   3  18  1   
  6   4   6  ar  
  7   4  19  1   
  8   5   7  1   
  9   5   8  ar  
 10   6   8  ar  
 11   6  20  1   
 12   7   9  2   
 13   7  10  2   
 14   7  11  am  
 15   8  12  1   
 16  11  13  1   
 17  11  21  1   
 18  12  14  1   
 19  13  15  1   
 20  13  22  1   
 21  13  23  1   
 22  14  16  1   
 23  14  24  1   
 24  14  25  1   
 25  15  17  1   
 26  15  26  1   
 27  15  27  1   
 28  16  28  1   
 29  16  29  1   
 30  16  30  1   
 31  17  31  1   
 32  17  32  1   
 33  17  33  1   
@<TRIPOS>SUBSTRUCTURE
  1 ****   5 GROUP 4 **** **** 0

# MOE 2024.06 (io_trps.svl 2023.06)
