@<TRIPOS>MOLECULE
NONAME
57 59 1 0 0 
SMALL
USER_CHARGES


@<TRIPOS>ATOM
  1 F       -1.7450    -1.1280     0.2280 F     1 <1>  -0.3400 
  2 C       -2.2030    -2.1970    -0.4170 C.3   1 <1>   1.1640 
  3 F       -3.4760    -2.3180    -0.0600 F     1 <1>  -0.3400 
  4 F       -2.2120    -1.8770    -1.7050 F     1 <1>  -0.3400 
  5 C       -1.3490    -3.4490    -0.1300 C.ar  1 <1>  -0.1440 
  6 C        0.0170    -3.5110    -0.4400 C.ar  1 <1>  -0.1440 
  7 C       -1.9480    -4.5620     0.4610 C.ar  1 <1>  -0.1500 
  8 C        0.7300    -4.6690    -0.1580 C.ar  1 <1>  -0.1500 
  9 C        0.8040    -2.3660    -1.0830 C.3   1 <1>   0.2540 
 10 C       -1.2230    -5.7060     0.7370 C.ar  1 <1>  -0.1500 
 11 C        0.1190    -5.7610     0.4260 C.ar  1 <1>  -0.1500 
 12 N        1.8640    -1.8900    -0.1720 N.3   1 <1>  -0.8100 
 13 C        1.3230    -1.3430     1.0900 C.3   1 <1>   0.1100 
 14 C        2.7520    -0.9200    -0.8410 C.3   1 <1>   0.1100 
 15 C        2.4560    -0.9280     2.0480 C.3   1 <1>   0.3430 
 16 C        3.9050    -0.4850     0.0870 C.3   1 <1>   0.3430 
 17 N        3.4000     0.0470     1.4030 N.4   1 <1>  -0.9590 
 18 C        4.5160     0.4120     2.3150 C.3   1 <1>   0.4860 
 19 C        5.2950     1.5510     1.6890 C.ar  1 <1>  -0.1430 
 20 C        6.4500     1.2860     0.9710 C.ar  1 <1>  -0.1500 
 21 C        4.8680     2.8620     1.8150 C.ar  1 <1>  -0.1500 
 22 C        7.1720     2.2960     0.3590 C.ar  1 <1>   0.0830 
 23 C        5.5800     3.8880     1.2170 C.ar  1 <1>  -0.1500 
 24 O        8.2650     1.8450    -0.3210 O.3   1 <1>  -0.3630 
 25 C        6.7340     3.6270     0.4790 C.ar  1 <1>   0.0830 
 26 C        9.2590     2.6940    -0.8440 C.3   1 <1>   0.1200 
 27 O        7.4240     4.6390    -0.1230 O.3   1 <1>  -0.3630 
 28 C       10.3950     1.8210    -1.3710 C.3   1 <1>  -0.2400 
 29 C        7.1010     6.0000     0.0620 C.3   1 <1>   0.0400 
 30 H       -2.9950    -4.5580     0.7160 H     1 <1>   0.1500 
 31 H        1.7790    -4.7210    -0.3950 H     1 <1>   0.1500 
 32 H        0.1760    -1.5410    -1.3650 H     1 <1>   0.0800 
 33 H        1.2580    -2.7430    -1.9840 H     1 <1>   0.0800 
 34 H       -1.7050    -6.5540     1.1920 H     1 <1>   0.1500 
 35 H        0.6870    -6.6510     0.6360 H     1 <1>   0.1500 
 36 H        0.7260    -2.0910     1.5840 H     1 <1>   0.0800 
 37 H        0.6920    -0.4950     0.8870 H     1 <1>   0.0800 
 38 H        2.1910    -0.0540    -1.1500 H     1 <1>   0.0800 
 39 H        3.1750    -1.3730    -1.7220 H     1 <1>   0.0800 
 40 H        2.9920    -1.8170     2.3370 H     1 <1>   0.0800 
 41 H        2.0250    -0.4940     2.9360 H     1 <1>   0.0800 
 42 H        4.4930     0.2670    -0.4140 H     1 <1>   0.0800 
 43 H        4.5380    -1.3400     0.2600 H     1 <1>   0.0800 
 44 H        2.8860     0.9100     1.1940 H     1 <1>   0.4500 
 45 H        5.1630    -0.4360     2.4720 H     1 <1>   0.0800 
 46 H        4.1290     0.7290     3.2700 H     1 <1>   0.0800 
 47 H        6.8190     0.2800     0.8690 H     1 <1>   0.1500 
 48 H        3.9830     3.1070     2.3790 H     1 <1>   0.1500 
 49 H        5.2140     4.8900     1.3390 H     1 <1>   0.1500 
 50 H        9.6080     3.3390    -0.0560 H     1 <1>   0.0800 
 51 H        8.8270     3.2750    -1.6400 H     1 <1>   0.0800 
 52 H       10.8120     1.2360    -0.5710 H     1 <1>   0.0800 
 53 H       11.1690     2.4440    -1.7810 H     1 <1>   0.0800 
 54 H       10.0320     1.1700    -2.1450 H     1 <1>   0.0800 
 55 H        7.8230     6.5900    -0.4730 H     1 <1>   0.0800 
 56 H        7.1470     6.2330     1.1110 H     1 <1>   0.0800 
 57 H        6.1180     6.1850    -0.3350 H     1 <1>   0.0800 
@<TRIPOS>BOND
  1   1   2  1   
  2   2   3  1   
  3   2   4  1   
  4   2   5  1   
  5   5   6  ar  
  6   5   7  ar  
  7   6   8  ar  
  8   6   9  1   
  9   7  10  ar  
 10   7  30  1   
 11   8  11  ar  
 12   8  31  1   
 13   9  12  1   
 14   9  32  1   
 15   9  33  1   
 16  10  11  ar  
 17  10  34  1   
 18  11  35  1   
 19  12  13  1   
 20  12  14  1   
 21  13  15  1   
 22  13  36  1   
 23  13  37  1   
 24  14  16  1   
 25  14  38  1   
 26  14  39  1   
 27  15  17  1   
 28  15  40  1   
 29  15  41  1   
 30  16  17  1   
 31  16  42  1   
 32  16  43  1   
 33  17  18  1   
 34  17  44  1   
 35  18  19  1   
 36  18  45  1   
 37  18  46  1   
 38  19  20  ar  
 39  19  21  ar  
 40  20  22  ar  
 41  20  47  1   
 42  21  23  ar  
 43  21  48  1   
 44  22  24  1   
 45  22  25  ar  
 46  23  25  ar  
 47  23  49  1   
 48  24  26  1   
 49  25  27  1   
 50  26  28  1   
 51  26  50  1   
 52  26  51  1   
 53  27  29  1   
 54  28  52  1   
 55  28  53  1   
 56  28  54  1   
 57  29  55  1   
 58  29  56  1   
 59  29  57  1   
@<TRIPOS>SUBSTRUCTURE
  1 ****  16 GROUP 4 **** **** 0

# MOE 2024.06 (io_trps.svl 2023.06)
