@<TRIPOS>MOLECULE
NONAME
44 46 1 0 0 
SMALL
USER_CHARGES


@<TRIPOS>ATOM
  1 O       -0.8300     1.0590    -1.0830 O.2   1 <1>  -0.5700 
  2 C       -1.2730     1.9730    -0.4400 C.2   1 <1>   0.6590 
  3 O       -2.5800     2.0200    -0.2240 O.3   1 <1>  -0.4300 
  4 C       -0.3470     3.0720     0.1070 C.3   1 <1>   0.1220 
  5 C       -3.2500     3.0180     0.5080 C.3   1 <1>   0.3440 
  6 C       -1.1580     4.2540     0.6510 C.2   1 <1>   0.4480 
  7 C        0.5740     2.4740     1.2040 C.3   1 <1>  -0.1600 
  8 C        0.6280     3.5850    -0.9880 C.3   1 <1>  -0.1600 
  9 C       -4.7470     2.9180     0.2020 C.ar  1 <1>  -0.1440 
 10 C       -2.6210     4.3980     0.2130 C.3   1 <1>   0.0610 
 11 O       -0.6610     5.0400     1.4060 O.2   1 <1>  -0.5700 
 12 C        1.9820     2.9810     0.9060 C.3   1 <1>  -0.1600 
 13 C        2.0190     3.0790    -0.6120 C.3   1 <1>  -0.1600 
 14 C       -5.2100     2.6090    -1.0710 C.ar  1 <1>  -0.1500 
 15 C       -5.6730     3.1340     1.2150 C.ar  1 <1>  -0.1500 
 16 C       -2.7060     4.8090    -1.2770 C.3   1 <1>  -0.2400 
 17 C       -3.3410     5.5000     1.0290 C.3   1 <1>  -0.2400 
 18 C       -6.5670     2.5310    -1.3270 C.ar  1 <1>  -0.1500 
 19 C       -7.0320     3.0570     0.9620 C.ar  1 <1>  -0.1500 
 20 C       -7.4870     2.7560    -0.3170 C.ar  1 <1>   0.0830 
 21 O       -8.7980     2.6630    -0.6520 O.3   1 <1>  -0.3620 
 22 C       -9.8170     2.8510     0.3050 C.3   1 <1>   0.0400 
 23 H       -3.1020     2.7820     1.5480 H     1 <1>   0.0800 
 24 H        0.5850     1.3990     1.1350 H     1 <1>   0.0800 
 25 H        0.2650     2.7410     2.2010 H     1 <1>   0.0800 
 26 H        0.6510     4.6620    -0.9890 H     1 <1>   0.0800 
 27 H        0.3530     3.2540    -1.9750 H     1 <1>   0.0800 
 28 H        2.7430     2.3220     1.2890 H     1 <1>   0.0800 
 29 H        2.1120     3.9610     1.3350 H     1 <1>   0.0800 
 30 H        2.7990     3.7360    -0.9570 H     1 <1>   0.0800 
 31 H        2.1710     2.0980    -1.0310 H     1 <1>   0.0800 
 32 H       -4.5160     2.4220    -1.8730 H     1 <1>   0.1500 
 33 H       -5.3420     3.3670     2.2120 H     1 <1>   0.1500 
 34 H       -2.2870     4.0620    -1.9270 H     1 <1>   0.0800 
 35 H       -2.1720     5.7300    -1.4360 H     1 <1>   0.0800 
 36 H       -3.7300     4.9650    -1.5690 H     1 <1>   0.0800 
 37 H       -3.3230     5.2700     2.0800 H     1 <1>   0.0800 
 38 H       -4.3650     5.6090     0.7190 H     1 <1>   0.0800 
 39 H       -2.8500     6.4490     0.8900 H     1 <1>   0.0800 
 40 H       -6.9220     2.2930    -2.3130 H     1 <1>   0.1500 
 41 H       -7.7180     3.2320     1.7690 H     1 <1>   0.1500 
 42 H      -10.7640     2.7230    -0.1870 H     1 <1>   0.0800 
 43 H       -9.7430     3.8480     0.7020 H     1 <1>   0.0800 
 44 H       -9.7060     2.1150     1.0820 H     1 <1>   0.0800 
@<TRIPOS>BOND
  1   1   2  2   
  2   2   3  1   
  3   2   4  1   
  4   3   5  1   
  5   4   6  1   
  6   4   7  1   
  7   4   8  1   
  8   5   9  1   
  9   5  10  1   
 10   5  23  1   
 11   6  10  1   
 12   6  11  2   
 13   7  12  1   
 14   7  24  1   
 15   7  25  1   
 16   8  13  1   
 17   8  26  1   
 18   8  27  1   
 19   9  14  ar  
 20   9  15  ar  
 21  10  16  1   
 22  10  17  1   
 23  12  13  1   
 24  12  28  1   
 25  12  29  1   
 26  13  30  1   
 27  13  31  1   
 28  14  18  ar  
 29  14  32  1   
 30  15  19  ar  
 31  15  33  1   
 32  16  34  1   
 33  16  35  1   
 34  16  36  1   
 35  17  37  1   
 36  17  38  1   
 37  17  39  1   
 38  18  20  ar  
 39  18  40  1   
 40  19  20  ar  
 41  19  41  1   
 42  20  21  1   
 43  21  22  1   
 44  22  42  1   
 45  22  43  1   
 46  22  44  1   
@<TRIPOS>SUBSTRUCTURE
  1 ****   5 GROUP 4 **** **** 0

# MOE 2024.06 (io_trps.svl 2023.06)
