@<TRIPOS>MOLECULE
NONAME
30 31 1 0 0 
SMALL
USER_CHARGES


@<TRIPOS>ATOM
  1 F       -0.0950    -1.0190     1.7440 F     1 <1>  -0.3400 
  2 C       -0.2650    -1.6490     0.5740 C.3   1 <1>   0.6800 
  3 F       -0.4840    -2.9210     0.9330 F     1 <1>  -0.3400 
  4 C       -1.5230    -1.0730    -0.1660 C.3   1 <1>   0.5600 
  5 C        1.0230    -1.5870    -0.2810 C.3   1 <1>   0.6000 
  6 O       -2.7120    -1.5250     0.4700 O.3   1 <1>  -0.3630 
  7 O       -1.6110    -1.6050    -1.4470 O.3   1 <1>  -0.6800 
  8 C       -1.5450     0.4620    -0.2750 C.3   1 <1>  -0.0990 
  9 F        2.0640    -2.1540     0.3300 F     1 <1>  -0.3400 
 10 F        1.4160    -0.3300    -0.4910 F     1 <1>  -0.3400 
 11 C       -3.9260    -1.0060     0.1820 C.ar  1 <1>   0.0830 
 12 C       -2.8660     0.9610    -0.8090 C.2   1 <1>   0.4230 
 13 C       -4.0470     0.2210    -0.4760 C.ar  1 <1>   0.0860 
 14 C       -5.0450    -1.7320     0.5480 C.ar  1 <1>  -0.1500 
 15 O       -2.8600     1.9610    -1.4790 O.2   1 <1>  -0.5700 
 16 C       -5.3330     0.6760    -0.7740 C.ar  1 <1>  -0.1500 
 17 C       -6.3130    -1.2660     0.2530 C.ar  1 <1>   0.0830 
 18 C       -6.4530    -0.0510    -0.4180 C.ar  1 <1>  -0.1500 
 19 O       -7.3540    -2.0350     0.6380 O.3   1 <1>  -0.3630 
 20 C       -8.6920    -1.6560     0.4040 C.3   1 <1>   0.0400 
 21 H        0.9060    -2.0570    -1.2400 H     1 <1>   0.0800 
 22 H       -2.5500    -1.6050    -1.7180 H     1 <1>   0.4000 
 23 H       -0.7580     0.8040    -0.9200 H     1 <1>   0.0800 
 24 H       -1.3880     0.9030     0.6920 H     1 <1>   0.0800 
 25 H       -4.9340    -2.6690     1.0630 H     1 <1>   0.1500 
 26 H       -5.4460     1.6160    -1.2880 H     1 <1>   0.1500 
 27 H       -7.4240     0.3360    -0.6650 H     1 <1>   0.1500 
 28 H       -9.3310    -2.4210     0.8050 H     1 <1>   0.0800 
 29 H       -8.8490    -1.5680    -0.6570 H     1 <1>   0.0800 
 30 H       -8.8830    -0.7220     0.9020 H     1 <1>   0.0800 
@<TRIPOS>BOND
  1   1   2  1   
  2   2   3  1   
  3   2   4  1   
  4   2   5  1   
  5   4   6  1   
  6   4   7  1   
  7   4   8  1   
  8   5   9  1   
  9   5  10  1   
 10   5  21  1   
 11   6  11  1   
 12   7  22  1   
 13   8  12  1   
 14   8  23  1   
 15   8  24  1   
 16  11  13  ar  
 17  11  14  ar  
 18  12  13  1   
 19  12  15  2   
 20  13  16  ar  
 21  14  17  ar  
 22  14  25  1   
 23  16  18  ar  
 24  16  26  1   
 25  17  18  ar  
 26  17  19  1   
 27  18  27  1   
 28  19  20  1   
 29  20  28  1   
 30  20  29  1   
 31  20  30  1   
@<TRIPOS>SUBSTRUCTURE
  1 ****   6 GROUP 4 **** **** 0

# MOE 2024.06 (io_trps.svl 2023.06)
