@<TRIPOS>MOLECULE
NONAME
46 48 1 0 0 
SMALL
USER_CHARGES


@<TRIPOS>ATOM
  1 S        0.0010     0.1370     0.2370 S.o2  1 <1>   1.4470 
  2 O        0.5450     0.3080     1.5650 O.2   1 <1>  -0.6500 
  3 O        0.6300     0.8100    -0.8800 O.2   1 <1>  -0.6500 
  4 N       -1.6070     0.6660     0.2960 N.am  1 <1>  -0.8490 
  5 C       -0.1790    -1.6320    -0.1210 C.ar  1 <1>  -0.0090 
  6 C       -2.2740     0.7520    -0.9920 C.3   1 <1>   0.1960 
  7 C       -1.7540     1.9780     0.8980 C.3   1 <1>   0.1960 
  8 C       -1.1700    -2.3810     0.4950 C.ar  1 <1>  -0.1500 
  9 C        0.6610    -2.2840    -1.0110 C.ar  1 <1>  -0.1500 
 10 C       -3.5290     1.5630    -0.7010 C.3   1 <1>  -0.1600 
 11 C       -3.1620     2.4220     0.5110 C.3   1 <1>  -0.1600 
 12 C       -1.3810    -3.7350     0.2330 C.ar  1 <1>   0.0860 
 13 C        0.4970    -3.6300    -1.2830 C.ar  1 <1>  -0.1500 
 14 C       -0.5150    -4.3560    -0.6780 C.ar  1 <1>  -0.1440 
 15 C       -2.4910    -4.4070     0.8920 C.2   1 <1>   0.5440 
 16 C       -0.6600    -5.8310    -1.0350 C.3   1 <1>  -0.0960 
 17 O       -2.4000    -5.5320     1.3410 O.2   1 <1>  -0.5700 
 18 N       -3.6810    -3.7590     1.0190 N.am  1 <1>  -0.7300 
 19 C       -4.9320    -4.3200     1.5660 C.3   1 <1>   0.2840 
 20 C       -6.1150    -3.7590     0.7820 C.ar  1 <1>   0.1670 
 21 N       -6.1920    -2.4350     0.6750 N.ar  1 <1>  -0.6200 
 22 C       -7.0330    -4.6330     0.2170 C.ar  1 <1>  -0.1500 
 23 C       -7.2260    -1.9740    -0.0110 C.ar  1 <1>   0.1600 
 24 C       -8.1020    -4.1360    -0.4960 C.ar  1 <1>  -0.1500 
 25 C       -8.1920    -2.7660    -0.6070 C.ar  1 <1>  -0.1500 
 26 H       -2.5070    -0.2250    -1.3800 H     1 <1>   0.0800 
 27 H       -1.6580     1.2850    -1.6990 H     1 <1>   0.0800 
 28 H       -1.0270     2.6570     0.4810 H     1 <1>   0.0800 
 29 H       -1.6250     1.9280     1.9670 H     1 <1>   0.0800 
 30 H       -1.8070    -1.8860     1.2090 H     1 <1>   0.1500 
 31 H        1.4500    -1.7330    -1.4970 H     1 <1>   0.1500 
 32 H       -4.3350     0.8950    -0.4510 H     1 <1>   0.0800 
 33 H       -3.8120     2.1570    -1.5520 H     1 <1>   0.0800 
 34 H       -3.1750     3.4720     0.2800 H     1 <1>   0.0800 
 35 H       -3.8410     2.2330     1.3240 H     1 <1>   0.0800 
 36 H        1.1670    -4.1070    -1.9780 H     1 <1>   0.1500 
 37 H       -1.6790    -6.0510    -1.3020 H     1 <1>   0.0800 
 38 H       -0.3890    -6.4390    -0.1900 H     1 <1>   0.0800 
 39 H       -0.0300    -6.0980    -1.8630 H     1 <1>   0.0800 
 40 H       -3.8300    -2.8350     0.6040 H     1 <1>   0.3700 
 41 H       -5.0240    -4.0320     2.5980 H     1 <1>   0.0800 
 42 H       -4.9100    -5.3950     1.5080 H     1 <1>   0.0800 
 43 H       -6.9140    -5.6950     0.3320 H     1 <1>   0.1500 
 44 H       -7.3090    -0.9040    -0.1040 H     1 <1>   0.1500 
 45 H       -8.8320    -4.7870    -0.9460 H     1 <1>   0.1500 
 46 H       -9.0020    -2.3130    -1.1490 H     1 <1>   0.1500 
@<TRIPOS>BOND
  1   1   2  2   
  2   1   3  2   
  3   1   4  am  
  4   1   5  1   
  5   4   6  1   
  6   4   7  1   
  7   5   8  ar  
  8   5   9  ar  
  9   6  10  1   
 10   6  26  1   
 11   6  27  1   
 12   7  11  1   
 13   7  28  1   
 14   7  29  1   
 15   8  12  ar  
 16   8  30  1   
 17   9  13  ar  
 18   9  31  1   
 19  10  11  1   
 20  10  32  1   
 21  10  33  1   
 22  11  34  1   
 23  11  35  1   
 24  12  14  ar  
 25  12  15  1   
 26  13  14  ar  
 27  13  36  1   
 28  14  16  1   
 29  15  17  2   
 30  15  18  am  
 31  16  37  1   
 32  16  38  1   
 33  16  39  1   
 34  18  19  1   
 35  18  40  1   
 36  19  20  1   
 37  19  41  1   
 38  19  42  1   
 39  20  21  ar  
 40  20  22  ar  
 41  21  23  ar  
 42  22  24  ar  
 43  22  43  1   
 44  23  25  ar  
 45  23  44  1   
 46  24  25  ar  
 47  24  45  1   
 48  25  46  1   
@<TRIPOS>SUBSTRUCTURE
  1 ****   8 GROUP 4 **** **** 0

# MOE 2024.06 (io_trps.svl 2023.06)
