@<TRIPOS>MOLECULE
NONAME
48 49 1 0 0 
SMALL
USER_CHARGES


@<TRIPOS>ATOM
  1 O       -0.1880     0.4910    -0.9560 O.2   1 <1>  -0.5700 
  2 C       -0.2250     1.5560    -0.3720 C.2   1 <1>   0.6160 
  3 N        0.9160     2.0070     0.2310 N.am  1 <1>  -0.7300 
  4 C       -1.4350     2.3370    -0.3210 C.2   1 <1>   0.0790 
  5 C        2.2370     1.3470     0.1740 C.3   1 <1>   0.2200 
  6 C       -2.6250     1.5470    -0.2540 C.1   1 <1>   0.4920 
  7 C       -1.4390     3.7010    -0.3150 C.2   1 <1>  -0.1780 
  8 C        3.3100     2.3500    -0.3020 C.3   1 <1>  -0.0800 
  9 C        2.5590     0.7980     1.5680 C.3   1 <1>  -0.1600 
 10 N       -3.6030     0.9610    -0.1890 N.1   1 <1>  -0.5570 
 11 C       -2.5360     4.6320    -0.2730 C.ar  1 <1>   0.0280 
 12 C        4.7060     1.7020    -0.2550 C.3   1 <1>  -0.1600 
 13 C        3.0290     2.8650    -1.7230 C.3   1 <1>  -0.2400 
 14 C        3.9540     0.1600     1.6080 C.3   1 <1>  -0.1600 
 15 C       -3.7540     4.4160    -0.9220 C.ar  1 <1>  -0.1500 
 16 C       -2.3920     5.8300     0.4270 C.ar  1 <1>  -0.1500 
 17 C        5.0280     1.1500     1.1400 C.3   1 <1>  -0.1600 
 18 C       -4.7770     5.3420    -0.8580 C.ar  1 <1>  -0.1500 
 19 C       -3.4100     6.7630     0.4940 C.ar  1 <1>  -0.1500 
 20 C       -4.6190     6.5220    -0.1510 C.ar  1 <1>   0.0820 
 21 O       -5.6680     7.3750    -0.1400 O.3   1 <1>  -0.3620 
 22 C       -5.6270     8.5980     0.5570 C.3   1 <1>   0.2580 
 23 C       -6.9570     9.2970     0.3620 C.2   1 <1>  -0.2880 
 24 C       -7.7770     9.6960     1.3400 C.2   1 <1>  -0.3000 
 25 H        0.8900     2.8450     0.8090 H     1 <1>   0.3700 
 26 H        2.2030     0.5240    -0.5210 H     1 <1>   0.0800 
 27 H       -0.4890     4.2030    -0.3470 H     1 <1>   0.1500 
 28 H        3.3170     3.1890     0.3730 H     1 <1>   0.0800 
 29 H        2.5190     1.5940     2.2900 H     1 <1>   0.0800 
 30 H        1.8250     0.0570     1.8340 H     1 <1>   0.0800 
 31 H        4.7530     0.8980    -0.9710 H     1 <1>   0.0800 
 32 H        5.4530     2.4280    -0.5280 H     1 <1>   0.0800 
 33 H        2.9840     2.0450    -2.4180 H     1 <1>   0.0800 
 34 H        3.8060     3.5400    -2.0380 H     1 <1>   0.0800 
 35 H        2.0930     3.3930    -1.7610 H     1 <1>   0.0800 
 36 H        4.1750    -0.1670     2.6090 H     1 <1>   0.0800 
 37 H        3.9670    -0.7080     0.9690 H     1 <1>   0.0800 
 38 H       -3.9130     3.5210    -1.4950 H     1 <1>   0.1500 
 39 H       -1.4650     6.0340     0.9330 H     1 <1>   0.1500 
 40 H        5.9850     0.6590     1.1210 H     1 <1>   0.0800 
 41 H        5.0920     1.9650     1.8410 H     1 <1>   0.0800 
 42 H       -5.7100     5.1560    -1.3590 H     1 <1>   0.1500 
 43 H       -3.2470     7.6670     1.0500 H     1 <1>   0.1500 
 44 H       -5.4510     8.3920     1.5990 H     1 <1>   0.0800 
 45 H       -4.8270     9.1930     0.1530 H     1 <1>   0.0800 
 46 H       -7.1850     9.4420    -0.6810 H     1 <1>   0.1500 
 47 H       -8.7190    10.1890     1.1680 H     1 <1>   0.1500 
 48 H       -7.5820     9.5630     2.3900 H     1 <1>   0.1500 
@<TRIPOS>BOND
  1   1   2  2   
  2   2   3  am  
  3   2   4  1   
  4   3   5  1   
  5   3  25  1   
  6   4   6  1   
  7   4   7  2   
  8   5   8  1   
  9   5   9  1   
 10   5  26  1   
 11   6  10  3   
 12   7  11  1   
 13   7  27  1   
 14   8  12  1   
 15   8  13  1   
 16   8  28  1   
 17   9  14  1   
 18   9  29  1   
 19   9  30  1   
 20  11  15  ar  
 21  11  16  ar  
 22  12  17  1   
 23  12  31  1   
 24  12  32  1   
 25  13  33  1   
 26  13  34  1   
 27  13  35  1   
 28  14  17  1   
 29  14  36  1   
 30  14  37  1   
 31  15  18  ar  
 32  15  38  1   
 33  16  19  ar  
 34  16  39  1   
 35  17  40  1   
 36  17  41  1   
 37  18  20  ar  
 38  18  42  1   
 39  19  20  ar  
 40  19  43  1   
 41  20  21  1   
 42  21  22  1   
 43  22  23  1   
 44  22  44  1   
 45  22  45  1   
 46  23  24  2   
 47  23  46  1   
 48  24  47  1   
 49  24  48  1   
@<TRIPOS>SUBSTRUCTURE
  1 ****   7 GROUP 4 **** **** 0

# MOE 2024.06 (io_trps.svl 2023.06)
