@<TRIPOS>MOLECULE
NONAME
54 57 1 0 0 
SMALL
USER_CHARGES


@<TRIPOS>ATOM
  1 O        0.5140    -1.0890    -2.3810 O.2   1 <1>  -0.5700 
  2 C        0.7040    -2.0210    -1.6340 C.2   1 <1>   0.5690 
  3 N        1.8490    -2.2470    -0.9210 N.am  1 <1>  -0.2370 
  4 C       -0.3120    -3.1580    -1.4360 C.3   1 <1>   0.2510 
  5 C        2.9170    -1.3290    -0.7860 C.ar  1 <1>   0.1170 
  6 C        1.8030    -3.5010    -0.3760 C.2   1 <1>   0.5690 
  7 N       -1.5030    -2.8540    -0.5840 N.3   1 <1>  -0.8100 
  8 C        0.5340    -4.2290    -0.7340 C.3   1 <1>  -0.0990 
  9 C        4.2380    -1.7350    -0.9600 C.ar  1 <1>  -0.1500 
 10 C        2.6690     0.0050    -0.4750 C.ar  1 <1>  -0.1500 
 11 O        2.6580    -4.0230     0.2920 O.2   1 <1>  -0.5700 
 12 C       -2.5230    -3.9130    -0.7150 C.3   1 <1>   0.1100 
 13 C       -2.0920    -1.5290    -0.8600 C.3   1 <1>   0.1100 
 14 C        5.2820    -0.8370    -0.8240 C.ar  1 <1>  -0.1500 
 15 C        3.7080     0.9080    -0.3370 C.ar  1 <1>  -0.1500 
 16 C       -3.6410    -3.6930     0.3040 C.3   1 <1>  -0.1600 
 17 C       -3.2100    -1.2290     0.1410 C.3   1 <1>  -0.1600 
 18 C        5.0180     0.4890    -0.5030 C.ar  1 <1>   0.0830 
 19 C       -4.3000    -2.3140     0.1200 C.3   1 <1>  -0.0190 
 20 O        6.0110     1.4030    -0.3610 O.3   1 <1>  -0.1650 
 21 C       -5.3920    -2.0280     1.1500 C.2   1 <1>   0.6590 
 22 C        7.1740     1.1030     0.2710 C.ar  1 <1>   0.0830 
 23 O       -5.5930    -2.7350     2.1050 O.2   1 <1>  -0.5700 
 24 O       -6.1220    -0.9420     0.9200 O.3   1 <1>  -0.4300 
 25 C        8.3380     1.7040    -0.1850 C.ar  1 <1>  -0.1500 
 26 C        7.2250     0.2350     1.3570 C.ar  1 <1>  -0.1500 
 27 C       -7.1670    -0.5530     1.7870 C.3   1 <1>   0.0400 
 28 C        9.5480     1.4320     0.4290 C.ar  1 <1>  -0.1500 
 29 C        8.4360    -0.0360     1.9690 C.ar  1 <1>  -0.1500 
 30 C        9.5970     0.5610     1.5050 C.ar  1 <1>  -0.1500 
 31 H       -0.6330    -3.4960    -2.4060 H     1 <1>   0.0800 
 32 H        0.7690    -5.0340    -1.4040 H     1 <1>   0.0800 
 33 H        0.0760    -4.6110     0.1600 H     1 <1>   0.0800 
 34 H        4.4540    -2.7610    -1.2010 H     1 <1>   0.1500 
 35 H        1.6560     0.3420    -0.3440 H     1 <1>   0.1500 
 36 H       -2.0840    -4.8790    -0.5350 H     1 <1>   0.0800 
 37 H       -2.9310    -3.9080    -1.7120 H     1 <1>   0.0800 
 38 H       -2.4700    -1.4940    -1.8680 H     1 <1>   0.0800 
 39 H       -1.3480    -0.7580    -0.7500 H     1 <1>   0.0800 
 40 H        6.2960    -1.1640    -0.9690 H     1 <1>   0.1500 
 41 H        3.5090     1.9380    -0.1010 H     1 <1>   0.1500 
 42 H       -3.2280    -3.7730     1.2960 H     1 <1>   0.0800 
 43 H       -4.3820    -4.4650     0.1960 H     1 <1>   0.0800 
 44 H       -3.6440    -0.2730    -0.0940 H     1 <1>   0.0800 
 45 H       -2.7830    -1.1630     1.1270 H     1 <1>   0.0800 
 46 H       -4.7720    -2.2980    -0.8460 H     1 <1>   0.0800 
 47 H        8.2900     2.3800    -1.0190 H     1 <1>   0.1500 
 48 H        6.3250    -0.2230     1.7270 H     1 <1>   0.1500 
 49 H       -7.6110     0.3480     1.4050 H     1 <1>   0.0800 
 50 H       -6.7580    -0.3800     2.7680 H     1 <1>   0.0800 
 51 H       -7.8990    -1.3420     1.8250 H     1 <1>   0.0800 
 52 H       10.4500     1.8980     0.0720 H     1 <1>   0.1500 
 53 H        8.4760    -0.7100     2.8070 H     1 <1>   0.1500 
 54 H       10.5380     0.3490     1.9820 H     1 <1>   0.1500 
@<TRIPOS>BOND
  1   1   2  2   
  2   2   3  am  
  3   2   4  1   
  4   3   5  1   
  5   3   6  am  
  6   4   7  1   
  7   4   8  1   
  8   4  31  1   
  9   5   9  ar  
 10   5  10  ar  
 11   6   8  1   
 12   6  11  2   
 13   7  12  1   
 14   7  13  1   
 15   8  32  1   
 16   8  33  1   
 17   9  14  ar  
 18   9  34  1   
 19  10  15  ar  
 20  10  35  1   
 21  12  16  1   
 22  12  36  1   
 23  12  37  1   
 24  13  17  1   
 25  13  38  1   
 26  13  39  1   
 27  14  18  ar  
 28  14  40  1   
 29  15  18  ar  
 30  15  41  1   
 31  16  19  1   
 32  16  42  1   
 33  16  43  1   
 34  17  19  1   
 35  17  44  1   
 36  17  45  1   
 37  18  20  1   
 38  19  21  1   
 39  19  46  1   
 40  20  22  1   
 41  21  23  2   
 42  21  24  1   
 43  22  25  ar  
 44  22  26  ar  
 45  24  27  1   
 46  25  28  ar  
 47  25  47  1   
 48  26  29  ar  
 49  26  48  1   
 50  27  49  1   
 51  27  50  1   
 52  27  51  1   
 53  28  30  ar  
 54  28  52  1   
 55  29  30  ar  
 56  29  53  1   
 57  30  54  1   
@<TRIPOS>SUBSTRUCTURE
  1 ****   3 GROUP 4 **** **** 0

# MOE 2024.06 (io_trps.svl 2023.06)
