@<TRIPOS>MOLECULE
NONAME
45 47 1 0 0 
SMALL
USER_CHARGES


@<TRIPOS>ATOM
  1 CL      -2.5750     0.4640     3.8770 Cl    1 <1>  -0.1770 
  2 C       -3.0780     0.9260     2.2720 C.ar  1 <1>   0.1770 
  3 C       -4.3280     0.5590     1.8220 C.ar  1 <1>  -0.1500 
  4 C       -2.2070     1.6560     1.4790 C.ar  1 <1>  -0.1500 
  5 C       -4.7460     0.9220     0.5400 C.ar  1 <1>   0.0860 
  6 C       -2.6030     2.0240     0.2080 C.ar  1 <1>  -0.1500 
  7 C       -6.0380     0.5850     0.0040 C.2   1 <1>   0.4690 
  8 C       -3.8610     1.6610    -0.2600 C.ar  1 <1>   0.0830 
  9 O       -6.8910     0.0110     0.6590 O.2   1 <1>  -0.5700 
 10 C       -6.3150     0.9920    -1.3370 C.2   1 <1>  -0.1240 
 11 O       -4.2190     2.0350    -1.5080 O.3   1 <1>  -0.1590 
 12 C       -5.3980     1.6980    -2.0340 C.2   1 <1>  -0.0730 
 13 C       -7.6560     0.5850    -1.9240 C.3   1 <1>   0.4810 
 14 N       -8.7660     1.0760    -1.0620 N.4   1 <1>  -0.9590 
 15 C      -10.0630     0.4270    -1.3910 C.3   1 <1>   0.3430 
 16 C       -8.8540     2.5630    -1.0120 C.3   1 <1>   0.3430 
 17 C      -11.1000     0.8030    -0.3340 C.3   1 <1>  -0.1600 
 18 C       -9.8680     2.9710     0.0530 C.3   1 <1>  -0.1600 
 19 C      -11.2500     2.3290    -0.1870 C.3   1 <1>  -0.0190 
 20 C      -12.2520     2.6700     0.9140 C.2   1 <1>   0.6590 
 21 O      -11.9030     3.0290     2.0080 O.2   1 <1>  -0.5700 
 22 O      -13.5270     2.5290     0.5840 O.3   1 <1>  -0.4300 
 23 C      -14.5580     2.8000     1.5070 C.3   1 <1>   0.1200 
 24 C      -15.8920     2.5350     0.8170 C.3   1 <1>  -0.2400 
 25 H       -4.9790    -0.0080     2.4650 H     1 <1>   0.1500 
 26 H       -1.2380     1.9270     1.8610 H     1 <1>   0.1500 
 27 H       -1.9420     2.5910    -0.4250 H     1 <1>   0.1500 
 28 H       -5.5220     2.0420    -3.0490 H     1 <1>   0.1500 
 29 H       -7.6920    -0.4920    -1.9750 H     1 <1>   0.0800 
 30 H       -7.7600     0.9760    -2.9230 H     1 <1>   0.0800 
 31 H       -8.4970     0.7510    -0.1090 H     1 <1>   0.4500 
 32 H       -9.9460    -0.6450    -1.4090 H     1 <1>   0.0800 
 33 H      -10.4000     0.7510    -2.3620 H     1 <1>   0.0800 
 34 H       -9.1610     2.9460    -1.9720 H     1 <1>   0.0800 
 35 H       -7.8930     2.9860    -0.7660 H     1 <1>   0.0800 
 36 H      -10.8170     0.3700     0.6110 H     1 <1>   0.0800 
 37 H      -12.0500     0.3760    -0.6100 H     1 <1>   0.0800 
 38 H       -9.9680     4.0430     0.0530 H     1 <1>   0.0800 
 39 H       -9.4900     2.6880     1.0220 H     1 <1>   0.0800 
 40 H      -11.6490     2.7240    -1.1040 H     1 <1>   0.0800 
 41 H      -14.4790     3.8300     1.8140 H     1 <1>   0.0800 
 42 H      -14.4300     2.1580     2.3620 H     1 <1>   0.0800 
 43 H      -16.0030     3.1760    -0.0390 H     1 <1>   0.0800 
 44 H      -16.6980     2.7350     1.5000 H     1 <1>   0.0800 
 45 H      -15.9550     1.5060     0.5090 H     1 <1>   0.0800 
@<TRIPOS>BOND
  1   1   2  1   
  2   2   3  ar  
  3   2   4  ar  
  4   3   5  ar  
  5   3  25  1   
  6   4   6  ar  
  7   4  26  1   
  8   5   7  1   
  9   5   8  ar  
 10   6   8  ar  
 11   6  27  1   
 12   7   9  2   
 13   7  10  1   
 14   8  11  1   
 15  10  12  2   
 16  10  13  1   
 17  11  12  1   
 18  12  28  1   
 19  13  14  1   
 20  13  29  1   
 21  13  30  1   
 22  14  15  1   
 23  14  16  1   
 24  14  31  1   
 25  15  17  1   
 26  15  32  1   
 27  15  33  1   
 28  16  18  1   
 29  16  34  1   
 30  16  35  1   
 31  17  19  1   
 32  17  36  1   
 33  17  37  1   
 34  18  19  1   
 35  18  38  1   
 36  18  39  1   
 37  19  20  1   
 38  19  40  1   
 39  20  21  2   
 40  20  22  1   
 41  22  23  1   
 42  23  24  1   
 43  23  41  1   
 44  23  42  1   
 45  24  43  1   
 46  24  44  1   
 47  24  45  1   
@<TRIPOS>SUBSTRUCTURE
  1 ****  14 GROUP 4 **** **** 0

# MOE 2024.06 (io_trps.svl 2023.06)
