@<TRIPOS>MOLECULE
NONAME
43 44 1 0 0 
SMALL
USER_CHARGES


@<TRIPOS>ATOM
  1 O       -7.0850     0.2820    -0.7720 O.3   1 <1>  -0.3630 
  2 C       -6.0890     1.1390    -0.4500 C.ar  1 <1>   0.0830 
  3 C       -8.2930     0.4480    -0.0580 C.3   1 <1>   0.1200 
  4 C       -5.3950     1.0720     0.7620 C.ar  1 <1>   0.0820 
  5 C       -5.7690     2.1230    -1.3700 C.ar  1 <1>  -0.1500 
  6 C       -9.2940    -0.5960    -0.5500 C.3   1 <1>   0.1200 
  7 O       -5.6100     0.1170     1.7000 O.3   1 <1>  -0.3630 
  8 C       -4.4290     2.0210     1.0490 C.ar  1 <1>  -0.1500 
  9 C       -4.7890     3.0580    -1.0840 C.ar  1 <1>  -0.1500 
 10 O      -10.4760    -0.4750     0.1670 O.3   1 <1>  -0.6800 
 11 C       -5.4650    -1.2330     1.3090 C.3   1 <1>   0.0400 
 12 C       -4.1160     3.0140     0.1300 C.ar  1 <1>  -0.1430 
 13 C       -3.0430     4.0280     0.4500 C.3   1 <1>   0.4860 
 14 N       -1.7620     3.4240     0.0440 N.4   1 <1>  -0.9060 
 15 C       -0.5750     4.2620     0.2930 C.3   1 <1>   0.4860 
 16 C        0.6130     3.4630    -0.1860 C.ar  1 <1>  -0.1430 
 17 C        1.2720     2.6030     0.6810 C.ar  1 <1>  -0.1500 
 18 C        1.0480     3.5770    -1.4990 C.ar  1 <1>  -0.1500 
 19 C        2.3490     1.8570     0.2360 C.ar  1 <1>  -0.1500 
 20 C        2.1260     2.8300    -1.9410 C.ar  1 <1>  -0.1500 
 21 C        2.7750     1.9700    -1.0750 C.ar  1 <1>  -0.1500 
 22 H       -8.6620     1.4410    -0.2470 H     1 <1>   0.0800 
 23 H       -8.0920     0.3170     0.9900 H     1 <1>   0.0800 
 24 H       -6.3000     2.1550    -2.3060 H     1 <1>   0.1500 
 25 H       -8.9140    -1.5920    -0.4100 H     1 <1>   0.0800 
 26 H       -9.5230    -0.4330    -1.5900 H     1 <1>   0.0800 
 27 H       -3.9330     1.9580     2.0020 H     1 <1>   0.1500 
 28 H       -4.5710     3.8160    -1.8180 H     1 <1>   0.1500 
 29 H      -10.3460    -0.7250     1.1030 H     1 <1>   0.4000 
 30 H       -5.4090    -1.8360     2.1970 H     1 <1>   0.0800 
 31 H       -6.3150    -1.5310     0.7230 H     1 <1>   0.0800 
 32 H       -4.5600    -1.3380     0.7360 H     1 <1>   0.0800 
 33 H       -3.0450     4.2430     1.5070 H     1 <1>   0.0800 
 34 H       -3.2240     4.9410    -0.0950 H     1 <1>   0.0800 
 35 H       -1.7970     3.1810    -0.9520 H     1 <1>   0.4500 
 36 H       -1.6420     2.5260     0.5250 H     1 <1>   0.4500 
 37 H       -0.4740     4.4780     1.3440 H     1 <1>   0.0800 
 38 H       -0.6400     5.1890    -0.2540 H     1 <1>   0.0800 
 39 H        0.9650     2.5000     1.7090 H     1 <1>   0.1500 
 40 H        0.5640     4.2430    -2.1940 H     1 <1>   0.1500 
 41 H        2.8620     1.1890     0.9080 H     1 <1>   0.1500 
 42 H        2.4660     2.9170    -2.9600 H     1 <1>   0.1500 
 43 H        3.6150     1.3900    -1.4200 H     1 <1>   0.1500 
@<TRIPOS>BOND
  1   1   2  1   
  2   1   3  1   
  3   2   4  ar  
  4   2   5  ar  
  5   3   6  1   
  6   3  22  1   
  7   3  23  1   
  8   4   7  1   
  9   4   8  ar  
 10   5   9  ar  
 11   5  24  1   
 12   6  10  1   
 13   6  25  1   
 14   6  26  1   
 15   7  11  1   
 16   8  12  ar  
 17   8  27  1   
 18   9  12  ar  
 19   9  28  1   
 20  10  29  1   
 21  11  30  1   
 22  11  31  1   
 23  11  32  1   
 24  12  13  1   
 25  13  14  1   
 26  13  33  1   
 27  13  34  1   
 28  14  15  1   
 29  14  35  1   
 30  14  36  1   
 31  15  16  1   
 32  15  37  1   
 33  15  38  1   
 34  16  17  ar  
 35  16  18  ar  
 36  17  19  ar  
 37  17  39  1   
 38  18  20  ar  
 39  18  40  1   
 40  19  21  ar  
 41  19  41  1   
 42  20  21  ar  
 43  20  42  1   
 44  21  43  1   
@<TRIPOS>SUBSTRUCTURE
  1 ****  12 GROUP 4 **** **** 0

# MOE 2024.06 (io_trps.svl 2023.06)
