@<TRIPOS>MOLECULE
NONAME
40 43 1 0 0 
SMALL
USER_CHARGES


@<TRIPOS>ATOM
  1 I        0.8690     0.5160    -1.8140 I     1 <1>  -0.0810 
  2 C        2.3870    -0.6950    -0.9540 C.ar  1 <1>   0.0810 
  3 C        3.6840    -0.2190    -0.9250 C.ar  1 <1>  -0.1500 
  4 C        2.0440    -1.9310    -0.4420 C.ar  1 <1>  -0.1500 
  5 C        4.6660    -1.0160    -0.3650 C.ar  1 <1>  -0.1500 
  6 C        3.0420    -2.7120     0.1130 C.ar  1 <1>  -0.1500 
  7 C        4.3730    -2.2810     0.1600 C.ar  1 <1>   0.0860 
  8 C        5.4030    -3.1270     0.7360 C.2   1 <1>   0.5440 
  9 O        5.1320    -3.9350     1.6020 O.2   1 <1>  -0.5700 
 10 N        6.6940    -3.0390     0.3000 N.am  1 <1>  -0.7300 
 11 C        7.8360    -3.8390     0.7950 C.3   1 <1>   0.2200 
 12 C        9.0040    -2.9100     1.1890 C.3   1 <1>  -0.0800 
 13 C        8.3080    -4.8240    -0.2960 C.3   1 <1>  -0.0800 
 14 C       10.1410    -3.7770     1.7700 C.3   1 <1>  -0.1600 
 15 C        9.5460    -2.1510    -0.0440 C.3   1 <1>  -0.1600 
 16 C        9.4450    -5.6880     0.2870 C.3   1 <1>  -0.1600 
 17 C        8.8500    -4.0640    -1.5290 C.3   1 <1>  -0.1600 
 18 C       10.6250    -4.7910     0.7130 C.3   1 <1>  -0.0800 
 19 C       10.0230    -3.1540    -1.1140 C.3   1 <1>  -0.0800 
 20 C       11.1450    -4.0250    -0.5180 C.3   1 <1>  -0.1600 
 21 H        3.9190     0.7510    -1.3270 H     1 <1>   0.1500 
 22 H        1.0250    -2.2760    -0.4730 H     1 <1>   0.1500 
 23 H        5.6760    -0.6480    -0.3250 H     1 <1>   0.1500 
 24 H        2.7970    -3.6780     0.5220 H     1 <1>   0.1500 
 25 H        6.9160    -2.4670    -0.5110 H     1 <1>   0.3700 
 26 H        7.5240    -4.3970     1.6620 H     1 <1>   0.0800 
 27 H        8.6700    -2.2160     1.9400 H     1 <1>   0.0800 
 28 H        7.4880    -5.4610    -0.5790 H     1 <1>   0.0800 
 29 H        9.7900    -4.3010     2.6420 H     1 <1>   0.0800 
 30 H       10.9600    -3.1490     2.0750 H     1 <1>   0.0800 
 31 H       10.3680    -1.5230     0.2530 H     1 <1>   0.0800 
 32 H        8.7870    -1.5100    -0.4540 H     1 <1>   0.0800 
 33 H        9.7760    -6.4010    -0.4490 H     1 <1>   0.0800 
 34 H        9.0830    -6.2420     1.1360 H     1 <1>   0.0800 
 35 H        9.1850    -4.7700    -2.2680 H     1 <1>   0.0800 
 36 H        8.0700    -3.4780    -1.9800 H     1 <1>   0.0800 
 37 H       11.4140    -5.3970     1.1250 H     1 <1>   0.0800 
 38 H       10.3940    -2.6220    -1.9730 H     1 <1>   0.0800 
 39 H       11.4970    -4.7220    -1.2580 H     1 <1>   0.0800 
 40 H       11.9770    -3.4040    -0.2350 H     1 <1>   0.0800 
@<TRIPOS>BOND
  1   1   2  1   
  2   2   3  ar  
  3   2   4  ar  
  4   3   5  ar  
  5   3  21  1   
  6   4   6  ar  
  7   4  22  1   
  8   5   7  ar  
  9   5  23  1   
 10   6   7  ar  
 11   6  24  1   
 12   7   8  1   
 13   8   9  2   
 14   8  10  am  
 15  10  11  1   
 16  10  25  1   
 17  11  12  1   
 18  11  13  1   
 19  11  26  1   
 20  12  14  1   
 21  12  15  1   
 22  12  27  1   
 23  13  16  1   
 24  13  17  1   
 25  13  28  1   
 26  14  18  1   
 27  14  29  1   
 28  14  30  1   
 29  15  19  1   
 30  15  31  1   
 31  15  32  1   
 32  16  18  1   
 33  16  33  1   
 34  16  34  1   
 35  17  19  1   
 36  17  35  1   
 37  17  36  1   
 38  18  20  1   
 39  18  37  1   
 40  19  20  1   
 41  19  38  1   
 42  20  39  1   
 43  20  40  1   
@<TRIPOS>SUBSTRUCTURE
  1 ****  10 GROUP 4 **** **** 0

# MOE 2024.06 (io_trps.svl 2023.06)
