@<TRIPOS>MOLECULE
NONAME
30 30 1 0 0 
SMALL
USER_CHARGES


@<TRIPOS>ATOM
  1 CL       0.4100     0.7180     1.0780 Cl    1 <1>  -0.1770 
  2 C       -1.2180     1.1840     0.6240 C.ar  1 <1>   0.1770 
  3 C       -2.1350     0.2260     0.2130 C.ar  1 <1>   0.0830 
  4 C       -1.5500     2.5230     0.6900 C.ar  1 <1>  -0.1500 
  5 O       -1.7340    -1.0770     0.1740 O.3   1 <1>  -0.3630 
  6 C       -3.4160     0.6390    -0.1390 C.ar  1 <1>  -0.1500 
  7 C       -2.8320     2.9270     0.3370 C.ar  1 <1>   0.0830 
  8 C       -2.6240    -2.1050    -0.2060 C.3   1 <1>   0.0400 
  9 C       -3.7780     1.9810    -0.0800 C.ar  1 <1>   0.1170 
 10 O       -3.2320     4.2360     0.3770 O.3   1 <1>  -0.3630 
 11 N       -5.0620     2.4470    -0.4240 N.am  1 <1>  -0.5470 
 12 C       -2.3490     5.2540     0.7970 C.3   1 <1>   0.0400 
 13 C       -6.2220     1.8290    -0.7920 C.2   1 <1>   0.5690 
 14 O       -6.3500     0.6350    -0.9020 O.2   1 <1>  -0.5700 
 15 C       -7.4210     2.7150    -1.0810 C.3   1 <1>  -0.0990 
 16 C       -7.9550     3.4280     0.1730 C.3   1 <1>  -0.2400 
 17 H       -0.7970     3.2130     1.0140 H     1 <1>   0.1500 
 18 H       -4.1420    -0.0780    -0.4630 H     1 <1>   0.1500 
 19 H       -2.0970    -3.0400    -0.1490 H     1 <1>   0.0800 
 20 H       -2.9500    -1.9310    -1.2160 H     1 <1>   0.0800 
 21 H       -3.4590    -2.1150     0.4720 H     1 <1>   0.0800 
 22 H       -5.1220     3.4640    -0.3430 H     1 <1>   0.3700 
 23 H       -2.8730     6.1920     0.7540 H     1 <1>   0.0800 
 24 H       -1.5020     5.2800     0.1340 H     1 <1>   0.0800 
 25 H       -2.0410     5.0560     1.8090 H     1 <1>   0.0800 
 26 H       -8.2030     2.1050    -1.4970 H     1 <1>   0.0800 
 27 H       -7.1450     3.4410    -1.8240 H     1 <1>   0.0800 
 28 H       -8.2350     2.7030     0.9170 H     1 <1>   0.0800 
 29 H       -8.8210     4.0150    -0.0770 H     1 <1>   0.0800 
 30 H       -7.2080     4.0800     0.5910 H     1 <1>   0.0800 
@<TRIPOS>BOND
  1   1   2  1   
  2   2   3  ar  
  3   2   4  ar  
  4   3   5  1   
  5   3   6  ar  
  6   4   7  ar  
  7   4  17  1   
  8   5   8  1   
  9   6   9  ar  
 10   6  18  1   
 11   7   9  ar  
 12   7  10  1   
 13   8  19  1   
 14   8  20  1   
 15   8  21  1   
 16   9  11  1   
 17  10  12  1   
 18  11  13  am  
 19  11  22  1   
 20  12  23  1   
 21  12  24  1   
 22  12  25  1   
 23  13  14  2   
 24  13  15  1   
 25  15  16  1   
 26  15  26  1   
 27  15  27  1   
 28  16  28  1   
 29  16  29  1   
 30  16  30  1   
@<TRIPOS>SUBSTRUCTURE
  1 ****   9 GROUP 4 **** **** 0

# MOE 2024.06 (io_trps.svl 2023.06)
