@<TRIPOS>MOLECULE
NONAME
51 53 1 0 0 
SMALL
USER_CHARGES


@<TRIPOS>ATOM
  1 O       -0.4980    -3.6340     0.7340 O.2   1 <1>  -0.5700 
  2 C       -0.9420    -2.5270     0.5380 C.2   1 <1>   0.5690 
  3 N       -0.1260    -1.4750     0.2620 N.am  1 <1>  -0.7300 
  4 C       -2.4510    -2.3170     0.5970 C.3   1 <1>   0.1810 
  5 C        1.3520    -1.5400     0.2100 C.3   1 <1>   0.1400 
  6 O       -2.8080    -1.0120     0.1570 O.3   1 <1>  -0.3620 
  7 C        1.8100    -2.0310    -1.1620 C.3   1 <1>   0.0200 
  8 C       -4.1010    -0.5900     0.1310 C.ar  1 <1>   0.0820 
  9 C        3.2920    -2.3350    -1.1280 C.2   1 <1>   0.0060 
 10 C       -4.3640     0.7050    -0.3210 C.ar  1 <1>  -0.1430 
 11 C       -5.1530    -1.4080     0.5420 C.ar  1 <1>  -0.1500 
 12 N        4.2060    -1.5050    -1.4890 N.2   1 <1>  -0.5650 
 13 N        3.7710    -3.5290    -0.6930 N.pl3 1 <1>   0.0330 
 14 C       -5.6790     1.1470    -0.3470 C.ar  1 <1>  -0.1500 
 15 C       -3.2460     1.6470    -0.7880 C.3   1 <1>   0.0630 
 16 C       -6.4590    -0.9520     0.5110 C.ar  1 <1>  -0.1430 
 17 C        5.3730    -2.1800    -1.2870 C.ar  1 <1>   0.2270 
 18 C        5.1210    -3.4450    -0.7890 C.ar  1 <1>  -0.1520 
 19 C       -6.7170     0.3300     0.0630 C.ar  1 <1>  -0.1500 
 20 C       -3.1630     2.8830     0.1140 C.3   1 <1>  -0.2400 
 21 C       -3.4460     2.0570    -2.2520 C.3   1 <1>  -0.2400 
 22 C       -7.6010    -1.8470     0.9570 C.3   1 <1>  -0.0970 
 23 C        6.6870    -1.7700    -1.5070 C.ar  1 <1>  -0.1500 
 24 C        6.1600    -4.3310    -0.4960 C.ar  1 <1>  -0.1500 
 25 C        7.7200    -2.6370    -1.2220 C.ar  1 <1>  -0.1500 
 26 C        7.4550    -3.9170    -0.7170 C.ar  1 <1>  -0.1500 
 27 H       -0.5640    -0.5710     0.0630 H     1 <1>   0.3700 
 28 H       -2.7830    -2.4370     1.6110 H     1 <1>   0.0800 
 29 H       -2.9340    -3.0340    -0.0400 H     1 <1>   0.0800 
 30 H        1.6970    -2.2210     0.9700 H     1 <1>   0.0800 
 31 H        1.7710    -0.5690     0.4130 H     1 <1>   0.0800 
 32 H        1.6200    -1.2720    -1.8990 H     1 <1>   0.0800 
 33 H        1.2720    -2.9210    -1.4360 H     1 <1>   0.0800 
 34 H       -4.9790    -2.4070     0.8900 H     1 <1>   0.1500 
 35 H        3.2290    -4.3290    -0.3570 H     1 <1>   0.2700 
 36 H       -5.9100     2.1400    -0.6880 H     1 <1>   0.1500 
 37 H       -2.2960     1.1490    -0.7300 H     1 <1>   0.0800 
 38 H       -7.7270     0.7000     0.0310 H     1 <1>   0.1500 
 39 H       -4.0620     3.4680     0.0510 H     1 <1>   0.0800 
 40 H       -2.3300     3.5000    -0.1740 H     1 <1>   0.0800 
 41 H       -3.0250     2.5770     1.1360 H     1 <1>   0.0800 
 42 H       -4.3450     2.6330    -2.3740 H     1 <1>   0.0800 
 43 H       -3.5150     1.1780    -2.8680 H     1 <1>   0.0800 
 44 H       -2.6130     2.6460    -2.5900 H     1 <1>   0.0800 
 45 H       -7.2590    -2.5680     1.6780 H     1 <1>   0.0800 
 46 H       -8.0070    -2.3690     0.1090 H     1 <1>   0.0800 
 47 H       -8.3810    -1.2610     1.4100 H     1 <1>   0.0800 
 48 H        6.8590    -0.7840    -1.8950 H     1 <1>   0.1500 
 49 H        5.9460    -5.3120    -0.1090 H     1 <1>   0.1500 
 50 H        8.7400    -2.3360    -1.3860 H     1 <1>   0.1500 
 51 H        8.2790    -4.5750    -0.5020 H     1 <1>   0.1500 
@<TRIPOS>BOND
  1   1   2  2   
  2   2   3  am  
  3   2   4  1   
  4   3   5  1   
  5   3  27  1   
  6   4   6  1   
  7   4  28  1   
  8   4  29  1   
  9   5   7  1   
 10   5  30  1   
 11   5  31  1   
 12   6   8  1   
 13   7   9  1   
 14   7  32  1   
 15   7  33  1   
 16   8  10  ar  
 17   8  11  ar  
 18   9  12  2   
 19   9  13  1   
 20  10  14  ar  
 21  10  15  1   
 22  11  16  ar  
 23  11  34  1   
 24  12  17  1   
 25  13  18  1   
 26  13  35  1   
 27  14  19  ar  
 28  14  36  1   
 29  15  20  1   
 30  15  21  1   
 31  15  37  1   
 32  16  19  ar  
 33  16  22  1   
 34  17  18  ar  
 35  17  23  ar  
 36  18  24  ar  
 37  19  38  1   
 38  20  39  1   
 39  20  40  1   
 40  20  41  1   
 41  21  42  1   
 42  21  43  1   
 43  21  44  1   
 44  22  45  1   
 45  22  46  1   
 46  22  47  1   
 47  23  25  ar  
 48  23  48  1   
 49  24  26  ar  
 50  24  49  1   
 51  25  26  ar  
 52  25  50  1   
 53  26  51  1   
@<TRIPOS>SUBSTRUCTURE
  1 ****   3 GROUP 4 **** **** 0

# MOE 2024.06 (io_trps.svl 2023.06)
