@<TRIPOS>MOLECULE
NONAME
26 27 1 0 0 
SMALL
USER_CHARGES


@<TRIPOS>ATOM
  1 O       -0.6420     0.3780    -0.2380 O.2   1 <1>  -0.5700 
  2 C       -0.4330     1.5680    -0.1450 C.2   1 <1>   0.5690 
  3 N        0.8120     2.0740    -0.3300 N.am  1 <1>  -0.4300 
  4 C       -1.5790     2.5650     0.1670 C.3   1 <1>   0.2510 
  5 N        1.0790     3.5120    -0.2230 N.am  1 <1>  -0.4300 
  6 N       -2.9030     2.0780    -0.2740 N.3   1 <1>  -0.9000 
  7 C       -1.3340     3.9340    -0.5020 C.3   1 <1>  -0.0990 
  8 C        0.0790     4.4240    -0.2480 C.2   1 <1>   0.5690 
  9 C       -4.0110     2.5160     0.5730 C.3   1 <1>   0.2900 
 10 O        0.2820     5.5930    -0.0200 O.2   1 <1>  -0.5700 
 11 C       -5.2310     1.6660     0.2770 C.2   1 <1>  -0.0400 
 12 O       -5.2220     0.3940     0.6330 O.3   1 <1>  -0.2800 
 13 C       -6.4030     1.9820    -0.3150 C.2   1 <1>  -0.1500 
 14 C       -6.3790    -0.1270     0.2750 C.2   1 <1>  -0.0100 
 15 C       -7.1580     0.8020    -0.3170 C.2   1 <1>  -0.1500 
 16 H        1.4720     1.4780    -0.8430 H     1 <1>   0.3700 
 17 H       -1.5810     2.6920     1.2360 H     1 <1>   0.0800 
 18 H        1.9550     3.8200     0.2170 H     1 <1>   0.3700 
 19 H       -2.8830     1.0450    -0.2170 H     1 <1>   0.3600 
 20 H       -2.0300     4.6590    -0.1240 H     1 <1>   0.0800 
 21 H       -1.4700     3.8450    -1.5640 H     1 <1>   0.0800 
 22 H       -4.2300     3.5520     0.3770 H     1 <1>   0.0800 
 23 H       -3.7600     2.4000     1.6140 H     1 <1>   0.0800 
 24 H       -6.7220     2.9270    -0.7170 H     1 <1>   0.1500 
 25 H       -6.5630    -1.1670     0.4780 H     1 <1>   0.1500 
 26 H       -8.1500     0.6940    -0.7180 H     1 <1>   0.1500 
@<TRIPOS>BOND
  1   1   2  2   
  2   2   3  am  
  3   2   4  1   
  4   3   5  1   
  5   3  16  1   
  6   4   6  1   
  7   4   7  1   
  8   4  17  1   
  9   5   8  am  
 10   5  18  1   
 11   6   9  1   
 12   6  19  1   
 13   7   8  1   
 14   7  20  1   
 15   7  21  1   
 16   8  10  2   
 17   9  11  1   
 18   9  22  1   
 19   9  23  1   
 20  11  12  1   
 21  11  13  2   
 22  12  14  1   
 23  13  15  1   
 24  13  24  1   
 25  14  15  2   
 26  14  25  1   
 27  15  26  1   
@<TRIPOS>SUBSTRUCTURE
  1 ****   6 GROUP 4 **** **** 0

# MOE 2024.06 (io_trps.svl 2023.06)
