@<TRIPOS>MOLECULE
NONAME
37 37 1 0 0 
SMALL
USER_CHARGES


@<TRIPOS>ATOM
  1 BR      -0.0650     0.2850    -0.8080 Br    1 <1>  -0.1110 
  2 C       -1.6010    -0.8440    -0.5430 C.ar  1 <1>   0.1110 
  3 C       -2.7860    -0.2700    -0.1260 C.ar  1 <1>  -0.1500 
  4 C       -1.4790    -2.1990    -0.7780 C.ar  1 <1>  -0.1500 
  5 C       -3.8950    -1.0790     0.0660 C.ar  1 <1>  -0.1440 
  6 C       -2.5860    -3.0070    -0.5860 C.ar  1 <1>  -0.1500 
  7 C       -3.7960    -2.4520    -0.1640 C.ar  1 <1>   0.0830 
  8 C       -5.2050    -0.4530     0.5250 C.3   1 <1>  -0.0960 
  9 O       -4.9150    -3.1990     0.0420 O.3   1 <1>  -0.3630 
 10 C       -4.9120    -4.5960    -0.1190 C.3   1 <1>   0.1200 
 11 C       -6.3230    -5.0910     0.2150 C.3   1 <1>   0.3430 
 12 N       -6.4930    -6.5750     0.0390 N.4   1 <1>  -0.9590 
 13 C       -7.9360    -6.9230     0.1370 C.3   1 <1>   0.3430 
 14 C       -5.6740    -7.3570     1.0070 C.3   1 <1>   0.3430 
 15 C       -8.1750    -8.2990    -0.4740 C.3   1 <1>  -0.2400 
 16 C       -4.5510    -8.0460     0.2440 C.3   1 <1>  -0.2400 
 17 H       -2.8290     0.7910     0.0420 H     1 <1>   0.1500 
 18 H       -0.5370    -2.6050    -1.1030 H     1 <1>   0.1500 
 19 H       -2.4770    -4.0570    -0.7740 H     1 <1>   0.1500 
 20 H       -5.1030     0.6100     0.6500 H     1 <1>   0.0800 
 21 H       -5.5050    -0.8790     1.4650 H     1 <1>   0.0800 
 22 H       -5.9740    -0.6370    -0.2030 H     1 <1>   0.0800 
 23 H       -4.1830    -5.0040     0.5580 H     1 <1>   0.0800 
 24 H       -4.6600    -4.8130    -1.1420 H     1 <1>   0.0800 
 25 H       -7.0140    -4.5770    -0.4320 H     1 <1>   0.0800 
 26 H       -6.5520    -4.8210     1.2330 H     1 <1>   0.0800 
 27 H       -6.1890    -6.8300    -0.9110 H     1 <1>   0.4500 
 28 H       -8.5240    -6.1980    -0.4060 H     1 <1>   0.0800 
 29 H       -8.2560    -6.9110     1.1680 H     1 <1>   0.0800 
 30 H       -6.2810    -8.1030     1.4950 H     1 <1>   0.0800 
 31 H       -5.2660    -6.7100     1.7680 H     1 <1>   0.0800 
 32 H       -7.8620    -8.3210    -1.5030 H     1 <1>   0.0800 
 33 H       -9.2280    -8.5180    -0.4450 H     1 <1>   0.0800 
 34 H       -7.6670    -9.0710     0.0760 H     1 <1>   0.0800 
 35 H       -4.9490    -8.7270    -0.4870 H     1 <1>   0.0800 
 36 H       -3.9550    -8.6160     0.9350 H     1 <1>   0.0800 
 37 H       -3.9070    -7.3330    -0.2370 H     1 <1>   0.0800 
@<TRIPOS>BOND
  1   1   2  1   
  2   2   3  ar  
  3   2   4  ar  
  4   3   5  ar  
  5   3  17  1   
  6   4   6  ar  
  7   4  18  1   
  8   5   7  ar  
  9   5   8  1   
 10   6   7  ar  
 11   6  19  1   
 12   7   9  1   
 13   8  20  1   
 14   8  21  1   
 15   8  22  1   
 16   9  10  1   
 17  10  11  1   
 18  10  23  1   
 19  10  24  1   
 20  11  12  1   
 21  11  25  1   
 22  11  26  1   
 23  12  13  1   
 24  12  14  1   
 25  12  27  1   
 26  13  15  1   
 27  13  28  1   
 28  13  29  1   
 29  14  16  1   
 30  14  30  1   
 31  14  31  1   
 32  15  32  1   
 33  15  33  1   
 34  15  34  1   
 35  16  35  1   
 36  16  36  1   
 37  16  37  1   
@<TRIPOS>SUBSTRUCTURE
  1 ****   9 GROUP 4 **** **** 0

# MOE 2024.06 (io_trps.svl 2023.06)
