@<TRIPOS>MOLECULE
NONAME
39 41 1 0 0 
SMALL
USER_CHARGES


@<TRIPOS>ATOM
  1 S        0.1740    -0.1020    -0.5060 S.3   1 <1>  -0.0800 
  2 C        1.7030     0.7280    -0.2690 C.ar  1 <1>   0.2970 
  3 C       -0.7550     1.4000    -0.3310 C.2   1 <1>  -0.0450 
  4 N        2.8180     0.0410    -0.3320 N.ar  1 <1>  -0.5670 
  5 C        1.5190     2.0830    -0.0240 C.ar  1 <1>   0.0000 
  6 C        0.1080     2.4380    -0.1150 C.2   1 <1>   0.0830 
  7 C       -2.1730     1.3420    -0.4580 C.2   1 <1>   0.8050 
  8 C        3.9000     0.7590    -0.1310 C.ar  1 <1>   0.1660 
  9 C        2.6820     2.8230     0.2600 C.ar  1 <1>  -0.1440 
 10 N       -0.3760     3.7260    -0.0310 N.pl3 1 <1>  -0.8830 
 11 O       -2.8920     2.3290    -0.4150 O.2   1 <1>  -0.5700 
 12 O       -2.7530     0.1460    -0.6390 O.3   1 <1>  -0.4300 
 13 C        3.9020     2.1320     0.1590 C.ar  1 <1>  -0.1430 
 14 C        5.1800    -0.0550    -0.2410 C.3   1 <1>  -0.0170 
 15 C        2.5390     4.3070     0.6780 C.3   1 <1>   1.1630 
 16 C       -4.1550     0.0090    -0.7750 C.3   1 <1>   0.0400 
 17 C        5.2570     2.8360     0.3570 C.3   1 <1>   0.2840 
 18 C        6.3420     0.6090     0.4750 C.3   1 <1>   0.1400 
 19 F        3.6660     4.8980     1.0490 F     1 <1>  -0.3400 
 20 F        2.0640     5.0640    -0.3040 F     1 <1>  -0.3400 
 21 F        1.7280     4.4700     1.7130 F     1 <1>  -0.3400 
 22 N        6.4300     2.0030    -0.0090 N.am  1 <1>  -0.6600 
 23 C        7.5080     2.4340    -0.7380 C.2   1 <1>   0.5690 
 24 O        8.4100     1.6930    -1.0430 O.2   1 <1>  -0.5700 
 25 C        7.6170     3.8720    -1.1900 C.3   1 <1>  -0.1790 
 26 H        0.1910     4.5670    -0.1890 H     1 <1>   0.4000 
 27 H       -1.3920     3.8860    -0.1390 H     1 <1>   0.4000 
 28 H        5.4260    -0.1840    -1.2790 H     1 <1>   0.0800 
 29 H        5.0260    -1.0320     0.1830 H     1 <1>   0.0800 
 30 H       -4.3830    -1.0340    -0.9070 H     1 <1>   0.0800 
 31 H       -4.4790     0.5700    -1.6340 H     1 <1>   0.0800 
 32 H       -4.6300     0.3820     0.1160 H     1 <1>   0.0800 
 33 H        5.3630     3.1170     1.3910 H     1 <1>   0.0800 
 34 H        5.2660     3.7280    -0.2410 H     1 <1>   0.0800 
 35 H        7.2520     0.0680     0.2770 H     1 <1>   0.0800 
 36 H        6.1740     0.6080     1.5380 H     1 <1>   0.0800 
 37 H        7.5160     4.5330    -0.3510 H     1 <1>   0.0800 
 38 H        6.8580     4.0830    -1.9190 H     1 <1>   0.0800 
 39 H        8.5790     4.0360    -1.6400 H     1 <1>   0.0800 
@<TRIPOS>BOND
  1   1   2  1   
  2   1   3  1   
  3   2   4  ar  
  4   2   5  ar  
  5   3   6  2   
  6   3   7  1   
  7   4   8  ar  
  8   5   6  1   
  9   5   9  ar  
 10   6  10  1   
 11   7  11  2   
 12   7  12  1   
 13   8  13  ar  
 14   8  14  1   
 15   9  13  ar  
 16   9  15  1   
 17  10  26  1   
 18  10  27  1   
 19  12  16  1   
 20  13  17  1   
 21  14  18  1   
 22  14  28  1   
 23  14  29  1   
 24  15  19  1   
 25  15  20  1   
 26  15  21  1   
 27  16  30  1   
 28  16  31  1   
 29  16  32  1   
 30  17  22  1   
 31  17  33  1   
 32  17  34  1   
 33  18  22  1   
 34  18  35  1   
 35  18  36  1   
 36  22  23  am  
 37  23  24  2   
 38  23  25  1   
 39  25  37  1   
 40  25  38  1   
 41  25  39  1   
@<TRIPOS>SUBSTRUCTURE
  1 ****   9 GROUP 4 **** **** 0

# MOE 2024.06 (io_trps.svl 2023.06)
