@<TRIPOS>MOLECULE
NONAME
40 42 1 0 0 
SMALL
USER_CHARGES


@<TRIPOS>ATOM
  1 O        0.8210    -0.6720    -0.6350 O.3   1 <1>  -0.3630 
  2 C        0.0640    -1.6900    -0.2170 C.ar  1 <1>   0.0830 
  3 C        1.7780    -0.4240     0.3960 C.3   1 <1>   0.4000 
  4 C        0.4590    -2.0920     1.0240 C.ar  1 <1>   0.0830 
  5 C       -0.9790    -2.3040    -0.8800 C.ar  1 <1>  -0.1500 
  6 O        1.4830    -1.3460     1.4450 O.3   1 <1>  -0.3630 
  7 C       -0.1680    -3.1360     1.6730 C.ar  1 <1>  -0.1500 
  8 C       -1.6380    -3.3510    -0.2410 C.ar  1 <1>  -0.1440 
  9 C       -1.2240    -3.7670     1.0270 C.ar  1 <1>  -0.1500 
 10 C       -2.8060    -4.0340    -0.9250 C.3   1 <1>   0.4870 
 11 N       -4.0730    -3.5210    -0.3070 N.4   1 <1>  -0.9590 
 12 C       -5.2400    -4.3950    -0.6980 C.3   1 <1>   0.3430 
 13 C       -4.2140    -2.0640    -0.6330 C.3   1 <1>   0.3430 
 14 C       -6.3820    -4.4500     0.3600 C.3   1 <1>   0.3430 
 15 C       -5.6050    -1.4820    -0.3710 C.3   1 <1>  -0.1600 
 16 N       -7.1300    -3.1630     0.6250 N.4   1 <1>  -0.9590 
 17 C       -6.2920    -1.9580     0.9080 C.3   1 <1>   0.3430 
 18 C       -8.1010    -3.3680     1.7540 C.3   1 <1>   0.2630 
 19 H        1.6720     0.5830     0.7580 H     1 <1>   0.0800 
 20 H        2.7690    -0.6100     0.0210 H     1 <1>   0.0800 
 21 H       -1.2410    -1.9560    -1.8640 H     1 <1>   0.1500 
 22 H        0.1710    -3.4400     2.6490 H     1 <1>   0.1500 
 23 H       -1.7030    -4.5900     1.5290 H     1 <1>   0.1500 
 24 H       -2.7180    -5.0990    -0.7820 H     1 <1>   0.0800 
 25 H       -2.7860    -3.8290    -1.9830 H     1 <1>   0.0800 
 26 H       -3.8900    -3.5960     0.7030 H     1 <1>   0.4500 
 27 H       -4.8850    -5.4050    -0.8300 H     1 <1>   0.0800 
 28 H       -5.6400    -4.0760    -1.6470 H     1 <1>   0.0800 
 29 H       -3.9690    -1.8990    -1.6710 H     1 <1>   0.0800 
 30 H       -3.4920    -1.5100    -0.0500 H     1 <1>   0.0800 
 31 H       -5.9620    -4.8100     1.2850 H     1 <1>   0.0800 
 32 H       -7.0930    -5.1930     0.0350 H     1 <1>   0.0800 
 33 H       -6.2400    -1.6340    -1.2260 H     1 <1>   0.0800 
 34 H       -5.4750    -0.4160    -0.2900 H     1 <1>   0.0800 
 35 H       -7.7090    -2.9400    -0.2020 H     1 <1>   0.4500 
 36 H       -6.9340    -1.1640     1.2590 H     1 <1>   0.0800 
 37 H       -5.5690    -2.1610     1.6820 H     1 <1>   0.0800 
 38 H       -7.5780    -3.5890     2.6710 H     1 <1>   0.0800 
 39 H       -8.7700    -4.1860     1.5350 H     1 <1>   0.0800 
 40 H       -8.6960    -2.4800     1.9070 H     1 <1>   0.0800 
@<TRIPOS>BOND
  1   1   2  1   
  2   1   3  1   
  3   2   4  ar  
  4   2   5  ar  
  5   3   6  1   
  6   3  19  1   
  7   3  20  1   
  8   4   6  1   
  9   4   7  ar  
 10   5   8  ar  
 11   5  21  1   
 12   7   9  ar  
 13   7  22  1   
 14   8   9  ar  
 15   8  10  1   
 16   9  23  1   
 17  10  11  1   
 18  10  24  1   
 19  10  25  1   
 20  11  12  1   
 21  11  13  1   
 22  11  26  1   
 23  12  14  1   
 24  12  27  1   
 25  12  28  1   
 26  13  15  1   
 27  13  29  1   
 28  13  30  1   
 29  14  16  1   
 30  14  31  1   
 31  14  32  1   
 32  15  17  1   
 33  15  33  1   
 34  15  34  1   
 35  16  17  1   
 36  16  18  1   
 37  16  35  1   
 38  17  36  1   
 39  17  37  1   
 40  18  38  1   
 41  18  39  1   
 42  18  40  1   
@<TRIPOS>SUBSTRUCTURE
  1 ****   8 GROUP 4 **** **** 0

# MOE 2024.06 (io_trps.svl 2023.06)
