@<TRIPOS>MOLECULE
NONAME
47 50 1 0 0 
SMALL
USER_CHARGES


@<TRIPOS>ATOM
  1 F        0.0270    -1.1180     0.7280 F     1 <1>  -0.1900 
  2 C        0.9610    -2.0290     0.7090 C.ar  1 <1>   0.1900 
  3 C        0.8620    -3.0670    -0.1960 C.ar  1 <1>  -0.1500 
  4 C        2.0150    -1.9210     1.5940 C.ar  1 <1>  -0.1500 
  5 C        1.8580    -4.0290    -0.2160 C.ar  1 <1>  -0.1500 
  6 C        3.0070    -2.8880     1.5680 C.ar  1 <1>  -0.1500 
  7 C        2.9360    -3.9400     0.6600 C.ar  1 <1>  -0.1430 
  8 C        4.0340    -4.9880     0.6280 C.3   1 <1>   0.4870 
  9 N        4.8950    -4.7430    -0.5610 N.4   1 <1>  -0.9590 
 10 C        5.8760    -5.8720    -0.7470 C.3   1 <1>   0.3430 
 11 C        5.6000    -3.4130    -0.4440 C.3   1 <1>   0.3430 
 12 C        6.8610    -5.6110    -1.9080 C.3   1 <1>   0.1400 
 13 C        6.5900    -3.1660    -1.6020 C.3   1 <1>   0.1400 
 14 N        7.5480    -4.3020    -1.7240 N.am  1 <1>  -0.6600 
 15 C        8.5970    -4.2970    -0.8560 C.2   1 <1>   0.6900 
 16 O        8.3600    -4.4250     0.3300 O.2   1 <1>  -0.5700 
 17 N        9.8450    -4.1460    -1.3690 N.am  1 <1>  -0.5470 
 18 C       11.1120    -4.1120    -0.7620 C.ar  1 <1>   0.1170 
 19 C       11.3520    -4.6130     0.5190 C.ar  1 <1>  -0.1500 
 20 C       12.1750    -3.5630    -1.4860 C.ar  1 <1>  -0.1500 
 21 C       12.6330    -4.5430     1.0260 C.ar  1 <1>   0.0830 
 22 C       13.4590    -3.5000    -0.9610 C.ar  1 <1>  -0.1500 
 23 O       13.0760    -4.9590     2.2180 O.3   1 <1>  -0.3620 
 24 C       13.6580    -4.0020     0.3090 C.ar  1 <1>   0.0830 
 25 C       14.4690    -4.6590     2.2640 C.3   1 <1>   0.4000 
 26 O       14.7950    -4.0500     1.0150 O.3   1 <1>  -0.3620 
 27 H        0.0190    -3.1150    -0.8630 H     1 <1>   0.1500 
 28 H        2.0500    -1.0990     2.2880 H     1 <1>   0.1500 
 29 H        1.7740    -4.8440    -0.9160 H     1 <1>   0.1500 
 30 H        3.8260    -2.8080     2.2640 H     1 <1>   0.1500 
 31 H        3.5880    -5.9670     0.5700 H     1 <1>   0.0800 
 32 H        4.6230    -4.9340     1.5300 H     1 <1>   0.0800 
 33 H        4.2760    -4.6930    -1.3780 H     1 <1>   0.4500 
 34 H        5.3500    -6.7940    -0.9310 H     1 <1>   0.0800 
 35 H        6.4550    -5.9960     0.1550 H     1 <1>   0.0800 
 36 H        6.1540    -3.3800     0.4810 H     1 <1>   0.0800 
 37 H        4.8770    -2.6130    -0.4220 H     1 <1>   0.0800 
 38 H        6.3390    -5.6180    -2.8490 H     1 <1>   0.0800 
 39 H        7.5960    -6.3990    -1.9320 H     1 <1>   0.0800 
 40 H        7.1370    -2.2570    -1.4090 H     1 <1>   0.0800 
 41 H        6.0570    -3.0390    -2.5270 H     1 <1>   0.0800 
 42 H        9.8400    -3.9820    -2.3720 H     1 <1>   0.3700 
 43 H       10.5760    -5.0510     1.1150 H     1 <1>   0.1500 
 44 H       12.0020    -3.1750    -2.4740 H     1 <1>   0.1500 
 45 H       14.2810    -3.0780    -1.5110 H     1 <1>   0.1500 
 46 H       15.0300    -5.5680     2.3800 H     1 <1>   0.0800 
 47 H       14.6610    -3.9660     3.0640 H     1 <1>   0.0800 
@<TRIPOS>BOND
  1   1   2  1   
  2   2   3  ar  
  3   2   4  ar  
  4   3   5  ar  
  5   3  27  1   
  6   4   6  ar  
  7   4  28  1   
  8   5   7  ar  
  9   5  29  1   
 10   6   7  ar  
 11   6  30  1   
 12   7   8  1   
 13   8   9  1   
 14   8  31  1   
 15   8  32  1   
 16   9  10  1   
 17   9  11  1   
 18   9  33  1   
 19  10  12  1   
 20  10  34  1   
 21  10  35  1   
 22  11  13  1   
 23  11  36  1   
 24  11  37  1   
 25  12  14  1   
 26  12  38  1   
 27  12  39  1   
 28  13  14  1   
 29  13  40  1   
 30  13  41  1   
 31  14  15  am  
 32  15  16  2   
 33  15  17  am  
 34  17  18  1   
 35  17  42  1   
 36  18  19  ar  
 37  18  20  ar  
 38  19  21  ar  
 39  19  43  1   
 40  20  22  ar  
 41  20  44  1   
 42  21  23  1   
 43  21  24  ar  
 44  22  24  ar  
 45  22  45  1   
 46  23  25  1   
 47  24  26  1   
 48  25  26  1   
 49  25  46  1   
 50  25  47  1   
@<TRIPOS>SUBSTRUCTURE
  1 ****  16 GROUP 4 **** **** 0

# MOE 2024.06 (io_trps.svl 2023.06)
