@<TRIPOS>MOLECULE
NONAME
38 41 1 0 0 
SMALL
USER_CHARGES


@<TRIPOS>ATOM
  1 CL       0.5900    -0.2280     1.0160 Cl    1 <1>  -0.1770 
  2 C        1.2180    -1.5340     0.0320 C.ar  1 <1>   0.1770 
  3 C        0.3410    -2.3960    -0.6200 C.ar  1 <1>   0.1170 
  4 C        2.5890    -1.6740    -0.0780 C.ar  1 <1>  -0.1500 
  5 N       -1.0530    -2.2510    -0.5010 N.am  1 <1>  -0.2370 
  6 C        0.8790    -3.4130    -1.4000 C.ar  1 <1>  -0.1500 
  7 C        3.1080    -2.6940    -0.8570 C.ar  1 <1>  -0.1500 
  8 C       -1.8690    -1.5940    -1.4050 C.2   1 <1>   0.5690 
  9 C       -1.7890    -2.5690     0.6260 C.2   1 <1>   0.5690 
 10 C        2.2510    -3.5610    -1.5170 C.ar  1 <1>  -0.1500 
 11 O       -1.5410    -0.9960    -2.3960 O.2   1 <1>  -0.5700 
 12 C       -3.2860    -1.8090    -0.9570 C.3   1 <1>  -0.0190 
 13 O       -1.4850    -3.3140     1.5210 O.2   1 <1>  -0.5700 
 14 C       -3.0530    -1.7660     0.5560 C.3   1 <1>  -0.0190 
 15 C       -4.6760    -1.1440    -1.0890 C.3   1 <1>   0.1960 
 16 C       -4.4770    -1.6970     1.1250 C.3   1 <1>   0.1960 
 17 C       -4.8580    -0.4900     0.2730 C.2   1 <1>  -0.2760 
 18 C       -5.6120    -2.3110    -0.8040 C.2   1 <1>  -0.2880 
 19 C       -5.4500    -2.6690     0.4720 C.2   1 <1>  -0.2880 
 20 C       -5.2250     0.7560     0.6080 C.2   1 <1>  -0.2760 
 21 C       -5.5660     1.8450    -0.4000 C.3   1 <1>  -0.1020 
 22 C       -5.3550     1.2580     2.0390 C.3   1 <1>  -0.1020 
 23 H        3.2390    -0.9910     0.4390 H     1 <1>   0.1500 
 24 H        0.2230    -4.0910    -1.9160 H     1 <1>   0.1500 
 25 H        4.1740    -2.8130    -0.9510 H     1 <1>   0.1500 
 26 H        2.6560    -4.3540    -2.1240 H     1 <1>   0.1500 
 27 H       -3.4340    -2.8320    -1.2680 H     1 <1>   0.0800 
 28 H       -2.6570    -0.7950     0.8240 H     1 <1>   0.0800 
 29 H       -4.8830    -0.5760    -1.9780 H     1 <1>   0.0800 
 30 H       -4.5700    -1.5650     2.1880 H     1 <1>   0.0800 
 31 H       -6.2270    -2.7240    -1.5860 H     1 <1>   0.1500 
 32 H       -5.8890    -3.4670     1.0470 H     1 <1>   0.1500 
 33 H       -6.5780     2.1790    -0.2510 H     1 <1>   0.0800 
 34 H       -5.4760     1.4990    -1.4110 H     1 <1>   0.0800 
 35 H       -4.9050     2.6840    -0.2740 H     1 <1>   0.0800 
 36 H       -6.3640     1.5820     2.2240 H     1 <1>   0.0800 
 37 H       -4.6930     2.0900     2.1990 H     1 <1>   0.0800 
 38 H       -5.1150     0.4980     2.7570 H     1 <1>   0.0800 
@<TRIPOS>BOND
  1   1   2  1   
  2   2   3  ar  
  3   2   4  ar  
  4   3   5  1   
  5   3   6  ar  
  6   4   7  ar  
  7   4  23  1   
  8   5   8  am  
  9   5   9  am  
 10   6  10  ar  
 11   6  24  1   
 12   7  10  ar  
 13   7  25  1   
 14   8  11  2   
 15   8  12  1   
 16   9  13  2   
 17   9  14  1   
 18  10  26  1   
 19  12  14  1   
 20  12  15  1   
 21  12  27  1   
 22  14  16  1   
 23  14  28  1   
 24  15  17  1   
 25  15  18  1   
 26  15  29  1   
 27  16  17  1   
 28  16  19  1   
 29  16  30  1   
 30  17  20  2   
 31  18  19  2   
 32  18  31  1   
 33  19  32  1   
 34  20  21  1   
 35  20  22  1   
 36  21  33  1   
 37  21  34  1   
 38  21  35  1   
 39  22  36  1   
 40  22  37  1   
 41  22  38  1   
@<TRIPOS>SUBSTRUCTURE
  1 ****   5 GROUP 4 **** **** 0

# MOE 2024.06 (io_trps.svl 2023.06)
