@<TRIPOS>MOLECULE
NONAME
52 53 1 0 0 
SMALL
USER_CHARGES


@<TRIPOS>ATOM
  1 N        0.0430     0.1150     0.2340 N.4   1 <1>  -0.9590 
  2 C        1.2770     0.9460     0.4790 C.3   1 <1>   0.4230 
  3 C       -1.2340     0.9300     0.1420 C.3   1 <1>   0.3430 
  4 C       -0.0580    -0.9630     1.2660 C.3   1 <1>   0.3430 
  5 C        1.3100     2.2050    -0.4130 C.3   1 <1>  -0.1600 
  6 C        2.5270     0.0860     0.2030 C.3   1 <1>  -0.1600 
  7 C       -2.5130     0.1220    -0.2280 C.3   1 <1>   0.3430 
  8 C       -0.1990    -2.3040     0.5570 C.3   1 <1>  -0.2400 
  9 C        2.6130     3.0020    -0.2360 C.3   1 <1>  -0.1600 
 10 C        3.8280     0.8820     0.3920 C.3   1 <1>  -0.1600 
 11 N       -3.7520     0.9630    -0.4360 N.4   1 <1>  -0.9590 
 12 C        3.8550     2.1370    -0.4920 C.3   1 <1>   0.0630 
 13 C       -4.2220     1.6680     0.8060 C.3   1 <1>   0.2630 
 14 C       -4.8740     0.1120    -0.9610 C.3   1 <1>   0.2630 
 15 C        5.1380     2.9350    -0.2780 C.ar  1 <1>  -0.1430 
 16 C        5.4580     3.4800     0.9590 C.ar  1 <1>  -0.1500 
 17 C        6.0120     3.1280    -1.3390 C.ar  1 <1>  -0.1500 
 18 C        6.6270     4.2010     1.1310 C.ar  1 <1>  -0.1500 
 19 C        7.1810     3.8490    -1.1690 C.ar  1 <1>  -0.1500 
 20 C        7.4900     4.3870     0.0670 C.ar  1 <1>  -0.1500 
 21 H        0.2280    -0.3480    -0.6680 H     1 <1>   0.4500 
 22 H        1.2990     1.2650     1.5090 H     1 <1>   0.0800 
 23 H       -1.1060     1.6860    -0.6140 H     1 <1>   0.0800 
 24 H       -1.3960     1.4260     1.0840 H     1 <1>   0.0800 
 25 H       -0.9010    -0.7940     1.9170 H     1 <1>   0.0800 
 26 H        0.8270    -0.9840     1.8830 H     1 <1>   0.0800 
 27 H        0.5080     2.8740    -0.1600 H     1 <1>   0.0800 
 28 H        1.2210     1.9240    -1.4480 H     1 <1>   0.0800 
 29 H        2.5020    -0.2830    -0.8080 H     1 <1>   0.0800 
 30 H        2.5750    -0.7580     0.8680 H     1 <1>   0.0800 
 31 H       -2.7100    -0.5970     0.5500 H     1 <1>   0.0800 
 32 H       -2.3140    -0.4210    -1.1380 H     1 <1>   0.0800 
 33 H       -1.0870    -2.3510    -0.0450 H     1 <1>   0.0800 
 34 H       -0.2620    -3.0850     1.2950 H     1 <1>   0.0800 
 35 H        0.6640    -2.5060    -0.0530 H     1 <1>   0.0800 
 36 H        2.6540     3.4040     0.7610 H     1 <1>   0.0800 
 37 H        2.6250     3.8370    -0.9180 H     1 <1>   0.0800 
 38 H        4.6730     0.2620     0.1420 H     1 <1>   0.0800 
 39 H        3.9310     1.1620     1.4260 H     1 <1>   0.0800 
 40 H       -3.5760     1.6810    -1.1620 H     1 <1>   0.4500 
 41 H        3.8270     1.8160    -1.5200 H     1 <1>   0.0800 
 42 H       -4.4510     0.9560     1.5820 H     1 <1>   0.0800 
 43 H       -5.1150     2.2360     0.5950 H     1 <1>   0.0800 
 44 H       -3.4700     2.3500     1.1690 H     1 <1>   0.0800 
 45 H       -5.1360    -0.6530    -0.2480 H     1 <1>   0.0800 
 46 H       -4.5890    -0.3630    -1.8870 H     1 <1>   0.0800 
 47 H       -5.7480     0.7170    -1.1480 H     1 <1>   0.0800 
 48 H        4.8050     3.3510     1.8020 H     1 <1>   0.1500 
 49 H        5.7930     2.7190    -2.3100 H     1 <1>   0.1500 
 50 H        6.8650     4.6190     2.0940 H     1 <1>   0.1500 
 51 H        7.8510     3.9920    -1.9990 H     1 <1>   0.1500 
 52 H        8.3990     4.9470     0.2000 H     1 <1>   0.1500 
@<TRIPOS>BOND
  1   1   2  1   
  2   1   3  1   
  3   1   4  1   
  4   1  21  1   
  5   2   5  1   
  6   2   6  1   
  7   2  22  1   
  8   3   7  1   
  9   3  23  1   
 10   3  24  1   
 11   4   8  1   
 12   4  25  1   
 13   4  26  1   
 14   5   9  1   
 15   5  27  1   
 16   5  28  1   
 17   6  10  1   
 18   6  29  1   
 19   6  30  1   
 20   7  11  1   
 21   7  31  1   
 22   7  32  1   
 23   8  33  1   
 24   8  34  1   
 25   8  35  1   
 26   9  12  1   
 27   9  36  1   
 28   9  37  1   
 29  10  12  1   
 30  10  38  1   
 31  10  39  1   
 32  11  13  1   
 33  11  14  1   
 34  11  40  1   
 35  12  15  1   
 36  12  41  1   
 37  13  42  1   
 38  13  43  1   
 39  13  44  1   
 40  14  45  1   
 41  14  46  1   
 42  14  47  1   
 43  15  16  ar  
 44  15  17  ar  
 45  16  18  ar  
 46  16  48  1   
 47  17  19  ar  
 48  17  49  1   
 49  18  20  ar  
 50  18  50  1   
 51  19  20  ar  
 52  19  51  1   
 53  20  52  1   
@<TRIPOS>SUBSTRUCTURE
  1 ****   5 GROUP 4 **** **** 0

# MOE 2024.06 (io_trps.svl 2023.06)
