@<TRIPOS>MOLECULE
NONAME
44 47 1 0 0 
SMALL
USER_CHARGES


@<TRIPOS>ATOM
  1 F        1.1070     2.8340    -2.1270 F     1 <1>  -0.1900 
  2 C        1.7690     1.8870    -1.5160 C.ar  1 <1>   0.1900 
  3 C        1.8510     1.8740    -0.1290 C.ar  1 <1>  -0.1440 
  4 C        2.3660     0.9250    -2.3100 C.ar  1 <1>  -0.1500 
  5 C        2.5710     0.8400     0.4560 C.ar  1 <1>  -0.1500 
  6 C        1.1880     2.9370     0.7580 C.3   1 <1>   0.3400 
  7 C        3.0780    -0.0950    -1.7040 C.ar  1 <1>  -0.1500 
  8 C        3.1780    -0.1340    -0.3230 C.ar  1 <1>  -0.1500 
  9 C       -0.3300     2.8930     0.5800 C.2   1 <1>  -0.1240 
 10 C        1.7770     4.3210     0.4660 C.2   1 <1>  -0.1240 
 11 C       -0.9980     3.9260     0.0020 C.2   1 <1>   0.2090 
 12 C       -1.0290     1.7520     1.0290 C.2   1 <1>   0.6160 
 13 C        0.9980     5.2880    -0.0830 C.2   1 <1>  -0.0380 
 14 C        3.1510     4.5100     0.7900 C.2   1 <1>   0.4950 
 15 N       -2.3650     3.8390    -0.2170 N.am  1 <1>  -0.4690 
 16 N       -0.3350     5.0800    -0.3560 N.pl3 1 <1>  -0.6000 
 17 O       -0.4790     0.8670     1.6710 O.2   1 <1>  -0.5700 
 18 N       -2.3830     1.6500     0.7650 N.am  1 <1>  -0.4200 
 19 C        1.5490     6.6640    -0.4330 C.3   1 <1>  -0.0220 
 20 O        3.8230     3.7230     1.4140 O.2   1 <1>  -0.5700 
 21 C        3.8140     5.8000     0.3380 C.3   1 <1>  -0.0990 
 22 C       -3.0600     2.6980     0.1690 C.2   1 <1>   0.6900 
 23 C       -3.0950     4.9550    -0.8930 C.3   1 <1>   0.0600 
 24 C       -3.1230     0.4190     1.1710 C.3   1 <1>   0.0600 
 25 C        2.8290     6.9800     0.3570 C.3   1 <1>  -0.1600 
 26 O       -4.2630     2.6190    -0.0070 O.2   1 <1>  -0.5700 
 27 H        2.2740     0.9780    -3.3790 H     1 <1>   0.1500 
 28 H        2.6660     0.7860     1.5270 H     1 <1>   0.1500 
 29 H        1.3960     2.7150     1.7900 H     1 <1>   0.0800 
 30 H        3.5510    -0.8550    -2.3010 H     1 <1>   0.1500 
 31 H        3.7300    -0.9260     0.1530 H     1 <1>   0.1500 
 32 H       -0.8760     5.8120    -0.8190 H     1 <1>   0.4000 
 33 H        0.8140     7.4190    -0.2160 H     1 <1>   0.0800 
 34 H        1.7560     6.6910    -1.4890 H     1 <1>   0.0800 
 35 H        4.1940     5.6520    -0.6560 H     1 <1>   0.0800 
 36 H        4.6470     6.0140     0.9850 H     1 <1>   0.0800 
 37 H       -3.0360     5.8420    -0.2870 H     1 <1>   0.0800 
 38 H       -4.1330     4.7160    -1.0420 H     1 <1>   0.0800 
 39 H       -2.6540     5.1430    -1.8560 H     1 <1>   0.0800 
 40 H       -2.4850    -0.4440     1.0860 H     1 <1>   0.0800 
 41 H       -3.9810     0.2660     0.5400 H     1 <1>   0.0800 
 42 H       -3.4480     0.5170     2.1910 H     1 <1>   0.0800 
 43 H        2.5600     7.1860     1.3800 H     1 <1>   0.0800 
 44 H        3.2990     7.8610    -0.0440 H     1 <1>   0.0800 
@<TRIPOS>BOND
  1   1   2  1   
  2   2   3  ar  
  3   2   4  ar  
  4   3   5  ar  
  5   3   6  1   
  6   4   7  ar  
  7   4  27  1   
  8   5   8  ar  
  9   5  28  1   
 10   6   9  1   
 11   6  10  1   
 12   6  29  1   
 13   7   8  ar  
 14   7  30  1   
 15   8  31  1   
 16   9  11  2   
 17   9  12  1   
 18  10  13  2   
 19  10  14  1   
 20  11  15  1   
 21  11  16  1   
 22  12  17  2   
 23  12  18  am  
 24  13  16  1   
 25  13  19  1   
 26  14  20  2   
 27  14  21  1   
 28  15  22  am  
 29  15  23  1   
 30  16  32  1   
 31  18  22  am  
 32  18  24  1   
 33  19  25  1   
 34  19  33  1   
 35  19  34  1   
 36  21  25  1   
 37  21  35  1   
 38  21  36  1   
 39  22  26  2   
 40  23  37  1   
 41  23  38  1   
 42  23  39  1   
 43  24  40  1   
 44  24  41  1   
 45  24  42  1   
 46  25  43  1   
 47  25  44  1   
@<TRIPOS>SUBSTRUCTURE
  1 ****   6 GROUP 4 **** **** 0

# MOE 2024.06 (io_trps.svl 2023.06)
