@<TRIPOS>MOLECULE
NONAME
41 43 1 0 0 
SMALL
USER_CHARGES


@<TRIPOS>ATOM
  1 BR       1.2410     0.9770    -3.0070 Br    1 <1>  -0.1110 
  2 C        2.7260     1.3280    -1.8300 C.ar  1 <1>   0.1110 
  3 C        3.9890     1.5150    -2.3610 C.ar  1 <1>   0.1600 
  4 C        2.5070     1.3890    -0.4730 C.ar  1 <1>  -0.1500 
  5 N        5.0650     1.7600    -1.6260 N.ar  1 <1>  -0.6200 
  6 C        3.6230     1.6440     0.2940 C.ar  1 <1>  -0.1500 
  7 C        4.8710     1.8200    -0.3130 C.ar  1 <1>   0.4270 
  8 N        6.0270     2.0790     0.3870 N.am  1 <1>  -0.5470 
  9 C        6.3630     2.0450     1.7060 C.2   1 <1>   0.5690 
 10 O        5.5920     1.7770     2.5940 O.2   1 <1>  -0.5700 
 11 C        7.8190     2.3680     2.0510 C.3   1 <1>   0.1710 
 12 N        8.7670     2.1670     0.9150 N.3   1 <1>  -0.8100 
 13 C       10.0510     2.8520     1.1730 C.3   1 <1>   0.1100 
 14 C        9.0060     0.7220     0.6720 C.3   1 <1>   0.1100 
 15 C       11.0340     2.6820     0.0010 C.3   1 <1>   0.1400 
 16 C        9.9520     0.5000    -0.5190 C.3   1 <1>   0.1400 
 17 N       11.2350     1.2350    -0.3110 N.am  1 <1>  -0.6600 
 18 C       12.4230     0.5720    -0.0700 C.2   1 <1>   0.7150 
 19 O       12.3790    -0.6170     0.1940 O.2   1 <1>  -0.5700 
 20 C       13.6940     1.2640    -0.1340 C.2   1 <1>   0.0550 
 21 O       14.6670     1.0000     0.7350 O.3   1 <1>  -0.2800 
 22 C       14.1380     2.2290    -0.9900 C.2   1 <1>  -0.1500 
 23 C       15.7020     1.7600     0.4600 C.2   1 <1>  -0.0100 
 24 C       15.4390     2.5500    -0.6010 C.2   1 <1>  -0.1500 
 25 H        4.1150     1.4600    -3.4280 H     1 <1>   0.1500 
 26 H        1.5290     1.2470    -0.0480 H     1 <1>   0.1500 
 27 H        3.5280     1.7100     1.3610 H     1 <1>   0.1500 
 28 H        6.8300     2.2520    -0.2220 H     1 <1>   0.3700 
 29 H        8.1190     1.7680     2.8930 H     1 <1>   0.0800 
 30 H        7.8440     3.3990     2.3570 H     1 <1>   0.0800 
 31 H       10.5030     2.4600     2.0690 H     1 <1>   0.0800 
 32 H        9.8710     3.9030     1.3210 H     1 <1>   0.0800 
 33 H        8.0740     0.2240     0.4650 H     1 <1>   0.0800 
 34 H        9.4380     0.2640     1.5460 H     1 <1>   0.0800 
 35 H       11.9650     3.1510     0.2640 H     1 <1>   0.0800 
 36 H       10.6410     3.1800    -0.8680 H     1 <1>   0.0800 
 37 H        9.4800     0.8590    -1.4170 H     1 <1>   0.0800 
 38 H       10.1320    -0.5540    -0.6420 H     1 <1>   0.0800 
 39 H       13.6070     2.6660    -1.8160 H     1 <1>   0.1500 
 40 H       16.5870     1.6760     1.0680 H     1 <1>   0.1500 
 41 H       16.0780     3.2780    -1.0710 H     1 <1>   0.1500 
@<TRIPOS>BOND
  1   1   2  1   
  2   2   3  ar  
  3   2   4  ar  
  4   3   5  ar  
  5   3  25  1   
  6   4   6  ar  
  7   4  26  1   
  8   5   7  ar  
  9   6   7  ar  
 10   6  27  1   
 11   7   8  1   
 12   8   9  am  
 13   8  28  1   
 14   9  10  2   
 15   9  11  1   
 16  11  12  1   
 17  11  29  1   
 18  11  30  1   
 19  12  13  1   
 20  12  14  1   
 21  13  15  1   
 22  13  31  1   
 23  13  32  1   
 24  14  16  1   
 25  14  33  1   
 26  14  34  1   
 27  15  17  1   
 28  15  35  1   
 29  15  36  1   
 30  16  17  1   
 31  16  37  1   
 32  16  38  1   
 33  17  18  am  
 34  18  19  2   
 35  18  20  1   
 36  20  21  1   
 37  20  22  2   
 38  21  23  1   
 39  22  24  1   
 40  22  39  1   
 41  23  24  2   
 42  23  40  1   
 43  24  41  1   
@<TRIPOS>SUBSTRUCTURE
  1 ****  12 GROUP 4 **** **** 0

# MOE 2024.06 (io_trps.svl 2023.06)
