@<TRIPOS>MOLECULE
NONAME
39 40 1 0 0 
SMALL
USER_CHARGES


@<TRIPOS>ATOM
  1 O        0.9960    -1.1760     1.9110 O.2   1 <1>  -0.5760 
  2 C        0.5630    -2.0700     1.2200 C.2   1 <1>   0.9720 
  3 N        1.4330    -2.9690     0.6020 N.pl3 1 <1>  -0.3690 
  4 C       -0.8310    -2.2510     1.0030 C.2   1 <1>  -0.1450 
  5 N        2.8070    -3.0530     0.6270 N.2   1 <1>  -0.2680 
  6 C        0.9470    -3.9390    -0.1500 C.cat 1 <1>   1.0690 
  7 C       -1.2870    -3.2590     0.2250 C.2   1 <1>   0.1560 
  8 C        3.0770    -4.0650    -0.1090 C.2   1 <1>   0.4790 
  9 N       -0.3710    -4.1100    -0.3550 N.pl3 1 <1>  -0.6940 
 10 N        1.9470    -4.6430    -0.6140 N.pl3 1 <1>  -0.7050 
 11 C       -2.7520    -3.5240    -0.0580 C.3   1 <1>  -0.1110 
 12 C        4.4680    -4.5980    -0.4140 C.3   1 <1>  -0.0020 
 13 C        4.6460    -6.0480     0.0620 C.3   1 <1>  -0.1690 
 14 C        6.0580    -6.5610    -0.2460 C.3   1 <1>  -0.1690 
 15 C        6.2290    -8.0100     0.2240 C.3   1 <1>  -0.1690 
 16 C        7.6400    -8.5250    -0.0820 C.3   1 <1>  -0.1690 
 17 C        7.8120    -9.9740     0.3860 C.3   1 <1>  -0.1690 
 18 C        9.2210   -10.4870     0.0820 C.3   1 <1>  -0.2480 
 19 H       -1.4820    -1.5470     1.4890 H     1 <1>   0.1410 
 20 H       -0.6910    -4.8800    -0.9470 H     1 <1>   0.4430 
 21 H        1.9270    -5.4640    -1.2150 H     1 <1>   0.4430 
 22 H       -3.0300    -4.5040     0.2880 H     1 <1>   0.0700 
 23 H       -2.9470    -3.4590    -1.1150 H     1 <1>   0.0700 
 24 H       -3.3730    -2.8020     0.4430 H     1 <1>   0.0700 
 25 H        5.1960    -3.9720     0.0740 H     1 <1>   0.0700 
 26 H        4.6420    -4.5380    -1.4740 H     1 <1>   0.0700 
 27 H        3.9300    -6.6870    -0.4250 H     1 <1>   0.0700 
 28 H        4.4770    -6.0990     1.1240 H     1 <1>   0.0700 
 29 H        6.7850    -5.9410     0.2510 H     1 <1>   0.0700 
 30 H        6.2420    -6.5100    -1.3050 H     1 <1>   0.0700 
 31 H        5.5090    -8.6390    -0.2710 H     1 <1>   0.0700 
 32 H        6.0530    -8.0680     1.2850 H     1 <1>   0.0700 
 33 H        8.3650    -7.9020     0.4150 H     1 <1>   0.0700 
 34 H        7.8210    -8.4700    -1.1410 H     1 <1>   0.0700 
 35 H        7.0920   -10.6030    -0.1100 H     1 <1>   0.0700 
 36 H        7.6360   -10.0350     1.4470 H     1 <1>   0.0700 
 37 H        9.4120   -10.4550    -0.9770 H     1 <1>   0.0700 
 38 H        9.3220   -11.5040     0.4170 H     1 <1>   0.0700 
 39 H        9.9570    -9.8850     0.5860 H     1 <1>   0.0700 
@<TRIPOS>BOND
  1   1   2  2   
  2   2   3  1   
  3   2   4  1   
  4   3   5  1   
  5   3   6  ar  
  6   4   7  2   
  7   4  19  1   
  8   5   8  2   
  9   6   9  ar  
 10   6  10  ar  
 11   7   9  1   
 12   7  11  1   
 13   8  10  1   
 14   8  12  1   
 15   9  20  1   
 16  10  21  1   
 17  11  22  1   
 18  11  23  1   
 19  11  24  1   
 20  12  13  1   
 21  12  25  1   
 22  12  26  1   
 23  13  14  1   
 24  13  27  1   
 25  13  28  1   
 26  14  15  1   
 27  14  29  1   
 28  14  30  1   
 29  15  16  1   
 30  15  31  1   
 31  15  32  1   
 32  16  17  1   
 33  16  33  1   
 34  16  34  1   
 35  17  18  1   
 36  17  35  1   
 37  17  36  1   
 38  18  37  1   
 39  18  38  1   
 40  18  39  1   
@<TRIPOS>SUBSTRUCTURE
  1 ****   8 GROUP 4 **** **** 0

# MOE 2024.06 (io_trps.svl 2023.06)
