@<TRIPOS>MOLECULE
NONAME
30 31 1 0 0 
SMALL
USER_CHARGES


@<TRIPOS>ATOM
  1 BR      -0.2680    -0.0770     2.2040 Br    1 <1>  -0.0570 
  2 C       -0.7250    -1.5740     1.0770 C.2   1 <1>   0.0570 
  3 C        0.1550    -2.2490     0.3210 C.2   1 <1>  -0.1100 
  4 C       -2.0800    -2.0160     1.0200 C.2   1 <1>  -0.1500 
  5 S       -0.6990    -3.5250    -0.5370 S.3   1 <1>  -0.0800 
  6 C       -2.2430    -3.0640     0.1860 C.2   1 <1>  -0.1400 
  7 C       -3.4520    -3.8870    -0.2200 C.3   1 <1>   0.2900 
  8 N       -4.7020    -3.1310     0.0040 N.3   1 <1>  -0.8100 
  9 C       -4.8400    -2.0030    -0.9540 C.3   1 <1>   0.1100 
 10 C       -5.8910    -4.0140    -0.0710 C.3   1 <1>   0.1100 
 11 C       -6.1370    -1.1890    -0.7230 C.3   1 <1>   0.3430 
 12 C       -7.2180    -3.2390     0.1280 C.3   1 <1>   0.3430 
 13 N       -6.9630    -1.7820     0.3820 N.4   1 <1>  -0.9590 
 14 C       -8.1980    -1.0030     0.6830 C.3   1 <1>   0.2630 
 15 H        1.2130    -2.1460     0.1670 H     1 <1>   0.1500 
 16 H       -2.8470    -1.5370     1.6000 H     1 <1>   0.1500 
 17 H       -3.4560    -4.7890     0.3690 H     1 <1>   0.0800 
 18 H       -3.3710    -4.1630    -1.2580 H     1 <1>   0.0800 
 19 H       -4.8360    -2.3780    -1.9640 H     1 <1>   0.0800 
 20 H       -3.9980    -1.3380    -0.8600 H     1 <1>   0.0800 
 21 H       -5.8170    -4.7730     0.6910 H     1 <1>   0.0800 
 22 H       -5.9170    -4.5160    -1.0240 H     1 <1>   0.0800 
 23 H       -6.7060    -1.1630    -1.6380 H     1 <1>   0.0800 
 24 H       -5.8700    -0.1750    -0.4750 H     1 <1>   0.0800 
 25 H       -7.7510    -3.6680     0.9610 H     1 <1>   0.0800 
 26 H       -7.8320    -3.3570    -0.7490 H     1 <1>   0.0800 
 27 H       -6.3220    -1.7820     1.1930 H     1 <1>   0.4500 
 28 H       -8.8610    -1.0060    -0.1670 H     1 <1>   0.0800 
 29 H       -7.9470     0.0180     0.9210 H     1 <1>   0.0800 
 30 H       -8.7150    -1.4330     1.5260 H     1 <1>   0.0800 
@<TRIPOS>BOND
  1   1   2  1   
  2   2   3  2   
  3   2   4  1   
  4   3   5  1   
  5   3  15  1   
  6   4   6  2   
  7   4  16  1   
  8   5   6  1   
  9   6   7  1   
 10   7   8  1   
 11   7  17  1   
 12   7  18  1   
 13   8   9  1   
 14   8  10  1   
 15   9  11  1   
 16   9  19  1   
 17   9  20  1   
 18  10  12  1   
 19  10  21  1   
 20  10  22  1   
 21  11  13  1   
 22  11  23  1   
 23  11  24  1   
 24  12  13  1   
 25  12  25  1   
 26  12  26  1   
 27  13  14  1   
 28  13  27  1   
 29  14  28  1   
 30  14  29  1   
 31  14  30  1   
@<TRIPOS>SUBSTRUCTURE
  1 ****   8 GROUP 4 **** **** 0

# MOE 2024.06 (io_trps.svl 2023.06)
