@<TRIPOS>MOLECULE
NONAME
35 37 1 0 0 
SMALL
USER_CHARGES


@<TRIPOS>ATOM
  1 BR      -1.7890    -0.1960     3.2520 Br    1 <1>  -0.0580 
  2 C       -2.5230     0.0020     1.4830 C.2   1 <1>   0.1980 
  3 O       -3.6370    -0.6370     1.2090 O.3   1 <1>  -0.2800 
  4 C       -2.0510     0.7210     0.4480 C.2   1 <1>  -0.1500 
  5 C       -3.9260    -0.3350    -0.0480 C.2   1 <1>  -0.0400 
  6 C       -2.9870     0.4940    -0.5720 C.2   1 <1>  -0.1500 
  7 C       -5.1780    -0.9210    -0.6880 C.3   1 <1>   0.2900 
  8 N       -6.4140    -0.3950    -0.0830 N.3   1 <1>  -0.8100 
  9 C       -6.5200     1.0780    -0.2120 C.3   1 <1>   0.1100 
 10 C       -7.6070    -1.0480    -0.6690 C.3   1 <1>   0.1100 
 11 C       -7.8260     1.6270     0.3950 C.3   1 <1>   0.2090 
 12 C       -8.9230    -0.5200    -0.0690 C.3   1 <1>   0.2090 
 13 N       -9.0150     0.9640    -0.2110 N.pl3 1 <1>  -0.8380 
 14 C      -10.2410     1.5710    -0.0150 C.ar  1 <1>   0.4100 
 15 N      -11.1070     0.9640     0.7900 N.ar  1 <1>  -0.6200 
 16 C      -10.5140     2.7780    -0.6540 C.ar  1 <1>  -0.1500 
 17 C      -12.2640     1.5800     0.9650 C.ar  1 <1>   0.1600 
 18 C      -11.7210     3.4080    -0.4640 C.ar  1 <1>  -0.1500 
 19 C      -12.6190     2.7810     0.3760 C.ar  1 <1>  -0.1500 
 20 H       -1.1690     1.3320     0.3920 H     1 <1>   0.1500 
 21 H       -2.9390     0.9120    -1.5610 H     1 <1>   0.1500 
 22 H       -5.1500    -1.9900    -0.5640 H     1 <1>   0.0800 
 23 H       -5.1730    -0.7030    -1.7420 H     1 <1>   0.0800 
 24 H       -6.4770     1.3590    -1.2500 H     1 <1>   0.0800 
 25 H       -5.6940     1.5430     0.2980 H     1 <1>   0.0800 
 26 H       -7.5530    -2.1090    -0.4940 H     1 <1>   0.0800 
 27 H       -7.6290    -0.8830    -1.7330 H     1 <1>   0.0800 
 28 H       -7.8770     2.6890     0.2340 H     1 <1>   0.0800 
 29 H       -7.8230     1.4490     1.4570 H     1 <1>   0.0800 
 30 H       -8.9720    -0.7840     0.9730 H     1 <1>   0.0800 
 31 H       -9.7580    -0.9780    -0.5700 H     1 <1>   0.0800 
 32 H       -9.7680     3.1990    -1.2990 H     1 <1>   0.1500 
 33 H      -12.9720     1.0980     1.6160 H     1 <1>   0.1500 
 34 H      -11.9560     4.3410    -0.9460 H     1 <1>   0.1500 
 35 H      -13.5820     3.2160     0.5700 H     1 <1>   0.1500 
@<TRIPOS>BOND
  1   1   2  1   
  2   2   3  1   
  3   2   4  2   
  4   3   5  1   
  5   4   6  1   
  6   4  20  1   
  7   5   6  2   
  8   5   7  1   
  9   6  21  1   
 10   7   8  1   
 11   7  22  1   
 12   7  23  1   
 13   8   9  1   
 14   8  10  1   
 15   9  11  1   
 16   9  24  1   
 17   9  25  1   
 18  10  12  1   
 19  10  26  1   
 20  10  27  1   
 21  11  13  1   
 22  11  28  1   
 23  11  29  1   
 24  12  13  1   
 25  12  30  1   
 26  12  31  1   
 27  13  14  1   
 28  14  15  ar  
 29  14  16  ar  
 30  15  17  ar  
 31  16  18  ar  
 32  16  32  1   
 33  17  19  ar  
 34  17  33  1   
 35  18  19  ar  
 36  18  34  1   
 37  19  35  1   
@<TRIPOS>SUBSTRUCTURE
  1 ****   9 GROUP 4 **** **** 0

# MOE 2024.06 (io_trps.svl 2023.06)
