@<TRIPOS>MOLECULE
NONAME
40 41 1 0 0 
SMALL
USER_CHARGES


@<TRIPOS>ATOM
  1 BR      -0.1660     0.0740    -1.1950 Br    1 <1>  -0.1110 
  2 C       -1.7640     1.1340    -1.0460 C.ar  1 <1>   0.1110 
  3 C       -1.7260     2.3030    -0.3210 C.ar  1 <1>  -0.1500 
  4 C       -2.9140     0.6890    -1.6760 C.ar  1 <1>  -0.1500 
  5 C       -2.8830     3.0800    -0.2090 C.ar  1 <1>   0.0860 
  6 C       -4.0580     1.4540    -1.5660 C.ar  1 <1>  -0.1500 
  7 C       -2.9400     4.3140     0.5250 C.2   1 <1>   0.5440 
  8 C       -4.0580     2.6440    -0.8400 C.ar  1 <1>   0.1790 
  9 O       -1.9570     4.7500     1.1020 O.2   1 <1>  -0.5700 
 10 N       -4.1340     5.0010     0.5660 N.am  1 <1>  -0.4200 
 11 N       -5.2260     3.3690    -0.7600 N.2   1 <1>  -0.6290 
 12 C       -5.2160     4.4630    -0.0960 C.2   1 <1>   0.6510 
 13 C       -4.2420     6.3020     1.2960 C.3   1 <1>   0.0600 
 14 S       -6.7480     5.3770    -0.0070 S.3   1 <1>  -0.3710 
 15 C       -7.9060     4.4200    -1.1040 C.3   1 <1>   0.1310 
 16 C       -9.2890     5.0590    -1.1310 C.2   1 <1>   0.5690 
 17 O       -9.5440     5.7710    -2.0760 O.2   1 <1>  -0.5700 
 18 N      -10.2160     4.8110    -0.1420 N.am  1 <1>  -0.6600 
 19 C      -11.5660     5.4370    -0.2140 C.3   1 <1>   0.1400 
 20 C       -9.9110     4.0710     1.1140 C.3   1 <1>   0.1400 
 21 C      -12.4790     4.6160    -1.1220 C.3   1 <1>  -0.2400 
 22 C      -10.3410     2.6120     0.9850 C.3   1 <1>  -0.2400 
 23 H       -0.8140     2.6200     0.1550 H     1 <1>   0.1500 
 24 H       -2.9040    -0.2310    -2.2340 H     1 <1>   0.1500 
 25 H       -4.9690     1.1390    -2.0420 H     1 <1>   0.1500 
 26 H       -3.3020     6.5870     1.7330 H     1 <1>   0.0800 
 27 H       -4.9700     6.2160     2.0830 H     1 <1>   0.0800 
 28 H       -4.5460     7.0770     0.6140 H     1 <1>   0.0800 
 29 H       -7.9500     3.4130    -0.7380 H     1 <1>   0.0800 
 30 H       -7.4790     4.4250    -2.0900 H     1 <1>   0.0800 
 31 H      -11.4740     6.4350    -0.6100 H     1 <1>   0.0800 
 32 H      -11.9970     5.5120     0.7690 H     1 <1>   0.0800 
 33 H      -10.4220     4.5320     1.9420 H     1 <1>   0.0800 
 34 H       -8.8590     4.1180     1.3280 H     1 <1>   0.0800 
 35 H      -12.0640     4.5650    -2.1130 H     1 <1>   0.0800 
 36 H      -13.4430     5.0870    -1.1850 H     1 <1>   0.0800 
 37 H      -12.6100     3.6220    -0.7380 H     1 <1>   0.0800 
 38 H      -11.4090     2.5400     0.9070 H     1 <1>   0.0800 
 39 H      -10.0330     2.0680     1.8600 H     1 <1>   0.0800 
 40 H       -9.8870     2.1580     0.1230 H     1 <1>   0.0800 
@<TRIPOS>BOND
  1   1   2  1   
  2   2   3  ar  
  3   2   4  ar  
  4   3   5  ar  
  5   3  23  1   
  6   4   6  ar  
  7   4  24  1   
  8   5   7  1   
  9   5   8  ar  
 10   6   8  ar  
 11   6  25  1   
 12   7   9  2   
 13   7  10  am  
 14   8  11  1   
 15  10  12  1   
 16  10  13  1   
 17  11  12  2   
 18  12  14  1   
 19  13  26  1   
 20  13  27  1   
 21  13  28  1   
 22  14  15  1   
 23  15  16  1   
 24  15  29  1   
 25  15  30  1   
 26  16  17  2   
 27  16  18  am  
 28  18  19  1   
 29  18  20  1   
 30  19  21  1   
 31  19  31  1   
 32  19  32  1   
 33  20  22  1   
 34  20  33  1   
 35  20  34  1   
 36  21  35  1   
 37  21  36  1   
 38  21  37  1   
 39  22  38  1   
 40  22  39  1   
 41  22  40  1   
@<TRIPOS>SUBSTRUCTURE
  1 ****  11 GROUP 4 **** **** 0

# MOE 2024.06 (io_trps.svl 2023.06)
