@<TRIPOS>MOLECULE
NONAME
29 28 1 0 0 
SMALL
USER_CHARGES


@<TRIPOS>ATOM
  1 S       -0.1300    -0.7490     1.5790 S.3   1 <1>  -0.4600 
  2 C       -1.3470     0.3030     0.7200 C.3   1 <1>   0.0700 
  3 C        0.9200    -1.4010     0.2510 C.3   1 <1>   0.0700 
  4 C       -2.2510    -0.5480    -0.1810 C.3   1 <1>   0.1400 
  5 C        2.0690    -2.1700     0.9010 C.3   1 <1>   0.1400 
  6 N       -2.7850    -1.7060     0.5760 N.am  1 <1>  -0.7300 
  7 N        2.9300    -2.7790    -0.1450 N.am  1 <1>  -0.7300 
  8 C       -3.9420    -2.4190     0.3820 C.2   1 <1>   0.5690 
  9 C        4.1460    -2.3530    -0.6220 C.2   1 <1>   0.5690 
 10 O       -4.1410    -3.3430     1.1430 O.2   1 <1>  -0.5700 
 11 C       -4.9690    -2.0840    -0.7600 C.3   1 <1>   1.0810 
 12 O        4.6640    -3.0580    -1.4620 O.2   1 <1>  -0.5700 
 13 C        4.8500    -1.0310    -0.1410 C.3   1 <1>   1.0810 
 14 F       -5.9660    -2.9600    -0.8850 F     1 <1>  -0.3400 
 15 F       -4.3910    -2.0240    -1.9610 F     1 <1>  -0.3400 
 16 F       -5.5500    -0.8960    -0.5890 F     1 <1>  -0.3400 
 17 F        5.9620    -0.7230    -0.8070 F     1 <1>  -0.3400 
 18 F        4.0560     0.0360    -0.2560 F     1 <1>  -0.3400 
 19 F        5.2000    -1.0770     1.1450 F     1 <1>  -0.3400 
 20 H       -0.8020     1.0360     0.1520 H     1 <1>   0.0800 
 21 H       -1.9240     0.7980     1.4810 H     1 <1>   0.0800 
 22 H        1.2800    -0.5620    -0.3170 H     1 <1>   0.0800 
 23 H        0.3100    -2.0460    -0.3560 H     1 <1>   0.0800 
 24 H       -1.6850    -0.9070    -1.0230 H     1 <1>   0.0800 
 25 H       -3.0580     0.0610    -0.5520 H     1 <1>   0.0800 
 26 H        1.6710    -2.9510     1.5280 H     1 <1>   0.0800 
 27 H        2.6420    -1.5030     1.5230 H     1 <1>   0.0800 
 28 H       -2.1890    -2.0110     1.3570 H     1 <1>   0.3700 
 29 H        2.5940    -3.6620    -0.5430 H     1 <1>   0.3700 
@<TRIPOS>BOND
  1   1   2  1   
  2   1   3  1   
  3   2   4  1   
  4   2  20  1   
  5   2  21  1   
  6   3   5  1   
  7   3  22  1   
  8   3  23  1   
  9   4   6  1   
 10   4  24  1   
 11   4  25  1   
 12   5   7  1   
 13   5  26  1   
 14   5  27  1   
 15   6   8  am  
 16   6  28  1   
 17   7   9  am  
 18   7  29  1   
 19   8  10  2   
 20   8  11  1   
 21   9  12  2   
 22   9  13  1   
 23  11  14  1   
 24  11  15  1   
 25  11  16  1   
 26  13  17  1   
 27  13  18  1   
 28  13  19  1   
@<TRIPOS>SUBSTRUCTURE
  1 ****   3 GROUP 4 **** **** 0

# MOE 2024.06 (io_trps.svl 2023.06)
