@<TRIPOS>MOLECULE
NONAME
40 42 1 0 0 
SMALL
USER_CHARGES


@<TRIPOS>ATOM
  1 F       -0.2670     0.5820     0.9700 F     1 <1>  -0.3400 
  2 C       -1.5700     0.3630     1.1040 C.3   1 <1>   1.1640 
  3 F       -1.7810    -0.8790     0.6880 F     1 <1>  -0.3400 
  4 F       -1.8150     0.3670     2.4080 F     1 <1>  -0.3400 
  5 C       -2.4400     1.3830     0.3510 C.ar  1 <1>  -0.1440 
  6 C       -3.8190     1.2130     0.3050 C.ar  1 <1>  -0.1500 
  7 C       -1.8860     2.4860    -0.2910 C.ar  1 <1>  -0.1500 
  8 C       -4.6650     2.1040    -0.3600 C.ar  1 <1>   0.0540 
  9 C       -2.6970     3.3850    -0.9580 C.ar  1 <1>  -0.1500 
 10 C       -6.1060     1.9090    -0.3970 C.2   1 <1>   0.4620 
 11 C       -4.0650     3.1940    -0.9910 C.ar  1 <1>  -0.1500 
 12 N       -6.9460     2.6840    -0.9970 N.2   1 <1>  -0.4100 
 13 N       -6.7070     0.8690     0.2110 N.2   1 <1>  -0.5650 
 14 O       -8.0820     2.1470    -0.7760 O.3   1 <1>  -0.0190 
 15 C       -7.9550     1.0660    -0.0590 C.2   1 <1>   0.3930 
 16 C       -9.1450     0.3070     0.3010 C.2   1 <1>   0.7150 
 17 O       -9.0760    -0.7100     0.9700 O.2   1 <1>  -0.5700 
 18 N      -10.3900     0.7200    -0.1080 N.am  1 <1>  -0.7300 
 19 C      -11.6670     0.0480     0.1850 C.3   1 <1>   0.2200 
 20 C      -12.3240    -0.3630    -1.1370 C.3   1 <1>  -0.1600 
 21 C      -12.5610     1.0100     0.9740 C.3   1 <1>  -0.1600 
 22 C      -13.7130    -0.9720    -0.9000 C.3   1 <1>  -0.1600 
 23 C      -13.9510     0.4040     1.2160 C.3   1 <1>  -0.1600 
 24 C      -14.6110    -0.0140    -0.1050 C.3   1 <1>  -0.1600 
 25 H       -4.2580     0.3610     0.8010 H     1 <1>   0.1500 
 26 H       -0.8220     2.6570    -0.2790 H     1 <1>   0.1500 
 27 H       -2.2610     4.2360    -1.4530 H     1 <1>   0.1500 
 28 H       -4.6790     3.9060    -1.5160 H     1 <1>   0.1500 
 29 H      -10.4710     1.5680    -0.6700 H     1 <1>   0.3700 
 30 H      -11.4940    -0.8350     0.7790 H     1 <1>   0.0800 
 31 H      -11.7010    -1.0870    -1.6330 H     1 <1>   0.0800 
 32 H      -12.4250     0.4970    -1.7750 H     1 <1>   0.0800 
 33 H      -12.6730     1.9310     0.4290 H     1 <1>   0.0800 
 34 H      -12.1000     1.2270     1.9220 H     1 <1>   0.0800 
 35 H      -13.6090    -1.8960    -0.3550 H     1 <1>   0.0800 
 36 H      -14.1750    -1.1990    -1.8450 H     1 <1>   0.0800 
 37 H      -14.5760     1.1210     1.7200 H     1 <1>   0.0800 
 38 H      -13.8580    -0.4580     1.8550 H     1 <1>   0.0800 
 39 H      -15.5550    -0.4910     0.0990 H     1 <1>   0.0800 
 40 H      -14.8090     0.8630    -0.6980 H     1 <1>   0.0800 
@<TRIPOS>BOND
  1   1   2  1   
  2   2   3  1   
  3   2   4  1   
  4   2   5  1   
  5   5   6  ar  
  6   5   7  ar  
  7   6   8  ar  
  8   6  25  1   
  9   7   9  ar  
 10   7  26  1   
 11   8  10  1   
 12   8  11  ar  
 13   9  11  ar  
 14   9  27  1   
 15  10  12  2   
 16  10  13  1   
 17  11  28  1   
 18  12  14  1   
 19  13  15  2   
 20  14  15  1   
 21  15  16  1   
 22  16  17  2   
 23  16  18  am  
 24  18  19  1   
 25  18  29  1   
 26  19  20  1   
 27  19  21  1   
 28  19  30  1   
 29  20  22  1   
 30  20  31  1   
 31  20  32  1   
 32  21  23  1   
 33  21  33  1   
 34  21  34  1   
 35  22  24  1   
 36  22  35  1   
 37  22  36  1   
 38  23  24  1   
 39  23  37  1   
 40  23  38  1   
 41  24  39  1   
 42  24  40  1   
@<TRIPOS>SUBSTRUCTURE
  1 ****  13 GROUP 4 **** **** 0

# MOE 2024.06 (io_trps.svl 2023.06)
