@<TRIPOS>MOLECULE
NONAME
41 42 1 0 0 
SMALL
USER_CHARGES


@<TRIPOS>ATOM
  1 O        0.4260    -0.5830    -0.0350 O.3   1 <1>  -0.3630 
  2 C       -0.8730    -0.9410    -0.1420 C.ar  1 <1>   0.0830 
  3 C        0.9350    -0.5420     1.2830 C.3   1 <1>   0.1200 
  4 C       -1.2240    -2.2890    -0.2390 C.ar  1 <1>  -0.1440 
  5 C       -1.8410     0.0590    -0.1510 C.ar  1 <1>  -0.1440 
  6 C        2.3140     0.1280     1.2520 C.3   1 <1>   0.3430 
  7 C       -2.5730    -2.6320    -0.2920 C.ar  1 <1>  -0.1440 
  8 C       -0.1530    -3.3770    -0.2940 C.3   1 <1>  -0.0970 
  9 C       -3.1740    -0.3010    -0.2150 C.ar  1 <1>  -0.1500 
 10 C       -1.4740     1.5360    -0.0970 C.3   1 <1>  -0.0960 
 11 N        3.0950    -0.3320     0.0640 N.4   1 <1>  -0.9590 
 12 C       -3.5340    -1.6340    -0.2780 C.ar  1 <1>  -0.1500 
 13 C       -3.0420    -4.0790    -0.3670 C.3   1 <1>  -0.0970 
 14 C        3.6610    -1.6940     0.1850 C.3   1 <1>   0.3430 
 15 C        4.2120     0.5590    -0.3220 C.3   1 <1>   0.3430 
 16 C        4.7120    -1.7580    -0.9140 C.3   1 <1>  -0.1600 
 17 C        5.0880    -0.3040    -1.2210 C.3   1 <1>  -0.1600 
 18 H        1.0020    -1.5500     1.6530 H     1 <1>   0.0800 
 19 H        0.2560     0.0150     1.9050 H     1 <1>   0.0800 
 20 H        2.8500    -0.0760     2.1650 H     1 <1>   0.0800 
 21 H        2.1630     1.1930     1.1870 H     1 <1>   0.0800 
 22 H        0.7890    -2.9820    -0.6180 H     1 <1>   0.0800 
 23 H       -0.4290    -4.1440    -0.9950 H     1 <1>   0.0800 
 24 H       -0.0360    -3.8220     0.6780 H     1 <1>   0.0800 
 25 H       -3.9430     0.4500    -0.2160 H     1 <1>   0.1500 
 26 H       -1.2020     1.8110     0.9050 H     1 <1>   0.0800 
 27 H       -2.3050     2.1450    -0.4040 H     1 <1>   0.0800 
 28 H       -0.6510     1.7390    -0.7570 H     1 <1>   0.0800 
 29 H        2.4160    -0.3590    -0.7180 H     1 <1>   0.4500 
 30 H       -4.5790    -1.8870    -0.3230 H     1 <1>   0.1500 
 31 H       -2.5570    -4.6700     0.3880 H     1 <1>   0.0800 
 32 H       -2.8160    -4.4880    -1.3360 H     1 <1>   0.0800 
 33 H       -4.1030    -4.1490    -0.2120 H     1 <1>   0.0800 
 34 H        2.9060    -2.4540     0.0610 H     1 <1>   0.0800 
 35 H        4.1370    -1.8100     1.1460 H     1 <1>   0.0800 
 36 H        4.7700     0.8480     0.5540 H     1 <1>   0.0800 
 37 H        3.8600     1.4410    -0.8340 H     1 <1>   0.0800 
 38 H        4.2930    -2.2270    -1.7880 H     1 <1>   0.0800 
 39 H        5.5620    -2.3340    -0.5920 H     1 <1>   0.0800 
 40 H        6.1290    -0.1110    -1.0250 H     1 <1>   0.0800 
 41 H        4.8890    -0.0750    -2.2540 H     1 <1>   0.0800 
@<TRIPOS>BOND
  1   1   2  1   
  2   1   3  1   
  3   2   4  ar  
  4   2   5  ar  
  5   3   6  1   
  6   3  18  1   
  7   3  19  1   
  8   4   7  ar  
  9   4   8  1   
 10   5   9  ar  
 11   5  10  1   
 12   6  11  1   
 13   6  20  1   
 14   6  21  1   
 15   7  12  ar  
 16   7  13  1   
 17   8  22  1   
 18   8  23  1   
 19   8  24  1   
 20   9  12  ar  
 21   9  25  1   
 22  10  26  1   
 23  10  27  1   
 24  10  28  1   
 25  11  14  1   
 26  11  15  1   
 27  11  29  1   
 28  12  30  1   
 29  13  31  1   
 30  13  32  1   
 31  13  33  1   
 32  14  16  1   
 33  14  34  1   
 34  14  35  1   
 35  15  17  1   
 36  15  36  1   
 37  15  37  1   
 38  16  17  1   
 39  16  38  1   
 40  16  39  1   
 41  17  40  1   
 42  17  41  1   
@<TRIPOS>SUBSTRUCTURE
  1 ****   1 GROUP 4 **** **** 0

# MOE 2024.06 (io_trps.svl 2023.06)
