@<TRIPOS>MOLECULE
NONAME
30 32 1 0 0 
SMALL
USER_CHARGES


@<TRIPOS>ATOM
  1 S       -0.0930    -0.1620     0.2430 S.3   1 <1>  -0.0800 
  2 C        1.6440    -0.1340     0.1420 C.2   1 <1>   0.1040 
  3 C       -0.1440     1.5900     0.1430 C.2   1 <1>  -0.1400 
  4 N        2.4100    -1.2520     0.1670 N.am  1 <1>  -0.4940 
  5 C        2.1560     1.1340     0.0340 C.2   1 <1>  -0.0760 
  6 C        1.0900     2.1210     0.0520 C.2   1 <1>  -0.1810 
  7 C       -1.4920     2.2800     0.1730 C.3   1 <1>   0.5230 
  8 C        3.7480    -1.1440     0.0830 C.2   1 <1>   0.8210 
  9 C        3.5780     1.2220    -0.0720 C.cat 1 <1>   0.7850 
 10 C        1.2260     3.6390    -0.0150 C.3   1 <1>   0.0210 
 11 N       -1.2950     3.6890    -0.3010 N.4   1 <1>  -0.9590 
 12 S        4.7040    -2.4320     0.1150 S.2   1 <1>  -0.3800 
 13 N        4.2980     0.0890    -0.0350 N.pl3 1 <1>  -0.6850 
 14 N        4.2460     2.3530    -0.2140 N.pl3 1 <1>  -0.7540 
 15 C       -0.1050     4.3450     0.3480 C.3   1 <1>   0.3430 
 16 C       -2.5410     4.4950    -0.1030 C.3   1 <1>   0.2630 
 17 H        2.0000    -2.1890     0.2520 H     1 <1>   0.3700 
 18 H       -1.8810     2.2660     1.1780 H     1 <1>   0.0800 
 19 H       -2.1840     1.7640    -0.4740 H     1 <1>   0.0800 
 20 H        1.5230     3.9340    -1.0060 H     1 <1>   0.0800 
 21 H        1.9760     3.9750     0.6790 H     1 <1>   0.0800 
 22 H       -1.1080     3.6250    -1.3120 H     1 <1>   0.4500 
 23 H        5.3120     0.0860    -0.0990 H     1 <1>   0.4500 
 24 H        5.2640     2.4120    -0.2900 H     1 <1>   0.4500 
 25 H        3.7970     3.2650    -0.2740 H     1 <1>   0.4500 
 26 H       -0.0480     5.3800     0.0510 H     1 <1>   0.0800 
 27 H       -0.2310     4.3160     1.4180 H     1 <1>   0.0800 
 28 H       -2.7780     4.5730     0.9460 H     1 <1>   0.0800 
 29 H       -3.3730     4.0330    -0.6110 H     1 <1>   0.0800 
 30 H       -2.4110     5.4890    -0.5010 H     1 <1>   0.0800 
@<TRIPOS>BOND
  1   1   2  1   
  2   1   3  1   
  3   2   4  1   
  4   2   5  2   
  5   3   6  2   
  6   3   7  1   
  7   4   8  am  
  8   4  17  1   
  9   5   6  1   
 10   5   9  1   
 11   6  10  1   
 12   7  11  1   
 13   7  18  1   
 14   7  19  1   
 15   8  12  2   
 16   8  13  1   
 17   9  13  ar  
 18   9  14  ar  
 19  10  15  1   
 20  10  20  1   
 21  10  21  1   
 22  11  15  1   
 23  11  16  1   
 24  11  22  1   
 25  13  23  1   
 26  14  24  1   
 27  14  25  1   
 28  15  26  1   
 29  15  27  1   
 30  16  28  1   
 31  16  29  1   
 32  16  30  1   
@<TRIPOS>SUBSTRUCTURE
  1 ****   5 GROUP 4 **** **** 0

# MOE 2024.06 (io_trps.svl 2023.06)
