@<TRIPOS>MOLECULE
NONAME
58 60 1 0 0 
SMALL
USER_CHARGES


@<TRIPOS>ATOM
  1 O       -0.6170    -0.3870    -0.1900 O.3   1 <1>  -0.3630 
  2 C       -1.8710    -0.8580     0.0080 C.ar  1 <1>   0.0820 
  3 C        0.4130    -1.0540     0.5070 C.3   1 <1>   0.0400 
  4 C       -2.5590    -0.7000     1.2160 C.ar  1 <1>   0.0820 
  5 C       -2.4690    -1.5270    -1.0450 C.ar  1 <1>  -0.1500 
  6 O       -2.0720    -0.0150     2.2830 O.3   1 <1>  -0.3630 
  7 C       -3.8140    -1.2630     1.3640 C.ar  1 <1>  -0.1500 
  8 C       -3.7400    -2.0740    -0.8990 C.ar  1 <1>   0.0820 
  9 C       -1.6630     1.3220     2.0770 C.3   1 <1>   0.0400 
 10 C       -4.4090    -1.9480     0.3150 C.ar  1 <1>  -0.1440 
 11 O       -4.3810    -2.7370    -1.9040 O.3   1 <1>  -0.3630 
 12 C       -5.7870    -2.5520     0.4970 C.3   1 <1>   0.4860 
 13 C       -3.6890    -3.0940    -3.0860 C.3   1 <1>   0.0400 
 14 N       -6.7090    -1.9140    -0.4740 N.4   1 <1>  -0.9590 
 15 C       -6.8680    -0.4350    -0.2300 C.3   1 <1>   0.3430 
 16 C       -8.0380    -2.6140    -0.5590 C.3   1 <1>   0.3430 
 17 C       -7.7900     0.2420    -1.2650 C.3   1 <1>   0.2090 
 18 C       -8.9740    -1.9780    -1.6070 C.3   1 <1>   0.2090 
 19 N       -9.0740    -0.5000    -1.4360 N.pl3 1 <1>  -0.8380 
 20 C      -10.2040    -0.0020    -0.7880 C.ar  1 <1>   0.1000 
 21 C      -11.2380     0.5900    -1.5140 C.ar  1 <1>  -0.1430 
 22 C      -10.3180    -0.0920     0.5960 C.ar  1 <1>  -0.1500 
 23 C      -12.3520     1.0750    -0.8510 C.ar  1 <1>  -0.1500 
 24 C      -11.1550     0.7130    -3.0290 C.3   1 <1>  -0.0970 
 25 C      -11.4320     0.3930     1.2580 C.ar  1 <1>  -0.1430 
 26 C      -12.4510     0.9770     0.5260 C.ar  1 <1>  -0.1500 
 27 C      -11.5560     0.2950     2.7680 C.3   1 <1>  -0.0970 
 28 H        1.3490    -0.5940     0.2460 H     1 <1>   0.0800 
 29 H        0.4170    -2.0890     0.2140 H     1 <1>   0.0800 
 30 H        0.2440    -0.9670     1.5650 H     1 <1>   0.0800 
 31 H       -1.9140    -1.6050    -1.9610 H     1 <1>   0.1500 
 32 H       -4.3090    -1.1500     2.3130 H     1 <1>   0.1500 
 33 H       -1.5780     1.7980     3.0370 H     1 <1>   0.0800 
 34 H       -2.3980     1.8280     1.4780 H     1 <1>   0.0800 
 35 H       -0.7070     1.3330     1.5860 H     1 <1>   0.0800 
 36 H       -6.1350    -2.3960     1.5040 H     1 <1>   0.0800 
 37 H       -5.7300    -3.6120     0.3090 H     1 <1>   0.0800 
 38 H       -3.4030    -2.2000    -3.6130 H     1 <1>   0.0800 
 39 H       -4.3480    -3.6810    -3.7010 H     1 <1>   0.0800 
 40 H       -2.8220    -3.6760    -2.8250 H     1 <1>   0.0800 
 41 H       -6.2240    -2.0200    -1.3820 H     1 <1>   0.4500 
 42 H       -5.9040     0.0480    -0.2560 H     1 <1>   0.0800 
 43 H       -7.2880    -0.2740     0.7480 H     1 <1>   0.0800 
 44 H       -8.5310    -2.5680     0.3980 H     1 <1>   0.0800 
 45 H       -7.8920    -3.6520    -0.8060 H     1 <1>   0.0800 
 46 H       -7.2890     0.2980    -2.2150 H     1 <1>   0.0800 
 47 H       -8.0000     1.2510    -0.9500 H     1 <1>   0.0800 
 48 H       -9.9560    -2.4130    -1.5200 H     1 <1>   0.0800 
 49 H       -8.6120    -2.1920    -2.5970 H     1 <1>   0.0800 
 50 H       -9.5290    -0.5460     1.1590 H     1 <1>   0.1500 
 51 H      -13.1550     1.5330    -1.4010 H     1 <1>   0.1500 
 52 H      -11.0840    -0.2650    -3.4690 H     1 <1>   0.0800 
 53 H      -10.2830     1.2790    -3.3000 H     1 <1>   0.0800 
 54 H      -12.0220     1.2070    -3.4280 H     1 <1>   0.0800 
 55 H      -13.3250     1.3600     1.0240 H     1 <1>   0.1500 
 56 H      -10.6700    -0.1270     3.2050 H     1 <1>   0.0800 
 57 H      -12.3960    -0.3260     3.0250 H     1 <1>   0.0800 
 58 H      -11.7110     1.2740     3.1850 H     1 <1>   0.0800 
@<TRIPOS>BOND
  1   1   2  1   
  2   1   3  1   
  3   2   4  ar  
  4   2   5  ar  
  5   3  28  1   
  6   3  29  1   
  7   3  30  1   
  8   4   6  1   
  9   4   7  ar  
 10   5   8  ar  
 11   5  31  1   
 12   6   9  1   
 13   7  10  ar  
 14   7  32  1   
 15   8  10  ar  
 16   8  11  1   
 17   9  33  1   
 18   9  34  1   
 19   9  35  1   
 20  10  12  1   
 21  11  13  1   
 22  12  14  1   
 23  12  36  1   
 24  12  37  1   
 25  13  38  1   
 26  13  39  1   
 27  13  40  1   
 28  14  15  1   
 29  14  16  1   
 30  14  41  1   
 31  15  17  1   
 32  15  42  1   
 33  15  43  1   
 34  16  18  1   
 35  16  44  1   
 36  16  45  1   
 37  17  19  1   
 38  17  46  1   
 39  17  47  1   
 40  18  19  1   
 41  18  48  1   
 42  18  49  1   
 43  19  20  1   
 44  20  21  ar  
 45  20  22  ar  
 46  21  23  ar  
 47  21  24  1   
 48  22  25  ar  
 49  22  50  1   
 50  23  26  ar  
 51  23  51  1   
 52  24  52  1   
 53  24  53  1   
 54  24  54  1   
 55  25  26  ar  
 56  25  27  1   
 57  26  55  1   
 58  27  56  1   
 59  27  57  1   
 60  27  58  1   
@<TRIPOS>SUBSTRUCTURE
  1 ****  15 GROUP 4 **** **** 0

# MOE 2024.06 (io_trps.svl 2023.06)
