@<TRIPOS>MOLECULE
NONAME
47 50 1 0 0 
SMALL
USER_CHARGES


@<TRIPOS>ATOM
  1 O        7.3910     6.9580     0.7720 O.2   1 <1>  -0.5700 
  2 C        6.6180     6.1140     0.3660 C.2   1 <1>   0.7930 
  3 O        5.3250     6.4310     0.2480 O.3   1 <1>  -0.4300 
  4 C        7.0170     4.7690    -0.0050 C.2   1 <1>   0.2770 
  5 C        4.8370     7.7140     0.5810 C.3   1 <1>   0.1200 
  6 N        8.3300     4.2640    -0.0330 N.pl3 1 <1>  -0.6290 
  7 C        6.2210     3.7390    -0.4030 C.2   1 <1>   0.1820 
  8 C        3.3310     7.7200     0.3430 C.3   1 <1>  -0.2400 
  9 C        8.2850     2.9810    -0.4390 C.cat 1 <1>   0.7830 
 10 C        9.5500     4.8540     0.2800 C.2   1 <1>   0.2290 
 11 N        7.0110     2.6640    -0.6670 N.pl3 1 <1>  -0.7000 
 12 C        4.7040     3.6240    -0.5770 C.3   1 <1>   0.2780 
 13 C        9.4550     2.1710    -0.5630 C.ar  1 <1>   0.0170 
 14 C       10.6900     4.1330     0.1800 C.2   1 <1>  -0.1780 
 15 N        4.2770     2.2200    -0.3920 N.3   1 <1>  -0.8100 
 16 C       10.6870     2.7690    -0.2410 C.ar  1 <1>   0.0280 
 17 C        9.4440     0.8300    -0.9810 C.ar  1 <1>  -0.1500 
 18 C        4.2140     1.8510     1.0440 C.3   1 <1>   0.1100 
 19 C        2.9490     1.9880    -1.0050 C.3   1 <1>   0.1100 
 20 C       11.8600     2.0140    -0.3440 C.ar  1 <1>  -0.1500 
 21 C       10.6090     0.1080    -1.0740 C.ar  1 <1>  -0.1500 
 22 C        3.6910     0.4150     1.2290 C.3   1 <1>   0.1200 
 23 C        2.4610     0.5490    -0.7560 C.3   1 <1>   0.1200 
 24 C       11.8240     0.7030    -0.7540 C.ar  1 <1>  -0.1500 
 25 O        2.4460     0.2730     0.6140 O.3   1 <1>  -0.5600 
 26 H        5.3280     8.4440    -0.0420 H     1 <1>   0.0800 
 27 H        5.0630     7.9140     1.6160 H     1 <1>   0.0800 
 28 H        3.1130     7.5180    -0.6910 H     1 <1>   0.0800 
 29 H        2.9320     8.6870     0.5890 H     1 <1>   0.0800 
 30 H        2.8490     6.9880     0.9660 H     1 <1>   0.0800 
 31 H        9.5570     5.8860     0.6000 H     1 <1>   0.1500 
 32 H        6.6150     1.7590    -0.9470 H     1 <1>   0.4500 
 33 H        4.4620     3.9360    -1.5790 H     1 <1>   0.0800 
 34 H        4.1750     4.2620     0.1100 H     1 <1>   0.0800 
 35 H       11.6410     4.5760     0.4200 H     1 <1>   0.1500 
 36 H        8.5140     0.3520    -1.2340 H     1 <1>   0.1500 
 37 H        3.5550     2.5210     1.5720 H     1 <1>   0.0800 
 38 H        5.1910     1.9230     1.4870 H     1 <1>   0.0800 
 39 H        3.0050     2.1550    -2.0670 H     1 <1>   0.0800 
 40 H        2.2240     2.6710    -0.5950 H     1 <1>   0.0800 
 41 H       12.8040     2.4690    -0.0980 H     1 <1>   0.1500 
 42 H       10.5960    -0.9210    -1.3950 H     1 <1>   0.1500 
 43 H        3.5650     0.1930     2.2740 H     1 <1>   0.0800 
 44 H        4.3710    -0.3010     0.8010 H     1 <1>   0.0800 
 45 H        3.1030    -0.1630    -1.2460 H     1 <1>   0.0800 
 46 H        1.4590     0.4240    -1.1270 H     1 <1>   0.0800 
 47 H       12.7320     0.1280    -0.8300 H     1 <1>   0.1500 
@<TRIPOS>BOND
  1   1   2  2   
  2   2   3  1   
  3   2   4  1   
  4   3   5  1   
  5   4   6  1   
  6   4   7  2   
  7   5   8  1   
  8   5  26  1   
  9   5  27  1   
 10   6   9  ar  
 11   6  10  1   
 12   7  11  1   
 13   7  12  1   
 14   8  28  1   
 15   8  29  1   
 16   8  30  1   
 17   9  11  ar  
 18   9  13  1   
 19  10  14  2   
 20  10  31  1   
 21  11  32  1   
 22  12  15  1   
 23  12  33  1   
 24  12  34  1   
 25  13  16  ar  
 26  13  17  ar  
 27  14  16  1   
 28  14  35  1   
 29  15  18  1   
 30  15  19  1   
 31  16  20  ar  
 32  17  21  ar  
 33  17  36  1   
 34  18  22  1   
 35  18  37  1   
 36  18  38  1   
 37  19  23  1   
 38  19  39  1   
 39  19  40  1   
 40  20  24  ar  
 41  20  41  1   
 42  21  24  ar  
 43  21  42  1   
 44  22  25  1   
 45  22  43  1   
 46  22  44  1   
 47  23  25  1   
 48  23  45  1   
 49  23  46  1   
 50  24  47  1   
@<TRIPOS>SUBSTRUCTURE
  1 ****  11 GROUP 4 **** **** 0

# MOE 2024.06 (io_trps.svl 2023.06)
