@<TRIPOS>MOLECULE
NONAME
51 54 1 0 0 
SMALL
USER_CHARGES


@<TRIPOS>ATOM
  1 F       -0.0990    -1.5420     0.0720 F     1 <1>  -0.3400 
  2 C       -0.4080    -2.0190     1.2740 C.3   1 <1>   1.0200 
  3 F        0.7010    -1.9690     2.0020 F     1 <1>  -0.3400 
  4 F       -1.2220    -1.1180     1.8140 F     1 <1>  -0.3400 
  5 C       -1.0740    -3.4010     1.2320 C.3   1 <1>   0.1760 
  6 N       -0.2280    -4.3490     0.4760 N.pl3 1 <1>   0.3140 
  7 C       -2.5180    -3.3540     0.6510 C.3   1 <1>  -0.1600 
  8 N        1.0810    -4.5610     0.7030 N.2   1 <1>  -0.7070 
  9 C       -0.7280    -5.2320    -0.4190 C.2   1 <1>  -0.0680 
 10 C       -3.0290    -4.7320     0.2160 C.3   1 <1>   0.4330 
 11 C        1.4280    -5.5520    -0.1060 C.2   1 <1>   0.2030 
 12 N       -2.0810    -5.2730    -0.7780 N.pl3 1 <1>  -0.8530 
 13 C        0.3050    -5.9980    -0.8180 C.2   1 <1>  -0.1500 
 14 C       -4.4250    -4.6420    -0.3890 C.ar  1 <1>  -0.1430 
 15 C        2.7510    -6.1580    -0.2620 C.2   1 <1>   0.7160 
 16 C       -4.6220    -4.1210    -1.6620 C.ar  1 <1>  -0.1500 
 17 C       -5.5250    -5.0790     0.3360 C.ar  1 <1>  -0.1500 
 18 O        2.8200    -7.3130    -0.6580 O.2   1 <1>  -0.5700 
 19 N        3.9410    -5.4990     0.0130 N.am  1 <1>  -0.6600 
 20 C       -5.8950    -4.0360    -2.1980 C.ar  1 <1>  -0.1500 
 21 C       -6.7990    -4.9950    -0.2000 C.ar  1 <1>  -0.1500 
 22 C        5.2090    -6.2440     0.2600 C.3   1 <1>   0.1400 
 23 C        4.0560    -4.0170     0.1350 C.3   1 <1>   0.1400 
 24 C       -6.9850    -4.4730    -1.4670 C.ar  1 <1>  -0.1500 
 25 C        6.3140    -5.7290    -0.6660 C.3   1 <1>  -0.1600 
 26 C        5.1760    -3.4940    -0.7720 C.3   1 <1>  -0.1600 
 27 C        6.5080    -4.2130    -0.5170 C.3   1 <1>  -0.0800 
 28 C        7.5880    -3.7090    -1.4800 C.3   1 <1>  -0.2400 
 29 H       -1.1210    -3.7680     2.2380 H     1 <1>   0.0800 
 30 H       -2.5440    -2.7020    -0.2040 H     1 <1>   0.0800 
 31 H       -3.1900    -2.9440     1.3840 H     1 <1>   0.0800 
 32 H       -3.0500    -5.3960     1.0640 H     1 <1>   0.0800 
 33 H       -2.4130    -6.1610    -1.1740 H     1 <1>   0.4000 
 34 H        0.3050    -6.8040    -1.5280 H     1 <1>   0.1500 
 35 H       -3.7800    -3.7820    -2.2410 H     1 <1>   0.1500 
 36 H       -5.4020    -5.4890     1.3230 H     1 <1>   0.1500 
 37 H       -6.0360    -3.6310    -3.1850 H     1 <1>   0.1500 
 38 H       -7.6470    -5.3360     0.3690 H     1 <1>   0.1500 
 39 H        5.0720    -7.3000     0.1010 H     1 <1>   0.0800 
 40 H        5.4990    -6.0990     1.2860 H     1 <1>   0.0800 
 41 H        4.2590    -3.7650     1.1610 H     1 <1>   0.0800 
 42 H        3.1410    -3.5340    -0.1560 H     1 <1>   0.0800 
 43 H       -7.9750    -4.4070    -1.8840 H     1 <1>   0.1500 
 44 H        6.0520    -5.9720    -1.6810 H     1 <1>   0.0800 
 45 H        7.2310    -6.2390    -0.4320 H     1 <1>   0.0800 
 46 H        5.2940    -2.4390    -0.6030 H     1 <1>   0.0800 
 47 H        4.8770    -3.6300    -1.7960 H     1 <1>   0.0800 
 48 H        6.8250    -4.0040     0.4920 H     1 <1>   0.0800 
 49 H        7.3060    -3.9020    -2.5010 H     1 <1>   0.0800 
 50 H        8.5230    -4.2020    -1.2830 H     1 <1>   0.0800 
 51 H        7.7320    -2.6500    -1.3580 H     1 <1>   0.0800 
@<TRIPOS>BOND
  1   1   2  1   
  2   2   3  1   
  3   2   4  1   
  4   2   5  1   
  5   5   6  1   
  6   5   7  1   
  7   5  29  1   
  8   6   8  1   
  9   6   9  1   
 10   7  10  1   
 11   7  30  1   
 12   7  31  1   
 13   8  11  2   
 14   9  12  1   
 15   9  13  2   
 16  10  12  1   
 17  10  14  1   
 18  10  32  1   
 19  11  13  1   
 20  11  15  1   
 21  12  33  1   
 22  13  34  1   
 23  14  16  ar  
 24  14  17  ar  
 25  15  18  2   
 26  15  19  am  
 27  16  20  ar  
 28  16  35  1   
 29  17  21  ar  
 30  17  36  1   
 31  19  22  1   
 32  19  23  1   
 33  20  24  ar  
 34  20  37  1   
 35  21  24  ar  
 36  21  38  1   
 37  22  25  1   
 38  22  39  1   
 39  22  40  1   
 40  23  26  1   
 41  23  41  1   
 42  23  42  1   
 43  24  43  1   
 44  25  27  1   
 45  25  44  1   
 46  25  45  1   
 47  26  27  1   
 48  26  46  1   
 49  26  47  1   
 50  27  28  1   
 51  27  48  1   
 52  28  49  1   
 53  28  50  1   
 54  28  51  1   
@<TRIPOS>SUBSTRUCTURE
  1 ****   6 GROUP 4 **** **** 0

# MOE 2024.06 (io_trps.svl 2023.06)
