@<TRIPOS>MOLECULE
NONAME
42 43 1 0 0 
SMALL
USER_CHARGES


@<TRIPOS>ATOM
  1 O       -0.1740    -1.9330     2.6080 O.2   1 <1>  -0.5700 
  2 C        0.3420    -1.5200     1.5980 C.2   1 <1>   0.5690 
  3 N       -0.3740    -0.9130     0.6170 N.am  1 <1>  -0.7300 
  4 C        1.8420    -1.6930     1.4230 C.3   1 <1>   0.0440 
  5 C       -1.8400    -0.7030     0.6080 C.3   1 <1>   0.1400 
  6 C        2.3250    -1.3670     0.0070 C.ar  1 <1>  -0.1430 
  7 C       -2.4650    -1.4760    -0.5560 C.3   1 <1>  -0.0220 
  8 C        2.1760    -2.2630    -1.0490 C.ar  1 <1>  -0.1440 
  9 C        2.9100    -0.1300    -0.2250 C.ar  1 <1>  -0.1500 
 10 C       -3.9740    -1.2800    -0.7000 C.2   1 <1>  -0.2760 
 11 C        2.6170    -1.9060    -2.3140 C.ar  1 <1>  -0.1500 
 12 C        1.5380    -3.6340    -0.8580 C.3   1 <1>  -0.0970 
 13 C        3.3470     0.2180    -1.4900 C.ar  1 <1>  -0.1500 
 14 C       -4.7460    -0.5490     0.1160 C.2   1 <1>  -0.2880 
 15 C       -4.5450    -2.0190    -1.9070 C.3   1 <1>  -0.0220 
 16 C        3.2000    -0.6720    -2.5370 C.ar  1 <1>  -0.1500 
 17 C       -6.2420    -0.3460    -0.0650 C.3   1 <1>  -0.0220 
 18 C       -6.0770    -2.1190    -1.8560 C.3   1 <1>  -0.1600 
 19 C       -6.7040    -0.7770    -1.4640 C.3   1 <1>  -0.1600 
 20 H        0.1340    -0.6220    -0.2250 H     1 <1>   0.3700 
 21 H        2.1020    -2.7020     1.6790 H     1 <1>   0.0800 
 22 H        2.3310    -1.0550     2.1350 H     1 <1>   0.0800 
 23 H       -2.0440     0.3480     0.5010 H     1 <1>   0.0800 
 24 H       -2.2640    -1.0430     1.5380 H     1 <1>   0.0800 
 25 H       -2.2650    -2.5240    -0.4110 H     1 <1>   0.0800 
 26 H       -1.9920    -1.1620    -1.4690 H     1 <1>   0.0800 
 27 H        3.0300     0.5740     0.5800 H     1 <1>   0.1500 
 28 H        2.5120    -2.5880    -3.1390 H     1 <1>   0.1500 
 29 H        0.5540    -3.5350    -0.4370 H     1 <1>   0.0800 
 30 H        2.1420    -4.2330    -0.2010 H     1 <1>   0.0800 
 31 H        1.4480    -4.1510    -1.7960 H     1 <1>   0.0800 
 32 H        3.8010     1.1790    -1.6590 H     1 <1>   0.1500 
 33 H       -4.3800    -0.0330     0.9870 H     1 <1>   0.1500 
 34 H       -4.1410    -3.0160    -1.9520 H     1 <1>   0.0800 
 35 H       -4.2490    -1.5000    -2.8010 H     1 <1>   0.0800 
 36 H        3.5400    -0.4050    -3.5220 H     1 <1>   0.1500 
 37 H       -6.4870     0.6910     0.0810 H     1 <1>   0.0800 
 38 H       -6.7610    -0.9210     0.6820 H     1 <1>   0.0800 
 39 H       -6.3560    -2.8620    -1.1290 H     1 <1>   0.0800 
 40 H       -6.4490    -2.4340    -2.8150 H     1 <1>   0.0800 
 41 H       -6.4070    -0.0280    -2.1780 H     1 <1>   0.0800 
 42 H       -7.7770    -0.8490    -1.4830 H     1 <1>   0.0800 
@<TRIPOS>BOND
  1   1   2  2   
  2   2   3  am  
  3   2   4  1   
  4   3   5  1   
  5   3  20  1   
  6   4   6  1   
  7   4  21  1   
  8   4  22  1   
  9   5   7  1   
 10   5  23  1   
 11   5  24  1   
 12   6   8  ar  
 13   6   9  ar  
 14   7  10  1   
 15   7  25  1   
 16   7  26  1   
 17   8  11  ar  
 18   8  12  1   
 19   9  13  ar  
 20   9  27  1   
 21  10  14  2   
 22  10  15  1   
 23  11  16  ar  
 24  11  28  1   
 25  12  29  1   
 26  12  30  1   
 27  12  31  1   
 28  13  16  ar  
 29  13  32  1   
 30  14  17  1   
 31  14  33  1   
 32  15  18  1   
 33  15  34  1   
 34  15  35  1   
 35  16  36  1   
 36  17  19  1   
 37  17  37  1   
 38  17  38  1   
 39  18  19  1   
 40  18  39  1   
 41  18  40  1   
 42  19  41  1   
 43  19  42  1   
@<TRIPOS>SUBSTRUCTURE
  1 ****   3 GROUP 4 **** **** 0

# MOE 2024.06 (io_trps.svl 2023.06)
