@<TRIPOS>MOLECULE
NONAME
41 42 1 0 0 
SMALL
USER_CHARGES


@<TRIPOS>ATOM
  1 O        0.0230     0.5920    -0.8020 O.2   1 <1>  -0.5700 
  2 C        0.3390     1.6210    -0.2540 C.2   1 <1>   0.5690 
  3 N        1.6350     1.9900    -0.0150 N.am  1 <1>  -0.5470 
  4 C       -0.7510     2.6000     0.1830 C.3   1 <1>  -0.0190 
  5 C        2.8710     1.3850    -0.2860 C.ar  1 <1>   0.1170 
  6 C       -1.9080     1.8950     0.9190 C.3   1 <1>  -0.1600 
  7 C       -1.2860     3.3990    -1.0210 C.3   1 <1>  -0.1600 
  8 C        4.0440     2.1550    -0.2990 C.ar  1 <1>  -0.1430 
  9 C        2.9620     0.0160    -0.5270 C.ar  1 <1>  -0.1500 
 10 C       -2.9960     2.8920     1.3450 C.3   1 <1>  -0.1600 
 11 C       -2.3750     4.3950    -0.6000 C.3   1 <1>  -0.1600 
 12 C        5.2560     1.5290    -0.5600 C.ar  1 <1>  -0.1500 
 13 C        4.0870     3.6720    -0.0420 C.3   1 <1>   0.0630 
 14 C        4.1760    -0.5890    -0.7860 C.ar  1 <1>  -0.1500 
 15 C       -3.5170     3.6870     0.1410 C.3   1 <1>  -0.1600 
 16 C        5.3280     0.1700    -0.8030 C.ar  1 <1>  -0.1500 
 17 C        3.6890     4.0350     1.3940 C.3   1 <1>  -0.2400 
 18 C        3.2890     4.4760    -1.0760 C.3   1 <1>  -0.2400 
 19 H        1.7410     2.9290     0.3580 H     1 <1>   0.3700 
 20 H       -0.3130     3.2980     0.8730 H     1 <1>   0.0800 
 21 H       -1.5260     1.3850     1.7870 H     1 <1>   0.0800 
 22 H       -2.3440     1.1540     0.2710 H     1 <1>   0.0800 
 23 H       -1.6930     2.7120    -1.7450 H     1 <1>   0.0800 
 24 H       -0.4780     3.9290    -1.4950 H     1 <1>   0.0800 
 25 H        2.0790    -0.5940    -0.5100 H     1 <1>   0.1500 
 26 H       -2.5940     3.5730     2.0760 H     1 <1>   0.0800 
 27 H       -3.8110     2.3590     1.8040 H     1 <1>   0.0800 
 28 H       -2.7660     4.8910    -1.4720 H     1 <1>   0.0800 
 29 H       -1.9470     5.1460     0.0420 H     1 <1>   0.0800 
 30 H        6.1710     2.0960    -0.5790 H     1 <1>   0.1500 
 31 H        5.1100     3.9900    -0.1530 H     1 <1>   0.0800 
 32 H        4.2200    -1.6480    -0.9720 H     1 <1>   0.1500 
 33 H       -4.2380     4.4140     0.4730 H     1 <1>   0.0800 
 34 H       -4.0170     3.0160    -0.5380 H     1 <1>   0.0800 
 35 H        6.2770    -0.2950    -1.0050 H     1 <1>   0.1500 
 36 H        2.6510     3.8510     1.5890 H     1 <1>   0.0800 
 37 H        3.8870     5.0760     1.5780 H     1 <1>   0.0800 
 38 H        4.2720     3.4540     2.0870 H     1 <1>   0.0800 
 39 H        2.2300     4.3330    -0.9750 H     1 <1>   0.0800 
 40 H        3.5780     4.1770    -2.0680 H     1 <1>   0.0800 
 41 H        3.4970     5.5260    -0.9660 H     1 <1>   0.0800 
@<TRIPOS>BOND
  1   1   2  2   
  2   2   3  am  
  3   2   4  1   
  4   3   5  1   
  5   3  19  1   
  6   4   6  1   
  7   4   7  1   
  8   4  20  1   
  9   5   8  ar  
 10   5   9  ar  
 11   6  10  1   
 12   6  21  1   
 13   6  22  1   
 14   7  11  1   
 15   7  23  1   
 16   7  24  1   
 17   8  12  ar  
 18   8  13  1   
 19   9  14  ar  
 20   9  25  1   
 21  10  15  1   
 22  10  26  1   
 23  10  27  1   
 24  11  15  1   
 25  11  28  1   
 26  11  29  1   
 27  12  16  ar  
 28  12  30  1   
 29  13  17  1   
 30  13  18  1   
 31  13  31  1   
 32  14  16  ar  
 33  14  32  1   
 34  15  33  1   
 35  15  34  1   
 36  16  35  1   
 37  17  36  1   
 38  17  37  1   
 39  17  38  1   
 40  18  39  1   
 41  18  40  1   
 42  18  41  1   
@<TRIPOS>SUBSTRUCTURE
  1 ****   3 GROUP 4 **** **** 0

# MOE 2024.06 (io_trps.svl 2023.06)
