@<TRIPOS>MOLECULE
NONAME
35 35 1 0 0 
SMALL
USER_CHARGES


@<TRIPOS>ATOM
  1 BR      -0.5130     0.3350     0.0180 Br    1 <1>  -0.1110 
  2 C        1.2830     1.0280     0.0200 C.ar  1 <1>   0.1110 
  3 C        1.4690     2.3960     0.0670 C.ar  1 <1>  -0.1500 
  4 C        2.3400     0.1380    -0.0270 C.ar  1 <1>  -0.1500 
  5 C        2.7640     2.8860     0.0680 C.ar  1 <1>  -0.1500 
  6 C        3.6320     0.6380    -0.0250 C.ar  1 <1>  -0.1500 
  7 C        3.8470     2.0170     0.0220 C.ar  1 <1>   0.0830 
  8 O        5.0780     2.5870     0.0270 O.3   1 <1>  -0.3630 
  9 C        6.2480     1.8100    -0.0180 C.3   1 <1>   0.1200 
 10 C        7.4360     2.7740     0.0010 C.3   1 <1>  -0.1600 
 11 C        8.7800     2.0320    -0.0440 C.3   1 <1>  -0.1600 
 12 C        9.9380     3.0280    -0.0240 C.3   1 <1>   0.3430 
 13 N       11.2200     2.2850    -0.0690 N.4   1 <1>  -0.9060 
 14 C       12.3930     3.2090    -0.0520 C.3   1 <1>   0.3430 
 15 C       13.7230     2.4470    -0.0990 C.3   1 <1>   0.1200 
 16 O       14.7360     3.3860    -0.0790 O.3   1 <1>  -0.6800 
 17 H        0.6230     3.0590     0.1030 H     1 <1>   0.1500 
 18 H        2.1520    -0.9200    -0.0630 H     1 <1>   0.1500 
 19 H        2.9440     3.9450     0.1050 H     1 <1>   0.1500 
 20 H        4.4490    -0.0570    -0.0620 H     1 <1>   0.1500 
 21 H        6.2340     1.2290    -0.9240 H     1 <1>   0.0800 
 22 H        6.2580     1.1640     0.8440 H     1 <1>   0.0800 
 23 H        7.3780     3.3670     0.8990 H     1 <1>   0.0800 
 24 H        7.3540     3.4310    -0.8480 H     1 <1>   0.0800 
 25 H        8.8210     1.4420    -0.9440 H     1 <1>   0.0800 
 26 H        8.8450     1.3780     0.8090 H     1 <1>   0.0800 
 27 H        9.8870     3.6230     0.8740 H     1 <1>   0.0800 
 28 H        9.8620     3.6880    -0.8740 H     1 <1>   0.0800 
 29 H       11.2450     1.7080    -0.9200 H     1 <1>   0.4500 
 30 H       11.2680     1.6470     0.7360 H     1 <1>   0.4500 
 31 H       12.3720     3.8070     0.8450 H     1 <1>   0.0800 
 32 H       12.3470     3.8710    -0.9020 H     1 <1>   0.0800 
 33 H       13.8160     1.8770    -1.0070 H     1 <1>   0.0800 
 34 H       13.8420     1.8120     0.7620 H     1 <1>   0.0800 
 35 H       15.6250     2.9690    -0.1070 H     1 <1>   0.4000 
@<TRIPOS>BOND
  1   1   2  1   
  2   2   3  ar  
  3   2   4  ar  
  4   3   5  ar  
  5   3  17  1   
  6   4   6  ar  
  7   4  18  1   
  8   5   7  ar  
  9   5  19  1   
 10   6   7  ar  
 11   6  20  1   
 12   7   8  1   
 13   8   9  1   
 14   9  10  1   
 15   9  21  1   
 16   9  22  1   
 17  10  11  1   
 18  10  23  1   
 19  10  24  1   
 20  11  12  1   
 21  11  25  1   
 22  11  26  1   
 23  12  13  1   
 24  12  27  1   
 25  12  28  1   
 26  13  14  1   
 27  13  29  1   
 28  13  30  1   
 29  14  15  1   
 30  14  31  1   
 31  14  32  1   
 32  15  16  1   
 33  15  33  1   
 34  15  34  1   
 35  16  35  1   
@<TRIPOS>SUBSTRUCTURE
  1 ****   9 GROUP 4 **** **** 0

# MOE 2024.06 (io_trps.svl 2023.06)
