@<TRIPOS>MOLECULE
NONAME
43 44 1 0 0 
SMALL
USER_CHARGES


@<TRIPOS>ATOM
  1 O        1.3540    -0.4890     1.2570 O.2   1 <1>  -0.5700 
  2 C        2.1160     0.4470     1.1890 C.2   1 <1>   0.6900 
  3 N        1.7350     1.6000     0.5840 N.am  1 <1>  -0.5390 
  4 N        3.3580     0.3620     1.6890 N.am  1 <1>  -0.7300 
  5 C        2.5510     2.7020     0.4240 C.2   1 <1>  -0.0290 
  6 C        4.4060     1.3730     1.4430 C.3   1 <1>   0.5020 
  7 C        3.8530     2.6560     0.8190 C.2   1 <1>  -0.1240 
  8 C        1.8410     3.8970    -0.1940 C.3   1 <1>  -0.1020 
  9 C        5.4570     0.7430     0.5320 C.ar  1 <1>  -0.1440 
 10 C        4.8550     3.6710     0.7310 C.2   1 <1>   0.7060 
 11 C        6.7880     0.7200     0.9190 C.ar  1 <1>  -0.1500 
 12 C        5.1050     0.1960    -0.6950 C.ar  1 <1>  -0.1500 
 13 O        5.7720     3.7650     1.5260 O.2   1 <1>  -0.5700 
 14 O        4.7950     4.5480    -0.2760 O.3   1 <1>  -0.4300 
 15 C        7.7580     0.1600     0.1050 C.ar  1 <1>   0.0830 
 16 C        6.0670    -0.3680    -1.5160 C.ar  1 <1>  -0.1500 
 17 C        5.7820     5.5400    -0.4490 C.3   1 <1>   0.1200 
 18 O        9.0300     0.1900     0.5710 O.3   1 <1>  -0.3630 
 19 C        7.3920    -0.3890    -1.1210 C.ar  1 <1>  -0.1500 
 20 C        5.4150     6.3620    -1.6800 C.3   1 <1>  -0.2400 
 21 C       10.1070    -0.2670    -0.2120 C.3   1 <1>   0.2580 
 22 C       11.3850    -0.0360     0.5700 C.2   1 <1>  -0.2880 
 23 C       12.2750    -0.9760     0.9010 C.2   1 <1>  -0.3000 
 24 H        0.7680     1.5930     0.2640 H     1 <1>   0.3700 
 25 H        3.6800    -0.5610     1.9690 H     1 <1>   0.3700 
 26 H        4.8510     1.6120     2.3950 H     1 <1>   0.0800 
 27 H        0.8630     4.0100     0.2390 H     1 <1>   0.0800 
 28 H        1.7350     3.7500    -1.2540 H     1 <1>   0.0800 
 29 H        2.3730     4.8130    -0.0240 H     1 <1>   0.0800 
 30 H        7.0960     1.1460     1.8590 H     1 <1>   0.1500 
 31 H        4.0770     0.2070    -1.0180 H     1 <1>   0.1500 
 32 H        5.7790    -0.7900    -2.4630 H     1 <1>   0.1500 
 33 H        6.7350     5.0540    -0.5770 H     1 <1>   0.0800 
 34 H        5.8070     6.1570     0.4350 H     1 <1>   0.0800 
 35 H        8.1150    -0.8350    -1.7770 H     1 <1>   0.1500 
 36 H        5.3850     5.7300    -2.5500 H     1 <1>   0.0800 
 37 H        6.1530     7.1270    -1.8380 H     1 <1>   0.0800 
 38 H        4.4580     6.8310    -1.5410 H     1 <1>   0.0800 
 39 H       10.1220     0.2920    -1.1310 H     1 <1>   0.0800 
 40 H        9.9630    -1.3150    -0.4130 H     1 <1>   0.0800 
 41 H       11.5030     0.9990     0.8450 H     1 <1>   0.1500 
 42 H       13.1730    -0.7780     1.4620 H     1 <1>   0.1500 
 43 H       12.1850    -2.0180     0.6460 H     1 <1>   0.1500 
@<TRIPOS>BOND
  1   1   2  2   
  2   2   3  am  
  3   2   4  am  
  4   3   5  1   
  5   3  24  1   
  6   4   6  1   
  7   4  25  1   
  8   5   7  2   
  9   5   8  1   
 10   6   7  1   
 11   6   9  1   
 12   6  26  1   
 13   7  10  1   
 14   8  27  1   
 15   8  28  1   
 16   8  29  1   
 17   9  11  ar  
 18   9  12  ar  
 19  10  13  2   
 20  10  14  1   
 21  11  15  ar  
 22  11  30  1   
 23  12  16  ar  
 24  12  31  1   
 25  14  17  1   
 26  15  18  1   
 27  15  19  ar  
 28  16  19  ar  
 29  16  32  1   
 30  17  20  1   
 31  17  33  1   
 32  17  34  1   
 33  18  21  1   
 34  19  35  1   
 35  20  36  1   
 36  20  37  1   
 37  20  38  1   
 38  21  22  1   
 39  21  39  1   
 40  21  40  1   
 41  22  23  2   
 42  22  41  1   
 43  23  42  1   
 44  23  43  1   
@<TRIPOS>SUBSTRUCTURE
  1 ****   9 GROUP 4 **** **** 0

# MOE 2024.06 (io_trps.svl 2023.06)
