@<TRIPOS>MOLECULE
NONAME
48 51 1 0 0 
SMALL
USER_CHARGES


@<TRIPOS>ATOM
  1 N        0.5640     0.2780    -0.1510 N.4   1 <1>  -0.9590 
  2 C        1.8230     0.8700     0.4420 C.3   1 <1>   0.4230 
  3 C       -0.6880     0.9750     0.3450 C.3   1 <1>   0.3430 
  4 C        0.4830    -1.2220     0.0540 C.3   1 <1>   0.3430 
  5 C        1.9140     2.3930     0.1520 C.3   1 <1>  -0.0800 
  6 C        3.0900     0.1860    -0.1410 C.3   1 <1>  -0.0800 
  7 C       -2.0110     0.3360    -0.1650 C.3   1 <1>   0.3430 
  8 C       -0.8420    -1.8590    -0.4580 C.3   1 <1>   0.3430 
  9 C        3.1740     2.9660     0.8340 C.3   1 <1>  -0.1600 
 10 C        2.0170     2.6560    -1.3690 C.3   1 <1>  -0.1600 
 11 C        4.3430     0.7710     0.5420 C.3   1 <1>  -0.1600 
 12 C        3.1980     0.4410    -1.6640 C.3   1 <1>  -0.1600 
 13 N       -2.0820    -1.1610     0.0490 N.4   1 <1>  -0.9590 
 14 C        4.4340     2.2830     0.2780 C.3   1 <1>  -0.0800 
 15 C        3.2660     1.9550    -1.9380 C.3   1 <1>  -0.0800 
 16 C       -3.3020    -1.7550    -0.5770 C.3   1 <1>   0.3430 
 17 C        4.5140     2.5280    -1.2400 C.3   1 <1>  -0.1600 
 18 C       -4.5410    -1.3250     0.2000 C.3   1 <1>  -0.2400 
 19 H        0.6740     0.4700    -1.1580 H     1 <1>   0.4500 
 20 H        1.8190     0.7250     1.5110 H     1 <1>   0.0800 
 21 H       -0.6740     2.0070     0.0350 H     1 <1>   0.0800 
 22 H       -0.6970     0.9650     1.4220 H     1 <1>   0.0800 
 23 H        0.5850    -1.4440     1.1030 H     1 <1>   0.0800 
 24 H        1.3030    -1.7030    -0.4550 H     1 <1>   0.0800 
 25 H        1.0740     2.9220     0.5630 H     1 <1>   0.0800 
 26 H        3.0950    -0.8690     0.0590 H     1 <1>   0.0800 
 27 H       -2.1090     0.5500    -1.2170 H     1 <1>   0.0800 
 28 H       -2.8390     0.8140     0.3340 H     1 <1>   0.0800 
 29 H       -0.8660    -2.8960    -0.1640 H     1 <1>   0.0800 
 30 H       -0.8350    -1.8340    -1.5360 H     1 <1>   0.0800 
 31 H        3.2360     4.0270     0.6590 H     1 <1>   0.0800 
 32 H        3.1220     2.8210     1.9000 H     1 <1>   0.0800 
 33 H        2.0980     3.7160    -1.5460 H     1 <1>   0.0800 
 34 H        1.1380     2.3200    -1.8880 H     1 <1>   0.0800 
 35 H        5.2280     0.2890     0.1620 H     1 <1>   0.0800 
 36 H        4.3120     0.5890     1.6030 H     1 <1>   0.0800 
 37 H        4.0920    -0.0260    -2.0430 H     1 <1>   0.0800 
 38 H        2.3710     0.0070    -2.1960 H     1 <1>   0.0800 
 39 H       -2.1750    -1.3460     1.0610 H     1 <1>   0.4500 
 40 H        5.3110     2.6870     0.7560 H     1 <1>   0.0800 
 41 H        3.3380     2.1350    -2.9990 H     1 <1>   0.0800 
 42 H       -3.2390    -2.8320    -0.5530 H     1 <1>   0.0800 
 43 H       -3.3880    -1.4480    -1.6090 H     1 <1>   0.0800 
 44 H        5.4010     2.0640    -1.6380 H     1 <1>   0.0800 
 45 H        4.5910     3.5840    -1.4360 H     1 <1>   0.0800 
 46 H       -4.4690    -1.6090     1.2350 H     1 <1>   0.0800 
 47 H       -5.4010    -1.8230    -0.2140 H     1 <1>   0.0800 
 48 H       -4.7170    -0.2670     0.1210 H     1 <1>   0.0800 
@<TRIPOS>BOND
  1   1   2  1   
  2   1   3  1   
  3   1   4  1   
  4   1  19  1   
  5   2   5  1   
  6   2   6  1   
  7   2  20  1   
  8   3   7  1   
  9   3  21  1   
 10   3  22  1   
 11   4   8  1   
 12   4  23  1   
 13   4  24  1   
 14   5   9  1   
 15   5  10  1   
 16   5  25  1   
 17   6  11  1   
 18   6  12  1   
 19   6  26  1   
 20   7  13  1   
 21   7  27  1   
 22   7  28  1   
 23   8  13  1   
 24   8  29  1   
 25   8  30  1   
 26   9  14  1   
 27   9  31  1   
 28   9  32  1   
 29  10  15  1   
 30  10  33  1   
 31  10  34  1   
 32  11  14  1   
 33  11  35  1   
 34  11  36  1   
 35  12  15  1   
 36  12  37  1   
 37  12  38  1   
 38  13  16  1   
 39  13  39  1   
 40  14  17  1   
 41  14  40  1   
 42  15  17  1   
 43  15  41  1   
 44  16  18  1   
 45  16  42  1   
 46  16  43  1   
 47  17  44  1   
 48  17  45  1   
 49  18  46  1   
 50  18  47  1   
 51  18  48  1   
@<TRIPOS>SUBSTRUCTURE
  1 ****   1 GROUP 4 **** **** 0

# MOE 2024.06 (io_trps.svl 2023.06)
