@<TRIPOS>MOLECULE
NONAME
40 42 1 0 0 
SMALL
USER_CHARGES


@<TRIPOS>ATOM
  1 S       -0.7310    -0.6750     0.7990 S.3   1 <1>  -0.0800 
  2 C       -1.7140    -0.9400    -0.6030 C.2   1 <1>   0.4420 
  3 C        0.6260    -1.2060    -0.1360 C.2   1 <1>   0.1980 
  4 N       -1.0310    -1.3720    -1.5990 N.2   1 <1>  -0.3380 
  5 N       -3.0580    -0.6620    -0.4730 N.am  1 <1>  -0.4940 
  6 N        0.3020    -1.5210    -1.3260 N.2   1 <1>  -0.3380 
  7 C        1.9890    -1.2330     0.5480 C.3   1 <1>   0.1000 
  8 C       -4.0710    -0.7690    -1.3840 C.2   1 <1>   0.5690 
  9 C        2.5670     0.1900     0.6600 C.3   1 <1>  -0.1600 
 10 C        2.9780    -2.1580    -0.1870 C.3   1 <1>  -0.1600 
 11 O       -3.9120    -1.1520    -2.5140 O.2   1 <1>  -0.5700 
 12 C       -5.4800    -0.3860    -0.9550 C.3   1 <1>   0.1310 
 13 C        3.9500     0.1900     1.3300 C.3   1 <1>  -0.1600 
 14 C        4.3580    -2.1630     0.4870 C.3   1 <1>  -0.1600 
 15 S       -5.5370     0.1780     0.8220 S.3   1 <1>  -0.3310 
 16 C        4.9230    -0.7410     0.5970 C.3   1 <1>  -0.1600 
 17 C       -7.2630     0.5650     1.0890 C.ar  1 <1>   0.4120 
 18 N       -8.0670     0.3840     0.0540 N.ar  1 <1>  -0.6200 
 19 C       -7.6360     1.0200     2.3410 C.ar  1 <1>  -0.1500 
 20 C       -9.3350     0.6810     0.2930 C.ar  1 <1>   0.1600 
 21 C       -8.9620     1.3230     2.5660 C.ar  1 <1>  -0.1500 
 22 C       -9.8260     1.1440     1.5040 C.ar  1 <1>  -0.1500 
 23 H       -3.3470    -0.3240     0.4430 H     1 <1>   0.3700 
 24 H        1.8490    -1.6230     1.5400 H     1 <1>   0.0800 
 25 H        1.8980     0.8110     1.2280 H     1 <1>   0.0800 
 26 H        2.6510     0.6130    -0.3270 H     1 <1>   0.0800 
 27 H        3.0850    -1.8260    -1.2060 H     1 <1>   0.0800 
 28 H        2.5840    -3.1590    -0.2100 H     1 <1>   0.0800 
 29 H       -6.1380    -1.2310    -1.0440 H     1 <1>   0.0800 
 30 H       -5.8460     0.4230    -1.5600 H     1 <1>   0.0800 
 31 H        3.8530    -0.1300     2.3530 H     1 <1>   0.0800 
 32 H        4.3470     1.1910     1.3360 H     1 <1>   0.0800 
 33 H        5.0340    -2.7760    -0.0850 H     1 <1>   0.0800 
 34 H        4.2760    -2.5930     1.4700 H     1 <1>   0.0800 
 35 H        5.8630    -0.7660     1.1210 H     1 <1>   0.0800 
 36 H        5.1090    -0.3550    -0.3910 H     1 <1>   0.0800 
 37 H       -6.9000     1.1320     3.1150 H     1 <1>   0.1500 
 38 H      -10.0260     0.5480    -0.5230 H     1 <1>   0.1500 
 39 H       -9.3070     1.6810     3.5210 H     1 <1>   0.1500 
 40 H      -10.8730     1.3620     1.6120 H     1 <1>   0.1500 
@<TRIPOS>BOND
  1   1   2  1   
  2   1   3  1   
  3   2   4  2   
  4   2   5  1   
  5   3   6  2   
  6   3   7  1   
  7   4   6  1   
  8   5   8  am  
  9   5  23  1   
 10   7   9  1   
 11   7  10  1   
 12   7  24  1   
 13   8  11  2   
 14   8  12  1   
 15   9  13  1   
 16   9  25  1   
 17   9  26  1   
 18  10  14  1   
 19  10  27  1   
 20  10  28  1   
 21  12  15  1   
 22  12  29  1   
 23  12  30  1   
 24  13  16  1   
 25  13  31  1   
 26  13  32  1   
 27  14  16  1   
 28  14  33  1   
 29  14  34  1   
 30  15  17  1   
 31  16  35  1   
 32  16  36  1   
 33  17  18  ar  
 34  17  19  ar  
 35  18  20  ar  
 36  19  21  ar  
 37  19  37  1   
 38  20  22  ar  
 39  20  38  1   
 40  21  22  ar  
 41  21  39  1   
 42  22  40  1   
@<TRIPOS>SUBSTRUCTURE
  1 ****   5 GROUP 4 **** **** 0

# MOE 2024.06 (io_trps.svl 2023.06)
