@<TRIPOS>MOLECULE
NONAME
37 39 1 0 0 
SMALL
USER_CHARGES


@<TRIPOS>ATOM
  1 S       -0.2190     0.5810    -0.2280 S.3   1 <1>  -0.3320 
  2 C       -1.5020    -0.6840    -0.0290 C.ar  1 <1>   0.1020 
  3 C       -1.0410     2.2370    -0.2350 C.3   1 <1>  -0.0100 
  4 C       -1.1850    -2.0450    -0.1750 C.ar  1 <1>   0.0860 
  5 C       -2.7960    -0.2720     0.2620 C.ar  1 <1>  -0.1500 
  6 C        0.1400    -2.5740    -0.4560 C.2   1 <1>   0.5440 
  7 C       -2.2390    -2.9520    -0.0350 C.ar  1 <1>  -0.1500 
  8 C       -3.8090    -1.2010     0.4000 C.ar  1 <1>  -0.1500 
  9 O        0.2690    -3.5500    -1.1720 O.2   1 <1>  -0.5700 
 10 N        1.2610    -2.0330     0.1000 N.am  1 <1>  -0.7300 
 11 C       -3.5290    -2.5450     0.2480 C.ar  1 <1>  -0.1500 
 12 C        2.6480    -2.4560    -0.1620 C.3   1 <1>   0.2200 
 13 C        3.4870    -2.3210     1.1220 C.3   1 <1>  -0.0800 
 14 C        3.3290    -1.4610    -1.1180 C.3   1 <1>  -0.1600 
 15 C        3.8660    -0.8450     1.1090 C.3   1 <1>  -0.1600 
 16 C        4.8520    -2.9820     0.8680 C.3   1 <1>  -0.1600 
 17 C        4.4870    -0.8930    -0.2770 C.3   1 <1>  -0.0800 
 18 C        5.5390    -2.0000    -0.0980 C.3   1 <1>  -0.1600 
 19 H       -0.2860     2.9720    -0.4510 H     1 <1>   0.0800 
 20 H       -1.4660     2.4050     0.7380 H     1 <1>   0.0800 
 21 H       -1.7950     2.2320    -1.0010 H     1 <1>   0.0800 
 22 H       -3.0390     0.7640     0.3860 H     1 <1>   0.1500 
 23 H       -2.0340    -4.0030    -0.1530 H     1 <1>   0.1500 
 24 H       -4.8130    -0.8810     0.6240 H     1 <1>   0.1500 
 25 H        1.1740    -1.1110     0.5330 H     1 <1>   0.3700 
 26 H       -4.3140    -3.2750     0.3500 H     1 <1>   0.1500 
 27 H        2.6700    -3.4630    -0.5460 H     1 <1>   0.0800 
 28 H        2.9910    -2.6760     2.0080 H     1 <1>   0.0800 
 29 H        2.6540    -0.6760    -1.4090 H     1 <1>   0.0800 
 30 H        3.6900    -1.9590    -2.0000 H     1 <1>   0.0800 
 31 H        4.5770    -0.5910     1.8770 H     1 <1>   0.0800 
 32 H        3.0160    -0.1870     1.1610 H     1 <1>   0.0800 
 33 H        4.7490    -3.9650     0.4400 H     1 <1>   0.0800 
 34 H        5.4100    -3.0530     1.7870 H     1 <1>   0.0800 
 35 H        4.8820     0.0400    -0.6410 H     1 <1>   0.0800 
 36 H        5.7960    -2.4660    -1.0340 H     1 <1>   0.0800 
 37 H        6.4310    -1.5980     0.3520 H     1 <1>   0.0800 
@<TRIPOS>BOND
  1   1   2  1   
  2   1   3  1   
  3   2   4  ar  
  4   2   5  ar  
  5   3  19  1   
  6   3  20  1   
  7   3  21  1   
  8   4   6  1   
  9   4   7  ar  
 10   5   8  ar  
 11   5  22  1   
 12   6   9  2   
 13   6  10  am  
 14   7  11  ar  
 15   7  23  1   
 16   8  11  ar  
 17   8  24  1   
 18  10  12  1   
 19  10  25  1   
 20  11  26  1   
 21  12  13  1   
 22  12  14  1   
 23  12  27  1   
 24  13  15  1   
 25  13  16  1   
 26  13  28  1   
 27  14  17  1   
 28  14  29  1   
 29  14  30  1   
 30  15  17  1   
 31  15  31  1   
 32  15  32  1   
 33  16  18  1   
 34  16  33  1   
 35  16  34  1   
 36  17  18  1   
 37  17  35  1   
 38  18  36  1   
 39  18  37  1   
@<TRIPOS>SUBSTRUCTURE
  1 ****  10 GROUP 4 **** **** 0

# MOE 2024.06 (io_trps.svl 2023.06)
