@<TRIPOS>MOLECULE
NONAME
40 41 1 0 0 
SMALL
USER_CHARGES


@<TRIPOS>ATOM
  1 S       -0.3340     0.1540    -1.3040 S.3   1 <1>  -0.0800 
  2 C       -1.1540     1.1320    -0.0940 C.2   1 <1>  -0.1400 
  3 C        1.0640    -0.0430    -0.2620 C.2   1 <1>  -0.1100 
  4 C       -0.3820     1.2680     1.0010 C.2   1 <1>  -0.1500 
  5 C       -2.5350     1.6530    -0.4340 C.3   1 <1>   0.3200 
  6 C        0.8800     0.6000     0.9060 C.2   1 <1>  -0.1500 
  7 N       -3.4450     0.5050    -0.5600 N.am  1 <1>  -0.7300 
  8 C       -4.7800     0.5810    -0.3700 C.2   1 <1>   0.6900 
  9 O       -5.2950     1.6560    -0.1370 O.2   1 <1>  -0.5700 
 10 N       -5.4950    -0.5750    -0.4660 N.am  1 <1>  -0.5470 
 11 C       -6.8530    -0.8460    -0.2470 C.ar  1 <1>   0.1170 
 12 C       -7.4120    -1.9750    -0.8330 C.ar  1 <1>  -0.1500 
 13 C       -7.6710    -0.0480     0.5470 C.ar  1 <1>  -0.1500 
 14 C       -8.7440    -2.2960    -0.6380 C.ar  1 <1>  -0.1500 
 15 C       -9.0020    -0.3670     0.7420 C.ar  1 <1>  -0.1500 
 16 C       -9.5550    -1.4950     0.1520 C.ar  1 <1>  -0.1430 
 17 C      -11.0250    -1.8570     0.3550 C.3   1 <1>   0.0630 
 18 C      -11.9280    -0.7640    -0.2460 C.3   1 <1>  -0.1600 
 19 C      -11.3090    -2.1050     1.8430 C.3   1 <1>  -0.2400 
 20 C      -13.4170    -1.1380    -0.2640 C.3   1 <1>  -0.2400 
 21 H        1.8850    -0.6260    -0.6390 H     1 <1>   0.1500 
 22 H       -0.6460     1.8170     1.8890 H     1 <1>   0.1500 
 23 H       -2.5090     2.1960    -1.3630 H     1 <1>   0.0800 
 24 H       -2.8830     2.3130     0.3430 H     1 <1>   0.0800 
 25 H        1.5860     0.6360     1.7170 H     1 <1>   0.1500 
 26 H       -2.9710    -0.3930    -0.6160 H     1 <1>   0.3700 
 27 H       -4.9620    -1.3500    -0.8410 H     1 <1>   0.3700 
 28 H       -6.8050    -2.6090    -1.4510 H     1 <1>   0.1500 
 29 H       -7.2690     0.8280     1.0210 H     1 <1>   0.1500 
 30 H       -9.1470    -3.1760    -1.1080 H     1 <1>   0.1500 
 31 H       -9.6070     0.2730     1.3590 H     1 <1>   0.1500 
 32 H      -11.2230    -2.7750    -0.1720 H     1 <1>   0.0800 
 33 H      -11.6100    -0.5830    -1.2590 H     1 <1>   0.0800 
 34 H      -11.8010     0.1540     0.3000 H     1 <1>   0.0800 
 35 H      -11.2320    -1.1910     2.4040 H     1 <1>   0.0800 
 36 H      -10.5970    -2.8080     2.2360 H     1 <1>   0.0800 
 37 H      -12.2940    -2.5130     1.9800 H     1 <1>   0.0800 
 38 H      -13.5670    -2.0680    -0.7820 H     1 <1>   0.0800 
 39 H      -13.9770    -0.3720    -0.7710 H     1 <1>   0.0800 
 40 H      -13.8030    -1.2280     0.7360 H     1 <1>   0.0800 
@<TRIPOS>BOND
  1   1   2  1   
  2   1   3  1   
  3   2   4  2   
  4   2   5  1   
  5   3   6  2   
  6   3  21  1   
  7   4   6  1   
  8   4  22  1   
  9   5   7  1   
 10   5  23  1   
 11   5  24  1   
 12   6  25  1   
 13   7   8  am  
 14   7  26  1   
 15   8   9  2   
 16   8  10  am  
 17  10  11  1   
 18  10  27  1   
 19  11  12  ar  
 20  11  13  ar  
 21  12  14  ar  
 22  12  28  1   
 23  13  15  ar  
 24  13  29  1   
 25  14  16  ar  
 26  14  30  1   
 27  15  16  ar  
 28  15  31  1   
 29  16  17  1   
 30  17  18  1   
 31  17  19  1   
 32  17  32  1   
 33  18  20  1   
 34  18  33  1   
 35  18  34  1   
 36  19  35  1   
 37  19  36  1   
 38  19  37  1   
 39  20  38  1   
 40  20  39  1   
 41  20  40  1   
@<TRIPOS>SUBSTRUCTURE
  1 ****  10 GROUP 4 **** **** 0

# MOE 2024.06 (io_trps.svl 2023.06)
