@<TRIPOS>MOLECULE
NONAME
43 44 1 0 0 
SMALL
USER_CHARGES


@<TRIPOS>ATOM
  1 CL       1.4590    -0.5160    -3.1600 Cl    1 <1>  -0.1770 
  2 C        2.1890    -1.0660    -1.6720 C.ar  1 <1>   0.1770 
  3 C        1.7700    -2.2350    -1.0610 C.ar  1 <1>   0.1770 
  4 C        3.2040    -0.3070    -1.1150 C.ar  1 <1>  -0.1500 
  5 CL       0.4930    -3.2040    -1.7550 Cl    1 <1>  -0.1770 
  6 C        2.3650    -2.6540     0.1160 C.ar  1 <1>  -0.1500 
  7 C        3.8120    -0.7240     0.0640 C.ar  1 <1>  -0.1440 
  8 C        3.3830    -1.8970     0.6770 C.ar  1 <1>  -0.1500 
  9 C        4.9300     0.0940     0.6750 C.3   1 <1>   0.4870 
 10 N        6.1940    -0.3870     0.0620 N.4   1 <1>  -0.9060 
 11 C        7.4340     0.2720     0.5390 C.3   1 <1>   0.4230 
 12 C        7.5120     1.7150     0.0280 C.3   1 <1>  -0.1600 
 13 C        8.6380    -0.5300     0.0410 C.3   1 <1>  -0.1600 
 14 C        8.8420     2.3690     0.4140 C.3   1 <1>   0.3430 
 15 C        9.9560     0.1440     0.4310 C.3   1 <1>   0.3430 
 16 N        9.9830     1.5470    -0.0800 N.4   1 <1>  -0.9590 
 17 C       11.2720     2.2250     0.2660 C.3   1 <1>   0.3430 
 18 C       12.4210     1.6550    -0.5680 C.3   1 <1>  -0.1600 
 19 C       13.7180     2.4280    -0.3050 C.3   1 <1>  -0.2400 
 20 H        3.4910     0.6000    -1.6190 H     1 <1>   0.1500 
 21 H        2.0250    -3.5630     0.5840 H     1 <1>   0.1500 
 22 H        3.8240    -2.2410     1.5990 H     1 <1>   0.1500 
 23 H        4.9460    -0.0470     1.7440 H     1 <1>   0.0800 
 24 H        4.7740     1.1400     0.4620 H     1 <1>   0.0800 
 25 H        6.0950    -0.3070    -0.9580 H     1 <1>   0.4500 
 26 H        6.2340    -1.3990     0.2440 H     1 <1>   0.4500 
 27 H        7.4450     0.2760     1.6190 H     1 <1>   0.0800 
 28 H        6.7210     2.3040     0.4580 H     1 <1>   0.0800 
 29 H        7.4100     1.7470    -1.0430 H     1 <1>   0.0800 
 30 H        8.6110    -0.6380    -1.0300 H     1 <1>   0.0800 
 31 H        8.6260    -1.5130     0.4770 H     1 <1>   0.0800 
 32 H        8.9040     2.4660     1.4880 H     1 <1>   0.0800 
 33 H        8.8930     3.3600    -0.0110 H     1 <1>   0.0800 
 34 H       10.7790    -0.4180     0.0150 H     1 <1>   0.0800 
 35 H       10.0650     0.1450     1.5040 H     1 <1>   0.0800 
 36 H        9.9550     1.5270    -1.1120 H     1 <1>   0.4500 
 37 H       11.4900     2.1090     1.3170 H     1 <1>   0.0800 
 38 H       11.1950     3.2810     0.0570 H     1 <1>   0.0800 
 39 H       12.1890     1.7310    -1.6170 H     1 <1>   0.0800 
 40 H       12.5940     0.6210    -0.3240 H     1 <1>   0.0800 
 41 H       13.6080     3.4670    -0.5650 H     1 <1>   0.0800 
 42 H       14.5170     2.0180    -0.9000 H     1 <1>   0.0800 
 43 H       14.0050     2.3590     0.7310 H     1 <1>   0.0800 
@<TRIPOS>BOND
  1   1   2  1   
  2   2   3  ar  
  3   2   4  ar  
  4   3   5  1   
  5   3   6  ar  
  6   4   7  ar  
  7   4  20  1   
  8   6   8  ar  
  9   6  21  1   
 10   7   8  ar  
 11   7   9  1   
 12   8  22  1   
 13   9  10  1   
 14   9  23  1   
 15   9  24  1   
 16  10  11  1   
 17  10  25  1   
 18  10  26  1   
 19  11  12  1   
 20  11  13  1   
 21  11  27  1   
 22  12  14  1   
 23  12  28  1   
 24  12  29  1   
 25  13  15  1   
 26  13  30  1   
 27  13  31  1   
 28  14  16  1   
 29  14  32  1   
 30  14  33  1   
 31  15  16  1   
 32  15  34  1   
 33  15  35  1   
 34  16  17  1   
 35  16  36  1   
 36  17  18  1   
 37  17  37  1   
 38  17  38  1   
 39  18  19  1   
 40  18  39  1   
 41  18  40  1   
 42  19  41  1   
 43  19  42  1   
 44  19  43  1   
@<TRIPOS>SUBSTRUCTURE
  1 ****  10 GROUP 4 **** **** 0

# MOE 2024.06 (io_trps.svl 2023.06)
