@<TRIPOS>MOLECULE
NONAME
32 33 1 0 0 
SMALL
USER_CHARGES


@<TRIPOS>ATOM
  1 O       -1.4570     0.5740     0.3240 O.3   1 <1>  -0.3630 
  2 C       -0.7630     1.7100     0.0390 C.ar  1 <1>   0.0830 
  3 C       -0.8460    -0.4990     1.0150 C.3   1 <1>   0.0400 
  4 C       -1.3540     2.6260    -0.8260 C.ar  1 <1>  -0.1440 
  5 C        0.4910     1.9860     0.5790 C.ar  1 <1>  -0.1500 
  6 C       -0.6930     3.8030    -1.1450 C.ar  1 <1>  -0.1500 
  7 C       -2.7180     2.3400    -1.4210 C.3   1 <1>   0.4870 
  8 C        1.1420     3.1630     0.2570 C.ar  1 <1>  -0.1500 
  9 C        0.5520     4.0700    -0.6040 C.ar  1 <1>  -0.1500 
 10 N       -3.6950     2.2290    -0.3110 N.4   1 <1>  -0.9590 
 11 C       -5.0430     1.7750    -0.7050 C.3   1 <1>   0.3430 
 12 C       -3.8620     3.4710     0.4760 C.3   1 <1>   0.3430 
 13 C       -5.9250     2.1640     0.4740 C.3   1 <1>  -0.1600 
 14 C       -5.1620     3.2530     1.2370 C.3   1 <1>  -0.1600 
 15 H       -0.6070    -0.1840     2.0160 H     1 <1>   0.0800 
 16 H        0.0420    -0.7970     0.4850 H     1 <1>   0.0800 
 17 H       -1.5400    -1.3200     1.0480 H     1 <1>   0.0800 
 18 H        0.9770     1.3050     1.2520 H     1 <1>   0.1500 
 19 H       -1.1300     4.5220    -1.8170 H     1 <1>   0.1500 
 20 H       -2.6740     1.4110    -1.9660 H     1 <1>   0.0800 
 21 H       -3.0050     3.1270    -2.0970 H     1 <1>   0.0800 
 22 H        2.1120     3.3740     0.6760 H     1 <1>   0.1500 
 23 H        1.0670     4.9830    -0.8530 H     1 <1>   0.1500 
 24 H       -3.2760     1.5260     0.3220 H     1 <1>   0.4500 
 25 H       -5.0680     0.7130    -0.8920 H     1 <1>   0.0800 
 26 H       -5.3650     2.3050    -1.5870 H     1 <1>   0.0800 
 27 H       -3.9660     4.3140    -0.1870 H     1 <1>   0.0800 
 28 H       -3.0270     3.6350     1.1390 H     1 <1>   0.0800 
 29 H       -6.0860     1.3070     1.1050 H     1 <1>   0.0800 
 30 H       -6.8820     2.5150     0.1260 H     1 <1>   0.0800 
 31 H       -5.7220     4.1710     1.2930 H     1 <1>   0.0800 
 32 H       -4.9440     2.9260     2.2390 H     1 <1>   0.0800 
@<TRIPOS>BOND
  1   1   2  1   
  2   1   3  1   
  3   2   4  ar  
  4   2   5  ar  
  5   3  15  1   
  6   3  16  1   
  7   3  17  1   
  8   4   6  ar  
  9   4   7  1   
 10   5   8  ar  
 11   5  18  1   
 12   6   9  ar  
 13   6  19  1   
 14   7  10  1   
 15   7  20  1   
 16   7  21  1   
 17   8   9  ar  
 18   8  22  1   
 19   9  23  1   
 20  10  11  1   
 21  10  12  1   
 22  10  24  1   
 23  11  13  1   
 24  11  25  1   
 25  11  26  1   
 26  12  14  1   
 27  12  27  1   
 28  12  28  1   
 29  13  14  1   
 30  13  29  1   
 31  13  30  1   
 32  14  31  1   
 33  14  32  1   
@<TRIPOS>SUBSTRUCTURE
  1 ****   4 GROUP 4 **** **** 0

# MOE 2024.06 (io_trps.svl 2023.06)
