@<TRIPOS>MOLECULE
NONAME
40 42 1 0 0 
SMALL
USER_CHARGES


@<TRIPOS>ATOM
  1 F        3.3920    -3.1970    -2.1720 F     1 <1>  -0.1900 
  2 C        2.2550    -3.1090    -1.5250 C.ar  1 <1>   0.1900 
  3 C        2.2660    -2.6670    -0.1990 C.ar  1 <1>   0.1170 
  4 C        1.1030    -3.4640    -2.1980 C.ar  1 <1>  -0.1500 
  5 N        3.4840    -2.3200     0.4160 N.am  1 <1>  -0.5470 
  6 C        1.0370    -2.5840     0.4570 C.ar  1 <1>  -0.1500 
  7 C       -0.0850    -3.3660    -1.5030 C.ar  1 <1>   0.1900 
  8 C        3.8520    -2.1030     1.7130 C.2   1 <1>   0.5690 
  9 C       -0.1400    -2.9340    -0.1890 C.ar  1 <1>  -0.1500 
 10 F       -1.1970    -3.6940    -2.1060 F     1 <1>  -0.1900 
 11 O        3.0980    -2.1640     2.6530 O.2   1 <1>  -0.5700 
 12 C        5.3260    -1.7680     1.9540 C.3   1 <1>   0.1710 
 13 N        6.2250    -2.1800     0.8340 N.3   1 <1>  -0.8100 
 14 C        7.5070    -1.4600     0.9090 C.3   1 <1>   0.1100 
 15 C        6.4460    -3.6390     0.8500 C.3   1 <1>   0.1100 
 16 C        8.3530    -1.7850    -0.3210 C.3   1 <1>  -0.1600 
 17 C        7.2430    -4.0510    -0.3870 C.3   1 <1>  -0.1600 
 18 C        8.5660    -3.2880    -0.4400 C.3   1 <1>   0.5600 
 19 O        9.4100    -3.7120     0.5830 O.3   1 <1>  -0.5600 
 20 O        9.2470    -3.5630    -1.6160 O.3   1 <1>  -0.5600 
 21 C       10.2550    -4.6940     0.0990 C.3   1 <1>   0.1200 
 22 C       10.0840    -4.6400    -1.4070 C.3   1 <1>   0.1200 
 23 H        1.1280    -3.8010    -3.2180 H     1 <1>   0.1500 
 24 H        4.3040    -2.2970    -0.2050 H     1 <1>   0.3700 
 25 H        0.9910    -2.2440     1.4760 H     1 <1>   0.1500 
 26 H       -1.0870    -2.8710     0.3170 H     1 <1>   0.1500 
 27 H        5.6450    -2.2280     2.8730 H     1 <1>   0.0800 
 28 H        5.3830    -0.7020     2.0830 H     1 <1>   0.0800 
 29 H        8.0390    -1.7420     1.8040 H     1 <1>   0.0800 
 30 H        7.3280    -0.3980     0.9380 H     1 <1>   0.0800 
 31 H        5.5030    -4.1590     0.8480 H     1 <1>   0.0800 
 32 H        6.9850    -3.9210     1.7410 H     1 <1>   0.0800 
 33 H        9.3050    -1.2930    -0.2570 H     1 <1>   0.0800 
 34 H        7.8420    -1.4300    -1.1960 H     1 <1>   0.0800 
 35 H        6.6650    -3.8170    -1.2620 H     1 <1>   0.0800 
 36 H        7.4210    -5.1090    -0.3690 H     1 <1>   0.0800 
 37 H        9.9570    -5.6470     0.5010 H     1 <1>   0.0800 
 38 H       11.2620    -4.4620     0.3970 H     1 <1>   0.0800 
 39 H       11.0160    -4.4680    -1.9170 H     1 <1>   0.0800 
 40 H        9.6110    -5.5300    -1.7820 H     1 <1>   0.0800 
@<TRIPOS>BOND
  1   1   2  1   
  2   2   3  ar  
  3   2   4  ar  
  4   3   5  1   
  5   3   6  ar  
  6   4   7  ar  
  7   4  23  1   
  8   5   8  am  
  9   5  24  1   
 10   6   9  ar  
 11   6  25  1   
 12   7   9  ar  
 13   7  10  1   
 14   8  11  2   
 15   8  12  1   
 16   9  26  1   
 17  12  13  1   
 18  12  27  1   
 19  12  28  1   
 20  13  14  1   
 21  13  15  1   
 22  14  16  1   
 23  14  29  1   
 24  14  30  1   
 25  15  17  1   
 26  15  31  1   
 27  15  32  1   
 28  16  18  1   
 29  16  33  1   
 30  16  34  1   
 31  17  18  1   
 32  17  35  1   
 33  17  36  1   
 34  18  19  1   
 35  18  20  1   
 36  19  21  1   
 37  20  22  1   
 38  21  22  1   
 39  21  37  1   
 40  21  38  1   
 41  22  39  1   
 42  22  40  1   
@<TRIPOS>SUBSTRUCTURE
  1 ****   5 GROUP 4 **** **** 0

# MOE 2024.06 (io_trps.svl 2023.06)
