@<TRIPOS>MOLECULE
NONAME
40 42 1 0 0 
SMALL
USER_CHARGES


@<TRIPOS>ATOM
  1 S       -0.7990     6.2240    -0.5550 S.3   1 <1>  -0.0800 
  2 C       -2.5380     6.1630    -0.2420 C.2   1 <1>  -0.0450 
  3 C       -0.9730     5.4640    -2.1190 C.2   1 <1>  -0.1100 
  4 C       -3.0300     6.6880     1.0020 C.2   1 <1>   0.5940 
  5 C       -3.1430     5.5850    -1.3160 C.2   1 <1>  -0.1500 
  6 C       -2.2660     5.1930    -2.3670 C.2   1 <1>  -0.1500 
  7 O       -2.3340     7.2270     1.8280 O.2   1 <1>  -0.5700 
  8 C       -4.5140     6.5870     1.3050 C.3   1 <1>   0.1310 
  9 S       -4.9570     4.8240     1.6940 S.3   1 <1>  -0.2860 
 10 C       -6.1750     4.3740     0.4600 C.2   1 <1>   0.2420 
 11 N       -6.6370     5.2080    -0.4030 N.2   1 <1>  -0.5650 
 12 N       -6.6530     3.1050     0.3820 N.pl3 1 <1>   0.0480 
 13 C       -7.5000     4.4450    -1.1310 C.ar  1 <1>   0.2270 
 14 C       -7.5220     3.1390    -0.6660 C.ar  1 <1>  -0.1520 
 15 C       -6.2870     1.9290     1.1980 C.3   1 <1>   0.0960 
 16 C       -8.2960     4.8110    -2.2140 C.ar  1 <1>  -0.1500 
 17 C       -8.3300     2.1730    -1.2710 C.ar  1 <1>  -0.1500 
 18 C       -5.1160     1.1770     0.5550 C.3   1 <1>  -0.1600 
 19 C       -9.0970     3.8630    -2.8140 C.ar  1 <1>  -0.1500 
 20 C       -9.1120     2.5450    -2.3420 C.ar  1 <1>  -0.1500 
 21 C       -4.7230    -0.0510     1.3850 C.3   1 <1>  -0.1600 
 22 C       -3.5540    -0.7980     0.7380 C.3   1 <1>  -0.2400 
 23 H       -0.0800     5.2970    -2.6960 H     1 <1>   0.1500 
 24 H       -4.2020     5.4160    -1.4120 H     1 <1>   0.1500 
 25 H       -2.6450     4.7250    -3.2600 H     1 <1>   0.1500 
 26 H       -5.0960     6.9220     0.4700 H     1 <1>   0.0800 
 27 H       -4.7600     7.1680     2.1730 H     1 <1>   0.0800 
 28 H       -7.1440     1.2850     1.2780 H     1 <1>   0.0800 
 29 H       -6.0190     2.2580     2.1870 H     1 <1>   0.0800 
 30 H       -8.2670     5.8280    -2.5570 H     1 <1>   0.1500 
 31 H       -8.3370     1.1610    -0.9050 H     1 <1>   0.1500 
 32 H       -4.2690     1.8380     0.4770 H     1 <1>   0.0800 
 33 H       -5.3960     0.8630    -0.4370 H     1 <1>   0.0800 
 34 H       -9.7190     4.1280    -3.6510 H     1 <1>   0.1500 
 35 H       -9.7450     1.8230    -2.8270 H     1 <1>   0.1500 
 36 H       -5.5640    -0.7190     1.4700 H     1 <1>   0.0800 
 37 H       -4.4380     0.2570     2.3770 H     1 <1>   0.0800 
 38 H       -3.8200    -1.1360    -0.2480 H     1 <1>   0.0800 
 39 H       -3.2900    -1.6550     1.3320 H     1 <1>   0.0800 
 40 H       -2.6920    -0.1580     0.6640 H     1 <1>   0.0800 
@<TRIPOS>BOND
  1   1   2  1   
  2   1   3  1   
  3   2   4  1   
  4   2   5  2   
  5   3   6  2   
  6   3  23  1   
  7   4   7  2   
  8   4   8  1   
  9   5   6  1   
 10   5  24  1   
 11   6  25  1   
 12   8   9  1   
 13   8  26  1   
 14   8  27  1   
 15   9  10  1   
 16  10  11  2   
 17  10  12  1   
 18  11  13  1   
 19  12  14  1   
 20  12  15  1   
 21  13  14  ar  
 22  13  16  ar  
 23  14  17  ar  
 24  15  18  1   
 25  15  28  1   
 26  15  29  1   
 27  16  19  ar  
 28  16  30  1   
 29  17  20  ar  
 30  17  31  1   
 31  18  21  1   
 32  18  32  1   
 33  18  33  1   
 34  19  20  ar  
 35  19  34  1   
 36  20  35  1   
 37  21  22  1   
 38  21  36  1   
 39  21  37  1   
 40  22  38  1   
 41  22  39  1   
 42  22  40  1   
@<TRIPOS>SUBSTRUCTURE
  1 ****  10 GROUP 4 **** **** 0

# MOE 2024.06 (io_trps.svl 2023.06)
