@<TRIPOS>MOLECULE
NONAME
40 40 1 0 0 
SMALL
USER_CHARGES


@<TRIPOS>ATOM
  1 O       -3.6680    -5.8970     1.1860 O.3   1 <1>  -0.6800 
  2 C       -4.1830    -4.9720     0.2670 C.3   1 <1>   0.1200 
  3 C       -3.1900    -3.7920     0.0860 C.3   1 <1>   0.5030 
  4 N       -1.8400    -4.3720     0.0590 N.4   1 <1>  -0.9060 
  5 C       -3.3170    -2.8240     1.2680 C.3   1 <1>  -0.2400 
  6 C       -3.4350    -3.0620    -1.2330 C.3   1 <1>  -0.2400 
  7 C       -0.6660    -3.5010     0.2530 C.3   1 <1>   0.4860 
  8 C        0.5440    -4.3770     0.0400 C.ar  1 <1>  -0.1430 
  9 C        1.1490    -4.4420    -1.2060 C.ar  1 <1>  -0.1500 
 10 C        1.0520    -5.1340     1.0840 C.ar  1 <1>  -0.1500 
 11 C        2.2440    -5.2630    -1.4050 C.ar  1 <1>  -0.1500 
 12 C        2.1470    -5.9540     0.8780 C.ar  1 <1>  -0.1500 
 13 C        2.7530    -6.0290    -0.3680 C.ar  1 <1>  -0.1430 
 14 C        3.9610    -6.9320    -0.6080 C.3   1 <1>   0.0630 
 15 C        3.6020    -8.4020    -0.3660 C.3   1 <1>  -0.2400 
 16 C        5.1440    -6.5090     0.2690 C.3   1 <1>  -0.2400 
 17 H       -4.3260    -6.6000     1.3860 H     1 <1>   0.4000 
 18 H       -5.1350    -4.6190     0.6260 H     1 <1>   0.0800 
 19 H       -4.3390    -5.4850    -0.6670 H     1 <1>   0.0800 
 20 H       -1.7050    -4.9090    -0.7990 H     1 <1>   0.4500 
 21 H       -1.8620    -5.0910     0.8010 H     1 <1>   0.4500 
 22 H       -4.3320    -2.4750     1.3430 H     1 <1>   0.0800 
 23 H       -3.0740    -3.3170     2.1930 H     1 <1>   0.0800 
 24 H       -2.6930    -1.9570     1.1470 H     1 <1>   0.0800 
 25 H       -3.3300    -3.7290    -2.0700 H     1 <1>   0.0800 
 26 H       -2.7570    -2.2350    -1.3540 H     1 <1>   0.0800 
 27 H       -4.4360    -2.6670    -1.2500 H     1 <1>   0.0800 
 28 H       -0.6570    -3.0890     1.2490 H     1 <1>   0.0800 
 29 H       -0.6680    -2.6960    -0.4640 H     1 <1>   0.0800 
 30 H        0.7840    -3.8590    -2.0350 H     1 <1>   0.1500 
 31 H        0.6100    -5.1000     2.0650 H     1 <1>   0.1500 
 32 H        2.7040    -5.3040    -2.3780 H     1 <1>   0.1500 
 33 H        2.5310    -6.5370     1.6970 H     1 <1>   0.1500 
 34 H        4.2670    -6.8360    -1.6360 H     1 <1>   0.0800 
 35 H        3.3390    -8.5690     0.6630 H     1 <1>   0.0800 
 36 H        4.4360    -9.0340    -0.6130 H     1 <1>   0.0800 
 37 H        2.7670    -8.6810    -0.9840 H     1 <1>   0.0800 
 38 H        4.9140    -6.6340     1.3110 H     1 <1>   0.0800 
 39 H        5.3800    -5.4750     0.0910 H     1 <1>   0.0800 
 40 H        6.0110    -7.1020     0.0350 H     1 <1>   0.0800 
@<TRIPOS>BOND
  1   1   2  1   
  2   1  17  1   
  3   2   3  1   
  4   2  18  1   
  5   2  19  1   
  6   3   4  1   
  7   3   5  1   
  8   3   6  1   
  9   4   7  1   
 10   4  20  1   
 11   4  21  1   
 12   5  22  1   
 13   5  23  1   
 14   5  24  1   
 15   6  25  1   
 16   6  26  1   
 17   6  27  1   
 18   7   8  1   
 19   7  28  1   
 20   7  29  1   
 21   8   9  ar  
 22   8  10  ar  
 23   9  11  ar  
 24   9  30  1   
 25  10  12  ar  
 26  10  31  1   
 27  11  13  ar  
 28  11  32  1   
 29  12  13  ar  
 30  12  33  1   
 31  13  14  1   
 32  14  15  1   
 33  14  16  1   
 34  14  34  1   
 35  15  35  1   
 36  15  36  1   
 37  15  37  1   
 38  16  38  1   
 39  16  39  1   
 40  16  40  1   
@<TRIPOS>SUBSTRUCTURE
  1 ****   8 GROUP 4 **** **** 0

# MOE 2024.06 (io_trps.svl 2023.06)
