@<TRIPOS>MOLECULE
NONAME
29 29 1 0 0 
SMALL
USER_CHARGES


@<TRIPOS>ATOM
  1 CL       0.3340    -0.0410     0.4620 Cl    1 <1>  -0.1770 
  2 C       -0.4590    -1.4080    -0.2830 C.ar  1 <1>   0.1770 
  3 C        0.2740    -2.4340    -0.8680 C.ar  1 <1>  -0.0090 
  4 C       -1.8450    -1.4120    -0.2580 C.ar  1 <1>  -0.1500 
  5 S        2.0810    -2.4190    -0.8960 S.o2  1 <1>   1.4470 
  6 C       -0.4390    -3.4870    -1.4350 C.ar  1 <1>  -0.1500 
  7 C       -2.5370    -2.4660    -0.8270 C.ar  1 <1>  -0.1500 
  8 O        2.5530    -3.6670    -1.4390 O.2   1 <1>  -0.6500 
  9 O        2.5770    -1.1740    -1.4350 O.2   1 <1>  -0.6500 
 10 N        2.5240    -2.5130     0.7190 N.am  1 <1>  -0.9140 
 11 C       -1.8210    -3.4940    -1.4100 C.ar  1 <1>   0.1770 
 12 C        3.4780    -1.4600     1.1370 C.3   1 <1>   0.2570 
 13 CL      -2.6800    -4.8300    -2.1310 Cl    1 <1>  -0.1770 
 14 C        4.8820    -1.5950     0.5320 C.2   1 <1>   0.6590 
 15 O        5.3720    -2.6790     0.3320 O.2   1 <1>  -0.5700 
 16 O        5.5210    -0.4650     0.2630 O.3   1 <1>  -0.4300 
 17 C        6.7920    -0.4690    -0.3430 C.3   1 <1>   0.1200 
 18 C        7.2340     0.9800    -0.5230 C.3   1 <1>  -0.2400 
 19 H       -2.3730    -0.5960     0.2040 H     1 <1>   0.1500 
 20 H        0.0800    -4.3090    -1.9000 H     1 <1>   0.1500 
 21 H       -3.6130    -2.4950    -0.8220 H     1 <1>   0.1500 
 22 H        3.0570    -3.3890     0.7370 H     1 <1>   0.4200 
 23 H        3.5870    -1.5050     2.2050 H     1 <1>   0.0800 
 24 H        3.0850    -0.4880     0.8970 H     1 <1>   0.0800 
 25 H        6.7140    -0.9700    -1.2940 H     1 <1>   0.0800 
 26 H        7.4740    -1.0070     0.2940 H     1 <1>   0.0800 
 27 H        6.5360     1.5030    -1.1520 H     1 <1>   0.0800 
 28 H        8.2020     1.0080    -0.9900 H     1 <1>   0.0800 
 29 H        7.2980     1.4710     0.4310 H     1 <1>   0.0800 
@<TRIPOS>BOND
  1   1   2  1   
  2   2   3  ar  
  3   2   4  ar  
  4   3   5  1   
  5   3   6  ar  
  6   4   7  ar  
  7   4  19  1   
  8   5   8  2   
  9   5   9  2   
 10   5  10  am  
 11   6  11  ar  
 12   6  20  1   
 13   7  11  ar  
 14   7  21  1   
 15  10  12  1   
 16  10  22  1   
 17  11  13  1   
 18  12  14  1   
 19  12  23  1   
 20  12  24  1   
 21  14  15  2   
 22  14  16  1   
 23  16  17  1   
 24  17  18  1   
 25  17  25  1   
 26  17  26  1   
 27  18  27  1   
 28  18  28  1   
 29  18  29  1   
@<TRIPOS>SUBSTRUCTURE
  1 ****   5 GROUP 4 **** **** 0

# MOE 2024.06 (io_trps.svl 2023.06)
