@<TRIPOS>MOLECULE
NONAME
48 49 1 0 0 
SMALL
USER_CHARGES


@<TRIPOS>ATOM
  1 O        0.7340    -0.6540     1.3190 O.2   1 <1>  -0.5700 
  2 C        1.0200    -1.1790     0.2590 C.2   1 <1>   0.6900 
  3 N        2.2780    -1.0660    -0.2650 N.am  1 <1>  -0.6600 
  4 N        0.0810    -1.8730    -0.4280 N.am  1 <1>  -0.7300 
  5 C        3.2740    -0.1260     0.3360 C.3   1 <1>   0.1400 
  6 C        2.9120    -2.1250    -1.1110 C.3   1 <1>   0.1400 
  7 C       -1.3140    -2.0700     0.0130 C.3   1 <1>   0.1400 
  8 C        4.3540    -0.8800     1.1310 C.3   1 <1>   0.2090 
  9 C        3.9900    -2.8990    -0.3300 C.3   1 <1>   0.2090 
 10 C       -1.7850    -3.4550    -0.4300 C.3   1 <1>  -0.1600 
 11 N        4.9660    -1.9940     0.3430 N.pl3 1 <1>  -0.8380 
 12 C       -3.2300    -3.7160     0.0160 C.3   1 <1>  -0.1600 
 13 C        6.2110    -1.7920    -0.2560 C.ar  1 <1>   0.1000 
 14 C       -3.7000    -5.1050    -0.4260 C.3   1 <1>  -0.2400 
 15 C        7.3610    -2.4190     0.2360 C.ar  1 <1>  -0.1430 
 16 C        6.3120    -0.9610    -1.3650 C.ar  1 <1>  -0.1500 
 17 C        8.5870    -2.2100    -0.3930 C.ar  1 <1>  -0.1430 
 18 C        7.2180    -3.3230     1.4600 C.3   1 <1>  -0.0970 
 19 C        7.5260    -0.7500    -1.9840 C.ar  1 <1>  -0.1500 
 20 C        8.6600    -1.3750    -1.4980 C.ar  1 <1>  -0.1500 
 21 C        9.8730    -2.8710     0.0850 C.3   1 <1>  -0.0970 
 22 H        0.2730    -2.0510    -1.4090 H     1 <1>   0.3700 
 23 H        2.7830     0.5760     0.9870 H     1 <1>   0.0800 
 24 H        3.7430     0.4380    -0.4490 H     1 <1>   0.0800 
 25 H        3.3650    -1.6630    -1.9690 H     1 <1>   0.0800 
 26 H        2.1770    -2.8240    -1.4640 H     1 <1>   0.0800 
 27 H       -1.9340    -1.3050    -0.4220 H     1 <1>   0.0800 
 28 H       -1.3700    -1.9870     1.0860 H     1 <1>   0.0800 
 29 H        3.9100    -1.2880     2.0220 H     1 <1>   0.0800 
 30 H        5.1240    -0.1910     1.4330 H     1 <1>   0.0800 
 31 H        4.5180    -3.5540    -1.0010 H     1 <1>   0.0800 
 32 H        3.5140    -3.5090     0.4170 H     1 <1>   0.0800 
 33 H       -1.1400    -4.1990     0.0040 H     1 <1>   0.0800 
 34 H       -1.7270    -3.5260    -1.5020 H     1 <1>   0.0800 
 35 H       -3.8820    -2.9700    -0.4070 H     1 <1>   0.0800 
 36 H       -3.2940    -3.6460     1.0890 H     1 <1>   0.0800 
 37 H       -3.6670    -5.1910    -1.4980 H     1 <1>   0.0800 
 38 H       -4.7120    -5.2700    -0.1020 H     1 <1>   0.0800 
 39 H       -3.0750    -5.8680     0.0030 H     1 <1>   0.0800 
 40 H        5.4320    -0.4800    -1.7420 H     1 <1>   0.1500 
 41 H        6.6980    -2.7940     2.2390 H     1 <1>   0.0800 
 42 H        8.1580    -3.6480     1.8580 H     1 <1>   0.0800 
 43 H        6.6390    -4.1890     1.1960 H     1 <1>   0.0800 
 44 H        7.5930    -0.1040    -2.8410 H     1 <1>   0.1500 
 45 H        9.6010    -1.2040    -1.9900 H     1 <1>   0.1500 
 46 H        9.7540    -3.9390     0.1000 H     1 <1>   0.0800 
 47 H       10.1150    -2.5270     1.0750 H     1 <1>   0.0800 
 48 H       10.6970    -2.6350    -0.5640 H     1 <1>   0.0800 
@<TRIPOS>BOND
  1   1   2  2   
  2   2   3  am  
  3   2   4  am  
  4   3   5  1   
  5   3   6  1   
  6   4   7  1   
  7   4  22  1   
  8   5   8  1   
  9   5  23  1   
 10   5  24  1   
 11   6   9  1   
 12   6  25  1   
 13   6  26  1   
 14   7  10  1   
 15   7  27  1   
 16   7  28  1   
 17   8  11  1   
 18   8  29  1   
 19   8  30  1   
 20   9  11  1   
 21   9  31  1   
 22   9  32  1   
 23  10  12  1   
 24  10  33  1   
 25  10  34  1   
 26  11  13  1   
 27  12  14  1   
 28  12  35  1   
 29  12  36  1   
 30  13  15  ar  
 31  13  16  ar  
 32  14  37  1   
 33  14  38  1   
 34  14  39  1   
 35  15  17  ar  
 36  15  18  1   
 37  16  19  ar  
 38  16  40  1   
 39  17  20  ar  
 40  17  21  1   
 41  18  41  1   
 42  18  42  1   
 43  18  43  1   
 44  19  20  ar  
 45  19  44  1   
 46  20  45  1   
 47  21  46  1   
 48  21  47  1   
 49  21  48  1   
@<TRIPOS>SUBSTRUCTURE
  1 ****   9 GROUP 4 **** **** 0

# MOE 2024.06 (io_trps.svl 2023.06)
