@<TRIPOS>MOLECULE
NONAME
43 44 1 0 0 
SMALL
USER_CHARGES


@<TRIPOS>ATOM
  1 O        0.3640    -0.5130    -0.1360 O.3   1 <1>  -0.3630 
  2 C        0.4110    -1.8420     0.0460 C.ar  1 <1>   0.7020 
  3 C       -0.8510     0.1820    -0.3410 C.3   1 <1>   0.0400 
  4 N       -0.7160    -2.5140     0.0280 N.ar  1 <1>  -0.6200 
  5 N        1.6050    -2.3290     0.2240 N.ar  1 <1>  -0.6200 
  6 C       -0.5440    -3.8010     0.2150 C.ar  1 <1>   0.7030 
  7 C        1.6200    -3.6230     0.3980 C.ar  1 <1>   0.7200 
  8 O       -1.6260    -4.5940     0.2170 O.3   1 <1>  -0.3630 
  9 N        0.5880    -4.4160     0.4040 N.ar  1 <1>  -0.6200 
 10 N        2.8060    -4.2370     0.5870 N.pl3 1 <1>  -0.8690 
 11 C       -2.9360    -4.0960     0.0280 C.3   1 <1>   0.0400 
 12 C        4.1200    -3.5830     0.7800 C.3   1 <1>   0.2090 
 13 C        4.8320    -3.4470    -0.5640 C.3   1 <1>  -0.0170 
 14 C        6.2030    -2.8180    -0.3730 C.ar  1 <1>  -0.1430 
 15 C        6.3310    -1.4400    -0.2980 C.ar  1 <1>  -0.1500 
 16 C        7.3310    -3.6140    -0.2640 C.ar  1 <1>  -0.1500 
 17 C        7.5790    -0.8500    -0.1150 C.ar  1 <1>   0.0830 
 18 C        8.5770    -3.0420    -0.0820 C.ar  1 <1>  -0.1500 
 19 O        7.7450     0.5030    -0.0350 O.3   1 <1>  -0.3630 
 20 C        8.7140    -1.6590    -0.0050 C.ar  1 <1>   0.0830 
 21 C        6.6580     1.3920    -0.1540 C.3   1 <1>   0.0400 
 22 O        9.9220    -1.0510     0.1750 O.3   1 <1>  -0.3630 
 23 C       11.1190    -1.7890     0.2710 C.3   1 <1>   0.0400 
 24 H       -0.6250     1.2270    -0.4590 H     1 <1>   0.0800 
 25 H       -1.4860     0.0360     0.5150 H     1 <1>   0.0800 
 26 H       -1.3230    -0.1960    -1.2310 H     1 <1>   0.0800 
 27 H        2.7460    -5.2450     0.7340 H     1 <1>   0.4000 
 28 H       -3.6210    -4.9230     0.0730 H     1 <1>   0.0800 
 29 H       -2.9930    -3.6210    -0.9360 H     1 <1>   0.0800 
 30 H       -3.1570    -3.3910     0.8100 H     1 <1>   0.0800 
 31 H        4.7170    -4.1720     1.4550 H     1 <1>   0.0800 
 32 H        3.9850    -2.6080     1.2190 H     1 <1>   0.0800 
 33 H        4.2410    -2.8310    -1.2180 H     1 <1>   0.0800 
 34 H        4.9350    -4.4170    -1.0170 H     1 <1>   0.0800 
 35 H        5.4450    -0.8410    -0.3840 H     1 <1>   0.1500 
 36 H        7.2450    -4.6850    -0.3210 H     1 <1>   0.1500 
 37 H        9.4270    -3.6910    -0.0030 H     1 <1>   0.1500 
 38 H        7.0370     2.3940    -0.0660 H     1 <1>   0.0800 
 39 H        5.9580     1.1960     0.6390 H     1 <1>   0.0800 
 40 H        6.2010     1.2580    -1.1180 H     1 <1>   0.0800 
 41 H       11.9290    -1.0940     0.3980 H     1 <1>   0.0800 
 42 H       11.2570    -2.3490    -0.6360 H     1 <1>   0.0800 
 43 H       11.0590    -2.4400     1.1250 H     1 <1>   0.0800 
@<TRIPOS>BOND
  1   1   2  1   
  2   1   3  1   
  3   2   4  ar  
  4   2   5  ar  
  5   3  24  1   
  6   3  25  1   
  7   3  26  1   
  8   4   6  ar  
  9   5   7  ar  
 10   6   8  1   
 11   6   9  ar  
 12   7   9  ar  
 13   7  10  1   
 14   8  11  1   
 15  10  12  1   
 16  10  27  1   
 17  11  28  1   
 18  11  29  1   
 19  11  30  1   
 20  12  13  1   
 21  12  31  1   
 22  12  32  1   
 23  13  14  1   
 24  13  33  1   
 25  13  34  1   
 26  14  15  ar  
 27  14  16  ar  
 28  15  17  ar  
 29  15  35  1   
 30  16  18  ar  
 31  16  36  1   
 32  17  19  1   
 33  17  20  ar  
 34  18  20  ar  
 35  18  37  1   
 36  19  21  1   
 37  20  22  1   
 38  21  38  1   
 39  21  39  1   
 40  21  40  1   
 41  22  23  1   
 42  23  41  1   
 43  23  42  1   
 44  23  43  1   
@<TRIPOS>SUBSTRUCTURE
  1 ****  12 GROUP 4 **** **** 0

# MOE 2024.06 (io_trps.svl 2023.06)
