@<TRIPOS>MOLECULE
NONAME
50 52 1 0 0 
SMALL
USER_CHARGES


@<TRIPOS>ATOM
  1 O        0.5120    -0.7670     1.8030 O.2   1 <1>  -0.5700 
  2 C        0.2960    -1.4490     0.8300 C.2   1 <1>   0.4950 
  3 C        1.2140    -1.6510    -0.2560 C.2   1 <1>   0.0140 
  4 C       -1.0460    -2.1620     0.7790 C.3   1 <1>  -0.0990 
  5 C        1.0470    -2.7080    -1.1110 C.2   1 <1>  -0.0380 
  6 C        2.3770    -0.7970    -0.4700 C.2   1 <1>   0.0000 
  7 C       -0.9220    -3.5990     0.2370 C.3   1 <1>   0.0000 
  8 N        2.0580    -3.0830    -1.9700 N.pl3 1 <1>  -0.6000 
  9 C       -0.2080    -3.5720    -1.1300 C.3   1 <1>  -0.0220 
 10 C        3.5400    -1.5540    -0.9070 C.2   1 <1>   0.0140 
 11 C        2.3540     0.5890    -0.4360 C.2   1 <1>   0.1000 
 12 C       -0.1260    -4.4680     1.2300 C.3   1 <1>  -0.2400 
 13 C       -2.3230    -4.2100     0.0780 C.3   1 <1>  -0.2400 
 14 C        3.3370    -2.6160    -1.7460 C.2   1 <1>  -0.0380 
 15 C        4.8390    -1.1850    -0.4280 C.2   1 <1>   0.7060 
 16 N        3.5170     1.3560    -0.7380 N.pl3 1 <1>  -0.6000 
 17 C        1.2020     1.4120    -0.1770 C.2   1 <1>  -0.1500 
 18 C        4.4350    -3.4090    -2.4380 C.3   1 <1>  -0.1020 
 19 O        5.6370    -0.5520    -1.0960 O.2   1 <1>  -0.5700 
 20 O        5.1570    -1.5500     0.8160 O.3   1 <1>  -0.4300 
 21 C        3.5630     2.7410    -0.6870 C.2   1 <1>  -0.0500 
 22 C        1.2350     2.7680    -0.1410 C.2   1 <1>  -0.1500 
 23 C        6.4250    -1.2930     1.3700 C.3   1 <1>   0.2580 
 24 C        2.4560     3.4530    -0.3890 C.2   1 <1>  -0.1500 
 25 C        7.3450    -2.4400     0.9930 C.2   1 <1>  -0.2880 
 26 C        8.4480    -2.3300     0.2460 C.2   1 <1>  -0.3000 
 27 H       -1.6990    -1.5860     0.1500 H     1 <1>   0.0800 
 28 H       -1.4720    -2.1780     1.7660 H     1 <1>   0.0800 
 29 H        1.9110    -3.8480    -2.6380 H     1 <1>   0.4000 
 30 H        0.0450    -4.5780    -1.4150 H     1 <1>   0.0800 
 31 H       -0.8680    -3.1770    -1.8820 H     1 <1>   0.0800 
 32 H        0.8780    -4.1010     1.3560 H     1 <1>   0.0800 
 33 H       -0.0650    -5.4830     0.8800 H     1 <1>   0.0800 
 34 H       -0.6020    -4.4730     2.1950 H     1 <1>   0.0800 
 35 H       -2.9200    -3.6270    -0.6020 H     1 <1>   0.0800 
 36 H       -2.8300    -4.2430     1.0270 H     1 <1>   0.0800 
 37 H       -2.2570    -5.2130    -0.3040 H     1 <1>   0.0800 
 38 H        4.3630     0.8540    -1.0520 H     1 <1>   0.4000 
 39 H        0.2630     0.9290    -0.0100 H     1 <1>   0.1500 
 40 H        4.2750    -3.3990    -3.5010 H     1 <1>   0.0800 
 41 H        4.4230    -4.4270    -2.0930 H     1 <1>   0.0800 
 42 H        5.4100    -2.9990    -2.2460 H     1 <1>   0.0800 
 43 H        4.5110     3.2070    -0.8970 H     1 <1>   0.1500 
 44 H        0.3580     3.3540     0.0670 H     1 <1>   0.1500 
 45 H        6.3110    -1.2420     2.4390 H     1 <1>   0.0800 
 46 H        6.7930    -0.3460     1.0140 H     1 <1>   0.0800 
 47 H        2.4600     4.5270    -0.3390 H     1 <1>   0.1500 
 48 H        7.0060    -3.3790     1.3970 H     1 <1>   0.1500 
 49 H        9.0870    -3.1580    -0.0100 H     1 <1>   0.1500 
 50 H        8.8020    -1.4050    -0.1760 H     1 <1>   0.1500 
@<TRIPOS>BOND
  1   1   2  2   
  2   2   3  1   
  3   2   4  1   
  4   3   5  2   
  5   3   6  1   
  6   4   7  1   
  7   4  27  1   
  8   4  28  1   
  9   5   8  1   
 10   5   9  1   
 11   6  10  1   
 12   6  11  2   
 13   7   9  1   
 14   7  12  1   
 15   7  13  1   
 16   8  14  1   
 17   8  29  1   
 18   9  30  1   
 19   9  31  1   
 20  10  14  2   
 21  10  15  1   
 22  11  16  1   
 23  11  17  1   
 24  12  32  1   
 25  12  33  1   
 26  12  34  1   
 27  13  35  1   
 28  13  36  1   
 29  13  37  1   
 30  14  18  1   
 31  15  19  2   
 32  15  20  1   
 33  16  21  1   
 34  16  38  1   
 35  17  22  2   
 36  17  39  1   
 37  18  40  1   
 38  18  41  1   
 39  18  42  1   
 40  20  23  1   
 41  21  24  2   
 42  21  43  1   
 43  22  24  1   
 44  22  44  1   
 45  23  25  1   
 46  23  45  1   
 47  23  46  1   
 48  24  47  1   
 49  25  26  2   
 50  25  48  1   
 51  26  49  1   
 52  26  50  1   
@<TRIPOS>SUBSTRUCTURE
  1 ****   6 GROUP 4 **** **** 0

# MOE 2024.06 (io_trps.svl 2023.06)
