@<TRIPOS>MOLECULE
NONAME
41 43 1 0 0 
SMALL
USER_CHARGES


@<TRIPOS>ATOM
  1 S        0.2710     0.2390    -0.5620 S.3   1 <1>  -0.0800 
  2 C       -1.2080     0.2670     0.3490 C.2   1 <1>   0.4420 
  3 C        1.0050    -0.5320     0.8020 C.2   1 <1>   0.1980 
  4 N       -1.0720    -0.2570     1.5110 N.2   1 <1>  -0.3380 
  5 N       -2.3660     0.8040    -0.1660 N.am  1 <1>  -0.4940 
  6 N        0.1930    -0.7120     1.7630 N.2   1 <1>  -0.3380 
  7 C        2.4730    -0.9040     0.7120 C.3   1 <1>   0.0200 
  8 C       -2.6920     1.3300    -1.3800 C.2   1 <1>   0.5690 
  9 C        3.3810     0.3300     0.7710 C.3   1 <1>  -0.2400 
 10 O       -1.9310     1.4140    -2.3110 O.2   1 <1>  -0.5700 
 11 C       -4.1260     1.8380    -1.5310 C.3   1 <1>   0.1710 
 12 N       -5.0650     1.2740    -0.5140 N.3   1 <1>  -0.8100 
 13 C       -6.2540     2.1180    -0.3770 C.3   1 <1>   0.1100 
 14 C       -5.4510    -0.1030    -0.8530 C.3   1 <1>   0.1100 
 15 C       -7.1960     1.4810     0.6450 C.3   1 <1>  -0.1600 
 16 C       -6.4450    -0.6200     0.1890 C.3   1 <1>  -0.1600 
 17 C       -7.8200     0.1500     0.0650 C.3   1 <1>   0.5600 
 18 O       -9.0290     0.8390    -0.1460 O.3   1 <1>  -0.5600 
 19 O       -8.4240    -1.0350    -0.3910 O.3   1 <1>  -0.5600 
 20 C      -10.0840     0.1620     0.4260 C.3   1 <1>   0.1200 
 21 C       -9.6260    -1.2460     0.2460 C.3   1 <1>   0.1200 
 22 H       -3.1720     0.7750     0.4640 H     1 <1>   0.3700 
 23 H        2.6450    -1.4420    -0.2030 H     1 <1>   0.0800 
 24 H        2.7110    -1.5590     1.5320 H     1 <1>   0.0800 
 25 H        3.1850     0.9830    -0.0610 H     1 <1>   0.0800 
 26 H        4.4140     0.0320     0.7390 H     1 <1>   0.0800 
 27 H        3.2060     0.8730     1.6840 H     1 <1>   0.0800 
 28 H       -4.4770     1.6180    -2.5240 H     1 <1>   0.0800 
 29 H       -4.0890     2.9080    -1.4260 H     1 <1>   0.0800 
 30 H       -6.7590     2.2220    -1.3240 H     1 <1>   0.0800 
 31 H       -5.9610     3.0960    -0.0320 H     1 <1>   0.0800 
 32 H       -4.5800    -0.7360    -0.8600 H     1 <1>   0.0800 
 33 H       -5.9060    -0.1370    -1.8300 H     1 <1>   0.0800 
 34 H       -7.9080     2.2490     0.9120 H     1 <1>   0.0800 
 35 H       -6.6660     1.3370     1.5680 H     1 <1>   0.0800 
 36 H       -6.0060    -0.5530     1.1680 H     1 <1>   0.0800 
 37 H       -6.4890    -1.6870     0.0290 H     1 <1>   0.0800 
 38 H      -10.9860     0.3820    -0.1160 H     1 <1>   0.0800 
 39 H      -10.1710     0.4350     1.4630 H     1 <1>   0.0800 
 40 H       -9.4560    -1.7450     1.1840 H     1 <1>   0.0800 
 41 H      -10.2750    -1.8190    -0.3920 H     1 <1>   0.0800 
@<TRIPOS>BOND
  1   1   2  1   
  2   1   3  1   
  3   2   4  2   
  4   2   5  1   
  5   3   6  2   
  6   3   7  1   
  7   4   6  1   
  8   5   8  am  
  9   5  22  1   
 10   7   9  1   
 11   7  23  1   
 12   7  24  1   
 13   8  10  2   
 14   8  11  1   
 15   9  25  1   
 16   9  26  1   
 17   9  27  1   
 18  11  12  1   
 19  11  28  1   
 20  11  29  1   
 21  12  13  1   
 22  12  14  1   
 23  13  15  1   
 24  13  30  1   
 25  13  31  1   
 26  14  16  1   
 27  14  32  1   
 28  14  33  1   
 29  15  17  1   
 30  15  34  1   
 31  15  35  1   
 32  16  17  1   
 33  16  36  1   
 34  16  37  1   
 35  17  18  1   
 36  17  19  1   
 37  18  20  1   
 38  19  21  1   
 39  20  21  1   
 40  20  38  1   
 41  20  39  1   
 42  21  40  1   
 43  21  41  1   
@<TRIPOS>SUBSTRUCTURE
  1 ****  12 GROUP 4 **** **** 0

# MOE 2024.06 (io_trps.svl 2023.06)
