@<TRIPOS>MOLECULE
NONAME
34 34 1 0 0 
SMALL
USER_CHARGES


@<TRIPOS>ATOM
  1 O       -0.6850    -2.4710     0.9680 O.2   1 <1>  -0.5700 
  2 C       -0.2830    -2.1200    -0.1140 C.2   1 <1>   0.5690 
  3 N       -1.0020    -1.3100    -0.9310 N.am  1 <1>  -0.7300 
  4 C        1.0740    -2.5790    -0.5660 C.3   1 <1>  -0.0380 
  5 C       -2.3500    -0.7750    -0.6290 C.3   1 <1>   0.1400 
  6 C        1.9650    -1.3700    -0.6770 C.2   1 <1>   0.4480 
  7 C       -2.2360     0.6570    -0.1080 C.3   1 <1>  -0.0170 
  8 O        2.1200    -0.8190    -1.7240 O.2   1 <1>  -0.5700 
  9 C        2.6380    -0.8750     0.5840 C.3   1 <1>  -0.1790 
 10 C       -3.6190     1.2370     0.1390 C.ar  1 <1>  -0.1440 
 11 C       -4.2240     2.0460    -0.8110 C.ar  1 <1>  -0.1500 
 12 C       -4.2900     0.9550     1.3190 C.ar  1 <1>  -0.1500 
 13 C       -5.4860     2.5690    -0.5870 C.ar  1 <1>  -0.1500 
 14 C       -5.5510     1.4770     1.5450 C.ar  1 <1>  -0.1500 
 15 C       -6.1590     2.2850     0.5980 C.ar  1 <1>   0.0820 
 16 O       -7.3950     2.7560     0.8970 O.3   1 <1>  -0.3630 
 17 C       -8.0950     3.5950     0.0060 C.3   1 <1>   0.0400 
 18 H       -0.5660    -0.9660    -1.7940 H     1 <1>   0.3700 
 19 H        0.9860    -3.0560    -1.5230 H     1 <1>   0.0800 
 20 H        1.4810    -3.2820     0.1350 H     1 <1>   0.0800 
 21 H       -2.8290    -1.3920     0.1130 H     1 <1>   0.0800 
 22 H       -2.9510    -0.7960    -1.5220 H     1 <1>   0.0800 
 23 H       -1.7110     1.2640    -0.8230 H     1 <1>   0.0800 
 24 H       -1.6790     0.6570     0.8120 H     1 <1>   0.0800 
 25 H        3.3050    -1.6270     0.9640 H     1 <1>   0.0800 
 26 H        1.8990    -0.6450     1.3290 H     1 <1>   0.0800 
 27 H        3.2030     0.0140     0.3690 H     1 <1>   0.0800 
 28 H       -3.7150     2.2730    -1.7310 H     1 <1>   0.1500 
 29 H       -3.8340     0.3280     2.0660 H     1 <1>   0.1500 
 30 H       -5.9260     3.1920    -1.3410 H     1 <1>   0.1500 
 31 H       -6.0740     1.2600     2.4590 H     1 <1>   0.1500 
 32 H       -9.0400     3.8430     0.4530 H     1 <1>   0.0800 
 33 H       -8.2540     3.0670    -0.9170 H     1 <1>   0.0800 
 34 H       -7.5200     4.4900    -0.1540 H     1 <1>   0.0800 
@<TRIPOS>BOND
  1   1   2  2   
  2   2   3  am  
  3   2   4  1   
  4   3   5  1   
  5   3  18  1   
  6   4   6  1   
  7   4  19  1   
  8   4  20  1   
  9   5   7  1   
 10   5  21  1   
 11   5  22  1   
 12   6   8  2   
 13   6   9  1   
 14   7  10  1   
 15   7  23  1   
 16   7  24  1   
 17   9  25  1   
 18   9  26  1   
 19   9  27  1   
 20  10  11  ar  
 21  10  12  ar  
 22  11  13  ar  
 23  11  28  1   
 24  12  14  ar  
 25  12  29  1   
 26  13  15  ar  
 27  13  30  1   
 28  14  15  ar  
 29  14  31  1   
 30  15  16  1   
 31  16  17  1   
 32  17  32  1   
 33  17  33  1   
 34  17  34  1   
@<TRIPOS>SUBSTRUCTURE
  1 ****   7 GROUP 4 **** **** 0

# MOE 2024.06 (io_trps.svl 2023.06)
