@<TRIPOS>MOLECULE
NONAME
46 48 1 0 0 
SMALL
USER_CHARGES


@<TRIPOS>ATOM
  1 CL       2.4600    -0.8790    -2.8850 Cl    1 <1>  -0.1770 
  2 C        2.8510    -0.9260    -1.1800 C.ar  1 <1>   0.1770 
  3 C        4.0370    -0.3820    -0.7000 C.ar  1 <1>  -0.1440 
  4 C        1.9280    -1.5220    -0.3410 C.ar  1 <1>  -0.1500 
  5 C        4.2780    -0.4310     0.6760 C.ar  1 <1>   0.1170 
  6 C        5.0490     0.2620    -1.6510 C.3   1 <1>  -0.0960 
  7 C        2.1790    -1.5810     1.0160 C.ar  1 <1>  -0.1500 
  8 N        5.4440     0.1200     1.2430 N.am  1 <1>  -0.2370 
  9 C        3.3480    -1.0370     1.5160 C.ar  1 <1>  -0.1500 
 10 C        6.5060    -0.6040     1.7020 C.2   1 <1>   0.5690 
 11 C        5.7040     1.4540     1.3720 C.2   1 <1>   0.5690 
 12 O        6.5060    -1.7940     1.9100 O.2   1 <1>  -0.5700 
 13 C        7.7050     0.3100     1.9970 C.3   1 <1>   0.2510 
 14 O        4.9640     2.3550     1.0760 O.2   1 <1>  -0.5700 
 15 C        7.0620     1.7050     1.9760 C.3   1 <1>  -0.0990 
 16 N        8.8030     0.2670     0.9860 N.3   1 <1>  -0.8100 
 17 C       10.0100     0.9750     1.4400 C.3   1 <1>   0.1100 
 18 C        9.1350    -1.1160     0.5670 C.3   1 <1>   0.1100 
 19 C       10.9360     1.2350     0.2430 C.3   1 <1>  -0.1600 
 20 C       10.4470    -1.1940    -0.2330 C.3   1 <1>  -0.1600 
 21 C       10.8170     0.1610    -0.8620 C.3   1 <1>  -0.0190 
 22 C       12.0680     0.0810    -1.7300 C.2   1 <1>   0.6590 
 23 O       12.0430     0.3640    -2.9000 O.2   1 <1>  -0.5700 
 24 O       13.1830    -0.3200    -1.1270 O.3   1 <1>  -0.4300 
 25 C       14.4030    -0.4350    -1.8290 C.3   1 <1>   0.0400 
 26 H        1.0230    -1.9340    -0.7510 H     1 <1>   0.1500 
 27 H        4.9600    -0.1250    -2.6490 H     1 <1>   0.0800 
 28 H        6.0570     0.0710    -1.3300 H     1 <1>   0.0800 
 29 H        4.8910     1.3250    -1.6800 H     1 <1>   0.0800 
 30 H        1.4700    -2.0460     1.6790 H     1 <1>   0.1500 
 31 H        3.5430    -1.0850     2.5720 H     1 <1>   0.1500 
 32 H        8.0940     0.0740     2.9730 H     1 <1>   0.0800 
 33 H        6.9350     2.0840     2.9720 H     1 <1>   0.0800 
 34 H        7.6010     2.4130     1.3740 H     1 <1>   0.0800 
 35 H       10.5220     0.3720     2.1730 H     1 <1>   0.0800 
 36 H        9.7620     1.9160     1.9000 H     1 <1>   0.0800 
 37 H        8.3360    -1.4860    -0.0540 H     1 <1>   0.0800 
 38 H        9.2090    -1.7600     1.4280 H     1 <1>   0.0800 
 39 H       11.9460     1.2840     0.6100 H     1 <1>   0.0800 
 40 H       10.7050     2.1960    -0.1820 H     1 <1>   0.0800 
 41 H       10.3500    -1.9440    -0.9980 H     1 <1>   0.0800 
 42 H       11.2380    -1.5090     0.4250 H     1 <1>   0.0800 
 43 H       10.0030     0.4440    -1.5070 H     1 <1>   0.0800 
 44 H       15.1610    -0.7720    -1.1440 H     1 <1>   0.0800 
 45 H       14.6660     0.5290    -2.2290 H     1 <1>   0.0800 
 46 H       14.2800    -1.1460    -2.6270 H     1 <1>   0.0800 
@<TRIPOS>BOND
  1   1   2  1   
  2   2   3  ar  
  3   2   4  ar  
  4   3   5  ar  
  5   3   6  1   
  6   4   7  ar  
  7   4  26  1   
  8   5   8  1   
  9   5   9  ar  
 10   6  27  1   
 11   6  28  1   
 12   6  29  1   
 13   7   9  ar  
 14   7  30  1   
 15   8  10  am  
 16   8  11  am  
 17   9  31  1   
 18  10  12  2   
 19  10  13  1   
 20  11  14  2   
 21  11  15  1   
 22  13  15  1   
 23  13  16  1   
 24  13  32  1   
 25  15  33  1   
 26  15  34  1   
 27  16  17  1   
 28  16  18  1   
 29  17  19  1   
 30  17  35  1   
 31  17  36  1   
 32  18  20  1   
 33  18  37  1   
 34  18  38  1   
 35  19  21  1   
 36  19  39  1   
 37  19  40  1   
 38  20  21  1   
 39  20  41  1   
 40  20  42  1   
 41  21  22  1   
 42  21  43  1   
 43  22  23  2   
 44  22  24  1   
 45  24  25  1   
 46  25  44  1   
 47  25  45  1   
 48  25  46  1   
@<TRIPOS>SUBSTRUCTURE
  1 ****  16 GROUP 4 **** **** 0

# MOE 2024.06 (io_trps.svl 2023.06)
