@<TRIPOS>MOLECULE
NONAME
54 56 1 0 0 
SMALL
USER_CHARGES


@<TRIPOS>ATOM
  1 S        0.8110     0.0400    -1.6500 S.o2  1 <1>   1.4470 
  2 O        1.7500    -0.4560    -2.6330 O.2   1 <1>  -0.6500 
  3 O        0.4660     1.4440    -1.6470 O.2   1 <1>  -0.6500 
  4 N        1.4510    -0.3310    -0.1250 N.am  1 <1>  -0.8490 
  5 C       -0.7190    -0.9360    -1.7130 C.ar  1 <1>  -0.0090 
  6 C        1.9570    -1.7080    -0.0570 C.3   1 <1>   0.1960 
  7 C        2.4860     0.6260     0.2710 C.3   1 <1>   0.1960 
  8 C       -1.4900    -1.1400    -0.5780 C.ar  1 <1>  -0.1500 
  9 C       -1.1690    -1.4880    -2.9050 C.ar  1 <1>  -0.1500 
 10 C        2.3540    -2.0640     1.3840 C.3   1 <1>  -0.0800 
 11 C        2.9200     0.3630     1.7180 C.3   1 <1>  -0.1600 
 12 C       -2.6700    -1.8810    -0.5830 C.ar  1 <1>   0.0860 
 13 C       -2.3320    -2.2320    -2.9470 C.ar  1 <1>  -0.1500 
 14 C        3.4080    -1.0790     1.9090 C.3   1 <1>  -0.1600 
 15 C        2.8770    -3.5040     1.4690 C.3   1 <1>  -0.2400 
 16 C       -3.0790    -2.4500    -1.8010 C.ar  1 <1>   0.0830 
 17 C       -3.4070    -1.9900     0.6540 C.2   1 <1>   0.5440 
 18 O       -4.1820    -3.2160    -1.9650 O.3   1 <1>  -0.3630 
 19 O       -3.0120    -2.7670     1.5040 O.2   1 <1>  -0.5700 
 20 N       -4.5310    -1.2280     0.9000 N.am  1 <1>  -0.6600 
 21 C       -4.5940    -4.1510    -0.9900 C.3   1 <1>   0.0400 
 22 C       -5.0830    -0.2340    -0.0630 C.3   1 <1>   0.1400 
 23 C       -5.3210    -1.3600     2.1560 C.3   1 <1>   0.1400 
 24 C       -6.5180    -0.6220    -0.4310 C.3   1 <1>  -0.1600 
 25 C       -6.7650    -1.7480     1.8180 C.3   1 <1>  -0.1600 
 26 C       -7.4000    -0.7700     0.8180 C.3   1 <1>  -0.1600 
 27 H        2.8090    -1.8190    -0.7100 H     1 <1>   0.0800 
 28 H        1.1930    -2.3940    -0.3840 H     1 <1>   0.0800 
 29 H        2.1000     1.6300     0.2060 H     1 <1>   0.0800 
 30 H        3.3320     0.5460    -0.3930 H     1 <1>   0.0800 
 31 H       -1.1680    -0.7080     0.3560 H     1 <1>   0.1500 
 32 H       -0.5980    -1.3360    -3.8070 H     1 <1>   0.1500 
 33 H        1.4710    -1.9910     1.9970 H     1 <1>   0.0800 
 34 H        2.0830     0.5520     2.3670 H     1 <1>   0.0800 
 35 H        3.7040     1.0490     1.9840 H     1 <1>   0.0800 
 36 H       -2.6670    -2.6600    -3.8760 H     1 <1>   0.1500 
 37 H        4.3310    -1.2140     1.3710 H     1 <1>   0.0800 
 38 H        3.5980    -1.2620     2.9530 H     1 <1>   0.0800 
 39 H        3.7540    -3.6290     0.8580 H     1 <1>   0.0800 
 40 H        2.1220    -4.1950     1.1340 H     1 <1>   0.0800 
 41 H        3.1280    -3.7490     2.4860 H     1 <1>   0.0800 
 42 H       -5.1700    -4.9150    -1.4800 H     1 <1>   0.0800 
 43 H       -5.2050    -3.6530    -0.2600 H     1 <1>   0.0800 
 44 H       -3.7270    -4.5890    -0.5250 H     1 <1>   0.0800 
 45 H       -4.4860    -0.1800    -0.9560 H     1 <1>   0.0800 
 46 H       -5.0760     0.7380     0.3990 H     1 <1>   0.0800 
 47 H       -5.3060    -0.4190     2.6780 H     1 <1>   0.0800 
 48 H       -4.8910    -2.1050     2.8040 H     1 <1>   0.0800 
 49 H       -6.4970    -1.5490    -0.9770 H     1 <1>   0.0800 
 50 H       -6.9330     0.1290    -1.0790 H     1 <1>   0.0800 
 51 H       -7.3470    -1.7680     2.7220 H     1 <1>   0.0800 
 52 H       -6.7680    -2.7420     1.4070 H     1 <1>   0.0800 
 53 H       -8.3760    -1.1220     0.5340 H     1 <1>   0.0800 
 54 H       -7.5160     0.1920     1.2870 H     1 <1>   0.0800 
@<TRIPOS>BOND
  1   1   2  2   
  2   1   3  2   
  3   1   4  am  
  4   1   5  1   
  5   4   6  1   
  6   4   7  1   
  7   5   8  ar  
  8   5   9  ar  
  9   6  10  1   
 10   6  27  1   
 11   6  28  1   
 12   7  11  1   
 13   7  29  1   
 14   7  30  1   
 15   8  12  ar  
 16   8  31  1   
 17   9  13  ar  
 18   9  32  1   
 19  10  14  1   
 20  10  15  1   
 21  10  33  1   
 22  11  14  1   
 23  11  34  1   
 24  11  35  1   
 25  12  16  ar  
 26  12  17  1   
 27  13  16  ar  
 28  13  36  1   
 29  14  37  1   
 30  14  38  1   
 31  15  39  1   
 32  15  40  1   
 33  15  41  1   
 34  16  18  1   
 35  17  19  2   
 36  17  20  am  
 37  18  21  1   
 38  20  22  1   
 39  20  23  1   
 40  21  42  1   
 41  21  43  1   
 42  21  44  1   
 43  22  24  1   
 44  22  45  1   
 45  22  46  1   
 46  23  25  1   
 47  23  47  1   
 48  23  48  1   
 49  24  26  1   
 50  24  49  1   
 51  24  50  1   
 52  25  26  1   
 53  25  51  1   
 54  25  52  1   
 55  26  53  1   
 56  26  54  1   
@<TRIPOS>SUBSTRUCTURE
  1 ****   8 GROUP 4 **** **** 0

# MOE 2024.06 (io_trps.svl 2023.06)
