@<TRIPOS>MOLECULE
NONAME
47 48 1 0 0 
SMALL
USER_CHARGES


@<TRIPOS>ATOM
  1 O       -0.9440    -5.2240    -0.3600 O.3   1 <1>  -0.3630 
  2 C       -2.2860    -5.1060    -0.1940 C.ar  1 <1>   0.0830 
  3 C       -0.2240    -6.2710     0.2370 C.3   1 <1>   0.1200 
  4 C       -2.9000    -4.0350    -0.8230 C.ar  1 <1>  -0.1500 
  5 C       -3.0560    -5.9870     0.5590 C.ar  1 <1>  -0.1500 
  6 C        1.2420    -6.0880    -0.1530 C.3   1 <1>  -0.1600 
  7 C       -4.2650    -3.8400    -0.7050 C.ar  1 <1>  -0.1500 
  8 C       -4.4210    -5.7880     0.6750 C.ar  1 <1>  -0.1500 
  9 C        2.1070    -7.1830     0.4670 C.3   1 <1>   0.3430 
 10 C       -5.0330    -4.7150     0.0470 C.ar  1 <1>  -0.1440 
 11 N        3.5150    -7.0670    -0.0090 N.4   1 <1>  -0.9590 
 12 C       -6.5330    -4.5010     0.1780 C.3   1 <1>  -0.0170 
 13 C        4.2330    -8.3570     0.2070 C.3   1 <1>   0.3430 
 14 C        4.2070    -5.8970     0.6090 C.3   1 <1>   0.3430 
 15 C       -7.2800    -5.2350    -0.9380 C.3   1 <1>  -0.2400 
 16 C        5.3090    -8.5370    -0.8630 C.3   1 <1>  -0.1600 
 17 C        5.5650    -5.6150    -0.0370 C.3   1 <1>  -0.1600 
 18 C        6.6680    -7.8920    -0.5450 C.3   1 <1>  -0.1600 
 19 C        6.6430    -6.6400     0.3430 C.3   1 <1>  -0.1600 
 20 H       -0.6160    -7.2030    -0.1340 H     1 <1>   0.0800 
 21 H       -0.3580    -6.2030     1.3040 H     1 <1>   0.0800 
 22 H       -2.3060    -3.3560    -1.4060 H     1 <1>   0.1500 
 23 H       -2.6220    -6.8290     1.0610 H     1 <1>   0.1500 
 24 H        1.5570    -5.1190     0.1910 H     1 <1>   0.0800 
 25 H        1.3140    -6.1310    -1.2250 H     1 <1>   0.0800 
 26 H       -4.7260    -3.0050    -1.2010 H     1 <1>   0.1500 
 27 H       -5.0100    -6.4750     1.2580 H     1 <1>   0.1500 
 28 H        1.7080    -8.1410     0.1730 H     1 <1>   0.0800 
 29 H        2.0730    -7.1200     1.5430 H     1 <1>   0.0800 
 30 H        3.4920    -6.9060    -1.0240 H     1 <1>   0.4500 
 31 H       -6.7540    -3.4490     0.1290 H     1 <1>   0.0800 
 32 H       -6.8680    -4.8600     1.1350 H     1 <1>   0.0800 
 33 H        3.5320    -9.1710     0.1140 H     1 <1>   0.0800 
 34 H        4.6660    -8.3990     1.1940 H     1 <1>   0.0800 
 35 H        4.3400    -6.0640     1.6660 H     1 <1>   0.0800 
 36 H        3.5960    -5.0170     0.4900 H     1 <1>   0.0800 
 37 H       -6.9610    -4.8710    -1.8990 H     1 <1>   0.0800 
 38 H       -8.3390    -5.0780    -0.8410 H     1 <1>   0.0800 
 39 H       -7.0790    -6.2900    -0.8860 H     1 <1>   0.0800 
 40 H        4.9450    -8.1750    -1.8090 H     1 <1>   0.0800 
 41 H        5.4780    -9.5930    -0.9890 H     1 <1>   0.0800 
 42 H        5.8910    -4.6570     0.3320 H     1 <1>   0.0800 
 43 H        5.4750    -5.5210    -1.1050 H     1 <1>   0.0800 
 44 H        7.1520    -7.6490    -1.4770 H     1 <1>   0.0800 
 45 H        7.2940    -8.6230    -0.0590 H     1 <1>   0.0800 
 46 H        6.5290    -6.9240     1.3760 H     1 <1>   0.0800 
 47 H        7.6080    -6.1670     0.2610 H     1 <1>   0.0800 
@<TRIPOS>BOND
  1   1   2  1   
  2   1   3  1   
  3   2   4  ar  
  4   2   5  ar  
  5   3   6  1   
  6   3  20  1   
  7   3  21  1   
  8   4   7  ar  
  9   4  22  1   
 10   5   8  ar  
 11   5  23  1   
 12   6   9  1   
 13   6  24  1   
 14   6  25  1   
 15   7  10  ar  
 16   7  26  1   
 17   8  10  ar  
 18   8  27  1   
 19   9  11  1   
 20   9  28  1   
 21   9  29  1   
 22  10  12  1   
 23  11  13  1   
 24  11  14  1   
 25  11  30  1   
 26  12  15  1   
 27  12  31  1   
 28  12  32  1   
 29  13  16  1   
 30  13  33  1   
 31  13  34  1   
 32  14  17  1   
 33  14  35  1   
 34  14  36  1   
 35  15  37  1   
 36  15  38  1   
 37  15  39  1   
 38  16  18  1   
 39  16  40  1   
 40  16  41  1   
 41  17  19  1   
 42  17  42  1   
 43  17  43  1   
 44  18  19  1   
 45  18  44  1   
 46  18  45  1   
 47  19  46  1   
 48  19  47  1   
@<TRIPOS>SUBSTRUCTURE
  1 ****   3 GROUP 4 **** **** 0

# MOE 2024.06 (io_trps.svl 2023.06)
