@<TRIPOS>MOLECULE
NONAME
56 57 1 0 0 
SMALL
USER_CHARGES


@<TRIPOS>ATOM
  1 O       -6.1950     3.8980    -0.1230 O.3   1 <1>  -0.3630 
  2 C       -7.2630     3.1210     0.1790 C.ar  1 <1>   0.0830 
  3 C       -5.1870     4.1360     0.8480 C.3   1 <1>   0.1200 
  4 C       -8.5670     3.5550    -0.1030 C.ar  1 <1>  -0.1440 
  5 C       -7.0320     1.8720     0.7490 C.ar  1 <1>  -0.1500 
  6 C       -3.8120     3.8770     0.2210 C.3   1 <1>   0.2000 
  7 C       -9.6080     2.6910     0.2450 C.ar  1 <1>  -0.1500 
  8 C       -8.8620     4.9290    -0.7730 C.3   1 <1>   0.1440 
  9 C       -8.0830     1.0430     1.0790 C.ar  1 <1>  -0.1500 
 10 O       -3.8440     2.6250    -0.3870 O.3   1 <1>  -0.6800 
 11 C       -2.6780     3.9440     1.2670 C.3   1 <1>   0.1100 
 12 C       -9.3740     1.4580     0.8280 C.ar  1 <1>  -0.1500 
 13 C       -8.3600     6.0840     0.1090 C.3   1 <1>  -0.2400 
 14 C       -8.2040     5.0050    -2.1620 C.3   1 <1>  -0.2400 
 15 C      -10.3660     5.1840    -0.9980 C.3   1 <1>  -0.2400 
 16 N       -1.3170     4.1170     0.6940 N.3   1 <1>  -0.8100 
 17 C       -0.3210     4.3610     1.7630 C.3   1 <1>   0.1100 
 18 C       -0.9060     2.9560    -0.1430 C.3   1 <1>   0.1100 
 19 C        1.0910     4.6500     1.1930 C.3   1 <1>   0.3430 
 20 C        0.5870     2.9900    -0.5460 C.3   1 <1>   0.3430 
 21 N        1.1700     4.3420    -0.2770 N.4   1 <1>  -0.9590 
 22 C        2.5090     4.5300    -0.8830 C.3   1 <1>   0.3430 
 23 C        2.8670     6.0120    -0.8880 C.3   1 <1>  -0.2400 
 24 H       -5.3420     3.5120     1.7100 H     1 <1>   0.0800 
 25 H       -5.2680     5.1630     1.1560 H     1 <1>   0.0800 
 26 H       -6.0280     1.5330     0.9310 H     1 <1>   0.1500 
 27 H       -3.6370     4.6170    -0.5420 H     1 <1>   0.0800 
 28 H      -10.6350     2.9450     0.0740 H     1 <1>   0.1500 
 29 H       -7.8990     0.0800     1.5230 H     1 <1>   0.1500 
 30 H       -4.6900     2.5570    -0.8830 H     1 <1>   0.4000 
 31 H       -2.7150     3.0630     1.8860 H     1 <1>   0.0800 
 32 H       -2.8760     4.7920     1.9000 H     1 <1>   0.0800 
 33 H      -10.2020     0.8200     1.0830 H     1 <1>   0.1500 
 34 H       -8.7670     5.9920     1.1000 H     1 <1>   0.0800 
 35 H       -8.6600     7.0330    -0.2980 H     1 <1>   0.0800 
 36 H       -7.2910     6.0890     0.1800 H     1 <1>   0.0800 
 37 H       -7.1340     4.9810    -2.0960 H     1 <1>   0.0800 
 38 H       -8.4780     5.9140    -2.6650 H     1 <1>   0.0800 
 39 H       -8.5220     4.1710    -2.7630 H     1 <1>   0.0800 
 40 H      -10.8950     5.1890    -0.0620 H     1 <1>   0.0800 
 41 H      -10.7870     4.4290    -1.6380 H     1 <1>   0.0800 
 42 H      -10.5260     6.1380    -1.4690 H     1 <1>   0.0800 
 43 H       -0.2700     3.5020     2.4110 H     1 <1>   0.0800 
 44 H       -0.6280     5.2010     2.3630 H     1 <1>   0.0800 
 45 H       -1.4870     2.9540    -1.0480 H     1 <1>   0.0800 
 46 H       -1.1140     2.0320     0.3720 H     1 <1>   0.0800 
 47 H        1.8170     4.0690     1.7350 H     1 <1>   0.0800 
 48 H        1.3180     5.6910     1.3540 H     1 <1>   0.0800 
 49 H        0.6720     2.7440    -1.5920 H     1 <1>   0.0800 
 50 H        1.1230     2.2430     0.0140 H     1 <1>   0.0800 
 51 H        0.4910     4.9900    -0.7060 H     1 <1>   0.4500 
 52 H        2.4980     4.1710    -1.9000 H     1 <1>   0.0800 
 53 H        3.2490     3.9710    -0.3330 H     1 <1>   0.0800 
 54 H        2.1180     6.5840    -1.4050 H     1 <1>   0.0800 
 55 H        3.8010     6.1450    -1.4040 H     1 <1>   0.0800 
 56 H        2.9900     6.3900     0.1110 H     1 <1>   0.0800 
@<TRIPOS>BOND
  1   1   2  1   
  2   1   3  1   
  3   2   4  ar  
  4   2   5  ar  
  5   3   6  1   
  6   3  24  1   
  7   3  25  1   
  8   4   7  ar  
  9   4   8  1   
 10   5   9  ar  
 11   5  26  1   
 12   6  10  1   
 13   6  11  1   
 14   6  27  1   
 15   7  12  ar  
 16   7  28  1   
 17   8  13  1   
 18   8  14  1   
 19   8  15  1   
 20   9  12  ar  
 21   9  29  1   
 22  10  30  1   
 23  11  16  1   
 24  11  31  1   
 25  11  32  1   
 26  12  33  1   
 27  13  34  1   
 28  13  35  1   
 29  13  36  1   
 30  14  37  1   
 31  14  38  1   
 32  14  39  1   
 33  15  40  1   
 34  15  41  1   
 35  15  42  1   
 36  16  17  1   
 37  16  18  1   
 38  17  19  1   
 39  17  43  1   
 40  17  44  1   
 41  18  20  1   
 42  18  45  1   
 43  18  46  1   
 44  19  21  1   
 45  19  47  1   
 46  19  48  1   
 47  20  21  1   
 48  20  49  1   
 49  20  50  1   
 50  21  22  1   
 51  21  51  1   
 52  22  23  1   
 53  22  52  1   
 54  22  53  1   
 55  23  54  1   
 56  23  55  1   
 57  23  56  1   
@<TRIPOS>SUBSTRUCTURE
  1 ****   6 GROUP 4 **** **** 0

# MOE 2024.06 (io_trps.svl 2023.06)
