@<TRIPOS>MOLECULE
NONAME
28 29 1 0 0 
SMALL
USER_CHARGES


@<TRIPOS>ATOM
  1 S       -0.3260    -0.2560    -0.4640 S.o2  1 <1>   1.4470 
  2 O       -0.7590    -1.0520    -1.5900 O.2   1 <1>  -0.6500 
  3 O       -0.7900    -0.5630     0.8700 O.2   1 <1>  -0.6500 
  4 N       -0.8300     1.2970    -0.8520 N.am  1 <1>  -0.7890 
  5 C        1.4810    -0.0980    -0.4600 C.ar  1 <1>  -0.0090 
  6 C       -2.1690     1.5970    -0.4110 C.3   1 <1>   0.1310 
  7 C        2.2700    -0.7710    -1.3890 C.ar  1 <1>  -0.1500 
  8 C        2.1190     0.7120     0.4740 C.ar  1 <1>  -0.1500 
  9 C       -2.5950     3.0250    -0.4270 C.3   1 <1>  -0.2000 
 10 C       -2.3370     2.3270     0.8770 C.3   1 <1>  -0.2000 
 11 C        3.6480    -0.6380    -1.3880 C.ar  1 <1>  -0.1500 
 12 C        3.4970     0.8540     0.4880 C.ar  1 <1>  -0.1500 
 13 C        4.2550     0.1740    -0.4490 C.ar  1 <1>   0.1010 
 14 S        6.0510     0.2980    -0.5090 S.3   1 <1>  -0.3310 
 15 C        6.5530     1.4330     0.8590 C.3   1 <1>  -0.0100 
 16 H       -0.8550     1.2870    -1.8690 H     1 <1>   0.4200 
 17 H       -2.8930     0.8390    -0.6720 H     1 <1>   0.1000 
 18 H        1.8030    -1.4070    -2.1230 H     1 <1>   0.1500 
 19 H        1.5240     1.2390     1.2020 H     1 <1>   0.1500 
 20 H       -3.6130     3.2650    -0.6780 H     1 <1>   0.1000 
 21 H       -1.8960     3.7750    -0.7530 H     1 <1>   0.1000 
 22 H       -1.4550     2.5680     1.4430 H     1 <1>   0.1000 
 23 H       -3.1750     2.0730     1.5020 H     1 <1>   0.1000 
 24 H        4.2530    -1.1610    -2.1080 H     1 <1>   0.1500 
 25 H        3.9540     1.4870     1.2230 H     1 <1>   0.1500 
 26 H        7.6250     1.5140     0.8350 H     1 <1>   0.0800 
 27 H        6.2240     1.0010     1.7870 H     1 <1>   0.0800 
 28 H        6.0940     2.3890     0.6830 H     1 <1>   0.0800 
@<TRIPOS>BOND
  1   1   2  2   
  2   1   3  2   
  3   1   4  am  
  4   1   5  1   
  5   4   6  1   
  6   4  16  1   
  7   5   7  ar  
  8   5   8  ar  
  9   6   9  1   
 10   6  10  1   
 11   6  17  1   
 12   7  11  ar  
 13   7  18  1   
 14   8  12  ar  
 15   8  19  1   
 16   9  10  1   
 17   9  20  1   
 18   9  21  1   
 19  10  22  1   
 20  10  23  1   
 21  11  13  ar  
 22  11  24  1   
 23  12  13  ar  
 24  12  25  1   
 25  13  14  1   
 26  14  15  1   
 27  15  26  1   
 28  15  27  1   
 29  15  28  1   
@<TRIPOS>SUBSTRUCTURE
  1 ****   5 GROUP 4 **** **** 0

# MOE 2024.06 (io_trps.svl 2023.06)
