@<TRIPOS>MOLECULE
NONAME
37 37 1 0 0 
SMALL
USER_CHARGES


@<TRIPOS>ATOM
  1 O        0.4020    -0.8260     0.6580 O.3   1 <1>  -0.3630 
  2 C       -0.8190    -1.1670     0.1690 C.ar  1 <1>   0.0830 
  3 C        1.4040    -0.7110    -0.3110 C.3   1 <1>   0.1200 
  4 C       -1.1700    -2.5120     0.0710 C.ar  1 <1>   0.0820 
  5 C       -1.7110    -0.1650    -0.2130 C.ar  1 <1>   0.0820 
  6 C        2.6850    -0.3270     0.4240 C.3   1 <1>   0.3430 
  7 O       -0.2450    -3.4460     0.4400 O.3   1 <1>  -0.3630 
  8 C       -2.4340    -2.8500    -0.4050 C.ar  1 <1>  -0.1500 
  9 O       -1.3000     1.1330    -0.1150 O.3   1 <1>  -0.3630 
 10 C       -2.9700    -0.5240    -0.6870 C.ar  1 <1>  -0.1500 
 11 N        3.8350    -0.1750    -0.5190 N.4   1 <1>  -0.9060 
 12 C       -0.6240    -4.7880     0.6630 C.3   1 <1>   0.0400 
 13 C       -3.3250    -1.8590    -0.7780 C.ar  1 <1>  -0.1500 
 14 C       -2.2320     2.1910    -0.1830 C.3   1 <1>   0.0400 
 15 C        5.0850     0.2010     0.2080 C.3   1 <1>   0.3430 
 16 C        6.2760     0.3620    -0.7470 C.3   1 <1>   0.1200 
 17 O        7.3770     0.7080     0.0140 O.3   1 <1>  -0.6800 
 18 H        1.1040     0.0510    -1.0090 H     1 <1>   0.0800 
 19 H        1.5000    -1.6640    -0.8020 H     1 <1>   0.0800 
 20 H        2.9070    -1.0930     1.1500 H     1 <1>   0.0800 
 21 H        2.5150     0.6010     0.9460 H     1 <1>   0.0800 
 22 H       -2.7420    -3.8740    -0.4960 H     1 <1>   0.1500 
 23 H       -3.6840     0.2170    -0.9920 H     1 <1>   0.1500 
 24 H        3.6070     0.5480    -1.2140 H     1 <1>   0.4500 
 25 H        3.9790    -1.0600    -1.0210 H     1 <1>   0.4500 
 26 H        0.2230    -5.3130     1.0660 H     1 <1>   0.0800 
 27 H       -0.9160    -5.2310    -0.2730 H     1 <1>   0.0800 
 28 H       -1.4360    -4.8100     1.3690 H     1 <1>   0.0800 
 29 H       -4.3010    -2.1280    -1.1450 H     1 <1>   0.1500 
 30 H       -1.7170     3.1070     0.0450 H     1 <1>   0.0800 
 31 H       -3.0090     2.0210     0.5410 H     1 <1>   0.0800 
 32 H       -2.6370     2.2400    -1.1790 H     1 <1>   0.0800 
 33 H        5.3270    -0.5590     0.9330 H     1 <1>   0.0800 
 34 H        4.9350     1.1330     0.7300 H     1 <1>   0.0800 
 35 H        6.1030     1.1520    -1.4580 H     1 <1>   0.0800 
 36 H        6.4990    -0.5610    -1.2530 H     1 <1>   0.0800 
 37 H        8.1820     0.8280    -0.5350 H     1 <1>   0.4000 
@<TRIPOS>BOND
  1   1   2  1   
  2   1   3  1   
  3   2   4  ar  
  4   2   5  ar  
  5   3   6  1   
  6   3  18  1   
  7   3  19  1   
  8   4   7  1   
  9   4   8  ar  
 10   5   9  1   
 11   5  10  ar  
 12   6  11  1   
 13   6  20  1   
 14   6  21  1   
 15   7  12  1   
 16   8  13  ar  
 17   8  22  1   
 18   9  14  1   
 19  10  13  ar  
 20  10  23  1   
 21  11  15  1   
 22  11  24  1   
 23  11  25  1   
 24  12  26  1   
 25  12  27  1   
 26  12  28  1   
 27  13  29  1   
 28  14  30  1   
 29  14  31  1   
 30  14  32  1   
 31  15  16  1   
 32  15  33  1   
 33  15  34  1   
 34  16  17  1   
 35  16  35  1   
 36  16  36  1   
 37  17  37  1   
@<TRIPOS>SUBSTRUCTURE
  1 ****   1 GROUP 4 **** **** 0

# MOE 2024.06 (io_trps.svl 2023.06)
