@<TRIPOS>MOLECULE
NONAME
41 43 1 0 0 
SMALL
USER_CHARGES


@<TRIPOS>ATOM
  1 S       -0.0780     0.1220     0.7350 S.3   1 <1>  -0.0800 
  2 C       -1.5390     0.4070    -0.1580 C.2   1 <1>   0.4420 
  3 C        0.1390    -1.3080    -0.2170 C.2   1 <1>   0.1980 
  4 N       -1.7560    -0.5030    -1.0340 N.2   1 <1>  -0.3380 
  5 N       -2.3440     1.5000     0.0810 N.am  1 <1>  -0.4940 
  6 N       -0.7970    -1.4760    -1.0630 N.2   1 <1>  -0.3380 
  7 C        1.3750    -2.1570     0.0630 C.3   1 <1>   0.1000 
  8 C       -2.2530     2.5400     0.9620 C.2   1 <1>   0.5690 
  9 C        2.6290    -1.5080    -0.5510 C.3   1 <1>  -0.1600 
 10 C        1.2060    -3.5980    -0.4580 C.3   1 <1>  -0.1600 
 11 O       -1.3520     2.6720     1.7520 O.2   1 <1>  -0.5700 
 12 C       -3.3520     3.5940     0.9470 C.3   1 <1>   0.1810 
 13 C        3.8870    -2.3530    -0.3010 C.3   1 <1>  -0.1600 
 14 C        2.4610    -4.4450    -0.2020 C.3   1 <1>  -0.1600 
 15 O       -4.3360     3.2960    -0.0360 O.3   1 <1>  -0.3630 
 16 C        3.7040    -3.7870    -0.8150 C.3   1 <1>  -0.1600 
 17 C       -5.4090     4.1040    -0.2240 C.ar  1 <1>   0.0820 
 18 C       -6.3080     3.7180    -1.2110 C.ar  1 <1>  -0.1500 
 19 C       -5.6380     5.2690     0.5110 C.ar  1 <1>  -0.1500 
 20 C       -7.4330     4.4810    -1.4730 C.ar  1 <1>  -0.1500 
 21 C       -6.7620     6.0380     0.2560 C.ar  1 <1>  -0.1500 
 22 C       -7.6380     5.6290    -0.7320 C.ar  1 <1>   0.1900 
 23 F       -8.6980     6.3550    -0.9740 F     1 <1>  -0.1900 
 24 H       -3.1670     1.5360    -0.5200 H     1 <1>   0.3700 
 25 H        1.5030    -2.2050     1.1300 H     1 <1>   0.0800 
 26 H        2.7720    -0.5270    -0.1320 H     1 <1>   0.0800 
 27 H        2.4820    -1.3940    -1.6110 H     1 <1>   0.0800 
 28 H        1.0080    -3.5720    -1.5160 H     1 <1>   0.0800 
 29 H        0.3580    -4.0550     0.0220 H     1 <1>   0.0800 
 30 H       -2.9210     4.5520     0.7200 H     1 <1>   0.0800 
 31 H       -3.8290     3.6220     1.9100 H     1 <1>   0.0800 
 32 H        4.0990    -2.3770     0.7540 H     1 <1>   0.0800 
 33 H        4.7290    -1.9000    -0.7950 H     1 <1>   0.0800 
 34 H        2.3260    -5.4250    -0.6260 H     1 <1>   0.0800 
 35 H        2.6050    -4.5620     0.8590 H     1 <1>   0.0800 
 36 H        4.5760    -4.3710    -0.5740 H     1 <1>   0.0800 
 37 H        3.6050    -3.7710    -1.8870 H     1 <1>   0.0800 
 38 H       -6.1230     2.8190    -1.7720 H     1 <1>   0.1500 
 39 H       -4.9630     5.5940     1.2800 H     1 <1>   0.1500 
 40 H       -8.1380     4.1960    -2.2330 H     1 <1>   0.1500 
 41 H       -6.9610     6.9390     0.8080 H     1 <1>   0.1500 
@<TRIPOS>BOND
  1   1   2  1   
  2   1   3  1   
  3   2   4  2   
  4   2   5  1   
  5   3   6  2   
  6   3   7  1   
  7   4   6  1   
  8   5   8  am  
  9   5  24  1   
 10   7   9  1   
 11   7  10  1   
 12   7  25  1   
 13   8  11  2   
 14   8  12  1   
 15   9  13  1   
 16   9  26  1   
 17   9  27  1   
 18  10  14  1   
 19  10  28  1   
 20  10  29  1   
 21  12  15  1   
 22  12  30  1   
 23  12  31  1   
 24  13  16  1   
 25  13  32  1   
 26  13  33  1   
 27  14  16  1   
 28  14  34  1   
 29  14  35  1   
 30  15  17  1   
 31  16  36  1   
 32  16  37  1   
 33  17  18  ar  
 34  17  19  ar  
 35  18  20  ar  
 36  18  38  1   
 37  19  21  ar  
 38  19  39  1   
 39  20  22  ar  
 40  20  40  1   
 41  21  22  ar  
 42  21  41  1   
 43  22  23  1   
@<TRIPOS>SUBSTRUCTURE
  1 ****   5 GROUP 4 **** **** 0

# MOE 2024.06 (io_trps.svl 2023.06)
