@<TRIPOS>MOLECULE
NONAME
38 37 1 0 0 
SMALL
USER_CHARGES


@<TRIPOS>ATOM
  1 O       -4.9940    -0.7910     1.9580 O.2   1 <1>  -0.5700 
  2 C       -4.7410    -1.0770     0.8210 C.2   1 <1>   0.4480 
  3 C       -3.5820    -2.0500     0.4810 C.3   1 <1>   0.0610 
  4 C       -5.5750    -0.5510    -0.3650 C.3   1 <1>   0.1710 
  5 C       -3.0070    -2.6920     1.7610 C.3   1 <1>  -0.2400 
  6 C       -4.0640    -3.1970    -0.4300 C.3   1 <1>  -0.2400 
  7 C       -2.4310    -1.3070    -0.2190 C.3   1 <1>  -0.2400 
  8 N       -6.1870     0.8080    -0.1830 N.3   1 <1>  -0.8100 
  9 C       -7.6520     0.8410     0.0460 C.3   1 <1>   0.2700 
 10 C       -5.6470     1.7920    -1.1490 C.3   1 <1>   0.3100 
 11 C       -8.4170     0.4640    -1.2270 C.3   1 <1>  -0.2400 
 12 C       -8.0760     2.2450     0.5010 C.3   1 <1>  -0.2400 
 13 C       -8.0310    -0.1170     1.1850 C.3   1 <1>  -0.2400 
 14 C       -4.1700     1.9520    -0.9920 C.1   1 <1>  -0.2000 
 15 C       -2.9970     2.1040    -0.8650 C.1   1 <1>  -0.1770 
 16 H       -6.3350    -1.2780    -0.5720 H     1 <1>   0.0800 
 17 H       -4.9450    -0.5390    -1.2340 H     1 <1>   0.0800 
 18 H       -3.7760    -3.2310     2.2860 H     1 <1>   0.0800 
 19 H       -2.6270    -1.9310     2.4210 H     1 <1>   0.0800 
 20 H       -2.2070    -3.3730     1.5320 H     1 <1>   0.0800 
 21 H       -4.3830    -2.8300    -1.3880 H     1 <1>   0.0800 
 22 H       -4.8860    -3.7160     0.0320 H     1 <1>   0.0800 
 23 H       -3.2700    -3.9040    -0.5960 H     1 <1>   0.0800 
 24 H       -2.7430    -0.9000    -1.1630 H     1 <1>   0.0800 
 25 H       -1.6020    -1.9690    -0.3980 H     1 <1>   0.0800 
 26 H       -2.0890    -0.4960     0.4010 H     1 <1>   0.0800 
 27 H       -6.0790     2.7600    -0.9930 H     1 <1>   0.0800 
 28 H       -5.8710     1.4800    -2.1540 H     1 <1>   0.0800 
 29 H       -8.2130     1.1580    -2.0210 H     1 <1>   0.0800 
 30 H       -9.4740     0.4900    -1.0340 H     1 <1>   0.0800 
 31 H       -8.1690    -0.5280    -1.5530 H     1 <1>   0.0800 
 32 H       -8.0480     2.9540    -0.3040 H     1 <1>   0.0800 
 33 H       -7.4370     2.5800     1.2990 H     1 <1>   0.0800 
 34 H       -9.0870     2.2310     0.8650 H     1 <1>   0.0800 
 35 H       -7.8620    -1.1440     0.9290 H     1 <1>   0.0800 
 36 H       -9.0740    -0.0190     1.4250 H     1 <1>   0.0800 
 37 H       -7.4650     0.1220     2.0680 H     1 <1>   0.0800 
 38 H       -1.9390     2.2470    -0.7340 H     1 <1>   0.1770 
@<TRIPOS>BOND
  1   1   2  2   
  2   2   3  1   
  3   2   4  1   
  4   3   5  1   
  5   3   6  1   
  6   3   7  1   
  7   4   8  1   
  8   4  16  1   
  9   4  17  1   
 10   5  18  1   
 11   5  19  1   
 12   5  20  1   
 13   6  21  1   
 14   6  22  1   
 15   6  23  1   
 16   7  24  1   
 17   7  25  1   
 18   7  26  1   
 19   8   9  1   
 20   8  10  1   
 21   9  11  1   
 22   9  12  1   
 23   9  13  1   
 24  10  14  1   
 25  10  27  1   
 26  10  28  1   
 27  11  29  1   
 28  11  30  1   
 29  11  31  1   
 30  12  32  1   
 31  12  33  1   
 32  12  34  1   
 33  13  35  1   
 34  13  36  1   
 35  13  37  1   
 36  14  15  3   
 37  15  38  1   
@<TRIPOS>SUBSTRUCTURE
  1 ****   4 GROUP 4 **** **** 0

# MOE 2024.06 (io_trps.svl 2023.06)
