@<TRIPOS>MOLECULE
NONAME
30 31 1 0 0 
SMALL
USER_CHARGES


@<TRIPOS>ATOM
  1 S        2.2050     1.3840    -1.3880 S.3   1 <1>  -0.3710 
  2 C        2.5530     0.9110     0.2680 C.2   1 <1>   0.6510 
  3 C        0.4000     1.2320    -1.1730 C.3   1 <1>   0.0700 
  4 N        1.5360     0.6530     0.9670 N.2   1 <1>  -0.6960 
  5 N        3.8890     0.8900     0.5610 N.am  1 <1>  -0.4900 
  6 C        0.2350     0.7880     0.2910 C.3   1 <1>   0.0860 
  7 C        4.5450     0.5530     1.7060 C.2   1 <1>   0.5690 
  8 O        4.0000     0.1900     2.7160 O.2   1 <1>  -0.5700 
  9 C        6.0640     0.6330     1.7090 C.3   1 <1>   0.0440 
 10 C        6.6380     0.9760     0.3330 C.ar  1 <1>  -0.1430 
 11 C        6.8030     0.0120    -0.6590 C.ar  1 <1>  -0.1430 
 12 C        6.9730     2.2960     0.0670 C.ar  1 <1>  -0.1500 
 13 C        7.2980     0.3900    -1.8980 C.ar  1 <1>  -0.1500 
 14 C        6.4560    -1.4540    -0.4290 C.3   1 <1>  -0.0970 
 15 C        7.4660     2.6630    -1.1710 C.ar  1 <1>  -0.1500 
 16 C        7.6280     1.7080    -2.1560 C.ar  1 <1>  -0.1500 
 17 H        0.0390     0.4950    -1.8670 H     1 <1>   0.0800 
 18 H       -0.0430     2.1930    -1.3610 H     1 <1>   0.0800 
 19 H        4.4860     1.1490    -0.2240 H     1 <1>   0.3700 
 20 H       -0.2760    -0.1580     0.3280 H     1 <1>   0.0800 
 21 H       -0.3600     1.5100     0.8240 H     1 <1>   0.0800 
 22 H        6.4580    -0.3020     2.0570 H     1 <1>   0.0800 
 23 H        6.3540     1.3800     2.4250 H     1 <1>   0.0800 
 24 H        6.8520     3.0540     0.8230 H     1 <1>   0.1500 
 25 H        7.4340    -0.3420    -2.6760 H     1 <1>   0.1500 
 26 H        5.4350    -1.5580    -0.1090 H     1 <1>   0.0800 
 27 H        7.1030    -1.8730     0.3200 H     1 <1>   0.0800 
 28 H        6.5790    -2.0250    -1.3320 H     1 <1>   0.0800 
 29 H        7.7240     3.6890    -1.3690 H     1 <1>   0.1500 
 30 H        8.0110     1.9880    -3.1220 H     1 <1>   0.1500 
@<TRIPOS>BOND
  1   1   2  1   
  2   1   3  1   
  3   2   4  2   
  4   2   5  1   
  5   3   6  1   
  6   3  17  1   
  7   3  18  1   
  8   4   6  1   
  9   5   7  am  
 10   5  19  1   
 11   6  20  1   
 12   6  21  1   
 13   7   8  2   
 14   7   9  1   
 15   9  10  1   
 16   9  22  1   
 17   9  23  1   
 18  10  11  ar  
 19  10  12  ar  
 20  11  13  ar  
 21  11  14  1   
 22  12  15  ar  
 23  12  24  1   
 24  13  16  ar  
 25  13  25  1   
 26  14  26  1   
 27  14  27  1   
 28  14  28  1   
 29  15  16  ar  
 30  15  29  1   
 31  16  30  1   
@<TRIPOS>SUBSTRUCTURE
  1 ****   5 GROUP 4 **** **** 0

# MOE 2024.06 (io_trps.svl 2023.06)
