@<TRIPOS>MOLECULE
NONAME
49 50 1 0 0 
SMALL
USER_CHARGES


@<TRIPOS>ATOM
  1 O       -0.1650    -0.8170    -2.2360 O.2   1 <1>  -0.5700 
  2 C       -0.0990    -1.6520    -1.3680 C.2   1 <1>   0.5690 
  3 N       -1.1220    -1.9250    -0.4950 N.am  1 <1>  -0.5470 
  4 C        1.2060    -2.4470    -1.2170 C.3   1 <1>   0.1710 
  5 C       -2.3640    -1.2980    -0.3050 C.ar  1 <1>   0.1170 
  6 N        2.3210    -1.6900    -0.5760 N.3   1 <1>  -0.8100 
  7 C       -3.3560    -1.9850     0.3830 C.ar  1 <1>  -0.1500 
  8 C       -2.6480    -0.0120    -0.7520 C.ar  1 <1>  -0.1500 
  9 C        1.9940    -1.1400     0.7630 C.3   1 <1>   0.1100 
 10 C        3.5980    -2.4380    -0.5580 C.3   1 <1>   0.1100 
 11 C       -4.5920    -1.4090     0.6190 C.ar  1 <1>  -0.1500 
 12 C       -3.8830     0.5650    -0.5170 C.ar  1 <1>  -0.1500 
 13 C        3.1640    -0.3150     1.3570 C.3   1 <1>   0.3430 
 14 C        4.7690    -1.5680    -0.0330 C.3   1 <1>   0.3430 
 15 C       -4.8690    -0.1260     0.1710 C.ar  1 <1>  -0.1440 
 16 N        4.2950    -0.2020     0.3780 N.4   1 <1>  -0.9590 
 17 C       -6.2380     0.4980     0.4370 C.3   1 <1>   0.0630 
 18 C        5.3610     0.7250     0.8270 C.3   1 <1>   0.3430 
 19 C       -6.9610     0.8100    -0.8770 C.3   1 <1>  -0.2400 
 20 C       -6.1060     1.7580     1.2980 C.3   1 <1>  -0.2400 
 21 C        6.2550     1.0900    -0.3520 C.3   1 <1>  -0.2400 
 22 H       -0.9870    -2.7420     0.0950 H     1 <1>   0.3700 
 23 H        1.5110    -2.7380    -2.2080 H     1 <1>   0.0800 
 24 H        1.0110    -3.3450    -0.6590 H     1 <1>   0.0800 
 25 H       -3.1710    -2.9810     0.7380 H     1 <1>   0.1500 
 26 H       -1.9080     0.5530    -1.2860 H     1 <1>   0.1500 
 27 H        1.7410    -1.9380     1.4400 H     1 <1>   0.0800 
 28 H        1.1350    -0.4940     0.6860 H     1 <1>   0.0800 
 29 H        3.8350    -2.7660    -1.5570 H     1 <1>   0.0800 
 30 H        3.5010    -3.3160     0.0580 H     1 <1>   0.0800 
 31 H       -5.3400    -1.9670     1.1530 H     1 <1>   0.1500 
 32 H       -4.0700     1.5600    -0.8780 H     1 <1>   0.1500 
 33 H        3.5070    -0.7870     2.2620 H     1 <1>   0.0800 
 34 H        2.8000     0.6660     1.6150 H     1 <1>   0.0800 
 35 H        5.5070    -1.4800    -0.8130 H     1 <1>   0.0800 
 36 H        5.2340    -2.0650     0.8020 H     1 <1>   0.0800 
 37 H        3.8410     0.1690    -0.4730 H     1 <1>   0.4500 
 38 H       -6.8410    -0.2100     0.9810 H     1 <1>   0.0800 
 39 H        5.9460     0.2700     1.6110 H     1 <1>   0.0800 
 40 H        4.9150     1.6260     1.2170 H     1 <1>   0.0800 
 41 H       -6.4250     1.5520    -1.4420 H     1 <1>   0.0800 
 42 H       -7.9510     1.1780    -0.6800 H     1 <1>   0.0800 
 43 H       -7.0380    -0.0830    -1.4720 H     1 <1>   0.0800 
 44 H       -5.5520     2.5200     0.7810 H     1 <1>   0.0800 
 45 H       -5.5920     1.5220     2.2130 H     1 <1>   0.0800 
 46 H       -7.0790     2.1450     1.5430 H     1 <1>   0.0800 
 47 H        6.8030     0.2380    -0.7100 H     1 <1>   0.0800 
 48 H        6.9710     1.8280    -0.0350 H     1 <1>   0.0800 
 49 H        5.6760     1.5140    -1.1530 H     1 <1>   0.0800 
@<TRIPOS>BOND
  1   1   2  2   
  2   2   3  am  
  3   2   4  1   
  4   3   5  1   
  5   3  22  1   
  6   4   6  1   
  7   4  23  1   
  8   4  24  1   
  9   5   7  ar  
 10   5   8  ar  
 11   6   9  1   
 12   6  10  1   
 13   7  11  ar  
 14   7  25  1   
 15   8  12  ar  
 16   8  26  1   
 17   9  13  1   
 18   9  27  1   
 19   9  28  1   
 20  10  14  1   
 21  10  29  1   
 22  10  30  1   
 23  11  15  ar  
 24  11  31  1   
 25  12  15  ar  
 26  12  32  1   
 27  13  16  1   
 28  13  33  1   
 29  13  34  1   
 30  14  16  1   
 31  14  35  1   
 32  14  36  1   
 33  15  17  1   
 34  16  18  1   
 35  16  37  1   
 36  17  19  1   
 37  17  20  1   
 38  17  38  1   
 39  18  21  1   
 40  18  39  1   
 41  18  40  1   
 42  19  41  1   
 43  19  42  1   
 44  19  43  1   
 45  20  44  1   
 46  20  45  1   
 47  20  46  1   
 48  21  47  1   
 49  21  48  1   
 50  21  49  1   
@<TRIPOS>SUBSTRUCTURE
  1 ****   3 GROUP 4 **** **** 0

# MOE 2024.06 (io_trps.svl 2023.06)
