@<TRIPOS>MOLECULE
NONAME
50 52 1 0 0 
SMALL
USER_CHARGES


@<TRIPOS>ATOM
  1 CL       4.8570     1.7930    -4.4580 Cl    1 <1>  -0.1770 
  2 C        4.1620     1.4060    -2.9040 C.ar  1 <1>   0.1770 
  3 C        4.9770     0.9320    -1.8970 C.ar  1 <1>  -0.1500 
  4 C        2.8040     1.5800    -2.7140 C.ar  1 <1>  -0.1500 
  5 C        4.4280     0.6200    -0.6590 C.ar  1 <1>   0.1990 
  6 C        2.2500     1.2700    -1.4830 C.ar  1 <1>  -0.1500 
  7 N        5.2130     0.1350     0.3770 N.am  1 <1>  -0.6930 
  8 C        3.0610     0.7950    -0.4660 C.ar  1 <1>  -0.1500 
  9 S        5.5560    -1.5600     0.4730 S.o2  1 <1>   1.4470 
 10 C        6.2130     1.0610     0.9960 C.3   1 <1>   0.2570 
 11 O        6.0300    -1.9610    -0.8310 O.2   1 <1>  -0.6500 
 12 O        6.4180    -1.7170     1.6260 O.2   1 <1>  -0.6500 
 13 C        3.9220    -2.2600     0.8230 C.ar  1 <1>  -0.0090 
 14 C        7.5920     1.0350     0.3300 C.2   1 <1>   0.5690 
 15 C        3.0720    -2.6430    -0.2090 C.ar  1 <1>  -0.1500 
 16 C        3.4600    -2.3990     2.1270 C.ar  1 <1>  -0.1500 
 17 O        7.8740     1.9340    -0.4260 O.2   1 <1>  -0.5700 
 18 N        8.4400     0.0030     0.6080 N.am  1 <1>  -0.7300 
 19 C        1.8100    -3.1470     0.0500 C.ar  1 <1>  -0.1500 
 20 C        2.1980    -2.9020     2.3920 C.ar  1 <1>  -0.1500 
 21 C        9.7060    -0.3560    -0.0670 C.3   1 <1>   0.2200 
 22 C        1.3650    -3.2780     1.3530 C.ar  1 <1>  -0.1430 
 23 C       10.7110     0.8000    -0.1170 C.3   1 <1>  -0.1600 
 24 C        9.4480    -0.7820    -1.5160 C.3   1 <1>  -0.1600 
 25 C       -0.0180    -3.8340     1.6400 C.3   1 <1>  -0.0970 
 26 C       10.8840     1.1500    -1.5960 C.3   1 <1>  -0.1600 
 27 C       10.5670    -0.1440    -2.3380 C.3   1 <1>  -0.1600 
 28 H        6.0290     0.8020    -2.0760 H     1 <1>   0.1500 
 29 H        2.1940     1.9510    -3.5180 H     1 <1>   0.1500 
 30 H        1.1940     1.3990    -1.3180 H     1 <1>   0.1500 
 31 H        2.6320     0.5520     0.4910 H     1 <1>   0.1500 
 32 H        6.3270     0.8180     2.0360 H     1 <1>   0.0800 
 33 H        5.8360     2.0670     0.9390 H     1 <1>   0.0800 
 34 H        3.4030    -2.5430    -1.2300 H     1 <1>   0.1500 
 35 H        4.0950    -2.1100     2.9470 H     1 <1>   0.1500 
 36 H        8.0660    -0.7600     1.1880 H     1 <1>   0.3700 
 37 H        1.1760    -3.4370    -0.7710 H     1 <1>   0.1500 
 38 H        1.8690    -3.0020     3.4120 H     1 <1>   0.1500 
 39 H       10.1560    -1.1760     0.4670 H     1 <1>   0.0800 
 40 H       11.6530     0.4540     0.2690 H     1 <1>   0.0800 
 41 H       10.3940     1.6530     0.4560 H     1 <1>   0.0800 
 42 H        8.5050    -0.3950    -1.8610 H     1 <1>   0.0800 
 43 H        9.4460    -1.8520    -1.6190 H     1 <1>   0.0800 
 44 H        0.0300    -4.9050     1.7190 H     1 <1>   0.0800 
 45 H       -0.6990    -3.5750     0.8490 H     1 <1>   0.0800 
 46 H       -0.4030    -3.4350     2.5610 H     1 <1>   0.0800 
 47 H       11.8710     1.5170    -1.8170 H     1 <1>   0.0800 
 48 H       10.1600     1.9000    -1.8690 H     1 <1>   0.0800 
 49 H       10.2660     0.0380    -3.3550 H     1 <1>   0.0800 
 50 H       11.4330    -0.7840    -2.3310 H     1 <1>   0.0800 
@<TRIPOS>BOND
  1   1   2  1   
  2   2   3  ar  
  3   2   4  ar  
  4   3   5  ar  
  5   3  28  1   
  6   4   6  ar  
  7   4  29  1   
  8   5   7  1   
  9   5   8  ar  
 10   6   8  ar  
 11   6  30  1   
 12   7   9  am  
 13   7  10  1   
 14   8  31  1   
 15   9  11  2   
 16   9  12  2   
 17   9  13  1   
 18  10  14  1   
 19  10  32  1   
 20  10  33  1   
 21  13  15  ar  
 22  13  16  ar  
 23  14  17  2   
 24  14  18  am  
 25  15  19  ar  
 26  15  34  1   
 27  16  20  ar  
 28  16  35  1   
 29  18  21  1   
 30  18  36  1   
 31  19  22  ar  
 32  19  37  1   
 33  20  22  ar  
 34  20  38  1   
 35  21  23  1   
 36  21  24  1   
 37  21  39  1   
 38  22  25  1   
 39  23  26  1   
 40  23  40  1   
 41  23  41  1   
 42  24  27  1   
 43  24  42  1   
 44  24  43  1   
 45  25  44  1   
 46  25  45  1   
 47  25  46  1   
 48  26  27  1   
 49  26  47  1   
 50  26  48  1   
 51  27  49  1   
 52  27  50  1   
@<TRIPOS>SUBSTRUCTURE
  1 ****   7 GROUP 4 **** **** 0

# MOE 2024.06 (io_trps.svl 2023.06)
