@<TRIPOS>MOLECULE
NONAME
53 55 1 0 0 
SMALL
USER_CHARGES


@<TRIPOS>ATOM
  1 N       -0.2310     0.9870     0.5040 N.3   1 <1>  -0.8100 
  2 C       -0.0560    -0.1440    -0.4460 C.3   1 <1>   0.1100 
  3 C        0.9280     1.9070     0.4280 C.3   1 <1>   0.1100 
  4 C       -1.4980     1.6990     0.2870 C.3   1 <1>   0.2480 
  5 C        1.2780    -0.8980    -0.2270 C.3   1 <1>   0.3430 
  6 C        2.2750     1.1760     0.6610 C.3   1 <1>   0.3430 
  7 C       -2.6440     0.7590     0.5920 C.2   1 <1>  -0.2880 
  8 N        2.0580    -0.2880     0.9020 N.4   1 <1>  -0.9590 
  9 C       -3.5860     0.3770    -0.2870 C.2   1 <1>  -0.1780 
 10 C        3.2650    -1.0710     1.3070 C.3   1 <1>   0.3430 
 11 C       -4.6980    -0.5260    -0.0750 C.ar  1 <1>   0.0280 
 12 C        4.3940    -1.0640     0.2580 C.3   1 <1>  -0.0800 
 13 C       -4.9820    -1.0870     1.1690 C.ar  1 <1>  -0.1500 
 14 C       -5.5290    -0.8680    -1.1390 C.ar  1 <1>  -0.1500 
 15 C        5.1110    -2.4280     0.2720 C.3   1 <1>  -0.1600 
 16 C        5.4160     0.0630     0.5170 C.3   1 <1>  -0.1600 
 17 C       -6.0460    -1.9540     1.3420 C.ar  1 <1>  -0.1500 
 18 C       -6.5950    -1.7340    -0.9730 C.ar  1 <1>  -0.1500 
 19 C        6.2550    -2.4730    -0.7480 C.3   1 <1>  -0.1600 
 20 C        6.5620     0.0250    -0.5030 C.3   1 <1>  -0.1600 
 21 C       -6.8550    -2.2810     0.2700 C.ar  1 <1>  -0.1500 
 22 C        7.2580    -1.3400    -0.5060 C.3   1 <1>  -0.1600 
 23 H       -0.8620    -0.8490    -0.3270 H     1 <1>   0.0800 
 24 H       -0.0960     0.2170    -1.4600 H     1 <1>   0.0800 
 25 H        0.9520     2.3900    -0.5350 H     1 <1>   0.0800 
 26 H        0.8210     2.6780     1.1730 H     1 <1>   0.0800 
 27 H       -1.5600     2.5460     0.9500 H     1 <1>   0.0800 
 28 H       -1.5610     2.0540    -0.7290 H     1 <1>   0.0800 
 29 H        1.8550    -0.8690    -1.1360 H     1 <1>   0.0800 
 30 H        1.0620    -1.9300    -0.0080 H     1 <1>   0.0800 
 31 H        2.7720     1.6180     1.5090 H     1 <1>   0.0800 
 32 H        2.9060     1.3170    -0.2010 H     1 <1>   0.0800 
 33 H       -2.6140     0.4200     1.6110 H     1 <1>   0.1500 
 34 H        1.3700    -0.2920     1.6730 H     1 <1>   0.4500 
 35 H       -3.5470     0.7650    -1.2900 H     1 <1>   0.1500 
 36 H        3.6520    -0.6930     2.2400 H     1 <1>   0.0800 
 37 H        2.9650    -2.0920     1.4780 H     1 <1>   0.0800 
 38 H        3.9790    -0.9360    -0.7260 H     1 <1>   0.0800 
 39 H       -4.3720    -0.8460     2.0180 H     1 <1>   0.1500 
 40 H       -5.3430    -0.4520    -2.1120 H     1 <1>   0.1500 
 41 H        5.5140    -2.6190     1.2530 H     1 <1>   0.0800 
 42 H        4.4120    -3.2150     0.0440 H     1 <1>   0.0800 
 43 H        4.9520     1.0290     0.4650 H     1 <1>   0.0800 
 44 H        5.8330    -0.0460     1.5050 H     1 <1>   0.0800 
 45 H       -6.2440    -2.3750     2.3120 H     1 <1>   0.1500 
 46 H       -7.2230    -1.9830    -1.8110 H     1 <1>   0.1500 
 47 H        6.7630    -3.4210    -0.6800 H     1 <1>   0.0800 
 48 H        5.8560    -2.3880    -1.7450 H     1 <1>   0.0800 
 49 H        6.1780     0.2300    -1.4880 H     1 <1>   0.0800 
 50 H        7.2820     0.7910    -0.2680 H     1 <1>   0.0800 
 51 H       -7.6830    -2.9550     0.4020 H     1 <1>   0.1500 
 52 H        8.0150    -1.3580    -1.2720 H     1 <1>   0.0800 
 53 H        7.7490    -1.4940     0.4410 H     1 <1>   0.0800 
@<TRIPOS>BOND
  1   1   2  1   
  2   1   3  1   
  3   1   4  1   
  4   2   5  1   
  5   2  23  1   
  6   2  24  1   
  7   3   6  1   
  8   3  25  1   
  9   3  26  1   
 10   4   7  1   
 11   4  27  1   
 12   4  28  1   
 13   5   8  1   
 14   5  29  1   
 15   5  30  1   
 16   6   8  1   
 17   6  31  1   
 18   6  32  1   
 19   7   9  2   
 20   7  33  1   
 21   8  10  1   
 22   8  34  1   
 23   9  11  1   
 24   9  35  1   
 25  10  12  1   
 26  10  36  1   
 27  10  37  1   
 28  11  13  ar  
 29  11  14  ar  
 30  12  15  1   
 31  12  16  1   
 32  12  38  1   
 33  13  17  ar  
 34  13  39  1   
 35  14  18  ar  
 36  14  40  1   
 37  15  19  1   
 38  15  41  1   
 39  15  42  1   
 40  16  20  1   
 41  16  43  1   
 42  16  44  1   
 43  17  21  ar  
 44  17  45  1   
 45  18  21  ar  
 46  18  46  1   
 47  19  22  1   
 48  19  47  1   
 49  19  48  1   
 50  20  22  1   
 51  20  49  1   
 52  20  50  1   
 53  21  51  1   
 54  22  52  1   
 55  22  53  1   
@<TRIPOS>SUBSTRUCTURE
  1 ****   2 GROUP 4 **** **** 0

# MOE 2024.06 (io_trps.svl 2023.06)
