@<TRIPOS>MOLECULE
NONAME
40 43 1 0 0 
SMALL
USER_CHARGES


@<TRIPOS>ATOM
  1 O        0.0520    -0.8070     0.5310 O.3   1 <1>  -0.5600 
  2 C        1.3940    -0.7450     0.9300 C.3   1 <1>   0.1200 
  3 C       -0.3690    -2.1030     0.2030 C.3   1 <1>   0.1200 
  4 C        2.3290    -1.2320    -0.1940 C.3   1 <1>   0.2090 
  5 C        0.4560    -2.6700    -0.9660 C.3   1 <1>   0.2090 
  6 N        1.9220    -2.5850    -0.6770 N.pl3 1 <1>  -0.8380 
  7 C        2.6170    -3.6950    -0.2560 C.ar  1 <1>   0.4100 
  8 N        1.9840    -4.6050     0.4460 N.ar  1 <1>  -0.6200 
  9 C        3.9770    -3.8490    -0.5510 C.ar  1 <1>   0.0000 
 10 C        2.7140    -5.6470     0.8660 C.ar  1 <1>   0.4700 
 11 C        4.6210    -4.9510    -0.0710 C.ar  1 <1>   0.1050 
 12 C        4.9570    -3.1470    -1.2600 C.2   1 <1>   0.1390 
 13 N        3.9860    -5.8850     0.6630 N.ar  1 <1>  -0.5670 
 14 N        5.9320    -4.8650    -0.4840 N.pl3 1 <1>   0.5930 
 15 N        6.1120    -3.7210    -1.2220 N.2   1 <1>  -0.7070 
 16 C        7.0010    -5.7700    -0.2110 C.ar  1 <1>  -0.0230 
 17 C        6.7910    -7.1470    -0.1450 C.ar  1 <1>  -0.1500 
 18 C        8.2940    -5.2930    -0.0070 C.ar  1 <1>  -0.1500 
 19 C        7.8320    -8.0170     0.1250 C.ar  1 <1>  -0.1500 
 20 C        9.3370    -6.1590     0.2630 C.ar  1 <1>  -0.1500 
 21 C        9.1170    -7.5240     0.3330 C.ar  1 <1>   0.0820 
 22 O       10.1930    -8.3050     0.6050 O.3   1 <1>  -0.3630 
 23 C       10.0730    -9.7070     0.6960 C.3   1 <1>   0.0400 
 24 H        1.5190    -1.3540     1.8090 H     1 <1>   0.0800 
 25 H        1.6150     0.2760     1.1810 H     1 <1>   0.0800 
 26 H       -1.4090    -2.0540    -0.0670 H     1 <1>   0.0800 
 27 H       -0.2640    -2.7320     1.0700 H     1 <1>   0.0800 
 28 H        3.3380    -1.2560     0.1780 H     1 <1>   0.0800 
 29 H        2.2900    -0.5350    -1.0130 H     1 <1>   0.0800 
 30 H        0.2390    -2.1070    -1.8570 H     1 <1>   0.0800 
 31 H        0.1720    -3.6920    -1.1470 H     1 <1>   0.0800 
 32 H        2.1750    -6.3770     1.4460 H     1 <1>   0.1500 
 33 H        4.7570    -2.2260    -1.7810 H     1 <1>   0.1500 
 34 H        5.8050    -7.5480    -0.3060 H     1 <1>   0.1500 
 35 H        8.4860    -4.2340    -0.0630 H     1 <1>   0.1500 
 36 H        7.6240    -9.0690     0.1700 H     1 <1>   0.1500 
 37 H       10.3310    -5.7820     0.4200 H     1 <1>   0.1500 
 38 H       11.0440   -10.1110     0.9200 H     1 <1>   0.0800 
 39 H        9.7270   -10.0900    -0.2470 H     1 <1>   0.0800 
 40 H        9.3860    -9.9480     1.4880 H     1 <1>   0.0800 
@<TRIPOS>BOND
  1   1   2  1   
  2   1   3  1   
  3   2   4  1   
  4   2  24  1   
  5   2  25  1   
  6   3   5  1   
  7   3  26  1   
  8   3  27  1   
  9   4   6  1   
 10   4  28  1   
 11   4  29  1   
 12   5   6  1   
 13   5  30  1   
 14   5  31  1   
 15   6   7  1   
 16   7   8  ar  
 17   7   9  ar  
 18   8  10  ar  
 19   9  11  ar  
 20   9  12  1   
 21  10  13  ar  
 22  10  32  1   
 23  11  13  ar  
 24  11  14  1   
 25  12  15  2   
 26  12  33  1   
 27  14  15  1   
 28  14  16  1   
 29  16  17  ar  
 30  16  18  ar  
 31  17  19  ar  
 32  17  34  1   
 33  18  20  ar  
 34  18  35  1   
 35  19  21  ar  
 36  19  36  1   
 37  20  21  ar  
 38  20  37  1   
 39  21  22  1   
 40  22  23  1   
 41  23  38  1   
 42  23  39  1   
 43  23  40  1   
@<TRIPOS>SUBSTRUCTURE
  1 ****  11 GROUP 4 **** **** 0

# MOE 2024.06 (io_trps.svl 2023.06)
