@<TRIPOS>MOLECULE
NONAME
54 57 1 0 0 
SMALL
USER_CHARGES


@<TRIPOS>ATOM
  1 S        0.2170     0.4400    -1.5800 S.o2  1 <1>   1.3330 
  2 O        1.5880     0.6130    -1.9940 O.2   1 <1>  -0.6500 
  3 O       -0.8640     0.8030    -2.4650 O.2   1 <1>  -0.6500 
  4 N        0.0110    -1.2240    -1.1570 N.am  1 <1>  -0.6930 
  5 C       -0.0160     1.2480    -0.0120 C.3   1 <1>  -0.1350 
  6 C        1.0480    -1.9830    -0.6480 C.ar  1 <1>   0.1990 
  7 C       -1.3010    -1.8470    -1.4300 C.3   1 <1>   0.3390 
  8 C        1.1060    -2.3010     0.7030 C.ar  1 <1>  -0.1500 
  9 C        2.0610    -2.4490    -1.4760 C.ar  1 <1>  -0.1500 
 10 C       -2.3070    -1.4740    -0.3500 C.ar  1 <1>  -0.1430 
 11 C        2.1390    -3.0690     1.2040 C.ar  1 <1>  -0.1500 
 12 C        3.0940    -3.2170    -0.9720 C.ar  1 <1>  -0.1500 
 13 C       -3.1630    -0.3960    -0.5250 C.ar  1 <1>  -0.1500 
 14 C       -2.3870    -2.2160     0.8200 C.ar  1 <1>  -0.1500 
 15 C        3.1640    -3.5470     0.3840 C.ar  1 <1>   0.0860 
 16 C       -4.0710    -0.0540     0.4610 C.ar  1 <1>  -0.1500 
 17 C       -3.2950    -1.8760     1.8070 C.ar  1 <1>  -0.1500 
 18 C        4.2430    -4.3470     0.9320 C.2   1 <1>   0.5440 
 19 C       -4.1370    -0.7920     1.6290 C.ar  1 <1>  -0.1500 
 20 O        4.0730    -5.0120     1.9360 O.2   1 <1>  -0.5700 
 21 N        5.4760    -4.3580     0.3400 N.am  1 <1>  -0.7300 
 22 C        6.6500    -5.1350     0.8050 C.3   1 <1>   0.2200 
 23 C        7.8570    -4.1540     1.3200 C.3   1 <1>  -0.0800 
 24 C        7.2500    -6.0480    -0.4570 C.3   1 <1>  -0.1600 
 25 C        8.3690    -4.9550     0.3770 C.3   1 <1>  -0.1600 
 26 C        9.4630    -3.8630     1.2120 C.3   1 <1>  -0.1600 
 27 C        8.8550    -5.7500    -0.5810 C.3   1 <1>  -0.0800 
 28 C       10.0630    -4.7830    -0.0510 C.3   1 <1>  -0.1600 
 29 H        0.0790     2.3090    -0.1290 H     1 <1>   0.0800 
 30 H        0.7230     0.9120     0.6890 H     1 <1>   0.0800 
 31 H       -0.9890     1.0310     0.3820 H     1 <1>   0.0800 
 32 H       -1.1870    -2.9170    -1.4560 H     1 <1>   0.0800 
 33 H       -1.6590    -1.5380    -2.3970 H     1 <1>   0.0800 
 34 H        0.3390    -1.9370     1.3610 H     1 <1>   0.1500 
 35 H        2.0310    -2.1960    -2.5210 H     1 <1>   0.1500 
 36 H        2.1640    -3.3100     2.2540 H     1 <1>   0.1500 
 37 H        3.8540    -3.5700    -1.6450 H     1 <1>   0.1500 
 38 H       -3.1280     0.1860    -1.4320 H     1 <1>   0.1500 
 39 H       -1.7440    -3.0670     0.9670 H     1 <1>   0.1500 
 40 H       -4.7290     0.7860     0.3170 H     1 <1>   0.1500 
 41 H       -3.3500    -2.4550     2.7120 H     1 <1>   0.1500 
 42 H       -4.8440    -0.5270     2.3960 H     1 <1>   0.1500 
 43 H        5.6650    -3.7220    -0.4320 H     1 <1>   0.3700 
 44 H        6.3540    -5.7900     1.6110 H     1 <1>   0.0800 
 45 H        7.4620    -3.1750     1.0890 H     1 <1>   0.0800 
 46 H        6.7530    -5.7970    -1.3800 H     1 <1>   0.0800 
 47 H        7.0720    -7.0940    -0.2630 H     1 <1>   0.0800 
 48 H        8.6120    -5.7770     1.1860 H     1 <1>   0.0800 
 49 H        8.1100    -4.1410    -0.4350 H     1 <1>   0.0800 
 50 H        9.9520    -4.1360     2.1360 H     1 <1>   0.0800 
 51 H        9.6570    -2.8150     1.0420 H     1 <1>   0.0800 
 52 H        9.2630    -6.7260    -0.3530 H     1 <1>   0.0800 
 53 H       10.9110    -5.3650     0.2760 H     1 <1>   0.0800 
 54 H       10.4020    -4.1410    -0.8510 H     1 <1>   0.0800 
@<TRIPOS>BOND
  1   1   2  2   
  2   1   3  2   
  3   1   4  am  
  4   1   5  1   
  5   4   6  1   
  6   4   7  1   
  7   5  29  1   
  8   5  30  1   
  9   5  31  1   
 10   6   8  ar  
 11   6   9  ar  
 12   7  10  1   
 13   7  32  1   
 14   7  33  1   
 15   8  11  ar  
 16   8  34  1   
 17   9  12  ar  
 18   9  35  1   
 19  10  13  ar  
 20  10  14  ar  
 21  11  15  ar  
 22  11  36  1   
 23  12  15  ar  
 24  12  37  1   
 25  13  16  ar  
 26  13  38  1   
 27  14  17  ar  
 28  14  39  1   
 29  15  18  1   
 30  16  19  ar  
 31  16  40  1   
 32  17  19  ar  
 33  17  41  1   
 34  18  20  2   
 35  18  21  am  
 36  19  42  1   
 37  21  22  1   
 38  21  43  1   
 39  22  23  1   
 40  22  24  1   
 41  22  44  1   
 42  23  25  1   
 43  23  26  1   
 44  23  45  1   
 45  24  27  1   
 46  24  46  1   
 47  24  47  1   
 48  25  27  1   
 49  25  48  1   
 50  25  49  1   
 51  26  28  1   
 52  26  50  1   
 53  26  51  1   
 54  27  28  1   
 55  27  52  1   
 56  28  53  1   
 57  28  54  1   
@<TRIPOS>SUBSTRUCTURE
  1 ****  11 GROUP 4 **** **** 0

# MOE 2024.06 (io_trps.svl 2023.06)
