@<TRIPOS>MOLECULE
NONAME
48 50 1 0 0 
SMALL
USER_CHARGES


@<TRIPOS>ATOM
  1 BR       0.2500    -2.8360    -4.3770 Br    1 <1>  -0.1110 
  2 C       -0.1830    -3.4710    -2.6070 C.ar  1 <1>   0.1110 
  3 C        0.7920    -3.5170    -1.6240 C.ar  1 <1>   0.0820 
  4 C       -1.4850    -3.8650    -2.3660 C.ar  1 <1>  -0.1500 
  5 O        2.0580    -3.1240    -1.8670 O.3   1 <1>  -0.5330 
  6 C        0.4530    -3.9830    -0.3570 C.ar  1 <1>   0.0830 
  7 C       -1.8310    -4.3130    -1.0970 C.ar  1 <1>  -0.1430 
  8 O        1.4460    -4.0230     0.5760 O.3   1 <1>  -0.3630 
  9 C       -0.8600    -4.3780    -0.1010 C.ar  1 <1>  -0.1500 
 10 C       -3.2650    -4.7200    -0.8080 C.3   1 <1>   0.4860 
 11 C        1.2920    -4.7210     1.7940 C.3   1 <1>   0.0400 
 12 N       -3.9400    -3.6150    -0.0750 N.4   1 <1>  -0.9590 
 13 C       -5.3180    -4.0150     0.3920 C.3   1 <1>   0.3430 
 14 C       -4.0000    -2.3420    -0.8910 C.3   1 <1>   0.3430 
 15 C       -6.0300    -2.8950     1.1800 C.3   1 <1>   0.2090 
 16 C       -4.6910    -1.1820    -0.1440 C.3   1 <1>   0.2090 
 17 N       -5.9970    -1.6010     0.4430 N.pl3 1 <1>  -0.8380 
 18 C       -7.1660    -1.1990    -0.2030 C.ar  1 <1>   0.1000 
 19 C       -8.0190    -0.2620     0.3810 C.ar  1 <1>  -0.1430 
 20 C       -7.5010    -1.7350    -1.4420 C.ar  1 <1>  -0.1500 
 21 C       -9.1780     0.1170    -0.2750 C.ar  1 <1>  -0.1500 
 22 C       -7.6900     0.3550     1.7340 C.3   1 <1>  -0.0970 
 23 C       -8.6590    -1.3520    -2.0920 C.ar  1 <1>  -0.1500 
 24 C       -9.5000    -0.4240    -1.5070 C.ar  1 <1>  -0.1500 
 25 H       -2.1970    -3.8140    -3.1710 H     1 <1>   0.1500 
 26 H        2.6080    -3.2390    -1.0660 H     1 <1>   0.4500 
 27 H       -1.1260    -4.7360     0.8750 H     1 <1>   0.1500 
 28 H       -3.2660    -5.6180    -0.2120 H     1 <1>   0.0800 
 29 H       -3.7820    -4.9240    -1.7320 H     1 <1>   0.0800 
 30 H        2.2370    -4.7060     2.3080 H     1 <1>   0.0800 
 31 H        1.0110    -5.7380     1.5840 H     1 <1>   0.0800 
 32 H        0.5480    -4.2270     2.3920 H     1 <1>   0.0800 
 33 H       -3.3720    -3.4010     0.7540 H     1 <1>   0.4500 
 34 H       -5.2580    -4.8920     1.0150 H     1 <1>   0.0800 
 35 H       -5.9310    -4.2590    -0.4600 H     1 <1>   0.0800 
 36 H       -4.5450    -2.5230    -1.8010 H     1 <1>   0.0800 
 37 H       -3.0040    -2.0300    -1.1620 H     1 <1>   0.0800 
 38 H       -5.5590    -2.7650     2.1390 H     1 <1>   0.0800 
 39 H       -7.0540    -3.1790     1.3580 H     1 <1>   0.0800 
 40 H       -4.8520    -0.3630    -0.8260 H     1 <1>   0.0800 
 41 H       -4.0520    -0.8230     0.6440 H     1 <1>   0.0800 
 42 H       -6.8580    -2.4560    -1.9050 H     1 <1>   0.1500 
 43 H       -9.8420     0.8390     0.1680 H     1 <1>   0.1500 
 44 H       -7.6550    -0.4130     2.4850 H     1 <1>   0.0800 
 45 H       -8.4280     1.0820     2.0200 H     1 <1>   0.0800 
 46 H       -6.7320     0.8400     1.6890 H     1 <1>   0.0800 
 47 H       -8.9120    -1.7710    -3.0510 H     1 <1>   0.1500 
 48 H      -10.4040    -0.1210    -2.0080 H     1 <1>   0.1500 
@<TRIPOS>BOND
  1   1   2  1   
  2   2   3  ar  
  3   2   4  ar  
  4   3   5  1   
  5   3   6  ar  
  6   4   7  ar  
  7   4  25  1   
  8   5  26  1   
  9   6   8  1   
 10   6   9  ar  
 11   7   9  ar  
 12   7  10  1   
 13   8  11  1   
 14   9  27  1   
 15  10  12  1   
 16  10  28  1   
 17  10  29  1   
 18  11  30  1   
 19  11  31  1   
 20  11  32  1   
 21  12  13  1   
 22  12  14  1   
 23  12  33  1   
 24  13  15  1   
 25  13  34  1   
 26  13  35  1   
 27  14  16  1   
 28  14  36  1   
 29  14  37  1   
 30  15  17  1   
 31  15  38  1   
 32  15  39  1   
 33  16  17  1   
 34  16  40  1   
 35  16  41  1   
 36  17  18  1   
 37  18  19  ar  
 38  18  20  ar  
 39  19  21  ar  
 40  19  22  1   
 41  20  23  ar  
 42  20  42  1   
 43  21  24  ar  
 44  21  43  1   
 45  22  44  1   
 46  22  45  1   
 47  22  46  1   
 48  23  24  ar  
 49  23  47  1   
 50  24  48  1   
@<TRIPOS>SUBSTRUCTURE
  1 ****  14 GROUP 4 **** **** 0

# MOE 2024.06 (io_trps.svl 2023.06)
