@<TRIPOS>MOLECULE
NONAME
51 54 1 0 0 
SMALL
USER_CHARGES


@<TRIPOS>ATOM
  1 N       -0.1960    -0.4260    -0.1160 N.4   1 <1>  -0.9590 
  2 C       -1.0920     0.6160    -0.6970 C.3   1 <1>   0.3430 
  3 C       -0.8790    -1.2860     0.8980 C.3   1 <1>   0.3430 
  4 C        1.0230     0.2220     0.4530 C.3   1 <1>   0.3430 
  5 C       -2.3220    -0.0390    -1.3290 C.3   1 <1>  -0.1600 
  6 C       -2.1080    -1.9540     0.2790 C.3   1 <1>  -0.1600 
  7 C        2.1220    -0.8180     0.6390 C.3   1 <1>  -0.2400 
  8 C       -3.0570    -0.9100    -0.3090 C.3   1 <1>   0.4230 
  9 N       -4.1950    -1.5910    -0.9690 N.4   1 <1>  -0.9060 
 10 C       -5.5430    -1.3010    -0.4400 C.3   1 <1>   0.5030 
 11 C       -6.5450    -2.1160    -1.2780 C.3   1 <1>  -0.1600 
 12 C       -5.8760     0.2000    -0.5780 C.3   1 <1>  -0.1600 
 13 C       -5.6570    -1.7290     1.0380 C.3   1 <1>  -0.1600 
 14 C       -7.9810    -1.8630    -0.7820 C.3   1 <1>  -0.0800 
 15 C       -7.3060     0.4640    -0.0720 C.3   1 <1>  -0.0800 
 16 C       -7.0870    -1.4670     1.5470 C.3   1 <1>  -0.0800 
 17 C       -8.3010    -0.3620    -0.9080 C.3   1 <1>  -0.1600 
 18 C       -8.0840    -2.2780     0.6980 C.3   1 <1>  -0.1600 
 19 C       -7.4100     0.0330     1.4040 C.3   1 <1>  -0.1600 
 20 H        0.1460    -1.0280    -0.8820 H     1 <1>   0.4500 
 21 H       -0.5590     1.1810    -1.4470 H     1 <1>   0.0800 
 22 H       -1.4010     1.3020     0.0770 H     1 <1>   0.0800 
 23 H       -1.1760    -0.6840     1.7440 H     1 <1>   0.0800 
 24 H       -0.2020    -2.0470     1.2550 H     1 <1>   0.0800 
 25 H        0.7960     0.6950     1.3960 H     1 <1>   0.0800 
 26 H        1.3830     0.9820    -0.2240 H     1 <1>   0.0800 
 27 H       -2.0070    -0.6230    -2.1760 H     1 <1>   0.0800 
 28 H       -2.9750     0.7410    -1.6790 H     1 <1>   0.0800 
 29 H       -2.6120    -2.5090     1.0510 H     1 <1>   0.0800 
 30 H       -1.7820    -2.6460    -0.4780 H     1 <1>   0.0800 
 31 H        1.8610    -1.5470     1.3850 H     1 <1>   0.0800 
 32 H        3.0170    -0.3230     0.9750 H     1 <1>   0.0800 
 33 H        2.3500    -1.3100    -0.2890 H     1 <1>   0.0800 
 34 H       -3.4200    -0.2810     0.4880 H     1 <1>   0.0800 
 35 H       -4.0800    -2.6080    -0.9190 H     1 <1>   0.4500 
 36 H       -4.2220    -1.3560    -1.9670 H     1 <1>   0.4500 
 37 H       -6.3360    -3.1690    -1.1990 H     1 <1>   0.0800 
 38 H       -6.4880    -1.8360    -2.3150 H     1 <1>   0.0800 
 39 H       -5.8110     0.5060    -1.6080 H     1 <1>   0.0800 
 40 H       -5.2020     0.8030     0.0020 H     1 <1>   0.0800 
 41 H       -5.4390    -2.7770     1.1440 H     1 <1>   0.0800 
 42 H       -4.9780    -1.1730     1.6570 H     1 <1>   0.0800 
 43 H       -8.6820    -2.4340    -1.3680 H     1 <1>   0.0800 
 44 H       -7.5440     1.5120    -0.1610 H     1 <1>   0.0800 
 45 H       -7.1730    -1.7600     2.5810 H     1 <1>   0.0800 
 46 H       -9.3050    -0.1770    -0.5630 H     1 <1>   0.0800 
 47 H       -8.2590    -0.0600    -1.9400 H     1 <1>   0.0800 
 48 H       -7.8880    -3.3320     0.8020 H     1 <1>   0.0800 
 49 H       -9.0860    -2.1050     1.0530 H     1 <1>   0.0800 
 50 H       -8.4080     0.2220     1.7640 H     1 <1>   0.0800 
 51 H       -6.7390     0.6170     2.0100 H     1 <1>   0.0800 
@<TRIPOS>BOND
  1   1   2  1   
  2   1   3  1   
  3   1   4  1   
  4   1  20  1   
  5   2   5  1   
  6   2  21  1   
  7   2  22  1   
  8   3   6  1   
  9   3  23  1   
 10   3  24  1   
 11   4   7  1   
 12   4  25  1   
 13   4  26  1   
 14   5   8  1   
 15   5  27  1   
 16   5  28  1   
 17   6   8  1   
 18   6  29  1   
 19   6  30  1   
 20   7  31  1   
 21   7  32  1   
 22   7  33  1   
 23   8   9  1   
 24   8  34  1   
 25   9  10  1   
 26   9  35  1   
 27   9  36  1   
 28  10  11  1   
 29  10  12  1   
 30  10  13  1   
 31  11  14  1   
 32  11  37  1   
 33  11  38  1   
 34  12  15  1   
 35  12  39  1   
 36  12  40  1   
 37  13  16  1   
 38  13  41  1   
 39  13  42  1   
 40  14  17  1   
 41  14  18  1   
 42  14  43  1   
 43  15  17  1   
 44  15  19  1   
 45  15  44  1   
 46  16  18  1   
 47  16  19  1   
 48  16  45  1   
 49  17  46  1   
 50  17  47  1   
 51  18  48  1   
 52  18  49  1   
 53  19  50  1   
 54  19  51  1   
@<TRIPOS>SUBSTRUCTURE
  1 ****   9 GROUP 4 **** **** 0

# MOE 2024.06 (io_trps.svl 2023.06)
