@<TRIPOS>MOLECULE
NONAME
45 47 1 0 0 
SMALL
USER_CHARGES


@<TRIPOS>ATOM
  1 O       -1.1810     0.7930     0.8850 O.2   1 <1>  -0.5700 
  2 C       -1.0940     1.9950     0.7030 C.2   1 <1>   0.7150 
  3 N       -2.2600     2.7260     0.5770 N.am  1 <1>  -0.6600 
  4 C        0.2040     2.6330     0.6270 C.2   1 <1>   0.0550 
  5 C       -2.3520     3.9770    -0.2330 C.3   1 <1>   0.1400 
  6 C       -3.5960     2.1320     0.8890 C.3   1 <1>   0.1400 
  7 O        1.2150     2.0630    -0.0230 O.3   1 <1>  -0.2800 
  8 C        0.6420     3.8210     1.1370 C.2   1 <1>  -0.1500 
  9 C       -3.2170     3.7500    -1.4870 C.3   1 <1>   0.1100 
 10 C       -4.4170     1.9480    -0.3970 C.3   1 <1>   0.1100 
 11 C        2.2680     2.8430     0.0560 C.2   1 <1>  -0.0100 
 12 C        1.9790     3.9550     0.7640 C.2   1 <1>  -0.1500 
 13 N       -4.5540     3.2240    -1.1440 N.3   1 <1>  -0.8100 
 14 C       -5.3710     3.0210    -2.3820 C.3   1 <1>   0.1710 
 15 C       -6.8680     2.8560    -2.1120 C.2   1 <1>   0.5690 
 16 O       -7.5510     2.2740    -2.9200 O.2   1 <1>  -0.5700 
 17 N       -7.3240     3.3900    -0.9420 N.am  1 <1>  -0.5470 
 18 C       -8.5770     3.4440    -0.3120 C.ar  1 <1>   0.1170 
 19 C       -8.6520     3.8620     1.0190 C.ar  1 <1>  -0.1440 
 20 C       -9.7530     3.1000    -0.9730 C.ar  1 <1>  -0.1500 
 21 C       -9.8820     3.9250     1.6550 C.ar  1 <1>  -0.1500 
 22 C       -7.4000     4.2540     1.7960 C.3   1 <1>  -0.0970 
 23 C      -10.9750     3.1650    -0.3320 C.ar  1 <1>  -0.1500 
 24 C      -11.0420     3.5780     0.9850 C.ar  1 <1>  -0.1500 
 25 H       -1.3780     4.3060    -0.5450 H     1 <1>   0.0800 
 26 H       -2.7930     4.7550     0.3660 H     1 <1>   0.0800 
 27 H       -4.1250     2.7870     1.5580 H     1 <1>   0.0800 
 28 H       -3.4860     1.1820     1.3810 H     1 <1>   0.0800 
 29 H        0.0840     4.5290     1.7230 H     1 <1>   0.1500 
 30 H       -2.7080     3.0610    -2.1420 H     1 <1>   0.0800 
 31 H       -3.3230     4.6870    -2.0060 H     1 <1>   0.0800 
 32 H       -5.3900     1.5700    -0.1320 H     1 <1>   0.0800 
 33 H       -3.9320     1.2080    -1.0130 H     1 <1>   0.0800 
 34 H        3.1840     2.5320    -0.4170 H     1 <1>   0.1500 
 35 H        2.6240     4.7820     1.0070 H     1 <1>   0.1500 
 36 H       -5.0170     2.1600    -2.9210 H     1 <1>   0.0800 
 37 H       -5.2640     3.8770    -3.0230 H     1 <1>   0.0800 
 38 H       -6.5470     3.7670    -0.3940 H     1 <1>   0.3700 
 39 H       -9.7210     2.7800    -1.9970 H     1 <1>   0.1500 
 40 H       -9.9500     4.2460     2.6800 H     1 <1>   0.1500 
 41 H       -6.9180     5.0900     1.3220 H     1 <1>   0.0800 
 42 H       -6.7160     3.4250     1.8330 H     1 <1>   0.0800 
 43 H       -7.6440     4.5340     2.8050 H     1 <1>   0.0800 
 44 H      -11.8730     2.8940    -0.8590 H     1 <1>   0.1500 
 45 H      -11.9920     3.6300     1.4870 H     1 <1>   0.1500 
@<TRIPOS>BOND
  1   1   2  2   
  2   2   3  am  
  3   2   4  1   
  4   3   5  1   
  5   3   6  1   
  6   4   7  1   
  7   4   8  2   
  8   5   9  1   
  9   5  25  1   
 10   5  26  1   
 11   6  10  1   
 12   6  27  1   
 13   6  28  1   
 14   7  11  1   
 15   8  12  1   
 16   8  29  1   
 17   9  13  1   
 18   9  30  1   
 19   9  31  1   
 20  10  13  1   
 21  10  32  1   
 22  10  33  1   
 23  11  12  2   
 24  11  34  1   
 25  12  35  1   
 26  13  14  1   
 27  14  15  1   
 28  14  36  1   
 29  14  37  1   
 30  15  16  2   
 31  15  17  am  
 32  17  18  1   
 33  17  38  1   
 34  18  19  ar  
 35  18  20  ar  
 36  19  21  ar  
 37  19  22  1   
 38  20  23  ar  
 39  20  39  1   
 40  21  24  ar  
 41  21  40  1   
 42  22  41  1   
 43  22  42  1   
 44  22  43  1   
 45  23  24  ar  
 46  23  44  1   
 47  24  45  1   
@<TRIPOS>SUBSTRUCTURE
  1 ****  13 GROUP 4 **** **** 0

# MOE 2024.06 (io_trps.svl 2023.06)
