@<TRIPOS>MOLECULE
NONAME
43 45 1 0 0 
SMALL
USER_CHARGES


@<TRIPOS>ATOM
  1 O       -0.4760    -0.2000    -0.4020 O.2   1 <1>  -0.5700 
  2 C       -0.2750    -1.4000    -0.4400 C.2   1 <1>   0.6900 
  3 N       -1.3050    -2.2600    -0.7230 N.am  1 <1>  -0.6600 
  4 N        0.9660    -1.9200    -0.2220 N.am  1 <1>  -0.5470 
  5 C       -1.3710    -3.6680    -0.2200 C.3   1 <1>   0.1400 
  6 C       -2.6160    -1.7500    -1.2270 C.3   1 <1>   0.1400 
  7 C        2.1970    -1.3770     0.1820 C.ar  1 <1>   0.1170 
  8 C       -2.4530    -3.7980     0.8620 C.3   1 <1>   0.1400 
  9 C       -3.7130    -1.8890    -0.1580 C.3   1 <1>   0.1400 
 10 C        3.3400    -2.1770     0.0660 C.ar  1 <1>   0.0820 
 11 C        2.3290    -0.0930     0.7010 C.ar  1 <1>  -0.1500 
 12 N       -3.7710    -3.2890     0.3700 N.am  1 <1>  -0.6600 
 13 O        3.1700    -3.4390    -0.4360 O.3   1 <1>  -0.3630 
 14 C        4.5810    -1.6820     0.4560 C.ar  1 <1>  -0.1500 
 15 C        3.5640     0.3940     1.0870 C.ar  1 <1>  -0.1500 
 16 C       -4.8680    -4.1200     0.2420 C.2   1 <1>   0.7150 
 17 C        4.2750    -4.2850    -0.6720 C.3   1 <1>   0.0400 
 18 C        4.6910    -0.3990     0.9640 C.ar  1 <1>  -0.1500 
 19 O       -4.6670    -5.3230     0.2040 O.2   1 <1>  -0.5700 
 20 C       -6.2330    -3.6390     0.1400 C.2   1 <1>   0.0550 
 21 O       -6.5980    -2.4180     0.5300 O.3   1 <1>  -0.2800 
 22 C       -7.3450    -4.2880    -0.3090 C.2   1 <1>  -0.1500 
 23 C       -7.8890    -2.2750     0.3380 C.2   1 <1>  -0.0100 
 24 C       -8.4150    -3.4020    -0.1840 C.2   1 <1>  -0.1500 
 25 H        1.0600    -2.8800    -0.5420 H     1 <1>   0.3700 
 26 H       -0.4290    -3.9760     0.1950 H     1 <1>   0.0800 
 27 H       -1.6070    -4.3270    -1.0370 H     1 <1>   0.0800 
 28 H       -2.8980    -2.3130    -2.0980 H     1 <1>   0.0800 
 29 H       -2.5340    -0.7180    -1.5210 H     1 <1>   0.0800 
 30 H       -2.1590    -3.2260     1.7250 H     1 <1>   0.0800 
 31 H       -2.5310    -4.8280     1.1660 H     1 <1>   0.0800 
 32 H       -4.6480    -1.6050    -0.6030 H     1 <1>   0.0800 
 33 H       -3.5080    -1.2110     0.6520 H     1 <1>   0.0800 
 34 H        1.4650     0.5360     0.8080 H     1 <1>   0.1500 
 35 H        5.4730    -2.2730     0.3770 H     1 <1>   0.1500 
 36 H        3.6460     1.3910     1.4830 H     1 <1>   0.1500 
 37 H        3.9100    -5.2020    -1.0990 H     1 <1>   0.0800 
 38 H        4.7660    -4.4880     0.2620 H     1 <1>   0.0800 
 39 H        4.9430    -3.8020    -1.3640 H     1 <1>   0.0800 
 40 H        5.6510    -0.0170     1.2650 H     1 <1>   0.1500 
 41 H       -7.3990    -5.2940    -0.6850 H     1 <1>   0.1500 
 42 H       -8.3580    -1.3420     0.5990 H     1 <1>   0.1500 
 43 H       -9.4370    -3.6070    -0.4530 H     1 <1>   0.1500 
@<TRIPOS>BOND
  1   1   2  2   
  2   2   3  am  
  3   2   4  am  
  4   3   5  1   
  5   3   6  1   
  6   4   7  1   
  7   4  25  1   
  8   5   8  1   
  9   5  26  1   
 10   5  27  1   
 11   6   9  1   
 12   6  28  1   
 13   6  29  1   
 14   7  10  ar  
 15   7  11  ar  
 16   8  12  1   
 17   8  30  1   
 18   8  31  1   
 19   9  12  1   
 20   9  32  1   
 21   9  33  1   
 22  10  13  1   
 23  10  14  ar  
 24  11  15  ar  
 25  11  34  1   
 26  12  16  am  
 27  13  17  1   
 28  14  18  ar  
 29  14  35  1   
 30  15  18  ar  
 31  15  36  1   
 32  16  19  2   
 33  16  20  1   
 34  17  37  1   
 35  17  38  1   
 36  17  39  1   
 37  18  40  1   
 38  20  21  1   
 39  20  22  2   
 40  21  23  1   
 41  22  24  1   
 42  22  41  1   
 43  23  24  2   
 44  23  42  1   
 45  24  43  1   
@<TRIPOS>SUBSTRUCTURE
  1 ****   3 GROUP 4 **** **** 0

# MOE 2024.06 (io_trps.svl 2023.06)
