@<TRIPOS>MOLECULE
NONAME
45 47 1 0 0 
SMALL
USER_CHARGES


@<TRIPOS>ATOM
  1 CL       3.7110    -5.3950    -1.3970 Cl    1 <1>  -0.1770 
  2 C        2.3230    -4.7060    -0.5810 C.ar  1 <1>   0.1770 
  3 C        2.3140    -3.3590    -0.2350 C.ar  1 <1>   0.0820 
  4 C        1.2570    -5.5320    -0.2810 C.ar  1 <1>  -0.1500 
  5 O        3.3870    -2.5940    -0.5540 O.3   1 <1>  -0.3630 
  6 C        1.2030    -2.8430     0.4250 C.ar  1 <1>  -0.1500 
  7 C        0.1570    -5.0100     0.3800 C.ar  1 <1>  -0.1500 
  8 C        3.8060    -1.5600     0.3260 C.3   1 <1>   0.1810 
  9 C        0.1320    -3.6700     0.7300 C.ar  1 <1>  -0.1500 
 10 C        5.1830    -1.0170    -0.0540 C.2   1 <1>   0.5690 
 11 O        5.2710     0.1810    -0.2000 O.2   1 <1>  -0.5700 
 12 N        6.2800    -1.8360    -0.1970 N.am  1 <1>  -0.6600 
 13 C        7.5960    -1.3000    -0.6690 C.3   1 <1>   0.1400 
 14 C        6.2870    -3.3230    -0.0010 C.3   1 <1>   0.1400 
 15 C        8.7500    -1.7260     0.2530 C.3   1 <1>   0.2090 
 16 C        7.4540    -3.7900     0.8900 C.3   1 <1>   0.2090 
 17 N        8.7680    -3.2010     0.4930 N.pl3 1 <1>  -0.8380 
 18 C        9.6520    -3.9790    -0.2530 C.ar  1 <1>   0.1000 
 19 C       10.8530    -4.4310     0.3010 C.ar  1 <1>  -0.1430 
 20 C        9.3490    -4.3150    -1.5670 C.ar  1 <1>  -0.1500 
 21 C       11.7250    -5.2040    -0.4520 C.ar  1 <1>  -0.1500 
 22 C       11.2130    -4.0810     1.7380 C.3   1 <1>  -0.0970 
 23 C       10.2270    -5.0830    -2.3010 C.ar  1 <1>   0.1770 
 24 C       11.4150    -5.5350    -1.7600 C.ar  1 <1>  -0.1500 
 25 CL       9.8300    -5.4950    -3.9510 Cl    1 <1>  -0.1770 
 26 H        1.2900    -6.5700    -0.5600 H     1 <1>   0.1500 
 27 H        1.1520    -1.8050     0.6950 H     1 <1>   0.1500 
 28 H       -0.6800    -5.6450     0.6180 H     1 <1>   0.1500 
 29 H        3.8380    -1.9510     1.3250 H     1 <1>   0.0800 
 30 H        3.0890    -0.7620     0.2710 H     1 <1>   0.0800 
 31 H       -0.7270    -3.2680     1.2400 H     1 <1>   0.1500 
 32 H        7.5720    -0.2260    -0.7190 H     1 <1>   0.0800 
 33 H        7.7860    -1.6670    -1.6620 H     1 <1>   0.0800 
 34 H        6.3650    -3.7990    -0.9620 H     1 <1>   0.0800 
 35 H        5.3720    -3.6570     0.4490 H     1 <1>   0.0800 
 36 H        8.6510    -1.2210     1.1970 H     1 <1>   0.0800 
 37 H        9.6850    -1.4240    -0.1850 H     1 <1>   0.0800 
 38 H        7.5190    -4.8640     0.8550 H     1 <1>   0.0800 
 39 H        7.2490    -3.5100     1.9090 H     1 <1>   0.0800 
 40 H        8.4360    -3.9770    -2.0150 H     1 <1>   0.1500 
 41 H       12.6490    -5.5530    -0.0250 H     1 <1>   0.1500 
 42 H       10.4510    -4.4500     2.4010 H     1 <1>   0.0800 
 43 H       11.2730    -3.0140     1.8460 H     1 <1>   0.0800 
 44 H       12.1550    -4.5110     2.0230 H     1 <1>   0.0800 
 45 H       12.0820    -6.1330    -2.3530 H     1 <1>   0.1500 
@<TRIPOS>BOND
  1   1   2  1   
  2   2   3  ar  
  3   2   4  ar  
  4   3   5  1   
  5   3   6  ar  
  6   4   7  ar  
  7   4  26  1   
  8   5   8  1   
  9   6   9  ar  
 10   6  27  1   
 11   7   9  ar  
 12   7  28  1   
 13   8  10  1   
 14   8  29  1   
 15   8  30  1   
 16   9  31  1   
 17  10  11  2   
 18  10  12  am  
 19  12  13  1   
 20  12  14  1   
 21  13  15  1   
 22  13  32  1   
 23  13  33  1   
 24  14  16  1   
 25  14  34  1   
 26  14  35  1   
 27  15  17  1   
 28  15  36  1   
 29  15  37  1   
 30  16  17  1   
 31  16  38  1   
 32  16  39  1   
 33  17  18  1   
 34  18  19  ar  
 35  18  20  ar  
 36  19  21  ar  
 37  19  22  1   
 38  20  23  ar  
 39  20  40  1   
 40  21  24  ar  
 41  21  41  1   
 42  22  42  1   
 43  22  43  1   
 44  22  44  1   
 45  23  24  ar  
 46  23  25  1   
 47  24  45  1   
@<TRIPOS>SUBSTRUCTURE
  1 ****  14 GROUP 4 **** **** 0

# MOE 2024.06 (io_trps.svl 2023.06)
