@<TRIPOS>MOLECULE
NONAME
38 38 1 0 0 
SMALL
USER_CHARGES


@<TRIPOS>ATOM
  1 I       -0.5030     0.3460     0.8140 I     1 <1>  -0.0810 
  2 C       -0.4110    -1.7130     0.2410 C.ar  1 <1>   0.0810 
  3 C       -1.5820    -2.4380     0.0400 C.ar  1 <1>   0.0820 
  4 C        0.8460    -2.2670     0.0870 C.ar  1 <1>  -0.1500 
  5 O       -2.7820    -1.8190     0.2120 O.3   1 <1>  -0.3630 
  6 C       -1.4600    -3.7760    -0.3320 C.ar  1 <1>  -0.1500 
  7 C        0.9440    -3.5980    -0.2830 C.ar  1 <1>  -0.1500 
  8 C       -4.0020    -2.5000     0.0230 C.3   1 <1>   0.1200 
  9 C       -0.2050    -4.3460    -0.4900 C.ar  1 <1>  -0.1500 
 10 C       -5.1320    -1.5130     0.2970 C.3   1 <1>   0.1200 
 11 O       -6.3560    -2.1640     0.1140 O.3   1 <1>  -0.5600 
 12 C       -7.4650    -1.3600     0.3350 C.3   1 <1>   0.1200 
 13 C       -8.7070    -2.2250     0.0940 C.3   1 <1>   0.3430 
 14 N       -9.9710    -1.4520     0.2950 N.4   1 <1>  -0.9060 
 15 C      -11.1820    -2.2440     0.0440 C.3   1 <1>   0.4230 
 16 C      -12.3480    -1.2710    -0.0650 C.3   1 <1>  -0.2400 
 17 C      -11.3980    -3.2190     1.1980 C.3   1 <1>  -0.2400 
 18 H        1.7300    -1.6770     0.2510 H     1 <1>   0.1500 
 19 H       -2.3230    -4.3910    -0.5020 H     1 <1>   0.1500 
 20 H        1.9120    -4.0520    -0.4090 H     1 <1>   0.1500 
 21 H       -4.0420    -3.3220     0.7150 H     1 <1>   0.0800 
 22 H       -4.0420    -2.8470    -0.9940 H     1 <1>   0.0800 
 23 H       -0.1210    -5.3800    -0.7780 H     1 <1>   0.1500 
 24 H       -5.0700    -0.6860    -0.3910 H     1 <1>   0.0800 
 25 H       -5.0720    -1.1610     1.3130 H     1 <1>   0.0800 
 26 H       -7.4290    -0.5360    -0.3560 H     1 <1>   0.0800 
 27 H       -7.4320    -1.0080     1.3520 H     1 <1>   0.0800 
 28 H       -8.6770    -3.0600     0.7750 H     1 <1>   0.0800 
 29 H       -8.6700    -2.6050    -0.9140 H     1 <1>   0.0800 
 30 H       -9.9850    -0.6430    -0.3370 H     1 <1>   0.4500 
 31 H      -10.0210    -1.0910     1.2540 H     1 <1>   0.4500 
 32 H      -11.0860    -2.7890    -0.8840 H     1 <1>   0.0800 
 33 H      -12.4780    -0.7100     0.8440 H     1 <1>   0.0800 
 34 H      -13.2560    -1.8180    -0.2480 H     1 <1>   0.0800 
 35 H      -12.2070    -0.5940    -0.8890 H     1 <1>   0.0800 
 36 H      -11.4770    -2.7030     2.1380 H     1 <1>   0.0800 
 37 H      -10.6050    -3.9440     1.2510 H     1 <1>   0.0800 
 38 H      -12.3140    -3.7620     1.0410 H     1 <1>   0.0800 
@<TRIPOS>BOND
  1   1   2  1   
  2   2   3  ar  
  3   2   4  ar  
  4   3   5  1   
  5   3   6  ar  
  6   4   7  ar  
  7   4  18  1   
  8   5   8  1   
  9   6   9  ar  
 10   6  19  1   
 11   7   9  ar  
 12   7  20  1   
 13   8  10  1   
 14   8  21  1   
 15   8  22  1   
 16   9  23  1   
 17  10  11  1   
 18  10  24  1   
 19  10  25  1   
 20  11  12  1   
 21  12  13  1   
 22  12  26  1   
 23  12  27  1   
 24  13  14  1   
 25  13  28  1   
 26  13  29  1   
 27  14  15  1   
 28  14  30  1   
 29  14  31  1   
 30  15  16  1   
 31  15  17  1   
 32  15  32  1   
 33  16  33  1   
 34  16  34  1   
 35  16  35  1   
 36  17  36  1   
 37  17  37  1   
 38  17  38  1   
@<TRIPOS>SUBSTRUCTURE
  1 ****  10 GROUP 4 **** **** 0

# MOE 2024.06 (io_trps.svl 2023.06)
