@<TRIPOS>MOLECULE
NONAME
33 35 1 0 0 
SMALL
USER_CHARGES


@<TRIPOS>ATOM
  1 F        2.4280     1.1370     2.2460 F     1 <1>  -0.1900 
  2 C        1.2880     1.6870     1.9230 C.ar  1 <1>   0.1900 
  3 C        1.2150     2.6050     0.8690 C.ar  1 <1>   0.0860 
  4 C        0.1930     1.3030     2.6750 C.ar  1 <1>  -0.1500 
  5 C        2.3510     3.0310     0.0630 C.2   1 <1>   0.5440 
  6 C       -0.0600     3.1200     0.6100 C.ar  1 <1>  -0.1500 
  7 C       -1.0480     1.8390     2.3870 C.ar  1 <1>  -0.1500 
  8 O        2.1690     3.6200    -0.9850 O.2   1 <1>  -0.5700 
  9 N        3.6410     2.8030     0.4480 N.am  1 <1>  -0.7300 
 10 C       -1.1700     2.7480     1.3500 C.ar  1 <1>  -0.1500 
 11 C        4.8550     3.1610    -0.3090 C.3   1 <1>   0.2200 
 12 C        5.6270     1.9230    -0.8140 C.3   1 <1>  -0.0800 
 13 C        5.8820     3.8590     0.5970 C.3   1 <1>  -0.1600 
 14 C        7.0240     2.5040    -0.9720 C.3   1 <1>  -0.1600 
 15 C        5.8730     0.9130     0.3260 C.3   1 <1>  -0.1600 
 16 C        7.1290     2.9660     0.4720 C.3   1 <1>  -0.0800 
 17 C        6.8690     1.6550     1.2340 C.3   1 <1>  -0.1600 
 18 H        0.3120     0.5930     3.4750 H     1 <1>   0.1500 
 19 H       -0.1820     3.8290    -0.1920 H     1 <1>   0.1500 
 20 H       -1.9120     1.5520     2.9610 H     1 <1>   0.1500 
 21 H        3.8150     2.2390     1.2810 H     1 <1>   0.3700 
 22 H       -2.1340     3.1690     1.1180 H     1 <1>   0.1500 
 23 H        4.6060     3.8020    -1.1400 H     1 <1>   0.0800 
 24 H        5.2130     1.4970    -1.7110 H     1 <1>   0.0800 
 25 H        5.5480     3.9490     1.6160 H     1 <1>   0.0800 
 26 H        6.0930     4.8380     0.2070 H     1 <1>   0.0800 
 27 H        7.0620     3.3190    -1.6760 H     1 <1>   0.0800 
 28 H        7.7610     1.7610    -1.2280 H     1 <1>   0.0800 
 29 H        6.3320     0.0240    -0.0710 H     1 <1>   0.0800 
 30 H        4.9750     0.6280     0.8430 H     1 <1>   0.0800 
 31 H        8.0510     3.4550     0.7370 H     1 <1>   0.0800 
 32 H        7.7790     1.0880     1.3280 H     1 <1>   0.0800 
 33 H        6.4640     1.8360     2.2150 H     1 <1>   0.0800 
@<TRIPOS>BOND
  1   1   2  1   
  2   2   3  ar  
  3   2   4  ar  
  4   3   5  1   
  5   3   6  ar  
  6   4   7  ar  
  7   4  18  1   
  8   5   8  2   
  9   5   9  am  
 10   6  10  ar  
 11   6  19  1   
 12   7  10  ar  
 13   7  20  1   
 14   9  11  1   
 15   9  21  1   
 16  10  22  1   
 17  11  12  1   
 18  11  13  1   
 19  11  23  1   
 20  12  14  1   
 21  12  15  1   
 22  12  24  1   
 23  13  16  1   
 24  13  25  1   
 25  13  26  1   
 26  14  16  1   
 27  14  27  1   
 28  14  28  1   
 29  15  17  1   
 30  15  29  1   
 31  15  30  1   
 32  16  17  1   
 33  16  31  1   
 34  17  32  1   
 35  17  33  1   
@<TRIPOS>SUBSTRUCTURE
  1 ****   9 GROUP 4 **** **** 0

# MOE 2024.06 (io_trps.svl 2023.06)
