@<TRIPOS>MOLECULE
NONAME
53 55 1 0 0 
SMALL
USER_CHARGES


@<TRIPOS>ATOM
  1 N       -0.0360     0.0460    -0.1310 N.4   1 <1>  -0.9590 
  2 C       -0.1880    -1.3020    -0.7560 C.3   1 <1>   0.3430 
  3 C       -1.2260     0.9240    -0.3040 C.3   1 <1>   0.3430 
  4 C        1.2070     0.7210    -0.6220 C.3   1 <1>   0.4860 
  5 C       -1.4210    -2.0040    -0.1850 C.3   1 <1>  -0.1600 
  6 C       -2.4700     0.2360     0.2660 C.3   1 <1>  -0.1600 
  7 C        2.3950    -0.1030    -0.1720 C.ar  1 <1>  -0.1430 
  8 C       -2.6770    -1.1490    -0.3580 C.3   1 <1>   0.4230 
  9 C        2.7900    -0.0920     1.1590 C.ar  1 <1>  -0.1500 
 10 C        3.0910    -0.8820    -1.0850 C.ar  1 <1>  -0.1500 
 11 N       -3.8210    -1.8480     0.2790 N.4   1 <1>  -0.9060 
 12 C        3.8570    -0.8690     1.5740 C.ar  1 <1>  -0.1500 
 13 C        4.1580    -1.6580    -0.6670 C.ar  1 <1>  -0.1500 
 14 C       -5.1620    -1.2580    -0.0350 C.3   1 <1>   0.3430 
 15 C        4.5390    -1.6540     0.6620 C.ar  1 <1>  -0.1500 
 16 C       -6.3070    -2.0470     0.6180 C.3   1 <1>   0.0630 
 17 C       -7.6090    -1.3470     0.2550 C.ar  1 <1>  -0.1430 
 18 C       -6.1590    -2.1930     2.1440 C.3   1 <1>  -0.2400 
 19 C       -8.4750    -1.9370    -0.6550 C.ar  1 <1>  -0.1500 
 20 C       -7.9450    -0.1150     0.8030 C.ar  1 <1>  -0.1500 
 21 C       -9.6510    -1.3040    -1.0180 C.ar  1 <1>  -0.1500 
 22 C       -9.1220     0.5170     0.4400 C.ar  1 <1>  -0.1500 
 23 C       -9.9750    -0.0760    -0.4720 C.ar  1 <1>  -0.1500 
 24 H        0.1470    -0.0990     0.8730 H     1 <1>   0.4500 
 25 H        0.6880    -1.9020    -0.5570 H     1 <1>   0.0800 
 26 H       -0.2840    -1.2000    -1.8260 H     1 <1>   0.0800 
 27 H       -1.3740     1.1330    -1.3530 H     1 <1>   0.0800 
 28 H       -1.0680     1.8630     0.2040 H     1 <1>   0.0800 
 29 H        1.2880     1.7120    -0.2040 H     1 <1>   0.0800 
 30 H        1.1990     0.8020    -1.6970 H     1 <1>   0.0800 
 31 H       -1.2430    -2.2180     0.8550 H     1 <1>   0.0800 
 32 H       -1.5420    -2.9390    -0.7040 H     1 <1>   0.0800 
 33 H       -3.3160     0.8670     0.0570 H     1 <1>   0.0800 
 34 H       -2.3640     0.1600     1.3340 H     1 <1>   0.0800 
 35 H       -2.8750    -1.0350    -1.4140 H     1 <1>   0.0800 
 36 H        2.2880     0.5190     1.8900 H     1 <1>   0.1500 
 37 H        2.8230    -0.8980    -2.1280 H     1 <1>   0.1500 
 38 H       -3.7100    -1.8700     1.3020 H     1 <1>   0.4500 
 39 H       -3.8350    -2.8310    -0.0240 H     1 <1>   0.4500 
 40 H        4.1660    -0.8630     2.6070 H     1 <1>   0.1500 
 41 H        4.7000    -2.2640    -1.3740 H     1 <1>   0.1500 
 42 H       -5.3220    -1.2450    -1.1020 H     1 <1>   0.0800 
 43 H       -5.2090    -0.2410     0.3180 H     1 <1>   0.0800 
 44 H        5.3710    -2.2570     0.9860 H     1 <1>   0.1500 
 45 H       -6.3290    -3.0350     0.1910 H     1 <1>   0.0800 
 46 H       -6.0170    -1.2400     2.6210 H     1 <1>   0.0800 
 47 H       -5.3400    -2.8400     2.4000 H     1 <1>   0.0800 
 48 H       -7.0570    -2.6320     2.5460 H     1 <1>   0.0800 
 49 H       -8.2540    -2.8940    -1.0940 H     1 <1>   0.1500 
 50 H       -7.3090     0.3720     1.5190 H     1 <1>   0.1500 
 51 H      -10.3190    -1.7680    -1.7240 H     1 <1>   0.1500 
 52 H       -9.3800     1.4710     0.8690 H     1 <1>   0.1500 
 53 H      -10.8910     0.4150    -0.7540 H     1 <1>   0.1500 
@<TRIPOS>BOND
  1   1   2  1   
  2   1   3  1   
  3   1   4  1   
  4   1  24  1   
  5   2   5  1   
  6   2  25  1   
  7   2  26  1   
  8   3   6  1   
  9   3  27  1   
 10   3  28  1   
 11   4   7  1   
 12   4  29  1   
 13   4  30  1   
 14   5   8  1   
 15   5  31  1   
 16   5  32  1   
 17   6   8  1   
 18   6  33  1   
 19   6  34  1   
 20   7   9  ar  
 21   7  10  ar  
 22   8  11  1   
 23   8  35  1   
 24   9  12  ar  
 25   9  36  1   
 26  10  13  ar  
 27  10  37  1   
 28  11  14  1   
 29  11  38  1   
 30  11  39  1   
 31  12  15  ar  
 32  12  40  1   
 33  13  15  ar  
 34  13  41  1   
 35  14  16  1   
 36  14  42  1   
 37  14  43  1   
 38  15  44  1   
 39  16  17  1   
 40  16  18  1   
 41  16  45  1   
 42  17  19  ar  
 43  17  20  ar  
 44  18  46  1   
 45  18  47  1   
 46  18  48  1   
 47  19  21  ar  
 48  19  49  1   
 49  20  22  ar  
 50  20  50  1   
 51  21  23  ar  
 52  21  51  1   
 53  22  23  ar  
 54  22  52  1   
 55  23  53  1   
@<TRIPOS>SUBSTRUCTURE
  1 ****   8 GROUP 4 **** **** 0

# MOE 2024.06 (io_trps.svl 2023.06)
