@<TRIPOS>MOLECULE
NONAME
39 41 1 0 0 
SMALL
USER_CHARGES


@<TRIPOS>ATOM
  1 O       -1.3790     1.6950    -2.0130 O.3   1 <1>  -0.5600 
  2 C       -2.2510     0.6000    -1.8580 C.3   1 <1>   0.3440 
  3 C       -1.8520     2.8980    -1.4870 C.3   1 <1>   0.1200 
  4 C       -2.7390     0.4830    -0.4090 C.ar  1 <1>  -0.1440 
  5 C       -1.4320    -0.6430    -2.2680 C.3   1 <1>   0.3430 
  6 C       -1.8370     2.7970     0.0390 C.3   1 <1>  -0.0170 
  7 C       -2.5130     1.5140     0.4960 C.ar  1 <1>  -0.1440 
  8 C       -3.4100    -0.6570     0.0200 C.ar  1 <1>  -0.1500 
  9 N       -0.0480    -0.6010    -1.6920 N.4   1 <1>  -0.9060 
 10 C       -2.9120     1.3830     1.8150 C.ar  1 <1>  -0.1500 
 11 C       -3.8090    -0.7830     1.3380 C.ar  1 <1>  -0.1500 
 12 C        0.0380    -0.8910    -0.2440 C.3   1 <1>   0.4860 
 13 C       -3.5550     0.2340     2.2380 C.ar  1 <1>  -0.1500 
 14 C        1.4980    -0.7760     0.1240 C.ar  1 <1>  -0.1440 
 15 C        2.3150    -1.8980     0.1140 C.ar  1 <1>  -0.1500 
 16 C        2.0320     0.4580     0.4660 C.ar  1 <1>  -0.1500 
 17 C        3.6560    -1.7820     0.4350 C.ar  1 <1>  -0.1500 
 18 C        3.3730     0.5700     0.7870 C.ar  1 <1>  -0.1500 
 19 C        4.1850    -0.5490     0.7700 C.ar  1 <1>  -0.1500 
 20 H       -3.0920     0.7340    -2.5180 H     1 <1>   0.0800 
 21 H       -2.8490     3.0760    -1.8560 H     1 <1>   0.0800 
 22 H       -1.2060     3.6920    -1.8210 H     1 <1>   0.0800 
 23 H       -1.3660    -0.6480    -3.3440 H     1 <1>   0.0800 
 24 H       -1.9410    -1.5420    -1.9670 H     1 <1>   0.0800 
 25 H       -2.3490     3.6490     0.4510 H     1 <1>   0.0800 
 26 H       -0.8220     2.8200     0.3920 H     1 <1>   0.0800 
 27 H       -3.6410    -1.4610    -0.6570 H     1 <1>   0.1500 
 28 H        0.2720     0.3740    -1.8110 H     1 <1>   0.4500 
 29 H        0.6180    -1.1970    -2.1930 H     1 <1>   0.4500 
 30 H       -2.7330     2.1770     2.5210 H     1 <1>   0.1500 
 31 H       -4.3270    -1.6690     1.6680 H     1 <1>   0.1500 
 32 H       -0.3230    -1.8830    -0.0300 H     1 <1>   0.0800 
 33 H       -0.5360    -0.1790     0.3260 H     1 <1>   0.0800 
 34 H       -3.8650     0.1370     3.2650 H     1 <1>   0.1500 
 35 H        1.9250    -2.8700    -0.1380 H     1 <1>   0.1500 
 36 H        1.4160     1.3410     0.4900 H     1 <1>   0.1500 
 37 H        4.2920    -2.6520     0.4290 H     1 <1>   0.1500 
 38 H        3.7890     1.5280     1.0530 H     1 <1>   0.1500 
 39 H        5.2280    -0.4610     1.0220 H     1 <1>   0.1500 
@<TRIPOS>BOND
  1   1   2  1   
  2   1   3  1   
  3   2   4  1   
  4   2   5  1   
  5   2  20  1   
  6   3   6  1   
  7   3  21  1   
  8   3  22  1   
  9   4   7  ar  
 10   4   8  ar  
 11   5   9  1   
 12   5  23  1   
 13   5  24  1   
 14   6   7  1   
 15   6  25  1   
 16   6  26  1   
 17   7  10  ar  
 18   8  11  ar  
 19   8  27  1   
 20   9  12  1   
 21   9  28  1   
 22   9  29  1   
 23  10  13  ar  
 24  10  30  1   
 25  11  13  ar  
 26  11  31  1   
 27  12  14  1   
 28  12  32  1   
 29  12  33  1   
 30  13  34  1   
 31  14  15  ar  
 32  14  16  ar  
 33  15  17  ar  
 34  15  35  1   
 35  16  18  ar  
 36  16  36  1   
 37  17  19  ar  
 38  17  37  1   
 39  18  19  ar  
 40  18  38  1   
 41  19  39  1   
@<TRIPOS>SUBSTRUCTURE
  1 ****  12 GROUP 4 **** **** 0

# MOE 2024.06 (io_trps.svl 2023.06)
