@<TRIPOS>MOLECULE
NONAME
44 44 1 0 0 
SMALL
USER_CHARGES


@<TRIPOS>ATOM
  1 F       -4.0490     0.4510    -0.6040 F     1 <1>  -0.1900 
  2 C       -2.8580     0.9860    -0.5290 C.ar  1 <1>   0.1900 
  3 C       -2.6080     1.9630     0.4230 C.ar  1 <1>  -0.1440 
  4 C       -1.8950     0.5390    -1.4190 C.ar  1 <1>  -0.1500 
  5 C       -1.3200     2.4750     0.4450 C.ar  1 <1>   0.1900 
  6 C       -3.6840     2.4360     1.3900 C.3   1 <1>   0.2540 
  7 C       -0.6200     1.0800    -1.3670 C.ar  1 <1>  -0.1500 
  8 F       -1.0120     3.3970     1.3180 F     1 <1>  -0.1900 
  9 C       -0.3290     2.0560    -0.4270 C.ar  1 <1>  -0.1500 
 10 N       -4.7020     3.2400     0.6750 N.3   1 <1>  -0.8100 
 11 C       -5.9720     3.3280     1.4500 C.3   1 <1>   0.1100 
 12 C       -4.1510     4.5700     0.3460 C.3   1 <1>   0.1100 
 13 C       -7.1900     3.0400     0.5470 C.3   1 <1>   0.3430 
 14 C       -5.0070     5.2840    -0.6960 C.3   1 <1>  -0.2400 
 15 N       -6.8080     2.0200    -0.4760 N.4   1 <1>  -0.9590 
 16 C       -7.0860     2.5110    -1.8460 C.3   1 <1>   0.3430 
 17 C       -7.3470     0.6500    -0.2480 C.3   1 <1>   0.3430 
 18 C       -6.1280     1.8500    -2.8280 C.3   1 <1>  -0.2400 
 19 C       -6.9650     0.1100     1.1270 C.3   1 <1>  -0.2400 
 20 H       -2.1390    -0.2220    -2.1400 H     1 <1>   0.1500 
 21 H       -3.2580     3.0100     2.1960 H     1 <1>   0.0800 
 22 H       -4.1390     1.5620     1.8230 H     1 <1>   0.0800 
 23 H        0.1410     0.7430    -2.0510 H     1 <1>   0.1500 
 24 H        0.6550     2.4880    -0.3680 H     1 <1>   0.1500 
 25 H       -6.0790     4.2950     1.9120 H     1 <1>   0.0800 
 26 H       -5.9750     2.6030     2.2460 H     1 <1>   0.0800 
 27 H       -3.1620     4.4640    -0.0690 H     1 <1>   0.0800 
 28 H       -4.0650     5.1720     1.2370 H     1 <1>   0.0800 
 29 H       -7.4730     3.9570     0.0580 H     1 <1>   0.0800 
 30 H       -8.0270     2.7050     1.1360 H     1 <1>   0.0800 
 31 H       -5.0810     4.6870    -1.5850 H     1 <1>   0.0800 
 32 H       -4.5310     6.2110    -0.9610 H     1 <1>   0.0800 
 33 H       -5.9830     5.5170    -0.3140 H     1 <1>   0.0800 
 34 H       -5.7680     2.0030    -0.3800 H     1 <1>   0.4500 
 35 H       -6.9360     3.5770    -1.8860 H     1 <1>   0.0800 
 36 H       -8.1080     2.3010    -2.1180 H     1 <1>   0.0800 
 37 H       -6.9510    -0.0160    -0.9980 H     1 <1>   0.0800 
 38 H       -8.4210     0.6590    -0.3450 H     1 <1>   0.0800 
 39 H       -5.1090     2.0780    -2.5680 H     1 <1>   0.0800 
 40 H       -6.3120     2.2350    -3.8150 H     1 <1>   0.0800 
 41 H       -6.2640     0.7840    -2.8570 H     1 <1>   0.0800 
 42 H       -5.8990     0.1240     1.2600 H     1 <1>   0.0800 
 43 H       -7.2920    -0.9110     1.2020 H     1 <1>   0.0800 
 44 H       -7.4430     0.6610     1.9150 H     1 <1>   0.0800 
@<TRIPOS>BOND
  1   1   2  1   
  2   2   3  ar  
  3   2   4  ar  
  4   3   5  ar  
  5   3   6  1   
  6   4   7  ar  
  7   4  20  1   
  8   5   8  1   
  9   5   9  ar  
 10   6  10  1   
 11   6  21  1   
 12   6  22  1   
 13   7   9  ar  
 14   7  23  1   
 15   9  24  1   
 16  10  11  1   
 17  10  12  1   
 18  11  13  1   
 19  11  25  1   
 20  11  26  1   
 21  12  14  1   
 22  12  27  1   
 23  12  28  1   
 24  13  15  1   
 25  13  29  1   
 26  13  30  1   
 27  14  31  1   
 28  14  32  1   
 29  14  33  1   
 30  15  16  1   
 31  15  17  1   
 32  15  34  1   
 33  16  18  1   
 34  16  35  1   
 35  16  36  1   
 36  17  19  1   
 37  17  37  1   
 38  17  38  1   
 39  18  39  1   
 40  18  40  1   
 41  18  41  1   
 42  19  42  1   
 43  19  43  1   
 44  19  44  1   
@<TRIPOS>SUBSTRUCTURE
  1 ****  10 GROUP 4 **** **** 0

# MOE 2024.06 (io_trps.svl 2023.06)
