@<TRIPOS>MOLECULE
NONAME
32 33 1 0 0 
SMALL
USER_CHARGES


@<TRIPOS>ATOM
  1 O       -1.1010     3.5070     0.3410 O.co2 1 <1>  -0.9000 
  2 C       -1.2450     2.3050     0.1220 C.2   1 <1>   0.9060 
  3 O       -0.3610     1.5660    -0.3360 O.co2 1 <1>  -0.9000 
  4 C       -2.5930     1.6170     0.3840 C.3   1 <1>   0.3170 
  5 N       -2.6760     0.3130    -0.3610 N.4   1 <1>  -0.9060 
  6 C       -3.8010     2.4760     0.0020 C.3   1 <1>  -0.0170 
  7 C       -3.7870    -0.5230     0.1130 C.3   1 <1>   0.4860 
  8 C       -5.0970     1.6650     0.0040 C.ar  1 <1>  -0.1430 
  9 C       -5.0870     0.2720     0.0440 C.ar  1 <1>  -0.1430 
 10 C       -6.3030     2.3440    -0.0480 C.ar  1 <1>  -0.1500 
 11 C       -6.2900    -0.4200     0.0310 C.ar  1 <1>  -0.1500 
 12 C       -7.5100     1.6540    -0.0600 C.ar  1 <1>   0.0830 
 13 C       -7.5040     0.2590    -0.0210 C.ar  1 <1>   0.0830 
 14 O       -8.7170     2.2890    -0.1100 O.3   1 <1>  -0.3630 
 15 O       -8.7060    -0.3870    -0.0360 O.3   1 <1>  -0.3630 
 16 C       -8.8230     3.6940    -0.1360 C.3   1 <1>   0.0400 
 17 C       -8.8150    -1.7910     0.0160 C.3   1 <1>   0.0400 
 18 H       -2.6320     1.4210     1.4400 H     1 <1>   0.0800 
 19 H       -1.7200    -0.0800    -0.2830 H     1 <1>   0.4500 
 20 H       -2.7810     0.5490    -1.3520 H     1 <1>   0.4500 
 21 H       -3.6410     2.9010    -0.9740 H     1 <1>   0.0800 
 22 H       -3.8710     3.2940     0.6980 H     1 <1>   0.0800 
 23 H       -3.6070    -0.8240     1.1320 H     1 <1>   0.0800 
 24 H       -3.8660    -1.4080    -0.4980 H     1 <1>   0.0800 
 25 H       -6.2860     3.4170    -0.0810 H     1 <1>   0.1500 
 26 H       -6.2780    -1.4930     0.0630 H     1 <1>   0.1500 
 27 H       -9.8680     3.9480    -0.1660 H     1 <1>   0.0800 
 28 H       -8.3320     4.0660    -1.0180 H     1 <1>   0.0800 
 29 H       -8.3760     4.0950     0.7560 H     1 <1>   0.0800 
 30 H       -9.8610    -2.0420    -0.0030 H     1 <1>   0.0800 
 31 H       -8.3740    -2.1440     0.9310 H     1 <1>   0.0800 
 32 H       -8.3260    -2.2130    -0.8440 H     1 <1>   0.0800 
@<TRIPOS>BOND
  1   1   2  ar  
  2   2   3  ar  
  3   2   4  1   
  4   4   5  1   
  5   4   6  1   
  6   4  18  1   
  7   5   7  1   
  8   5  19  1   
  9   5  20  1   
 10   6   8  1   
 11   6  21  1   
 12   6  22  1   
 13   7   9  1   
 14   7  23  1   
 15   7  24  1   
 16   8   9  ar  
 17   8  10  ar  
 18   9  11  ar  
 19  10  12  ar  
 20  10  25  1   
 21  11  13  ar  
 22  11  26  1   
 23  12  13  ar  
 24  12  14  1   
 25  13  15  1   
 26  14  16  1   
 27  15  17  1   
 28  16  27  1   
 29  16  28  1   
 30  16  29  1   
 31  17  30  1   
 32  17  31  1   
 33  17  32  1   
@<TRIPOS>SUBSTRUCTURE
  1 ****   8 GROUP 4 **** **** 0

# MOE 2024.06 (io_trps.svl 2023.06)
