@<TRIPOS>MOLECULE
NONAME
39 40 1 0 0 
SMALL
USER_CHARGES


@<TRIPOS>ATOM
  1 O        0.1990    -0.0380     0.1990 O.3   1 <1>  -0.3630 
  2 C       -1.0430    -0.6030     0.1200 C.ar  1 <1>   0.0830 
  3 C        1.3750    -0.7430    -0.1040 C.3   1 <1>   0.1200 
  4 C       -1.3380    -1.9690    -0.0540 C.ar  1 <1>   0.0830 
  5 C       -2.0830     0.3080     0.2280 C.ar  1 <1>  -0.1500 
  6 C        2.5340     0.2530    -0.0840 C.3   1 <1>   0.3430 
  7 O       -0.3310    -2.8890    -0.1430 O.3   1 <1>  -0.3630 
  8 C       -2.6750    -2.3630    -0.1250 C.ar  1 <1>  -0.1500 
  9 C       -3.4020    -0.0990     0.1590 C.ar  1 <1>  -0.1500 
 10 N        3.8420    -0.3930    -0.4290 N.4   1 <1>  -0.9590 
 11 C       -0.5810    -4.2750    -0.2100 C.3   1 <1>   0.1200 
 12 C       -3.6960    -1.4360    -0.0200 C.ar  1 <1>  -0.1500 
 13 C        4.2890    -1.4170     0.5490 C.3   1 <1>   0.3430 
 14 C        4.9500     0.5880    -0.5220 C.3   1 <1>   0.3430 
 15 C        0.7630    -4.9970    -0.2300 C.3   1 <1>  -0.2400 
 16 C        5.7840    -1.5510     0.2980 C.3   1 <1>  -0.1600 
 17 C        6.2110    -0.2560    -0.4000 C.3   1 <1>  -0.1600 
 18 H        1.2600    -1.1800    -1.0800 H     1 <1>   0.0800 
 19 H        1.5060    -1.5000     0.6480 H     1 <1>   0.0800 
 20 H       -1.8560     1.3500     0.3660 H     1 <1>   0.1500 
 21 H        2.5950     0.6950     0.8970 H     1 <1>   0.0800 
 22 H        2.3200     1.0330    -0.7970 H     1 <1>   0.0800 
 23 H       -2.9540    -3.3900    -0.2630 H     1 <1>   0.1500 
 24 H       -4.1960     0.6230     0.2430 H     1 <1>   0.1500 
 25 H        3.7620    -0.8510    -1.3480 H     1 <1>   0.4500 
 26 H       -1.1350    -4.4810    -1.1100 H     1 <1>   0.0800 
 27 H       -1.1530    -4.5630     0.6560 H     1 <1>   0.0800 
 28 H       -4.7230    -1.7560    -0.0760 H     1 <1>   0.1500 
 29 H        3.7740    -2.3550     0.4130 H     1 <1>   0.0800 
 30 H        4.1230    -1.0590     1.5530 H     1 <1>   0.0800 
 31 H        4.8980     1.2770     0.3050 H     1 <1>   0.0800 
 32 H        4.9240     1.1370    -1.4500 H     1 <1>   0.0800 
 33 H        1.3320    -4.6980    -1.0910 H     1 <1>   0.0800 
 34 H        0.6000    -6.0590    -0.2810 H     1 <1>   0.0800 
 35 H        1.3130    -4.7800     0.6680 H     1 <1>   0.0800 
 36 H        5.9740    -2.4010    -0.3360 H     1 <1>   0.0800 
 37 H        6.3080    -1.6970     1.2280 H     1 <1>   0.0800 
 38 H        6.9630     0.2720     0.1620 H     1 <1>   0.0800 
 39 H        6.6050    -0.4690    -1.3790 H     1 <1>   0.0800 
@<TRIPOS>BOND
  1   1   2  1   
  2   1   3  1   
  3   2   4  ar  
  4   2   5  ar  
  5   3   6  1   
  6   3  18  1   
  7   3  19  1   
  8   4   7  1   
  9   4   8  ar  
 10   5   9  ar  
 11   5  20  1   
 12   6  10  1   
 13   6  21  1   
 14   6  22  1   
 15   7  11  1   
 16   8  12  ar  
 17   8  23  1   
 18   9  12  ar  
 19   9  24  1   
 20  10  13  1   
 21  10  14  1   
 22  10  25  1   
 23  11  15  1   
 24  11  26  1   
 25  11  27  1   
 26  12  28  1   
 27  13  16  1   
 28  13  29  1   
 29  13  30  1   
 30  14  17  1   
 31  14  31  1   
 32  14  32  1   
 33  15  33  1   
 34  15  34  1   
 35  15  35  1   
 36  16  17  1   
 37  16  36  1   
 38  16  37  1   
 39  17  38  1   
 40  17  39  1   
@<TRIPOS>SUBSTRUCTURE
  1 ****   3 GROUP 4 **** **** 0

# MOE 2024.06 (io_trps.svl 2023.06)
