@<TRIPOS>MOLECULE
NONAME
35 37 1 0 0 
SMALL
USER_CHARGES


@<TRIPOS>ATOM
  1 S        1.1390     0.1680     0.3300 S.3   1 <1>  -0.0800 
  2 C        2.0150     1.4250    -0.4790 C.2   1 <1>   0.4420 
  3 C       -0.3090     1.0900     0.0610 C.2   1 <1>   0.1980 
  4 N        1.2450     2.3750    -0.8680 N.2   1 <1>  -0.3380 
  5 N        3.3770     1.2540    -0.5990 N.am  1 <1>  -0.4940 
  6 N       -0.0720     2.1800    -0.5600 N.2   1 <1>  -0.3380 
  7 C       -1.6240     0.5000     0.5800 C.3   1 <1>   1.2000 
  8 C        4.3160     2.0620    -1.1770 C.2   1 <1>   0.5690 
  9 F       -2.6860     1.2620     0.3370 F     1 <1>  -0.3400 
 10 F       -1.8900    -0.6860     0.0410 F     1 <1>  -0.3400 
 11 F       -1.6030     0.3070     1.8960 F     1 <1>  -0.3400 
 12 O        4.0600     3.1150    -1.7020 O.2   1 <1>  -0.5700 
 13 C        5.7660     1.6010    -1.1540 C.3   1 <1>   0.1810 
 14 O        5.8900     0.3430    -0.5010 O.3   1 <1>  -0.3630 
 15 C        7.1000    -0.2570    -0.3660 C.ar  1 <1>   0.0830 
 16 C        7.1160    -1.4820     0.2870 C.ar  1 <1>  -0.1500 
 17 C        8.2930     0.2910    -0.8410 C.ar  1 <1>  -0.1500 
 18 C        8.3170    -2.1440     0.4570 C.ar  1 <1>  -0.1430 
 19 C        9.4910    -0.3840    -0.6640 C.ar  1 <1>  -0.1500 
 20 C        9.4880    -1.6020    -0.0110 C.ar  1 <1>  -0.1430 
 21 C        8.5580    -3.4720     1.1300 C.3   1 <1>  -0.0170 
 22 C       10.6640    -2.4980     0.2880 C.3   1 <1>  -0.0170 
 23 C       10.0890    -3.5250     1.2780 C.3   1 <1>  -0.1600 
 24 H        3.7640     0.3990    -0.2000 H     1 <1>   0.3700 
 25 H        6.3600     2.3230    -0.6230 H     1 <1>   0.0800 
 26 H        6.1230     1.5000    -2.1630 H     1 <1>   0.0800 
 27 H        6.2020    -1.9080     0.6550 H     1 <1>   0.1500 
 28 H        8.3170     1.2350    -1.3500 H     1 <1>   0.1500 
 29 H       10.4140     0.0330    -1.0280 H     1 <1>   0.1500 
 30 H        8.2110    -4.2650     0.4920 H     1 <1>   0.0800 
 31 H        8.0660    -3.5280     2.0850 H     1 <1>   0.0800 
 32 H       11.4820    -1.9470     0.7190 H     1 <1>   0.0800 
 33 H       10.9850    -2.9820    -0.6180 H     1 <1>   0.0800 
 34 H       10.4740    -4.5130     1.0990 H     1 <1>   0.0800 
 35 H       10.3490    -3.2230     2.2780 H     1 <1>   0.0800 
@<TRIPOS>BOND
  1   1   2  1   
  2   1   3  1   
  3   2   4  2   
  4   2   5  1   
  5   3   6  2   
  6   3   7  1   
  7   4   6  1   
  8   5   8  am  
  9   5  24  1   
 10   7   9  1   
 11   7  10  1   
 12   7  11  1   
 13   8  12  2   
 14   8  13  1   
 15  13  14  1   
 16  13  25  1   
 17  13  26  1   
 18  14  15  1   
 19  15  16  ar  
 20  15  17  ar  
 21  16  18  ar  
 22  16  27  1   
 23  17  19  ar  
 24  17  28  1   
 25  18  20  ar  
 26  18  21  1   
 27  19  20  ar  
 28  19  29  1   
 29  20  22  1   
 30  21  23  1   
 31  21  30  1   
 32  21  31  1   
 33  22  23  1   
 34  22  32  1   
 35  22  33  1   
 36  23  34  1   
 37  23  35  1   
@<TRIPOS>SUBSTRUCTURE
  1 ****   5 GROUP 4 **** **** 0

# MOE 2024.06 (io_trps.svl 2023.06)
