@<TRIPOS>MOLECULE
NONAME
43 44 1 0 0 
SMALL
USER_CHARGES


@<TRIPOS>ATOM
  1 S        0.0740     0.1430     0.4200 S.o2  1 <1>   1.4470 
  2 O       -0.1590    -0.1870     1.8120 O.2   1 <1>  -0.6500 
  3 O        0.3180    -0.9270    -0.5220 O.2   1 <1>  -0.6500 
  4 N       -1.3050     0.9750    -0.1110 N.am  1 <1>  -0.8490 
  5 C        1.3940     1.3810     0.2790 C.ar  1 <1>  -0.0090 
  6 C       -1.7180     2.0140     0.8380 C.3   1 <1>   0.1960 
  7 C       -2.4010     0.0490    -0.4090 C.3   1 <1>   0.1960 
  8 C        2.2820     1.6110     1.3230 C.ar  1 <1>  -0.1500 
  9 C        1.5510     2.1290    -0.8810 C.ar  1 <1>  -0.1500 
 10 C       -2.8710     2.8330     0.2560 C.3   1 <1>  -0.1600 
 11 C       -3.5880     0.8030    -1.0160 C.3   1 <1>  -0.1600 
 12 C        3.2870     2.5570     1.2160 C.ar  1 <1>  -0.1500 
 13 C        2.5530     3.0770    -0.9960 C.ar  1 <1>  -0.1500 
 14 C       -4.0710     1.9320    -0.0910 C.3   1 <1>  -0.0190 
 15 C        3.4280     3.2960     0.0540 C.ar  1 <1>  -0.1430 
 16 C       -5.2350     2.7090    -0.7220 C.2   1 <1>   0.5690 
 17 C        4.5270     4.3350    -0.0680 C.3   1 <1>  -0.0970 
 18 O       -4.9660     3.6350    -1.4520 O.2   1 <1>  -0.5700 
 19 N       -6.5440     2.3590    -0.4660 N.am  1 <1>  -0.6600 
 20 C       -7.6730     3.1810    -0.9900 C.3   1 <1>   0.0600 
 21 C       -6.9830     1.1680     0.3130 C.3   1 <1>   0.0600 
 22 H       -0.8900     2.6740     1.0380 H     1 <1>   0.0800 
 23 H       -2.0220     1.5640     1.7700 H     1 <1>   0.0800 
 24 H       -2.7020    -0.4610     0.4920 H     1 <1>   0.0800 
 25 H       -2.0680    -0.6910    -1.1180 H     1 <1>   0.0800 
 26 H        2.1870     1.0420     2.2330 H     1 <1>   0.1500 
 27 H        0.8760     1.9660    -1.7050 H     1 <1>   0.1500 
 28 H       -2.5210     3.3420    -0.6260 H     1 <1>   0.0800 
 29 H       -3.1750     3.5810     0.9660 H     1 <1>   0.0800 
 30 H       -4.3890     0.1120    -1.2020 H     1 <1>   0.0800 
 31 H       -3.2880     1.2170    -1.9630 H     1 <1>   0.0800 
 32 H        3.9590     2.7140     2.0420 H     1 <1>   0.1500 
 33 H        2.6470     3.6420    -1.9070 H     1 <1>   0.1500 
 34 H       -4.4090     1.5010     0.8330 H     1 <1>   0.0800 
 35 H        4.1580     5.2940     0.2470 H     1 <1>   0.0800 
 36 H        4.8630     4.4090    -1.0870 H     1 <1>   0.0800 
 37 H        5.3690     4.0680     0.5460 H     1 <1>   0.0800 
 38 H       -7.3150     4.0960    -1.4310 H     1 <1>   0.0800 
 39 H       -8.3450     3.4320    -0.1880 H     1 <1>   0.0800 
 40 H       -8.2080     2.6270    -1.7410 H     1 <1>   0.0800 
 41 H       -7.9060     0.7870    -0.0890 H     1 <1>   0.0800 
 42 H       -7.1380     1.4450     1.3410 H     1 <1>   0.0800 
 43 H       -6.2520     0.3820     0.2620 H     1 <1>   0.0800 
@<TRIPOS>BOND
  1   1   2  2   
  2   1   3  2   
  3   1   4  am  
  4   1   5  1   
  5   4   6  1   
  6   4   7  1   
  7   5   8  ar  
  8   5   9  ar  
  9   6  10  1   
 10   6  22  1   
 11   6  23  1   
 12   7  11  1   
 13   7  24  1   
 14   7  25  1   
 15   8  12  ar  
 16   8  26  1   
 17   9  13  ar  
 18   9  27  1   
 19  10  14  1   
 20  10  28  1   
 21  10  29  1   
 22  11  14  1   
 23  11  30  1   
 24  11  31  1   
 25  12  15  ar  
 26  12  32  1   
 27  13  15  ar  
 28  13  33  1   
 29  14  16  1   
 30  14  34  1   
 31  15  17  1   
 32  16  18  2   
 33  16  19  am  
 34  17  35  1   
 35  17  36  1   
 36  17  37  1   
 37  19  20  1   
 38  19  21  1   
 39  20  38  1   
 40  20  39  1   
 41  20  40  1   
 42  21  41  1   
 43  21  42  1   
 44  21  43  1   
@<TRIPOS>SUBSTRUCTURE
  1 ****   4 GROUP 4 **** **** 0

# MOE 2024.06 (io_trps.svl 2023.06)
