@<TRIPOS>MOLECULE
NONAME
32 33 1 0 0 
SMALL
USER_CHARGES


@<TRIPOS>ATOM
  1 O        0.5030    -0.6460    -1.5450 O.3   1 <1>  -0.3630 
  2 C       -0.5300    -0.9100    -0.7130 C.ar  1 <1>   0.0820 
  3 C        1.7890    -1.0500    -1.1210 C.3   1 <1>   0.1200 
  4 C       -1.0810    -2.1880    -0.6070 C.ar  1 <1>  -0.1440 
  5 C       -1.0320     0.1420     0.0350 C.ar  1 <1>  -0.1500 
  6 C        2.3110    -0.0770    -0.0650 C.3   1 <1>   0.0960 
  7 C       -2.1100    -2.4030     0.3080 C.ar  1 <1>  -0.1440 
  8 C       -0.5810    -3.3310    -1.4890 C.3   1 <1>  -0.0960 
  9 C       -2.0610    -0.0750     0.9290 C.ar  1 <1>  -0.1500 
 10 N        3.6820    -0.4530     0.3180 N.pl3 1 <1>   0.0480 
 11 C       -2.5900    -1.3450     1.0680 C.ar  1 <1>  -0.1500 
 12 C       -2.7420    -3.7750     0.5030 C.3   1 <1>  -0.0970 
 13 C        4.8440     0.0170    -0.1890 C.2   1 <1>   0.0360 
 14 C        4.0530    -1.3610     1.2380 C.2   1 <1>  -0.3020 
 15 N        5.9000    -0.5180     0.3330 N.2   1 <1>  -0.5650 
 16 C        5.4040    -1.3860     1.2340 C.2   1 <1>   0.0770 
 17 H        2.4270    -1.0430    -1.9870 H     1 <1>   0.0800 
 18 H        1.7290    -2.0490    -0.7250 H     1 <1>   0.0800 
 19 H       -0.6180     1.1260    -0.0870 H     1 <1>   0.1500 
 20 H        1.6910    -0.1120     0.8120 H     1 <1>   0.0800 
 21 H        2.3210     0.9230    -0.4590 H     1 <1>   0.0800 
 22 H       -0.0480    -2.9600    -2.3450 H     1 <1>   0.0800 
 23 H       -1.4060    -3.9110    -1.8600 H     1 <1>   0.0800 
 24 H        0.0710    -3.9730    -0.9250 H     1 <1>   0.0800 
 25 H       -2.4500     0.7390     1.5150 H     1 <1>   0.1500 
 26 H       -3.3880    -1.5020     1.7720 H     1 <1>   0.1500 
 27 H       -1.9810    -4.5200     0.6440 H     1 <1>   0.0800 
 28 H       -3.3320    -4.0310    -0.3580 H     1 <1>   0.0800 
 29 H       -3.3810    -3.7860     1.3670 H     1 <1>   0.0800 
 30 H        4.8700     0.7680    -0.9590 H     1 <1>   0.1500 
 31 H        3.3580    -1.9250     1.8330 H     1 <1>   0.1500 
 32 H        6.0560    -1.9930     1.8410 H     1 <1>   0.1500 
@<TRIPOS>BOND
  1   1   2  1   
  2   1   3  1   
  3   2   4  ar  
  4   2   5  ar  
  5   3   6  1   
  6   3  17  1   
  7   3  18  1   
  8   4   7  ar  
  9   4   8  1   
 10   5   9  ar  
 11   5  19  1   
 12   6  10  1   
 13   6  20  1   
 14   6  21  1   
 15   7  11  ar  
 16   7  12  1   
 17   8  22  1   
 18   8  23  1   
 19   8  24  1   
 20   9  11  ar  
 21   9  25  1   
 22  10  13  1   
 23  10  14  1   
 24  11  26  1   
 25  12  27  1   
 26  12  28  1   
 27  12  29  1   
 28  13  15  2   
 29  13  30  1   
 30  14  16  2   
 31  14  31  1   
 32  15  16  1   
 33  16  32  1   
@<TRIPOS>SUBSTRUCTURE
  1 ****   3 GROUP 4 **** **** 0

# MOE 2024.06 (io_trps.svl 2023.06)
