@<TRIPOS>MOLECULE
NONAME
31 32 1 0 0 
SMALL
USER_CHARGES


@<TRIPOS>ATOM
  1 O       -0.8980     0.4610     0.7980 O.2   1 <1>  -0.5700 
  2 C       -1.6380    -0.3590     0.3470 C.2   1 <1>   0.4480 
  3 C       -1.3430    -1.8540     0.4030 C.3   1 <1>  -0.0190 
  4 C       -2.9500     0.0510    -0.2990 C.3   1 <1>  -0.0990 
  5 C       -0.2330    -2.1960    -0.6110 C.3   1 <1>   0.3440 
  6 C       -2.6350    -2.6870     0.1950 C.3   1 <1>  -0.1600 
  7 C       -4.1560    -0.6430     0.3620 C.3   1 <1>  -0.1600 
  8 O       -0.1650    -3.5640    -0.8070 O.3   1 <1>  -0.6800 
  9 C        1.1600    -1.7440    -0.1840 C.ar  1 <1>  -0.1440 
 10 C       -3.8320    -2.0460     0.9090 C.3   1 <1>  -0.1600 
 11 C        1.7750    -0.6830    -0.8340 C.ar  1 <1>  -0.1500 
 12 C        1.8350    -2.3820     0.8490 C.ar  1 <1>  -0.1500 
 13 C        3.0440    -0.2720    -0.4640 C.ar  1 <1>  -0.1500 
 14 C        3.1040    -1.9720     1.2200 C.ar  1 <1>  -0.1500 
 15 C        3.7090    -0.9170     0.5630 C.ar  1 <1>  -0.1500 
 16 H       -0.9690    -2.0560     1.3910 H     1 <1>   0.0800 
 17 H       -2.9060    -0.2170    -1.3380 H     1 <1>   0.0800 
 18 H       -3.0630     1.1190    -0.2400 H     1 <1>   0.0800 
 19 H       -0.4780    -1.7620    -1.5660 H     1 <1>   0.0800 
 20 H       -2.4800    -3.6840     0.5720 H     1 <1>   0.0800 
 21 H       -2.8560    -2.7710    -0.8560 H     1 <1>   0.0800 
 22 H       -4.9500    -0.7120    -0.3620 H     1 <1>   0.0800 
 23 H       -4.5160    -0.0340     1.1740 H     1 <1>   0.0800 
 24 H        0.7310    -3.7740    -1.1360 H     1 <1>   0.4000 
 25 H       -3.6050    -1.9710     1.9600 H     1 <1>   0.0800 
 26 H       -4.6980    -2.6790     0.8130 H     1 <1>   0.0800 
 27 H        1.2680    -0.1640    -1.6290 H     1 <1>   0.1500 
 28 H        1.3720    -3.2030     1.3700 H     1 <1>   0.1500 
 29 H        3.5100     0.5540    -0.9710 H     1 <1>   0.1500 
 30 H        3.6170    -2.4730     2.0220 H     1 <1>   0.1500 
 31 H        4.6950    -0.5950     0.8520 H     1 <1>   0.1500 
@<TRIPOS>BOND
  1   1   2  2   
  2   2   3  1   
  3   2   4  1   
  4   3   5  1   
  5   3   6  1   
  6   3  16  1   
  7   4   7  1   
  8   4  17  1   
  9   4  18  1   
 10   5   8  1   
 11   5   9  1   
 12   5  19  1   
 13   6  10  1   
 14   6  20  1   
 15   6  21  1   
 16   7  10  1   
 17   7  22  1   
 18   7  23  1   
 19   8  24  1   
 20   9  11  ar  
 21   9  12  ar  
 22  10  25  1   
 23  10  26  1   
 24  11  13  ar  
 25  11  27  1   
 26  12  14  ar  
 27  12  28  1   
 28  13  15  ar  
 29  13  29  1   
 30  14  15  ar  
 31  14  30  1   
 32  15  31  1   
@<TRIPOS>SUBSTRUCTURE
  1 ****   5 GROUP 4 **** **** 0

# MOE 2024.06 (io_trps.svl 2023.06)
