@<TRIPOS>MOLECULE
NONAME
45 47 1 0 0 
SMALL
USER_CHARGES


@<TRIPOS>ATOM
  1 O       -2.6910    -1.7070    -1.3450 O.2   1 <1>  -0.5700 
  2 C       -2.5360    -1.1170    -0.3070 C.2   1 <1>   0.5690 
  3 N       -1.5690    -1.5050     0.5430 N.am  1 <1>  -0.8000 
  4 C       -3.4260     0.0710     0.0510 C.3   1 <1>  -0.0190 
  5 C       -4.9210    -0.2870    -0.0570 C.3   1 <1>  -0.1600 
  6 C       -3.1100     1.2890    -0.8370 C.3   1 <1>  -0.1600 
  7 C       -5.8140     0.9140     0.2640 C.3   1 <1>   0.1400 
  8 C       -4.0180     2.4790    -0.5100 C.3   1 <1>   0.1400 
  9 N       -5.4430     2.0630    -0.6100 N.am  1 <1>  -0.6600 
 10 C       -6.3350     2.7470    -1.4090 C.2   1 <1>   0.5690 
 11 O       -6.0030     3.7450    -2.0100 O.2   1 <1>  -0.5700 
 12 C       -7.7920     2.2820    -1.5840 C.3   1 <1>   0.2700 
 13 N       -8.6420     2.3430    -0.3320 N.pl3 1 <1>  -0.8380 
 14 C       -9.8090     1.5580    -0.2850 C.ar  1 <1>   0.1000 
 15 C       -8.6250     3.7090     0.2760 C.3   1 <1>   0.2090 
 16 C      -11.0240     2.0860     0.1590 C.ar  1 <1>  -0.1440 
 17 C       -9.7820     0.2180    -0.6670 C.ar  1 <1>  -0.1500 
 18 C       -9.7600     3.9020     1.2790 C.3   1 <1>  -0.1600 
 19 C      -12.1690     1.3060     0.1750 C.ar  1 <1>  -0.1500 
 20 C      -11.0950     3.5230     0.6420 C.3   1 <1>  -0.0170 
 21 C      -10.9240    -0.5600    -0.6500 C.ar  1 <1>  -0.1500 
 22 C      -12.1240    -0.0150    -0.2330 C.ar  1 <1>  -0.1500 
 23 H       -0.9780    -2.2980     0.2860 H     1 <1>   0.3700 
 24 H       -1.3680    -1.0560     1.4350 H     1 <1>   0.3700 
 25 H       -3.2250     0.3420     1.0720 H     1 <1>   0.0800 
 26 H       -5.1500    -1.0910     0.6190 H     1 <1>   0.0800 
 27 H       -5.1430    -0.6270    -1.0540 H     1 <1>   0.0800 
 28 H       -3.2430     1.0270    -1.8730 H     1 <1>   0.0800 
 29 H       -2.0840     1.5790    -0.7040 H     1 <1>   0.0800 
 30 H       -5.6860     1.2040     1.2920 H     1 <1>   0.0800 
 31 H       -6.8420     0.6310     0.1330 H     1 <1>   0.0800 
 32 H       -3.8060     3.2850    -1.1920 H     1 <1>   0.0800 
 33 H       -3.8250     2.8290     0.4890 H     1 <1>   0.0800 
 34 H       -7.7660     1.2830    -1.9730 H     1 <1>   0.0800 
 35 H       -8.2510     2.8990    -2.3350 H     1 <1>   0.0800 
 36 H       -8.7170     4.4440    -0.5060 H     1 <1>   0.0800 
 37 H       -7.6820     3.8630     0.7720 H     1 <1>   0.0800 
 38 H       -8.8590    -0.2320    -0.9730 H     1 <1>   0.1500 
 39 H       -9.7830     4.9260     1.6050 H     1 <1>   0.0800 
 40 H       -9.5780     3.2790     2.1370 H     1 <1>   0.0800 
 41 H      -13.1030     1.7220     0.5080 H     1 <1>   0.1500 
 42 H      -11.8840     3.6360     1.3640 H     1 <1>   0.0800 
 43 H      -11.3010     4.1660    -0.1960 H     1 <1>   0.0800 
 44 H      -10.8800    -1.5910    -0.9560 H     1 <1>   0.1500 
 45 H      -13.0160    -0.6150    -0.2200 H     1 <1>   0.1500 
@<TRIPOS>BOND
  1   1   2  2   
  2   2   3  am  
  3   2   4  1   
  4   3  23  1   
  5   3  24  1   
  6   4   5  1   
  7   4   6  1   
  8   4  25  1   
  9   5   7  1   
 10   5  26  1   
 11   5  27  1   
 12   6   8  1   
 13   6  28  1   
 14   6  29  1   
 15   7   9  1   
 16   7  30  1   
 17   7  31  1   
 18   8   9  1   
 19   8  32  1   
 20   8  33  1   
 21   9  10  am  
 22  10  11  2   
 23  10  12  1   
 24  12  13  1   
 25  12  34  1   
 26  12  35  1   
 27  13  14  1   
 28  13  15  1   
 29  14  16  ar  
 30  14  17  ar  
 31  15  18  1   
 32  15  36  1   
 33  15  37  1   
 34  16  19  ar  
 35  16  20  1   
 36  17  21  ar  
 37  17  38  1   
 38  18  20  1   
 39  18  39  1   
 40  18  40  1   
 41  19  22  ar  
 42  19  41  1   
 43  20  42  1   
 44  20  43  1   
 45  21  22  ar  
 46  21  44  1   
 47  22  45  1   
@<TRIPOS>SUBSTRUCTURE
  1 ****   7 GROUP 4 **** **** 0

# MOE 2024.06 (io_trps.svl 2023.06)
