@<TRIPOS>MOLECULE
NONAME
39 40 1 0 0 
SMALL
USER_CHARGES


@<TRIPOS>ATOM
  1 O        0.1930    -0.4950     0.0520 O.2   1 <1>  -0.5700 
  2 C        0.1300    -1.6800    -0.2270 C.2   1 <1>   0.7160 
  3 N        1.2980    -2.3160    -0.5660 N.am  1 <1>  -0.7300 
  4 C       -1.1210    -2.4320    -0.1950 C.2   1 <1>   0.2030 
  5 C        2.6330    -1.6770    -0.6550 C.3   1 <1>   0.1400 
  6 N       -2.3380    -1.9640    -0.4110 N.2   1 <1>  -0.7070 
  7 C       -1.1890    -3.8080     0.0730 C.2   1 <1>  -0.1500 
  8 C        3.3970    -1.8830     0.6510 C.3   1 <1>  -0.0170 
  9 N       -3.1650    -3.0060    -0.2820 N.pl3 1 <1>   0.3140 
 10 C       -2.4930    -4.1350     0.0080 C.2   1 <1>  -0.3020 
 11 C        4.7950    -1.2860     0.5440 C.ar  1 <1>  -0.1430 
 12 C       -4.6260    -2.8700    -0.4490 C.3   1 <1>   0.0960 
 13 C        5.8250    -1.9710    -0.0980 C.ar  1 <1>   0.0830 
 14 C        5.0400    -0.0360     1.0920 C.ar  1 <1>  -0.1500 
 15 C       -5.3410    -2.8560     0.9090 C.3   1 <1>  -0.2400 
 16 O        5.5400    -3.1890    -0.6330 O.3   1 <1>  -0.3630 
 17 C        7.0910    -1.3930    -0.1750 C.ar  1 <1>  -0.1500 
 18 C        6.2990     0.5320     1.0120 C.ar  1 <1>  -0.1500 
 19 C        6.5350    -3.9790    -1.2460 C.3   1 <1>   0.0400 
 20 C        7.3240    -0.1470     0.3790 C.ar  1 <1>  -0.1500 
 21 H        1.2510    -3.2880    -0.8680 H     1 <1>   0.3700 
 22 H        2.5250    -0.6220    -0.8450 H     1 <1>   0.0800 
 23 H        3.1830    -2.1090    -1.4740 H     1 <1>   0.0800 
 24 H       -0.3550    -4.4490     0.2930 H     1 <1>   0.1500 
 25 H        3.4720    -2.9330     0.8710 H     1 <1>   0.0800 
 26 H        2.8580    -1.4110     1.4530 H     1 <1>   0.0800 
 27 H       -2.9760    -5.0840     0.1520 H     1 <1>   0.1500 
 28 H       -4.9790    -3.6870    -1.0500 H     1 <1>   0.0800 
 29 H       -4.8190    -1.9500    -0.9720 H     1 <1>   0.0800 
 30 H        4.2490     0.5030     1.5850 H     1 <1>   0.1500 
 31 H       -5.1690    -3.7780     1.4360 H     1 <1>   0.0800 
 32 H       -6.3990    -2.7360     0.7630 H     1 <1>   0.0800 
 33 H       -4.9820    -2.0330     1.5030 H     1 <1>   0.0800 
 34 H        7.9060    -1.8930    -0.6610 H     1 <1>   0.1500 
 35 H        6.4790     1.5020     1.4410 H     1 <1>   0.1500 
 36 H        6.0810    -4.9000    -1.5650 H     1 <1>   0.0800 
 37 H        7.3100    -4.1830    -0.5290 H     1 <1>   0.0800 
 38 H        6.9250    -3.4500    -2.0970 H     1 <1>   0.0800 
 39 H        8.3030     0.2960     0.3170 H     1 <1>   0.1500 
@<TRIPOS>BOND
  1   1   2  2   
  2   2   3  am  
  3   2   4  1   
  4   3   5  1   
  5   3  21  1   
  6   4   6  2   
  7   4   7  1   
  8   5   8  1   
  9   5  22  1   
 10   5  23  1   
 11   6   9  1   
 12   7  10  2   
 13   7  24  1   
 14   8  11  1   
 15   8  25  1   
 16   8  26  1   
 17   9  10  1   
 18   9  12  1   
 19  10  27  1   
 20  11  13  ar  
 21  11  14  ar  
 22  12  15  1   
 23  12  28  1   
 24  12  29  1   
 25  13  16  1   
 26  13  17  ar  
 27  14  18  ar  
 28  14  30  1   
 29  15  31  1   
 30  15  32  1   
 31  15  33  1   
 32  16  19  1   
 33  17  20  ar  
 34  17  34  1   
 35  18  20  ar  
 36  18  35  1   
 37  19  36  1   
 38  19  37  1   
 39  19  38  1   
 40  20  39  1   
@<TRIPOS>SUBSTRUCTURE
  1 ****   3 GROUP 4 **** **** 0

# MOE 2024.06 (io_trps.svl 2023.06)
