@<TRIPOS>MOLECULE
NONAME
36 38 1 0 0 
SMALL
USER_CHARGES


@<TRIPOS>ATOM
  1 S        0.1020     0.2130    -0.7480 S.o2  1 <1>   1.4470 
  2 O       -0.4020    -1.0070    -0.1570 O.2   1 <1>  -0.6500 
  3 O        0.3920     0.2250    -2.1660 O.2   1 <1>  -0.6500 
  4 N        1.5400     0.6440     0.0450 N.am  1 <1>  -0.8490 
  5 C       -1.0250     1.5740    -0.3710 C.ar  1 <1>  -0.0090 
  6 C        2.2820     1.6860    -0.6730 C.3   1 <1>   0.1960 
  7 C        2.3910    -0.5250     0.2960 C.3   1 <1>   0.1960 
  8 C       -1.3870     1.8680     0.9370 C.ar  1 <1>   0.1900 
  9 C       -1.5650     2.3770    -1.3720 C.ar  1 <1>  -0.1500 
 10 C        3.4460     2.1800     0.1830 C.3   1 <1>  -0.1600 
 11 C        3.5710    -0.1310     1.1820 C.3   1 <1>  -0.1600 
 12 F       -0.9070     1.1480     1.9150 F     1 <1>  -0.1900 
 13 C       -2.2440     2.9030     1.2790 C.ar  1 <1>  -0.1500 
 14 C       -2.4200     3.4110    -1.0340 C.ar  1 <1>   0.1900 
 15 C        4.3530     1.0070     0.5470 C.3   1 <1>   0.5600 
 16 C       -2.7730     3.6930     0.2730 C.ar  1 <1>  -0.1500 
 17 F       -2.9120     4.1520    -1.9890 F     1 <1>  -0.1900 
 18 O        5.0040     0.5350    -0.5870 O.3   1 <1>  -0.5600 
 19 O        5.3570     1.4130     1.4110 O.3   1 <1>  -0.5600 
 20 C        6.2620     1.1050    -0.6680 C.3   1 <1>   0.1200 
 21 C        6.4630     1.7840     0.6730 C.3   1 <1>   0.1200 
 22 H        1.6300     2.5150    -0.8900 H     1 <1>   0.0800 
 23 H        2.6540     1.2960    -1.6080 H     1 <1>   0.0800 
 24 H        2.7450    -0.9310    -0.6390 H     1 <1>   0.0800 
 25 H        1.8270    -1.2900     0.8030 H     1 <1>   0.0800 
 26 H       -1.3260     2.2000    -2.4070 H     1 <1>   0.1500 
 27 H        3.0530     2.6160     1.0830 H     1 <1>   0.0800 
 28 H        3.9990     2.9290    -0.3500 H     1 <1>   0.0800 
 29 H        4.2190    -0.9740     1.3300 H     1 <1>   0.0800 
 30 H        3.1940     0.1840     2.1370 H     1 <1>   0.0800 
 31 H       -2.4870     3.0810     2.3120 H     1 <1>   0.1500 
 32 H       -3.4430     4.5070     0.4910 H     1 <1>   0.1500 
 33 H        6.2820     1.8090    -1.4800 H     1 <1>   0.0800 
 34 H        6.9850     0.3250    -0.8320 H     1 <1>   0.0800 
 35 H        7.3530     1.4460     1.1730 H     1 <1>   0.0800 
 36 H        6.4740     2.8560     0.5750 H     1 <1>   0.0800 
@<TRIPOS>BOND
  1   1   2  2   
  2   1   3  2   
  3   1   4  am  
  4   1   5  1   
  5   4   6  1   
  6   4   7  1   
  7   5   8  ar  
  8   5   9  ar  
  9   6  10  1   
 10   6  22  1   
 11   6  23  1   
 12   7  11  1   
 13   7  24  1   
 14   7  25  1   
 15   8  12  1   
 16   8  13  ar  
 17   9  14  ar  
 18   9  26  1   
 19  10  15  1   
 20  10  27  1   
 21  10  28  1   
 22  11  15  1   
 23  11  29  1   
 24  11  30  1   
 25  13  16  ar  
 26  13  31  1   
 27  14  16  ar  
 28  14  17  1   
 29  15  18  1   
 30  15  19  1   
 31  16  32  1   
 32  18  20  1   
 33  19  21  1   
 34  20  21  1   
 35  20  33  1   
 36  20  34  1   
 37  21  35  1   
 38  21  36  1   
@<TRIPOS>SUBSTRUCTURE
  1 ****   4 GROUP 4 **** **** 0

# MOE 2024.06 (io_trps.svl 2023.06)
