@<TRIPOS>MOLECULE
NONAME
42 43 1 0 0 
SMALL
USER_CHARGES


@<TRIPOS>ATOM
  1 CL      -0.2010     0.4810     0.2390 Cl    1 <1>  -0.1770 
  2 C        1.4530     1.0220     0.0940 C.ar  1 <1>   0.1770 
  3 C        1.7120     2.2840    -0.4070 C.ar  1 <1>  -0.1500 
  4 C        2.4770     0.1780     0.4830 C.ar  1 <1>  -0.1500 
  5 C        3.0250     2.7070    -0.5200 C.ar  1 <1>  -0.1500 
  6 C        3.7900     0.6050     0.3690 C.ar  1 <1>  -0.1500 
  7 C        4.0680     1.8760    -0.1350 C.ar  1 <1>   0.0830 
  8 O        5.3220     2.3710    -0.2800 O.3   1 <1>  -0.3630 
  9 C        6.4550     1.6170     0.0780 C.3   1 <1>   0.1200 
 10 C        7.6930     2.4660    -0.2110 C.3   1 <1>  -0.1600 
 11 C        8.9870     1.7250     0.1540 C.3   1 <1>  -0.1600 
 12 C       10.2170     2.5920    -0.1450 C.3   1 <1>  -0.1600 
 13 C       11.5070     1.8550     0.2180 C.3   1 <1>   0.3430 
 14 N       12.6980     2.6580    -0.1760 N.4   1 <1>  -0.9590 
 15 C       13.9450     1.8160    -0.1330 C.3   1 <1>   0.3430 
 16 C       12.8750     3.8870     0.6780 C.3   1 <1>   0.3430 
 17 C       15.2050     2.6510    -0.4340 C.3   1 <1>   0.1200 
 18 C       14.1840     4.6280     0.3430 C.3   1 <1>   0.1200 
 19 O       15.2710     3.7530     0.4230 O.3   1 <1>  -0.5600 
 20 H        0.8980     2.9210    -0.7030 H     1 <1>   0.1500 
 21 H        2.2450    -0.7970     0.8690 H     1 <1>   0.1500 
 22 H        3.2500     3.6850    -0.9080 H     1 <1>   0.1500 
 23 H        4.5750    -0.0600     0.6750 H     1 <1>   0.1500 
 24 H        6.4610     0.7150    -0.5110 H     1 <1>   0.0800 
 25 H        6.3870     1.3810     1.1260 H     1 <1>   0.0800 
 26 H        7.6240     3.3780     0.3580 H     1 <1>   0.0800 
 27 H        7.7010     2.7150    -1.2590 H     1 <1>   0.0800 
 28 H        9.0390     0.8090    -0.4120 H     1 <1>   0.0800 
 29 H        8.9640     1.4720     1.2010 H     1 <1>   0.0800 
 30 H       10.1380     3.5030     0.4220 H     1 <1>   0.0800 
 31 H       10.2230     2.8340    -1.1940 H     1 <1>   0.0800 
 32 H       11.5220     0.9100    -0.3020 H     1 <1>   0.0800 
 33 H       11.5300     1.6530     1.2780 H     1 <1>   0.0800 
 34 H       12.5690     2.9690    -1.1480 H     1 <1>   0.4500 
 35 H       13.8730     1.0120    -0.8460 H     1 <1>   0.0800 
 36 H       14.0570     1.3810     0.8470 H     1 <1>   0.0800 
 37 H       12.9030     3.6070     1.7180 H     1 <1>   0.0800 
 38 H       12.0450     4.5600     0.5390 H     1 <1>   0.0800 
 39 H       15.2090     3.0010    -1.4520 H     1 <1>   0.0800 
 40 H       16.0890     2.0590    -0.2720 H     1 <1>   0.0800 
 41 H       14.3520     5.4220     1.0500 H     1 <1>   0.0800 
 42 H       14.1520     5.0530    -0.6460 H     1 <1>   0.0800 
@<TRIPOS>BOND
  1   1   2  1   
  2   2   3  ar  
  3   2   4  ar  
  4   3   5  ar  
  5   3  20  1   
  6   4   6  ar  
  7   4  21  1   
  8   5   7  ar  
  9   5  22  1   
 10   6   7  ar  
 11   6  23  1   
 12   7   8  1   
 13   8   9  1   
 14   9  10  1   
 15   9  24  1   
 16   9  25  1   
 17  10  11  1   
 18  10  26  1   
 19  10  27  1   
 20  11  12  1   
 21  11  28  1   
 22  11  29  1   
 23  12  13  1   
 24  12  30  1   
 25  12  31  1   
 26  13  14  1   
 27  13  32  1   
 28  13  33  1   
 29  14  15  1   
 30  14  16  1   
 31  14  34  1   
 32  15  17  1   
 33  15  35  1   
 34  15  36  1   
 35  16  18  1   
 36  16  37  1   
 37  16  38  1   
 38  17  19  1   
 39  17  39  1   
 40  17  40  1   
 41  18  19  1   
 42  18  41  1   
 43  18  42  1   
@<TRIPOS>SUBSTRUCTURE
  1 ****  10 GROUP 4 **** **** 0

# MOE 2024.06 (io_trps.svl 2023.06)
