@<TRIPOS>MOLECULE
NONAME
45 47 1 0 0 
SMALL
USER_CHARGES


@<TRIPOS>ATOM
  1 I        1.6490     0.8960    -1.2790 I     1 <1>  -0.0810 
  2 C        2.0660    -1.1320    -0.7820 C.ar  1 <1>   0.0810 
  3 C        3.0260    -1.8080    -1.5030 C.ar  1 <1>  -0.1500 
  4 C        1.3640    -1.7180     0.2540 C.ar  1 <1>  -0.1500 
  5 C        3.3130    -3.1340    -1.1840 C.ar  1 <1>   0.0860 
  6 C        1.6390    -3.0350     0.5650 C.ar  1 <1>  -0.1500 
  7 C        2.5920    -3.7600    -0.1520 C.ar  1 <1>   0.1170 
  8 C        4.3230    -3.8610    -1.9150 C.2   1 <1>   0.5440 
  9 N        2.8570    -5.1020     0.1550 N.am  1 <1>  -0.5470 
 10 O        4.1440    -4.1090    -3.0930 O.2   1 <1>  -0.5700 
 11 N        5.4760    -4.3030    -1.3020 N.am  1 <1>  -0.6600 
 12 C        2.0960    -6.1210     0.6560 C.2   1 <1>   0.5440 
 13 C        6.1850    -3.4640    -0.2960 C.3   1 <1>   0.1400 
 14 C        6.2490    -5.4080    -1.9360 C.3   1 <1>   0.1400 
 15 O        2.7040    -7.0850     1.0650 O.2   1 <1>  -0.5700 
 16 C        0.6500    -6.0870     0.7020 C.ar  1 <1>   0.0860 
 17 C        6.0200    -4.0170     1.1240 C.3   1 <1>  -0.1600 
 18 C        7.1470    -6.1850    -0.9640 C.3   1 <1>  -0.1600 
 19 C       -0.1060    -5.5650    -0.3480 C.ar  1 <1>   0.1600 
 20 C       -0.0500    -6.5820     1.7950 C.ar  1 <1>  -0.1500 
 21 C        6.7770    -5.3230     1.4130 C.3   1 <1>  -0.1600 
 22 C        6.5240    -6.4630     0.4150 C.3   1 <1>  -0.1600 
 23 N       -1.4260    -5.4750    -0.3840 N.ar  1 <1>  -0.6200 
 24 C       -1.4260    -6.5060     1.7760 C.ar  1 <1>  -0.1500 
 25 C       -2.0580    -5.9480     0.6780 C.ar  1 <1>   0.1600 
 26 H        3.5520    -1.3270    -2.3090 H     1 <1>   0.1500 
 27 H        0.6240    -1.1590     0.8010 H     1 <1>   0.1500 
 28 H        1.1070    -3.4990     1.3760 H     1 <1>   0.1500 
 29 H        3.8250    -5.4010    -0.0190 H     1 <1>   0.3700 
 30 H        5.7890    -2.4630    -0.3290 H     1 <1>   0.0800 
 31 H        7.2300    -3.4010    -0.5480 H     1 <1>   0.0800 
 32 H        6.8440    -5.0040    -2.7370 H     1 <1>   0.0800 
 33 H        5.5480    -6.0990    -2.3740 H     1 <1>   0.0800 
 34 H        4.9790    -4.1450     1.3460 H     1 <1>   0.0800 
 35 H        6.3850    -3.2730     1.8090 H     1 <1>   0.0800 
 36 H        8.0840    -5.6690    -0.8500 H     1 <1>   0.0800 
 37 H        7.3750    -7.1270    -1.4300 H     1 <1>   0.0800 
 38 H        0.4210    -5.1970    -1.2130 H     1 <1>   0.1500 
 39 H        0.4770    -7.0140     2.6280 H     1 <1>   0.1500 
 40 H        6.4920    -5.6630     2.3940 H     1 <1>   0.0800 
 41 H        7.8340    -5.1170     1.4480 H     1 <1>   0.0800 
 42 H        6.9830    -7.3510     0.8140 H     1 <1>   0.0800 
 43 H        5.4710    -6.6670     0.3250 H     1 <1>   0.0800 
 44 H       -2.0070    -6.8760     2.6010 H     1 <1>   0.1500 
 45 H       -3.1340    -5.8900     0.6710 H     1 <1>   0.1500 
@<TRIPOS>BOND
  1   1   2  1   
  2   2   3  ar  
  3   2   4  ar  
  4   3   5  ar  
  5   3  26  1   
  6   4   6  ar  
  7   4  27  1   
  8   5   7  ar  
  9   5   8  1   
 10   6   7  ar  
 11   6  28  1   
 12   7   9  1   
 13   8  10  2   
 14   8  11  am  
 15   9  12  am  
 16   9  29  1   
 17  11  13  1   
 18  11  14  1   
 19  12  15  2   
 20  12  16  1   
 21  13  17  1   
 22  13  30  1   
 23  13  31  1   
 24  14  18  1   
 25  14  32  1   
 26  14  33  1   
 27  16  19  ar  
 28  16  20  ar  
 29  17  21  1   
 30  17  34  1   
 31  17  35  1   
 32  18  22  1   
 33  18  36  1   
 34  18  37  1   
 35  19  23  ar  
 36  19  38  1   
 37  20  24  ar  
 38  20  39  1   
 39  21  22  1   
 40  21  40  1   
 41  21  41  1   
 42  22  42  1   
 43  22  43  1   
 44  23  25  ar  
 45  24  25  ar  
 46  24  44  1   
 47  25  45  1   
@<TRIPOS>SUBSTRUCTURE
  1 ****   9 GROUP 4 **** **** 0

# MOE 2024.06 (io_trps.svl 2023.06)
