@<TRIPOS>MOLECULE
NONAME
35 36 1 0 0 
SMALL
USER_CHARGES


@<TRIPOS>ATOM
  1 S        0.1220    -0.8240    -0.7490 S.3   1 <1>  -0.0800 
  2 C        1.3020    -0.2160     0.3510 C.2   1 <1>   0.4340 
  3 C       -0.9370     0.4030    -0.1230 C.2   1 <1>   0.4420 
  4 S        2.8960    -1.0150     0.3570 S.3   1 <1>  -0.2860 
  5 N        0.9150     0.7620     1.0600 N.2   1 <1>  -0.3380 
  6 N       -0.3780     1.1210     0.7860 N.2   1 <1>  -0.3380 
  7 N       -2.2070     0.4520    -0.6640 N.am  1 <1>  -0.4940 
  8 C        3.7910    -0.1230     1.7180 C.3   1 <1>   0.1310 
  9 C       -3.2280     1.3100    -0.3800 C.2   1 <1>   0.5690 
 10 C        5.2620    -0.5130     1.7520 C.2   1 <1>   0.5690 
 11 O       -3.1550     2.2000     0.4230 O.2   1 <1>  -0.5700 
 12 C       -4.5220     1.1180    -1.1300 C.3   1 <1>  -0.1790 
 13 O        5.6360    -1.1460     2.7130 O.2   1 <1>  -0.5700 
 14 N        6.1300    -0.1440     0.7500 N.am  1 <1>  -0.6600 
 15 C        5.7270     0.6760    -0.4350 C.3   1 <1>   0.1400 
 16 C        7.5520    -0.6050     0.7990 C.3   1 <1>   0.1400 
 17 C        6.9240     1.4580    -0.9860 C.3   1 <1>  -0.1600 
 18 C        8.1170    -0.7750    -0.6150 C.3   1 <1>  -0.1600 
 19 C        8.0730     0.5330    -1.4240 C.3   1 <1>  -0.1600 
 20 H       -2.4020    -0.2500    -1.3710 H     1 <1>   0.3700 
 21 H        3.3110    -0.3990     2.6390 H     1 <1>   0.0800 
 22 H        3.6730     0.9320     1.5570 H     1 <1>   0.0800 
 23 H       -4.9210     0.1410    -0.9310 H     1 <1>   0.0800 
 24 H       -4.3570     1.2360    -2.1840 H     1 <1>   0.0800 
 25 H       -5.2370     1.8540    -0.8080 H     1 <1>   0.0800 
 26 H        4.9530     1.3710    -0.1640 H     1 <1>   0.0800 
 27 H        5.3440     0.0200    -1.1990 H     1 <1>   0.0800 
 28 H        7.6150    -1.5450     1.3210 H     1 <1>   0.0800 
 29 H        8.1350     0.1180     1.3420 H     1 <1>   0.0800 
 30 H        7.2720     2.1250    -0.2170 H     1 <1>   0.0800 
 31 H        6.6100     2.0610    -1.8190 H     1 <1>   0.0800 
 32 H        7.5380    -1.5310    -1.1170 H     1 <1>   0.0800 
 33 H        9.1310    -1.1310    -0.5590 H     1 <1>   0.0800 
 34 H        9.0030     1.0620    -1.3090 H     1 <1>   0.0800 
 35 H        7.9650     0.2880    -2.4670 H     1 <1>   0.0800 
@<TRIPOS>BOND
  1   1   2  1   
  2   1   3  1   
  3   2   4  1   
  4   2   5  2   
  5   3   6  2   
  6   3   7  1   
  7   4   8  1   
  8   5   6  1   
  9   7   9  am  
 10   7  20  1   
 11   8  10  1   
 12   8  21  1   
 13   8  22  1   
 14   9  11  2   
 15   9  12  1   
 16  10  13  2   
 17  10  14  am  
 18  12  23  1   
 19  12  24  1   
 20  12  25  1   
 21  14  15  1   
 22  14  16  1   
 23  15  17  1   
 24  15  26  1   
 25  15  27  1   
 26  16  18  1   
 27  16  28  1   
 28  16  29  1   
 29  17  19  1   
 30  17  30  1   
 31  17  31  1   
 32  18  19  1   
 33  18  32  1   
 34  18  33  1   
 35  19  34  1   
 36  19  35  1   
@<TRIPOS>SUBSTRUCTURE
  1 ****   2 GROUP 4 **** **** 0

# MOE 2024.06 (io_trps.svl 2023.06)
