@<TRIPOS>MOLECULE
NONAME
49 50 1 0 0 
SMALL
USER_CHARGES


@<TRIPOS>ATOM
  1 S        0.5530    -1.8780     1.3750 S.o2  1 <1>   1.3330 
  2 O        1.6990    -2.7620     1.3300 O.2   1 <1>  -0.6500 
  3 O       -0.5140    -2.1700     2.3010 O.2   1 <1>  -0.6500 
  4 N       -0.0280    -1.7170    -0.2160 N.am  1 <1>  -0.8490 
  5 C        1.1040    -0.2250     1.7460 C.3   1 <1>  -0.1350 
  6 C       -1.3550    -2.2570    -0.5500 C.3   1 <1>   0.2760 
  7 C        0.9720    -2.0480    -1.2740 C.3   1 <1>   0.2570 
  8 C       -2.4910    -1.4100     0.0430 C.3   1 <1>  -0.1600 
  9 C       -1.5160    -3.7550    -0.2360 C.3   1 <1>  -0.1600 
 10 C        2.2380    -1.1780    -1.3130 C.2   1 <1>   0.5690 
 11 C       -3.8570    -1.9280    -0.4320 C.3   1 <1>  -0.1600 
 12 C       -2.8880    -4.2610    -0.7070 C.3   1 <1>  -0.1600 
 13 O        2.2380    -0.1990    -2.0190 O.2   1 <1>  -0.5700 
 14 N        3.3050    -1.5510    -0.5400 N.am  1 <1>  -0.5470 
 15 C       -4.0250    -3.4200    -0.1100 C.3   1 <1>  -0.1600 
 16 C        4.5590    -0.9630    -0.3280 C.ar  1 <1>   0.1170 
 17 C        5.1480    -0.0750    -1.2210 C.ar  1 <1>  -0.1500 
 18 C        5.2500    -1.2920     0.8320 C.ar  1 <1>  -0.1500 
 19 C        6.3900     0.4790    -0.9620 C.ar  1 <1>  -0.1440 
 20 C        6.4930    -0.7490     1.1040 C.ar  1 <1>  -0.1440 
 21 C        7.0590     0.1370     0.2020 C.ar  1 <1>  -0.1500 
 22 C        7.0210     1.4490    -1.9440 C.3   1 <1>  -0.0970 
 23 C        7.2420    -1.1120     2.3730 C.3   1 <1>  -0.0970 
 24 H        1.8560     0.0990     1.0550 H     1 <1>   0.0800 
 25 H        1.5120    -0.1890     2.7370 H     1 <1>   0.0800 
 26 H        0.2770     0.4550     1.6930 H     1 <1>   0.0800 
 27 H       -1.4780    -2.1590    -1.6160 H     1 <1>   0.0800 
 28 H        0.5130    -1.9390    -2.2400 H     1 <1>   0.0800 
 29 H        1.2670    -3.0790    -1.1780 H     1 <1>   0.0800 
 30 H       -2.3710    -0.3870    -0.2640 H     1 <1>   0.0800 
 31 H       -2.4800    -1.4450     1.1150 H     1 <1>   0.0800 
 32 H       -1.4460    -3.9290     0.8220 H     1 <1>   0.0800 
 33 H       -0.7460    -4.3220    -0.7250 H     1 <1>   0.0800 
 34 H       -3.9490    -1.7790    -1.4950 H     1 <1>   0.0800 
 35 H       -4.6400    -1.3660     0.0470 H     1 <1>   0.0800 
 36 H       -3.0110    -5.2890    -0.4140 H     1 <1>   0.0800 
 37 H       -2.9390    -4.2170    -1.7820 H     1 <1>   0.0800 
 38 H        3.0880    -2.3100     0.1210 H     1 <1>   0.3700 
 39 H       -4.9700    -3.7660    -0.4930 H     1 <1>   0.0800 
 40 H       -4.0380    -3.5510     0.9600 H     1 <1>   0.0800 
 41 H        4.6350     0.1850    -2.1280 H     1 <1>   0.1500 
 42 H        4.8050    -1.9810     1.5270 H     1 <1>   0.1500 
 43 H        8.0250     0.5630     0.4070 H     1 <1>   0.1500 
 44 H        6.2730     1.8780    -2.5870 H     1 <1>   0.0800 
 45 H        7.7440     0.9340    -2.5500 H     1 <1>   0.0800 
 46 H        7.5120     2.2460    -1.4160 H     1 <1>   0.0800 
 47 H        6.6810    -1.8110     2.9660 H     1 <1>   0.0800 
 48 H        7.4170    -0.2280     2.9590 H     1 <1>   0.0800 
 49 H        8.1880    -1.5570     2.1230 H     1 <1>   0.0800 
@<TRIPOS>BOND
  1   1   2  2   
  2   1   3  2   
  3   1   4  am  
  4   1   5  1   
  5   4   6  1   
  6   4   7  1   
  7   5  24  1   
  8   5  25  1   
  9   5  26  1   
 10   6   8  1   
 11   6   9  1   
 12   6  27  1   
 13   7  10  1   
 14   7  28  1   
 15   7  29  1   
 16   8  11  1   
 17   8  30  1   
 18   8  31  1   
 19   9  12  1   
 20   9  32  1   
 21   9  33  1   
 22  10  13  2   
 23  10  14  am  
 24  11  15  1   
 25  11  34  1   
 26  11  35  1   
 27  12  15  1   
 28  12  36  1   
 29  12  37  1   
 30  14  16  1   
 31  14  38  1   
 32  15  39  1   
 33  15  40  1   
 34  16  17  ar  
 35  16  18  ar  
 36  17  19  ar  
 37  17  41  1   
 38  18  20  ar  
 39  18  42  1   
 40  19  21  ar  
 41  19  22  1   
 42  20  21  ar  
 43  20  23  1   
 44  21  43  1   
 45  22  44  1   
 46  22  45  1   
 47  22  46  1   
 48  23  47  1   
 49  23  48  1   
 50  23  49  1   
@<TRIPOS>SUBSTRUCTURE
  1 ****  10 GROUP 4 **** **** 0

# MOE 2024.06 (io_trps.svl 2023.06)
