@<TRIPOS>MOLECULE
NONAME
37 38 1 0 0 
SMALL
USER_CHARGES


@<TRIPOS>ATOM
  1 O       -0.7210     1.3610     2.2960 O.2   1 <1>  -0.5700 
  2 C       -0.5640     2.3230     1.5750 C.2   1 <1>   0.5690 
  3 N        0.1540     2.2040     0.4090 N.am  1 <1>  -0.6600 
  4 C       -1.1880     3.6510     2.0540 C.3   1 <1>   0.2610 
  5 C        0.3630     3.2460    -0.6240 C.3   1 <1>   0.1400 
  6 C        0.7820     0.9290     0.0030 C.3   1 <1>   0.1400 
  7 O       -1.9030     4.3380     1.0370 O.3   1 <1>  -0.3630 
  8 C       -0.1440     4.6260     2.6120 C.3   1 <1>  -0.2400 
  9 C        1.0160     2.5170    -1.7940 C.3   1 <1>  -0.1600 
 10 C        1.6820     1.2940    -1.1700 C.3   1 <1>  -0.1600 
 11 C       -3.0400     3.8350     0.4860 C.ar  1 <1>   0.0820 
 12 C       -3.6550     2.6540     0.8950 C.ar  1 <1>  -0.1500 
 13 C       -3.5980     4.5690    -0.5490 C.ar  1 <1>  -0.1500 
 14 C       -4.8080     2.2150     0.2660 C.ar  1 <1>  -0.1500 
 15 C       -4.7500     4.1310    -1.1760 C.ar  1 <1>  -0.1500 
 16 C       -5.3620     2.9540    -0.7770 C.ar  1 <1>   0.0820 
 17 O       -6.4880     2.5920    -1.4460 O.3   1 <1>  -0.3630 
 18 C       -7.1710     1.4010    -1.1270 C.3   1 <1>   0.0400 
 19 H       -1.8880     3.4320     2.8400 H     1 <1>   0.0800 
 20 H        1.0250     4.0030    -0.2390 H     1 <1>   0.0800 
 21 H       -0.5680     3.6910    -0.9280 H     1 <1>   0.0800 
 22 H        0.0110     0.2450    -0.3070 H     1 <1>   0.0800 
 23 H        1.3400     0.4980     0.8180 H     1 <1>   0.0800 
 24 H        0.5590     4.9050     1.8500 H     1 <1>   0.0800 
 25 H        0.3930     4.1560     3.4160 H     1 <1>   0.0800 
 26 H       -0.6300     5.5060     2.9920 H     1 <1>   0.0800 
 27 H        1.7150     3.1450    -2.3170 H     1 <1>   0.0800 
 28 H        0.2470     2.2030    -2.4780 H     1 <1>   0.0800 
 29 H        1.7810     0.4800    -1.8660 H     1 <1>   0.0800 
 30 H        2.6550     1.5580    -0.7950 H     1 <1>   0.0800 
 31 H       -3.2570     2.0580     1.6940 H     1 <1>   0.1500 
 32 H       -3.1260     5.4830    -0.8600 H     1 <1>   0.1500 
 33 H       -5.2560     1.3000     0.6000 H     1 <1>   0.1500 
 34 H       -5.1830     4.6990    -1.9790 H     1 <1>   0.1500 
 35 H       -8.0180     1.3170    -1.7840 H     1 <1>   0.0800 
 36 H       -7.5050     1.4530    -0.1050 H     1 <1>   0.0800 
 37 H       -6.5080     0.5680    -1.2760 H     1 <1>   0.0800 
@<TRIPOS>BOND
  1   1   2  2   
  2   2   3  am  
  3   2   4  1   
  4   3   5  1   
  5   3   6  1   
  6   4   7  1   
  7   4   8  1   
  8   4  19  1   
  9   5   9  1   
 10   5  20  1   
 11   5  21  1   
 12   6  10  1   
 13   6  22  1   
 14   6  23  1   
 15   7  11  1   
 16   8  24  1   
 17   8  25  1   
 18   8  26  1   
 19   9  10  1   
 20   9  27  1   
 21   9  28  1   
 22  10  29  1   
 23  10  30  1   
 24  11  12  ar  
 25  11  13  ar  
 26  12  14  ar  
 27  12  31  1   
 28  13  15  ar  
 29  13  32  1   
 30  14  16  ar  
 31  14  33  1   
 32  15  16  ar  
 33  15  34  1   
 34  16  17  1   
 35  17  18  1   
 36  18  35  1   
 37  18  36  1   
 38  18  37  1   
@<TRIPOS>SUBSTRUCTURE
  1 ****  11 GROUP 4 **** **** 0

# MOE 2024.06 (io_trps.svl 2023.06)
