@<TRIPOS>MOLECULE
NONAME
35 35 1 0 0 
SMALL
USER_CHARGES


@<TRIPOS>ATOM
  1 S        0.6690     1.1600     0.7450 S.3   1 <1>  -0.3320 
  2 C       -1.1320     1.2720     0.7520 C.ar  1 <1>   0.1020 
  3 C        1.2210     0.8780    -1.0130 C.3   1 <1>   0.2110 
  4 C       -1.9050     1.0670    -0.3810 C.ar  1 <1>  -0.1500 
  5 C       -1.7250     1.5740     1.9650 C.ar  1 <1>  -0.1500 
  6 C        2.6340     0.2840    -1.0430 C.2   1 <1>   0.5690 
  7 C        1.1380     2.2280    -1.7380 C.3   1 <1>  -0.2400 
  8 C       -3.2830     1.1710    -0.2910 C.ar  1 <1>  -0.1500 
  9 C       -3.1030     1.6770     2.0500 C.ar  1 <1>  -0.1500 
 10 O        2.9610    -0.3470    -2.0200 O.2   1 <1>  -0.5700 
 11 N        3.4670     0.4970     0.0150 N.am  1 <1>  -0.7300 
 12 C       -3.8800     1.4760     0.9210 C.ar  1 <1>  -0.1500 
 13 C        4.8440     0.0460     0.2240 C.3   1 <1>   0.3000 
 14 C        5.2750     0.5840     1.5870 C.3   1 <1>  -0.2400 
 15 C        4.8870    -1.4820     0.2370 C.3   1 <1>  -0.2400 
 16 C        5.7470     0.6210    -0.8660 C.3   1 <1>  -0.2400 
 17 H        0.5510     0.1590    -1.4450 H     1 <1>   0.0800 
 18 H       -1.4660     0.8280    -1.3290 H     1 <1>   0.1500 
 19 H       -1.1120     1.7280     2.8350 H     1 <1>   0.1500 
 20 H        1.8140     2.9310    -1.2850 H     1 <1>   0.0800 
 21 H        0.1410     2.6260    -1.6940 H     1 <1>   0.0800 
 22 H        1.4150     2.1020    -2.7690 H     1 <1>   0.0800 
 23 H       -3.8930     1.0150    -1.1640 H     1 <1>   0.1500 
 24 H       -3.5680     1.9120     2.9910 H     1 <1>   0.1500 
 25 H        3.0680     0.9800     0.8210 H     1 <1>   0.3700 
 26 H       -4.9510     1.5560     0.9870 H     1 <1>   0.1500 
 27 H        4.6410     0.1970     2.3640 H     1 <1>   0.0800 
 28 H        5.2340     1.6590     1.5980 H     1 <1>   0.0800 
 29 H        6.2850     0.2850     1.7990 H     1 <1>   0.0800 
 30 H        5.8810    -1.8230     0.4640 H     1 <1>   0.0800 
 31 H        4.6130    -1.8770    -0.7240 H     1 <1>   0.0800 
 32 H        4.2140    -1.8720     0.9790 H     1 <1>   0.0800 
 33 H        6.7710     0.3570    -0.6770 H     1 <1>   0.0800 
 34 H        5.6690     1.6930    -0.8930 H     1 <1>   0.0800 
 35 H        5.4760     0.2280    -1.8290 H     1 <1>   0.0800 
@<TRIPOS>BOND
  1   1   2  1   
  2   1   3  1   
  3   2   4  ar  
  4   2   5  ar  
  5   3   6  1   
  6   3   7  1   
  7   3  17  1   
  8   4   8  ar  
  9   4  18  1   
 10   5   9  ar  
 11   5  19  1   
 12   6  10  2   
 13   6  11  am  
 14   7  20  1   
 15   7  21  1   
 16   7  22  1   
 17   8  12  ar  
 18   8  23  1   
 19   9  12  ar  
 20   9  24  1   
 21  11  13  1   
 22  11  25  1   
 23  12  26  1   
 24  13  14  1   
 25  13  15  1   
 26  13  16  1   
 27  14  27  1   
 28  14  28  1   
 29  14  29  1   
 30  15  30  1   
 31  15  31  1   
 32  15  32  1   
 33  16  33  1   
 34  16  34  1   
 35  16  35  1   
@<TRIPOS>SUBSTRUCTURE
  1 ****   1 GROUP 4 **** **** 0

# MOE 2024.06 (io_trps.svl 2023.06)
