@<TRIPOS>MOLECULE
NONAME
44 46 1 0 0 
SMALL
USER_CHARGES


@<TRIPOS>ATOM
  1 O       -0.1840     0.9790     1.5930 O.2   1 <1>  -0.5700 
  2 C       -0.1950     1.5860     0.5390 C.2   1 <1>   0.6900 
  3 N       -1.3540     2.1290     0.0310 N.am  1 <1>  -0.4770 
  4 N        0.9540     1.7400    -0.1700 N.am  1 <1>  -0.7300 
  5 C       -2.6160     1.4820     0.0480 C.ar  1 <1>   0.1170 
  6 C       -1.2990     3.5410    -0.4300 C.3   1 <1>   0.1400 
  7 C        2.2660     1.1960     0.2100 C.3   1 <1>   0.2200 
  8 C       -3.8040     2.2060    -0.0990 C.ar  1 <1>  -0.1430 
  9 C       -2.7120     0.1000     0.1960 C.ar  1 <1>  -0.1500 
 10 C       -2.4660     4.3270     0.1640 C.3   1 <1>  -0.1600 
 11 C        3.3210     2.2950     0.0470 C.3   1 <1>  -0.1600 
 12 C        2.5780    -0.0130    -0.6780 C.3   1 <1>  -0.1600 
 13 C       -5.0280     1.5560    -0.0920 C.ar  1 <1>  -0.1500 
 14 C       -3.7950     3.7170    -0.2850 C.3   1 <1>  -0.0170 
 15 C       -3.9350    -0.5430     0.2040 C.ar  1 <1>  -0.1500 
 16 C        4.7320     1.7550     0.3270 C.3   1 <1>  -0.1600 
 17 C        3.9880    -0.5560    -0.4000 C.3   1 <1>  -0.1600 
 18 C       -5.1040     0.1820     0.0620 C.ar  1 <1>  -0.1430 
 19 C        5.0480     0.5420    -0.5590 C.3   1 <1>  -0.1600 
 20 C       -6.4500    -0.5180     0.0700 C.3   1 <1>  -0.0970 
 21 H        0.8680     2.0490    -1.1330 H     1 <1>   0.3700 
 22 H       -1.3480     3.5590    -1.5040 H     1 <1>   0.0800 
 23 H       -0.3750     3.9950    -0.1170 H     1 <1>   0.0800 
 24 H        2.2450     0.8810     1.2410 H     1 <1>   0.0800 
 25 H       -1.8200    -0.4880     0.3090 H     1 <1>   0.1500 
 26 H       -2.4130     5.3540    -0.1480 H     1 <1>   0.0800 
 27 H       -2.3970     4.2980     1.2380 H     1 <1>   0.0800 
 28 H        3.1060     3.0970     0.7310 H     1 <1>   0.0800 
 29 H        3.2880     2.6810    -0.9560 H     1 <1>   0.0800 
 30 H        2.5100     0.2710    -1.7130 H     1 <1>   0.0800 
 31 H        1.8550    -0.7860    -0.4870 H     1 <1>   0.0800 
 32 H       -5.9340     2.1230    -0.2070 H     1 <1>   0.1500 
 33 H       -4.5980     4.1610     0.2770 H     1 <1>   0.0800 
 34 H       -3.9550     3.9320    -1.3260 H     1 <1>   0.0800 
 35 H       -3.9700    -1.6110     0.3230 H     1 <1>   0.1500 
 36 H        4.8030     1.4670     1.3620 H     1 <1>   0.0800 
 37 H        5.4580     2.5310     0.1500 H     1 <1>   0.0800 
 38 H        4.2020    -1.3670    -1.0750 H     1 <1>   0.0800 
 39 H        4.0260    -0.9450     0.6040 H     1 <1>   0.0800 
 40 H        6.0160     0.1490    -0.2990 H     1 <1>   0.0800 
 41 H        5.0860     0.8530    -1.5890 H     1 <1>   0.0800 
 42 H       -7.1980     0.1160     0.5110 H     1 <1>   0.0800 
 43 H       -6.3980    -1.4280     0.6400 H     1 <1>   0.0800 
 44 H       -6.7430    -0.7540    -0.9370 H     1 <1>   0.0800 
@<TRIPOS>BOND
  1   1   2  2   
  2   2   3  am  
  3   2   4  am  
  4   3   5  1   
  5   3   6  1   
  6   4   7  1   
  7   4  21  1   
  8   5   8  ar  
  9   5   9  ar  
 10   6  10  1   
 11   6  22  1   
 12   6  23  1   
 13   7  11  1   
 14   7  12  1   
 15   7  24  1   
 16   8  13  ar  
 17   8  14  1   
 18   9  15  ar  
 19   9  25  1   
 20  10  14  1   
 21  10  26  1   
 22  10  27  1   
 23  11  16  1   
 24  11  28  1   
 25  11  29  1   
 26  12  17  1   
 27  12  30  1   
 28  12  31  1   
 29  13  18  ar  
 30  13  32  1   
 31  14  33  1   
 32  14  34  1   
 33  15  18  ar  
 34  15  35  1   
 35  16  19  1   
 36  16  36  1   
 37  16  37  1   
 38  17  19  1   
 39  17  38  1   
 40  17  39  1   
 41  18  20  1   
 42  19  40  1   
 43  19  41  1   
 44  20  42  1   
 45  20  43  1   
 46  20  44  1   
@<TRIPOS>SUBSTRUCTURE
  1 ****   2 GROUP 4 **** **** 0

# MOE 2024.06 (io_trps.svl 2023.06)
