@<TRIPOS>MOLECULE
NONAME
43 45 1 0 0 
SMALL
USER_CHARGES


@<TRIPOS>ATOM
  1 CL      -0.4090     2.2100     2.2960 Cl    1 <1>  -0.1770 
  2 C       -1.9060     2.5240     1.4570 C.ar  1 <1>   0.1770 
  3 C       -1.9250     3.0270     0.1650 C.ar  1 <1>  -0.0090 
  4 C       -3.0750     2.2530     2.1450 C.ar  1 <1>  -0.1500 
  5 S       -0.3950     3.3900    -0.7270 S.o2  1 <1>   1.4470 
  6 C       -3.1680     3.2500    -0.4160 C.ar  1 <1>  -0.1500 
  7 C       -4.2970     2.4850     1.5430 C.ar  1 <1>  -0.1500 
  8 O        0.4600     2.2240    -0.7070 O.2   1 <1>  -0.6500 
  9 O       -0.7210     3.9800    -2.0080 O.2   1 <1>  -0.6500 
 10 N        0.3210     4.6130     0.2040 N.am  1 <1>  -0.8490 
 11 C       -4.3710     2.9860     0.2420 C.ar  1 <1>   0.0860 
 12 C        1.7730     4.6640     0.0150 C.3   1 <1>   0.1960 
 13 C       -0.2940     5.9240    -0.0260 C.3   1 <1>   0.1960 
 14 C       -5.6440     3.2340    -0.4080 C.2   1 <1>   0.5440 
 15 C        2.4020     5.6550     1.0010 C.3   1 <1>  -0.1600 
 16 C        0.2550     6.9470     0.9730 C.3   1 <1>  -0.1600 
 17 O       -5.7710     4.1860    -1.1490 O.2   1 <1>  -0.5700 
 18 N       -6.6960     2.3730    -0.2000 N.am  1 <1>  -0.5470 
 19 C        1.7810     7.0510     0.8770 C.3   1 <1>  -0.1600 
 20 C       -8.0400     2.4450    -0.6110 C.ar  1 <1>   0.1170 
 21 C       -8.6820     3.6160    -1.0270 C.ar  1 <1>   0.1600 
 22 C       -8.7940     1.2830    -0.5870 C.ar  1 <1>  -0.1500 
 23 N       -9.9530     3.7100    -1.3960 N.ar  1 <1>  -0.6200 
 24 C      -10.1150     1.3600    -0.9710 C.ar  1 <1>  -0.1500 
 25 C      -10.6390     2.5810    -1.3620 C.ar  1 <1>   0.1600 
 26 H       -3.0200     1.8680     3.1490 H     1 <1>   0.1500 
 27 H       -3.2150     3.6460    -1.4190 H     1 <1>   0.1500 
 28 H       -5.2000     2.2870     2.0950 H     1 <1>   0.1500 
 29 H        2.0000     4.9510    -0.9990 H     1 <1>   0.0800 
 30 H        2.2000     3.6910     0.1940 H     1 <1>   0.0800 
 31 H       -1.3620     5.8540     0.0960 H     1 <1>   0.0800 
 32 H       -0.0910     6.2550    -1.0330 H     1 <1>   0.0800 
 33 H        3.4610     5.7110     0.8230 H     1 <1>   0.0800 
 34 H        2.2570     5.2810     2.0000 H     1 <1>   0.0800 
 35 H       -0.0290     6.6470     1.9670 H     1 <1>   0.0800 
 36 H       -0.1870     7.9080     0.7800 H     1 <1>   0.0800 
 37 H       -6.4440     1.5060     0.2700 H     1 <1>   0.3700 
 38 H        2.0520     7.4790    -0.0730 H     1 <1>   0.0800 
 39 H        2.1570     7.6930     1.6550 H     1 <1>   0.0800 
 40 H       -8.1170     4.5300    -1.0500 H     1 <1>   0.1500 
 41 H       -8.3680     0.3450    -0.2810 H     1 <1>   0.1500 
 42 H      -10.7390     0.4850    -0.9720 H     1 <1>   0.1500 
 43 H      -11.6720     2.6310    -1.6610 H     1 <1>   0.1500 
@<TRIPOS>BOND
  1   1   2  1   
  2   2   3  ar  
  3   2   4  ar  
  4   3   5  1   
  5   3   6  ar  
  6   4   7  ar  
  7   4  26  1   
  8   5   8  2   
  9   5   9  2   
 10   5  10  am  
 11   6  11  ar  
 12   6  27  1   
 13   7  11  ar  
 14   7  28  1   
 15  10  12  1   
 16  10  13  1   
 17  11  14  1   
 18  12  15  1   
 19  12  29  1   
 20  12  30  1   
 21  13  16  1   
 22  13  31  1   
 23  13  32  1   
 24  14  17  2   
 25  14  18  am  
 26  15  19  1   
 27  15  33  1   
 28  15  34  1   
 29  16  19  1   
 30  16  35  1   
 31  16  36  1   
 32  18  20  1   
 33  18  37  1   
 34  19  38  1   
 35  19  39  1   
 36  20  21  ar  
 37  20  22  ar  
 38  21  23  ar  
 39  21  40  1   
 40  22  24  ar  
 41  22  41  1   
 42  23  25  ar  
 43  24  25  ar  
 44  24  42  1   
 45  25  43  1   
@<TRIPOS>SUBSTRUCTURE
  1 ****   6 GROUP 4 **** **** 0

# MOE 2024.06 (io_trps.svl 2023.06)
