@<TRIPOS>MOLECULE
NONAME
40 41 1 0 0 
SMALL
USER_CHARGES


@<TRIPOS>ATOM
  1 O        0.6510    -0.8690    -2.2830 O.2   1 <1>  -0.5700 
  2 C        1.5190    -1.0420    -1.4600 C.2   1 <1>   0.4950 
  3 C        2.5920    -0.1410    -1.2600 C.2   1 <1>  -0.1360 
  4 C        1.4420    -2.2760    -0.5790 C.3   1 <1>  -0.0990 
  5 C        3.5920    -0.3110    -0.3580 C.2   1 <1>  -0.0380 
  6 C        2.8310    -2.7440    -0.0920 C.3   1 <1>   0.0000 
  7 N        4.6200     0.5660    -0.1420 N.pl3 1 <1>  -0.8690 
  8 C        3.6100    -1.5560     0.5230 C.3   1 <1>  -0.0220 
  9 C        3.6260    -3.3370    -1.2720 C.3   1 <1>  -0.2400 
 10 C        2.6550    -3.8470     0.9650 C.3   1 <1>  -0.2400 
 11 C        4.8750     1.8340    -0.8530 C.3   1 <1>   0.3530 
 12 C        6.2120     2.3750    -0.3820 C.ar  1 <1>  -0.1430 
 13 C        6.2710     3.3200     0.6320 C.ar  1 <1>  -0.1500 
 14 C        7.3910     1.9230    -0.9570 C.ar  1 <1>  -0.1500 
 15 C        7.4920     3.8110     1.0580 C.ar  1 <1>  -0.1500 
 16 C        8.6150     2.4130    -0.5320 C.ar  1 <1>  -0.1500 
 17 C        8.6700     3.3650     0.4820 C.ar  1 <1>   0.0830 
 18 O        9.8240     3.8970     0.9570 O.3   1 <1>  -0.3620 
 19 C       11.0770     3.5110     0.4390 C.3   1 <1>   0.0400 
 20 H        2.5650     0.7240    -1.8910 H     1 <1>   0.1500 
 21 H        0.9560    -3.0640    -1.1250 H     1 <1>   0.0800 
 22 H        0.8220    -2.0310     0.2630 H     1 <1>   0.0800 
 23 H        5.3420     0.3790     0.5660 H     1 <1>   0.4000 
 24 H        3.1810    -1.2900     1.4730 H     1 <1>   0.0800 
 25 H        4.6270    -1.8560     0.7000 H     1 <1>   0.0800 
 26 H        3.7960    -2.6010    -2.0380 H     1 <1>   0.0800 
 27 H        3.0940    -4.1610    -1.7130 H     1 <1>   0.0800 
 28 H        4.5850    -3.6950    -0.9400 H     1 <1>   0.0800 
 29 H        2.1000    -3.4790     1.8100 H     1 <1>   0.0800 
 30 H        3.6120    -4.1920     1.3140 H     1 <1>   0.0800 
 31 H        2.1240    -4.6860     0.5510 H     1 <1>   0.0800 
 32 H        4.0870     2.5340    -0.6350 H     1 <1>   0.0800 
 33 H        4.8980     1.6560    -1.9150 H     1 <1>   0.0800 
 34 H        5.3670     3.6760     1.0950 H     1 <1>   0.1500 
 35 H        7.3570     1.1830    -1.7380 H     1 <1>   0.1500 
 36 H        7.5410     4.5440     1.8430 H     1 <1>   0.1500 
 37 H        9.5080     2.0430    -0.9990 H     1 <1>   0.1500 
 38 H       11.8380     4.0600     0.9630 H     1 <1>   0.0800 
 39 H       11.1090     3.7510    -0.6090 H     1 <1>   0.0800 
 40 H       11.2110     2.4560     0.5990 H     1 <1>   0.0800 
@<TRIPOS>BOND
  1   1   2  2   
  2   2   3  1   
  3   2   4  1   
  4   3   5  2   
  5   3  20  1   
  6   4   6  1   
  7   4  21  1   
  8   4  22  1   
  9   5   7  1   
 10   5   8  1   
 11   6   8  1   
 12   6   9  1   
 13   6  10  1   
 14   7  11  1   
 15   7  23  1   
 16   8  24  1   
 17   8  25  1   
 18   9  26  1   
 19   9  27  1   
 20   9  28  1   
 21  10  29  1   
 22  10  30  1   
 23  10  31  1   
 24  11  12  1   
 25  11  32  1   
 26  11  33  1   
 27  12  13  ar  
 28  12  14  ar  
 29  13  15  ar  
 30  13  34  1   
 31  14  16  ar  
 32  14  35  1   
 33  15  17  ar  
 34  15  36  1   
 35  16  17  ar  
 36  16  37  1   
 37  17  18  1   
 38  18  19  1   
 39  19  38  1   
 40  19  39  1   
 41  19  40  1   
@<TRIPOS>SUBSTRUCTURE
  1 ****   7 GROUP 4 **** **** 0

# MOE 2024.06 (io_trps.svl 2023.06)
