@<TRIPOS>MOLECULE
NONAME
49 50 1 0 0 
SMALL
USER_CHARGES


@<TRIPOS>ATOM
  1 S       -0.4660    -2.6590     1.8850 S.o2  1 <1>   1.3330 
  2 O        0.7700    -2.7920     2.6260 O.2   1 <1>  -0.6500 
  3 O       -1.5400    -3.5940     2.1150 O.2   1 <1>  -0.6500 
  4 N       -0.0180    -2.8170     0.2630 N.am  1 <1>  -0.8490 
  5 C       -1.0320    -0.9860     2.1340 C.3   1 <1>  -0.1350 
  6 C       -1.1490    -2.7580    -0.6760 C.3   1 <1>   0.3390 
  7 C        0.6850    -4.1110     0.0580 C.3   1 <1>   0.2570 
  8 C       -1.6230    -1.3290    -0.8850 C.ar  1 <1>  -0.1440 
  9 C        1.6760    -4.0900    -1.1140 C.2   1 <1>   0.5690 
 10 C       -2.9660    -1.0100    -0.7460 C.ar  1 <1>  -0.1500 
 11 C       -0.7190    -0.3320    -1.2240 C.ar  1 <1>  -0.1500 
 12 O        1.4400    -4.8060    -2.0570 O.2   1 <1>  -0.5700 
 13 N        2.8030    -3.2950    -1.0930 N.am  1 <1>  -0.6600 
 14 C       -3.3960     0.2930    -0.9300 C.ar  1 <1>  -0.1500 
 15 C       -1.1490     0.9700    -1.4080 C.ar  1 <1>  -0.1500 
 16 C        3.1720    -2.3770     0.0320 C.3   1 <1>   0.1400 
 17 C        3.7520    -3.2700    -2.2480 C.3   1 <1>   0.1400 
 18 C       -2.4880     1.2830    -1.2600 C.ar  1 <1>  -0.1500 
 19 C        4.6310    -2.5960     0.4730 C.3   1 <1>   0.3430 
 20 C        5.2000    -3.4930    -1.7740 C.3   1 <1>   0.3430 
 21 N        5.5990    -2.5300    -0.6840 N.4   1 <1>  -0.9590 
 22 C        7.0010    -2.7790    -0.2580 C.3   1 <1>   0.3430 
 23 C        7.5140    -1.5870     0.5420 C.3   1 <1>  -0.2400 
 24 H       -0.3340    -0.2890     1.7160 H     1 <1>   0.0800 
 25 H       -1.1260    -0.7890     3.1830 H     1 <1>   0.0800 
 26 H       -1.9900    -0.8350     1.6830 H     1 <1>   0.0800 
 27 H       -1.9590    -3.3820    -0.3320 H     1 <1>   0.0800 
 28 H       -0.8430    -3.1310    -1.6400 H     1 <1>   0.0800 
 29 H       -0.0310    -4.9010    -0.0960 H     1 <1>   0.0800 
 30 H        1.2510    -4.3830     0.9300 H     1 <1>   0.0800 
 31 H       -3.6860    -1.7700    -0.4930 H     1 <1>   0.1500 
 32 H        0.3230    -0.5720    -1.3450 H     1 <1>   0.1500 
 33 H       -4.4390     0.5360    -0.8200 H     1 <1>   0.1500 
 34 H       -0.4450     1.7400    -1.6710 H     1 <1>   0.1500 
 35 H        2.5390    -2.5330     0.8840 H     1 <1>   0.0800 
 36 H        3.0360    -1.3580    -0.2850 H     1 <1>   0.0800 
 37 H        3.6730    -2.3220    -2.7520 H     1 <1>   0.0800 
 38 H        3.5000    -4.0360    -2.9630 H     1 <1>   0.0800 
 39 H       -2.8240     2.2960    -1.4040 H     1 <1>   0.1500 
 40 H        4.7000    -3.5610     0.9470 H     1 <1>   0.0800 
 41 H        4.8840    -1.8510     1.2090 H     1 <1>   0.0800 
 42 H        5.8630    -3.3890    -2.6170 H     1 <1>   0.0800 
 43 H        5.2840    -4.5050    -1.4120 H     1 <1>   0.0800 
 44 H        5.5520    -1.5810    -1.0770 H     1 <1>   0.4500 
 45 H        7.6280    -2.9090    -1.1260 H     1 <1>   0.0800 
 46 H        7.0570    -3.6780     0.3360 H     1 <1>   0.0800 
 47 H        7.4490    -0.6810    -0.0330 H     1 <1>   0.0800 
 48 H        8.5500    -1.7490     0.7830 H     1 <1>   0.0800 
 49 H        6.9820    -1.4720     1.4690 H     1 <1>   0.0800 
@<TRIPOS>BOND
  1   1   2  2   
  2   1   3  2   
  3   1   4  am  
  4   1   5  1   
  5   4   6  1   
  6   4   7  1   
  7   5  24  1   
  8   5  25  1   
  9   5  26  1   
 10   6   8  1   
 11   6  27  1   
 12   6  28  1   
 13   7   9  1   
 14   7  29  1   
 15   7  30  1   
 16   8  10  ar  
 17   8  11  ar  
 18   9  12  2   
 19   9  13  am  
 20  10  14  ar  
 21  10  31  1   
 22  11  15  ar  
 23  11  32  1   
 24  13  16  1   
 25  13  17  1   
 26  14  18  ar  
 27  14  33  1   
 28  15  18  ar  
 29  15  34  1   
 30  16  19  1   
 31  16  35  1   
 32  16  36  1   
 33  17  20  1   
 34  17  37  1   
 35  17  38  1   
 36  18  39  1   
 37  19  21  1   
 38  19  40  1   
 39  19  41  1   
 40  20  21  1   
 41  20  42  1   
 42  20  43  1   
 43  21  22  1   
 44  21  44  1   
 45  22  23  1   
 46  22  45  1   
 47  22  46  1   
 48  23  47  1   
 49  23  48  1   
 50  23  49  1   
@<TRIPOS>SUBSTRUCTURE
  1 ****   4 GROUP 4 **** **** 0

# MOE 2024.06 (io_trps.svl 2023.06)
