@<TRIPOS>MOLECULE
NONAME
36 39 1 0 0 
SMALL
USER_CHARGES


@<TRIPOS>ATOM
  1 S       -0.2880    -0.0960    -0.3790 S.3   1 <1>  -0.0800 
  2 C       -1.1220     1.4730    -0.3750 C.ar  1 <1>   0.2970 
  3 C        1.2360     0.7030    -0.0190 C.2   1 <1>  -0.1400 
  4 N       -2.4120     1.5990    -0.5930 N.ar  1 <1>  -0.5670 
  5 C       -0.2390     2.5000    -0.1150 C.ar  1 <1>   0.0000 
  6 C        1.0990     2.0140     0.0840 C.2   1 <1>  -0.1810 
  7 C        2.6100     0.1530     0.1870 C.3   1 <1>   0.0200 
  8 C       -2.7900     2.8630    -0.5350 C.ar  1 <1>   0.7220 
  9 C       -0.7990     3.7770    -0.0920 C.ar  1 <1>   0.4100 
 10 C        2.4180     2.6660     0.3980 C.3   1 <1>   0.0210 
 11 C        3.3940     1.4570     0.4970 C.3   1 <1>  -0.1600 
 12 S       -4.5330     3.1560    -0.8140 S.3   1 <1>  -0.3320 
 13 N       -2.0880     3.9610    -0.3030 N.ar  1 <1>  -0.6200 
 14 N       -0.0240     4.8910     0.1290 N.pl3 1 <1>  -0.8380 
 15 C       -5.2630     1.4830    -1.1050 C.3   1 <1>  -0.0100 
 16 C        0.4900     5.6100    -1.0590 C.3   1 <1>   0.2090 
 17 C       -0.4330     5.8650     1.1720 C.3   1 <1>   0.2090 
 18 C        0.1610     7.0770    -0.8170 C.3   1 <1>  -0.1600 
 19 C        0.1100     7.2070     0.7000 C.3   1 <1>  -0.1600 
 20 H        2.9660    -0.3250    -0.7080 H     1 <1>   0.0800 
 21 H        2.6290    -0.5320     1.0160 H     1 <1>   0.0800 
 22 H        2.3570     3.2060     1.3260 H     1 <1>   0.0800 
 23 H        2.7000     3.3350    -0.3950 H     1 <1>   0.0800 
 24 H        4.2030     1.5770    -0.2010 H     1 <1>   0.0800 
 25 H        3.8040     1.4050     1.4910 H     1 <1>   0.0800 
 26 H       -6.3160     1.6090    -1.2780 H     1 <1>   0.0800 
 27 H       -5.0840     0.8870    -0.2280 H     1 <1>   0.0800 
 28 H       -4.7780     1.0560    -1.9650 H     1 <1>   0.0800 
 29 H        0.0300     5.2500    -1.9640 H     1 <1>   0.0800 
 30 H        1.5560     5.4700    -1.1160 H     1 <1>   0.0800 
 31 H       -0.0230     5.5890     2.1280 H     1 <1>   0.0800 
 32 H       -1.5070     5.9050     1.2410 H     1 <1>   0.0800 
 33 H       -0.8100     7.2840    -1.2330 H     1 <1>   0.0800 
 34 H        0.8860     7.7310    -1.2660 H     1 <1>   0.0800 
 35 H        1.1030     7.3400     1.0920 H     1 <1>   0.0800 
 36 H       -0.5110     8.0230     1.0220 H     1 <1>   0.0800 
@<TRIPOS>BOND
  1   1   2  1   
  2   1   3  1   
  3   2   4  ar  
  4   2   5  ar  
  5   3   6  2   
  6   3   7  1   
  7   4   8  ar  
  8   5   6  1   
  9   5   9  ar  
 10   6  10  1   
 11   7  11  1   
 12   7  20  1   
 13   7  21  1   
 14   8  12  1   
 15   8  13  ar  
 16   9  13  ar  
 17   9  14  1   
 18  10  11  1   
 19  10  22  1   
 20  10  23  1   
 21  11  24  1   
 22  11  25  1   
 23  12  15  1   
 24  14  16  1   
 25  14  17  1   
 26  15  26  1   
 27  15  27  1   
 28  15  28  1   
 29  16  18  1   
 30  16  29  1   
 31  16  30  1   
 32  17  19  1   
 33  17  31  1   
 34  17  32  1   
 35  18  19  1   
 36  18  33  1   
 37  18  34  1   
 38  19  35  1   
 39  19  36  1   
@<TRIPOS>SUBSTRUCTURE
  1 ****   5 GROUP 4 **** **** 0

# MOE 2024.06 (io_trps.svl 2023.06)
