@<TRIPOS>MOLECULE
NONAME
54 56 1 0 0 
SMALL
USER_CHARGES


@<TRIPOS>ATOM
  1 F       -0.6670    -0.6490     1.1100 F     1 <1>  -0.3400 
  2 C       -0.0910     0.1920     0.2580 C.3   1 <1>   1.1640 
  3 F        0.4290    -0.5570    -0.7070 F     1 <1>  -0.3400 
  4 F        0.9390     0.7190     0.9080 F     1 <1>  -0.3400 
  5 C       -1.0910     1.2340    -0.2830 C.ar  1 <1>  -0.1440 
  6 C       -2.2370     0.8690    -1.0040 C.ar  1 <1>  -0.1440 
  7 C       -0.8560     2.5890    -0.0510 C.ar  1 <1>  -0.1500 
  8 C       -3.0980     1.8550    -1.4660 C.ar  1 <1>  -0.1500 
  9 C       -2.6230    -0.5780    -1.3270 C.3   1 <1>   0.2540 
 10 C       -1.7240     3.5590    -0.5170 C.ar  1 <1>  -0.1500 
 11 C       -2.8480     3.1920    -1.2270 C.ar  1 <1>  -0.1500 
 12 N       -3.9110    -0.9260    -0.6950 N.3   1 <1>  -0.8100 
 13 C       -3.8590    -0.8430     0.7810 C.3   1 <1>   0.1100 
 14 C       -4.3890    -2.2480    -1.1460 C.3   1 <1>   0.1100 
 15 C       -5.2320    -1.1530     1.4070 C.3   1 <1>   0.3430 
 16 C       -5.7610    -2.5920    -0.5320 C.3   1 <1>   0.3430 
 17 N       -5.7450    -2.4920     0.9710 N.4   1 <1>  -0.9590 
 18 C       -7.0920    -2.7810     1.5310 C.3   1 <1>   0.4860 
 19 C       -7.3960    -4.2500     1.3200 C.ar  1 <1>  -0.1430 
 20 C       -8.1520    -4.6480     0.2230 C.ar  1 <1>   0.0830 
 21 C       -6.9180    -5.1920     2.2190 C.ar  1 <1>  -0.1500 
 22 O       -8.5990    -3.6420    -0.5850 O.3   1 <1>  -0.3630 
 23 C       -8.3920    -6.0140    -0.0010 C.ar  1 <1>   0.0830 
 24 C       -7.1770    -6.5340     2.0160 C.ar  1 <1>  -0.1500 
 25 C       -9.8810    -3.7130    -1.1800 C.3   1 <1>   0.0400 
 26 O       -9.0700    -6.4030    -1.1180 O.3   1 <1>  -0.3630 
 27 C       -7.9040    -6.9440     0.9140 C.ar  1 <1>  -0.1500 
 28 C       -9.3310    -7.7600    -1.4090 C.3   1 <1>   0.0400 
 29 H        0.0120     2.9150     0.4980 H     1 <1>   0.1500 
 30 H       -3.9790     1.5790    -2.0190 H     1 <1>   0.1500 
 31 H       -1.8730    -1.2830    -1.0220 H     1 <1>   0.0800 
 32 H       -2.7240    -0.6610    -2.3970 H     1 <1>   0.0800 
 33 H       -1.5240     4.6000    -0.3270 H     1 <1>   0.1500 
 34 H       -3.5250     3.9440    -1.5940 H     1 <1>   0.1500 
 35 H       -3.5730     0.1520     1.0780 H     1 <1>   0.0800 
 36 H       -3.1230    -1.5280     1.1660 H     1 <1>   0.0800 
 37 H       -3.6760    -3.0100    -0.8810 H     1 <1>   0.0800 
 38 H       -4.4870    -2.2440    -2.2180 H     1 <1>   0.0800 
 39 H       -5.9210    -0.3820     1.1030 H     1 <1>   0.0800 
 40 H       -5.1460    -1.1210     2.4810 H     1 <1>   0.0800 
 41 H       -6.0430    -3.5880    -0.8330 H     1 <1>   0.0800 
 42 H       -6.4950    -1.9120    -0.9320 H     1 <1>   0.0800 
 43 H       -5.1110    -3.2220     1.3120 H     1 <1>   0.4500 
 44 H       -7.8370    -2.1720     1.0470 H     1 <1>   0.0800 
 45 H       -7.1090    -2.5660     2.5870 H     1 <1>   0.0800 
 46 H       -6.3480    -4.8980     3.0840 H     1 <1>   0.1500 
 47 H       -6.8110    -7.2670     2.7170 H     1 <1>   0.1500 
 48 H      -10.2100    -2.7130    -1.4000 H     1 <1>   0.0800 
 49 H      -10.5660    -4.1840    -0.4970 H     1 <1>   0.0800 
 50 H       -9.8120    -4.2770    -2.0930 H     1 <1>   0.0800 
 51 H       -8.0750    -7.9960     0.7890 H     1 <1>   0.1500 
 52 H       -9.8740    -7.8050    -2.3360 H     1 <1>   0.0800 
 53 H       -9.9270    -8.1810    -0.6180 H     1 <1>   0.0800 
 54 H       -8.3970    -8.2840    -1.5100 H     1 <1>   0.0800 
@<TRIPOS>BOND
  1   1   2  1   
  2   2   3  1   
  3   2   4  1   
  4   2   5  1   
  5   5   6  ar  
  6   5   7  ar  
  7   6   8  ar  
  8   6   9  1   
  9   7  10  ar  
 10   7  29  1   
 11   8  11  ar  
 12   8  30  1   
 13   9  12  1   
 14   9  31  1   
 15   9  32  1   
 16  10  11  ar  
 17  10  33  1   
 18  11  34  1   
 19  12  13  1   
 20  12  14  1   
 21  13  15  1   
 22  13  35  1   
 23  13  36  1   
 24  14  16  1   
 25  14  37  1   
 26  14  38  1   
 27  15  17  1   
 28  15  39  1   
 29  15  40  1   
 30  16  17  1   
 31  16  41  1   
 32  16  42  1   
 33  17  18  1   
 34  17  43  1   
 35  18  19  1   
 36  18  44  1   
 37  18  45  1   
 38  19  20  ar  
 39  19  21  ar  
 40  20  22  1   
 41  20  23  ar  
 42  21  24  ar  
 43  21  46  1   
 44  22  25  1   
 45  23  26  1   
 46  23  27  ar  
 47  24  27  ar  
 48  24  47  1   
 49  25  48  1   
 50  25  49  1   
 51  25  50  1   
 52  26  28  1   
 53  27  51  1   
 54  28  52  1   
 55  28  53  1   
 56  28  54  1   
@<TRIPOS>SUBSTRUCTURE
  1 ****  14 GROUP 4 **** **** 0

# MOE 2024.06 (io_trps.svl 2023.06)
