@<TRIPOS>MOLECULE
NONAME
43 43 1 0 0 
SMALL
USER_CHARGES


@<TRIPOS>ATOM
  1 O       -0.8170     0.2180    -1.5820 O.2   1 <1>  -0.5700 
  2 C       -1.6160     0.8170    -0.9000 C.2   1 <1>   0.4950 
  3 C       -1.6160     2.2320    -0.7020 C.2   1 <1>   0.0290 
  4 C       -2.6760    -0.0310    -0.2200 C.3   1 <1>  -0.0990 
  5 C       -2.6450     2.8620    -0.0230 C.2   1 <1>  -0.0380 
  6 C       -0.5080     2.9750    -1.2280 C.2   1 <1>   0.4950 
  7 C       -4.0250     0.6970    -0.1270 C.3   1 <1>   0.0000 
  8 N       -2.6660     4.2050     0.1740 N.pl3 1 <1>  -0.8690 
  9 C       -3.8120     2.0610     0.5570 C.3   1 <1>  -0.0220 
 10 O       -0.6340     4.0300    -1.8140 O.2   1 <1>  -0.5700 
 11 C        0.9290     2.4960    -1.0170 C.3   1 <1>  -0.0990 
 12 C       -5.0080    -0.1490     0.6970 C.3   1 <1>  -0.2400 
 13 C       -4.6210     0.8960    -1.5340 C.3   1 <1>  -0.2400 
 14 C       -3.6050     5.0630     0.9080 C.3   1 <1>   0.2890 
 15 C        1.8250     3.5700    -0.3770 C.3   1 <1>  -0.1600 
 16 C       -4.5190     5.7320    -0.1100 C.3   1 <1>  -0.2400 
 17 C       -2.7840     6.0870     1.6790 C.3   1 <1>  -0.2400 
 18 C        3.2440     3.0450    -0.1400 C.3   1 <1>  -0.2400 
 19 H       -2.3200    -0.2770     0.7640 H     1 <1>   0.0800 
 20 H       -2.7940    -0.9510    -0.7650 H     1 <1>   0.0800 
 21 H       -1.9470     4.7620    -0.3200 H     1 <1>   0.4000 
 22 H       -4.7230     2.6230     0.4620 H     1 <1>   0.0800 
 23 H       -3.6240     1.9200     1.6060 H     1 <1>   0.0800 
 24 H        1.3300     2.2110    -1.9730 H     1 <1>   0.0800 
 25 H        0.9360     1.6290    -0.3830 H     1 <1>   0.0800 
 26 H       -4.6280    -0.3210     1.6890 H     1 <1>   0.0800 
 27 H       -5.1700    -1.1050     0.2280 H     1 <1>   0.0800 
 28 H       -5.9580     0.3500     0.7810 H     1 <1>   0.0800 
 29 H       -3.9910     1.5160    -2.1470 H     1 <1>   0.0800 
 30 H       -5.5850     1.3690    -1.4710 H     1 <1>   0.0800 
 31 H       -4.7450    -0.0510    -2.0310 H     1 <1>   0.0800 
 32 H       -4.1870     4.4790     1.6010 H     1 <1>   0.0800 
 33 H        1.3970     3.8820     0.5610 H     1 <1>   0.0800 
 34 H        1.8690     4.4310    -1.0230 H     1 <1>   0.0800 
 35 H       -3.9440     6.3190    -0.8040 H     1 <1>   0.0800 
 36 H       -5.2190     6.3760     0.3900 H     1 <1>   0.0800 
 37 H       -5.0680     4.9860    -0.6530 H     1 <1>   0.0800 
 38 H       -2.1960     6.6850     1.0070 H     1 <1>   0.0800 
 39 H       -2.1330     5.5850     2.3710 H     1 <1>   0.0800 
 40 H       -3.4370     6.7350     2.2350 H     1 <1>   0.0800 
 41 H        3.2280     2.1990     0.5250 H     1 <1>   0.0800 
 42 H        3.8520     3.8150     0.3020 H     1 <1>   0.0800 
 43 H        3.6940     2.7470    -1.0700 H     1 <1>   0.0800 
@<TRIPOS>BOND
  1   1   2  2   
  2   2   3  1   
  3   2   4  1   
  4   3   5  2   
  5   3   6  1   
  6   4   7  1   
  7   4  19  1   
  8   4  20  1   
  9   5   8  1   
 10   5   9  1   
 11   6  10  2   
 12   6  11  1   
 13   7   9  1   
 14   7  12  1   
 15   7  13  1   
 16   8  14  1   
 17   8  21  1   
 18   9  22  1   
 19   9  23  1   
 20  11  15  1   
 21  11  24  1   
 22  11  25  1   
 23  12  26  1   
 24  12  27  1   
 25  12  28  1   
 26  13  29  1   
 27  13  30  1   
 28  13  31  1   
 29  14  16  1   
 30  14  17  1   
 31  14  32  1   
 32  15  18  1   
 33  15  33  1   
 34  15  34  1   
 35  16  35  1   
 36  16  36  1   
 37  16  37  1   
 38  17  38  1   
 39  17  39  1   
 40  17  40  1   
 41  18  41  1   
 42  18  42  1   
 43  18  43  1   
@<TRIPOS>SUBSTRUCTURE
  1 ****   3 GROUP 4 **** **** 0

# MOE 2024.06 (io_trps.svl 2023.06)
