@<TRIPOS>MOLECULE
NONAME
50 51 1 0 0 
SMALL
USER_CHARGES


@<TRIPOS>ATOM
  1 S        0.2250     0.0570     0.4740 S.o2  1 <1>   1.3330 
  2 O        1.1140    -0.8420    -0.2270 O.2   1 <1>  -0.6500 
  3 O       -0.1340    -0.2100     1.8490 O.2   1 <1>  -0.6500 
  4 N        0.9000     1.6120     0.4140 N.am  1 <1>  -0.8490 
  5 C       -1.2670     0.2310    -0.5110 C.3   1 <1>  -0.0550 
  6 C        2.3570     1.5740     0.6280 C.3   1 <1>   0.1960 
  7 C        0.2720     2.5280     1.3740 C.3   1 <1>   0.1960 
  8 C       -2.0800    -1.0680    -0.6370 C.3   1 <1>  -0.1600 
  9 C        2.9710     2.9590     0.3820 C.3   1 <1>  -0.0190 
 10 C        0.7890     3.9550     1.1570 C.3   1 <1>  -0.1600 
 11 C       -3.3400    -0.8590    -1.4840 C.3   1 <1>  -0.2400 
 12 C        4.4770     2.9010     0.5920 C.2   1 <1>   0.5690 
 13 C        2.3160     4.0180     1.2880 C.3   1 <1>  -0.1600 
 14 O        4.8980     2.4310     1.6210 O.2   1 <1>  -0.5700 
 15 N        5.2790     3.4040    -0.3960 N.am  1 <1>  -0.5470 
 16 C        6.6790     3.4660    -0.4980 C.ar  1 <1>   0.1170 
 17 C        7.2450     4.4180    -1.3390 C.ar  1 <1>  -0.1500 
 18 C        7.5290     2.6050     0.1900 C.ar  1 <1>  -0.1500 
 19 C        8.6170     4.5110    -1.4850 C.ar  1 <1>  -0.1500 
 20 C        8.9020     2.6940     0.0500 C.ar  1 <1>  -0.1500 
 21 C        9.4560     3.6530    -0.7930 C.ar  1 <1>   0.0820 
 22 O       10.7910     3.8120    -0.9920 O.3   1 <1>  -0.3620 
 23 C       11.7240     3.0100    -0.3070 C.3   1 <1>   0.1200 
 24 C       13.1230     3.4470    -0.7320 C.3   1 <1>  -0.2400 
 25 H       -0.9930     0.5640    -1.4930 H     1 <1>   0.0800 
 26 H       -1.8920     0.9840    -0.0720 H     1 <1>   0.0800 
 27 H        2.8120     0.8770    -0.0550 H     1 <1>   0.0800 
 28 H        2.5700     1.2410     1.6320 H     1 <1>   0.0800 
 29 H        0.4900     2.2110     2.3820 H     1 <1>   0.0800 
 30 H       -0.7970     2.5190     1.2460 H     1 <1>   0.0800 
 31 H       -2.3590    -1.4110     0.3450 H     1 <1>   0.0800 
 32 H       -1.4650    -1.8290    -1.0900 H     1 <1>   0.0800 
 33 H        2.7780     3.2150    -0.6430 H     1 <1>   0.0800 
 34 H        0.3370     4.6100     1.8800 H     1 <1>   0.0800 
 35 H        0.4890     4.2880     0.1780 H     1 <1>   0.0800 
 36 H       -3.9790    -0.1180    -1.0350 H     1 <1>   0.0800 
 37 H       -3.8890    -1.7810    -1.5570 H     1 <1>   0.0800 
 38 H       -3.0790    -0.5390    -2.4770 H     1 <1>   0.0800 
 39 H        2.6700     5.0010     1.0280 H     1 <1>   0.0800 
 40 H        2.5910     3.8270     2.3130 H     1 <1>   0.0800 
 41 H        4.7880     3.8390    -1.1730 H     1 <1>   0.3700 
 42 H        6.6140     5.0960    -1.8830 H     1 <1>   0.1500 
 43 H        7.1200     1.8540     0.8410 H     1 <1>   0.1500 
 44 H        9.0500     5.2490    -2.1340 H     1 <1>   0.1500 
 45 H        9.5170     2.0100     0.6020 H     1 <1>   0.1500 
 46 H       11.5500     1.9820    -0.5720 H     1 <1>   0.0800 
 47 H       11.5860     3.1540     0.7510 H     1 <1>   0.0800 
 48 H       13.2440     3.3160    -1.7920 H     1 <1>   0.0800 
 49 H       13.8600     2.8520    -0.2250 H     1 <1>   0.0800 
 50 H       13.2790     4.4800    -0.4770 H     1 <1>   0.0800 
@<TRIPOS>BOND
  1   1   2  2   
  2   1   3  2   
  3   1   4  am  
  4   1   5  1   
  5   4   6  1   
  6   4   7  1   
  7   5   8  1   
  8   5  25  1   
  9   5  26  1   
 10   6   9  1   
 11   6  27  1   
 12   6  28  1   
 13   7  10  1   
 14   7  29  1   
 15   7  30  1   
 16   8  11  1   
 17   8  31  1   
 18   8  32  1   
 19   9  12  1   
 20   9  13  1   
 21   9  33  1   
 22  10  13  1   
 23  10  34  1   
 24  10  35  1   
 25  11  36  1   
 26  11  37  1   
 27  11  38  1   
 28  12  14  2   
 29  12  15  am  
 30  13  39  1   
 31  13  40  1   
 32  15  16  1   
 33  15  41  1   
 34  16  17  ar  
 35  16  18  ar  
 36  17  19  ar  
 37  17  42  1   
 38  18  20  ar  
 39  18  43  1   
 40  19  21  ar  
 41  19  44  1   
 42  20  21  ar  
 43  20  45  1   
 44  21  22  1   
 45  22  23  1   
 46  23  24  1   
 47  23  46  1   
 48  23  47  1   
 49  24  48  1   
 50  24  49  1   
 51  24  50  1   
@<TRIPOS>SUBSTRUCTURE
  1 ****  12 GROUP 4 **** **** 0

# MOE 2024.06 (io_trps.svl 2023.06)
