@<TRIPOS>MOLECULE
NONAME
45 47 1 0 0 
SMALL
USER_CHARGES


@<TRIPOS>ATOM
  1 O        0.5070     0.8190    -0.2750 O.2   1 <1>  -0.5700 
  2 C        1.4660     1.3800    -0.7730 C.2   1 <1>   0.7150 
  3 N        1.2660     2.6040    -1.3510 N.am  1 <1>  -0.7300 
  4 C        2.7930     0.8020    -0.7580 C.2   1 <1>   0.0550 
  5 C       -0.0440     3.3120    -1.4300 C.3   1 <1>   0.1400 
  6 O        3.0310    -0.3590    -0.1530 O.3   1 <1>  -0.2800 
  7 C        3.9660     1.2510    -1.2890 C.2   1 <1>  -0.1500 
  8 C       -0.4950     3.8450    -0.0610 C.3   1 <1>   0.2000 
  9 C        4.3040    -0.6600    -0.2790 C.2   1 <1>  -0.0400 
 10 C        4.9410     0.3040    -0.9770 C.2   1 <1>  -0.1500 
 11 O       -1.5730     4.7030    -0.2380 O.3   1 <1>  -0.5600 
 12 C        0.5310     4.6980     0.6760 C.3   1 <1>  -0.1600 
 13 C        4.8160    -1.9490     0.3360 C.3   1 <1>   0.3000 
 14 C       -1.7240     5.5070     0.8870 C.3   1 <1>   0.1200 
 15 C       -0.3320     5.6380     1.5030 C.3   1 <1>  -0.1600 
 16 O        6.2010    -2.0670     0.0900 O.3   1 <1>  -0.3630 
 17 C        6.9210    -3.1360     0.5340 C.ar  1 <1>   0.0830 
 18 C        8.2890    -3.1650     0.2460 C.ar  1 <1>   0.0830 
 19 C        6.3470    -4.1820     1.2530 C.ar  1 <1>  -0.1500 
 20 O        8.8170    -2.1230    -0.4610 O.3   1 <1>  -0.3630 
 21 C        9.0590    -4.2400     0.6820 C.ar  1 <1>  -0.1500 
 22 C        7.1250    -5.2440     1.6810 C.ar  1 <1>  -0.1500 
 23 C       10.1850    -2.0710    -0.7950 C.3   1 <1>   0.0400 
 24 C        8.4770    -5.2730     1.3960 C.ar  1 <1>  -0.1500 
 25 H        2.0690     3.1040    -1.7280 H     1 <1>   0.3700 
 26 H       -0.7910     2.6290    -1.7980 H     1 <1>   0.0800 
 27 H        0.0430     4.1330    -2.1190 H     1 <1>   0.0800 
 28 H        4.1480     2.1510    -1.8460 H     1 <1>   0.1500 
 29 H       -0.8280     3.0310     0.5610 H     1 <1>   0.0800 
 30 H        5.9840     0.3450    -1.2440 H     1 <1>   0.1500 
 31 H        1.1160     5.2580    -0.0320 H     1 <1>   0.0800 
 32 H        1.1830     4.0930     1.2810 H     1 <1>   0.0800 
 33 H        4.3170    -2.7910    -0.1100 H     1 <1>   0.0800 
 34 H        4.6580    -1.9370     1.3990 H     1 <1>   0.0800 
 35 H       -2.4050     5.0150     1.5600 H     1 <1>   0.0800 
 36 H       -2.1270     6.4560     0.5800 H     1 <1>   0.0800 
 37 H        0.0220     6.6520     1.4450 H     1 <1>   0.0800 
 38 H       -0.3630     5.3340     2.5350 H     1 <1>   0.0800 
 39 H        5.3020    -4.1940     1.4930 H     1 <1>   0.1500 
 40 H       10.1110    -4.2930     0.4780 H     1 <1>   0.1500 
 41 H        6.6760    -6.0490     2.2360 H     1 <1>   0.1500 
 42 H       10.3580    -1.1650    -1.3460 H     1 <1>   0.0800 
 43 H       10.4280    -2.9220    -1.4060 H     1 <1>   0.0800 
 44 H       10.7650    -2.0640     0.1100 H     1 <1>   0.0800 
 45 H        9.0790    -6.1010     1.7310 H     1 <1>   0.1500 
@<TRIPOS>BOND
  1   1   2  2   
  2   2   3  am  
  3   2   4  1   
  4   3   5  1   
  5   3  25  1   
  6   4   6  1   
  7   4   7  2   
  8   5   8  1   
  9   5  26  1   
 10   5  27  1   
 11   6   9  1   
 12   7  10  1   
 13   7  28  1   
 14   8  11  1   
 15   8  12  1   
 16   8  29  1   
 17   9  10  2   
 18   9  13  1   
 19  10  30  1   
 20  11  14  1   
 21  12  15  1   
 22  12  31  1   
 23  12  32  1   
 24  13  16  1   
 25  13  33  1   
 26  13  34  1   
 27  14  15  1   
 28  14  35  1   
 29  14  36  1   
 30  15  37  1   
 31  15  38  1   
 32  16  17  1   
 33  17  18  ar  
 34  17  19  ar  
 35  18  20  1   
 36  18  21  ar  
 37  19  22  ar  
 38  19  39  1   
 39  20  23  1   
 40  21  24  ar  
 41  21  40  1   
 42  22  24  ar  
 43  22  41  1   
 44  23  42  1   
 45  23  43  1   
 46  23  44  1   
 47  24  45  1   
@<TRIPOS>SUBSTRUCTURE
  1 ****   9 GROUP 4 **** **** 0

# MOE 2024.06 (io_trps.svl 2023.06)
