@<TRIPOS>MOLECULE
NONAME
54 58 1 0 0 
SMALL
USER_CHARGES


@<TRIPOS>ATOM
  1 O       -0.5400    -1.3120     2.7810 O.2   1 <1>  -0.5700 
  2 C       -0.3480    -2.1390     1.9280 C.2   1 <1>   0.5690 
  3 N       -1.1020    -3.2800     2.0230 N.am  1 <1>  -0.5470 
  4 C        0.6990    -1.8700     0.8090 C.3   1 <1>   0.0610 
  5 C       -1.1900    -4.4310     1.2720 C.ar  1 <1>   0.1170 
  6 C        1.9390    -2.7870     0.9710 C.3   1 <1>  -0.1600 
  7 C        1.2020    -0.4000     0.8860 C.3   1 <1>  -0.1600 
  8 C        0.1100    -2.0770    -0.6130 C.3   1 <1>  -0.1600 
  9 C       -2.2270    -4.5800     0.2960 C.ar  1 <1>   0.0000 
 10 C       -0.3100    -5.4640     1.4680 C.ar  1 <1>  -0.1500 
 11 C        2.9920    -2.5030    -0.1170 C.3   1 <1>  -0.0800 
 12 C        2.2540    -0.0960    -0.1940 C.3   1 <1>  -0.0800 
 13 C        1.1610    -1.7890    -1.7020 C.3   1 <1>  -0.0800 
 14 C       -2.2780    -5.7760    -0.4400 C.ar  1 <1>   0.3610 
 15 C       -3.1900    -3.5940     0.0230 C.ar  1 <1>  -0.1500 
 16 C       -0.3560    -6.6490     0.7200 C.ar  1 <1>   0.4610 
 17 C        3.4540    -1.0400    -0.0050 C.3   1 <1>  -0.1600 
 18 C        2.3640    -2.7300    -1.5050 C.3   1 <1>  -0.1600 
 19 C        1.6320    -0.3300    -1.5810 C.3   1 <1>  -0.1600 
 20 N       -1.3320    -6.7540    -0.1910 N.ar  1 <1>  -0.1790 
 21 C       -3.2700    -5.9610    -1.4080 C.ar  1 <1>  -0.1500 
 22 C       -4.1570    -3.7910    -0.9330 C.ar  1 <1>  -0.1500 
 23 N        0.5300    -7.6700     0.8610 N.pl3 1 <1>  -0.8380 
 24 C       -4.2010    -4.9800    -1.6530 C.ar  1 <1>  -0.1500 
 25 C        1.8040    -7.5310     1.6420 C.3   1 <1>   0.1290 
 26 C        0.3700    -9.0610     0.3200 C.3   1 <1>   0.1290 
 27 H       -1.7550    -3.1880     2.8060 H     1 <1>   0.3700 
 28 H        2.3750    -2.6330     1.9430 H     1 <1>   0.0800 
 29 H        1.6540    -3.8170     0.9020 H     1 <1>   0.0800 
 30 H        1.6320    -0.2130     1.8550 H     1 <1>   0.0800 
 31 H        0.3700     0.2740     0.7730 H     1 <1>   0.0800 
 32 H       -0.7380    -1.4290    -0.7500 H     1 <1>   0.0800 
 33 H       -0.2230    -3.0850    -0.7430 H     1 <1>   0.0800 
 34 H        0.4350    -5.3610     2.2340 H     1 <1>   0.1500 
 35 H        3.8370    -3.1570     0.0120 H     1 <1>   0.0800 
 36 H        2.5780     0.9270    -0.1090 H     1 <1>   0.0800 
 37 H        0.7300    -1.9470    -2.6760 H     1 <1>   0.0800 
 38 H       -3.1730    -2.6640     0.5670 H     1 <1>   0.1500 
 39 H        4.2000    -0.8340    -0.7530 H     1 <1>   0.0800 
 40 H        3.9030    -0.8700     0.9580 H     1 <1>   0.0800 
 41 H        2.0500    -3.7540    -1.6030 H     1 <1>   0.0800 
 42 H        3.0990    -2.5410    -2.2690 H     1 <1>   0.0800 
 43 H        2.3580    -0.1160    -2.3460 H     1 <1>   0.0800 
 44 H        0.8000     0.3370    -1.7250 H     1 <1>   0.0800 
 45 H       -1.3390    -7.5980    -0.7520 H     1 <1>   0.4570 
 46 H       -3.3150    -6.8760    -1.9730 H     1 <1>   0.1500 
 47 H       -4.8910    -3.0250    -1.1320 H     1 <1>   0.1500 
 48 H       -4.9690    -5.1160    -2.3990 H     1 <1>   0.1500 
 49 H        2.1760    -6.5210     1.5990 H     1 <1>   0.0800 
 50 H        2.5660    -8.1740     1.2340 H     1 <1>   0.0800 
 51 H        1.6370    -7.8040     2.6710 H     1 <1>   0.0800 
 52 H       -0.6500    -9.2720     0.0550 H     1 <1>   0.0800 
 53 H        0.6660    -9.7790     1.0670 H     1 <1>   0.0800 
 54 H        0.9990    -9.1930    -0.5460 H     1 <1>   0.0800 
@<TRIPOS>BOND
  1   1   2  2   
  2   2   3  am  
  3   2   4  1   
  4   3   5  1   
  5   3  27  1   
  6   4   6  1   
  7   4   7  1   
  8   4   8  1   
  9   5   9  ar  
 10   5  10  ar  
 11   6  11  1   
 12   6  28  1   
 13   6  29  1   
 14   7  12  1   
 15   7  30  1   
 16   7  31  1   
 17   8  13  1   
 18   8  32  1   
 19   8  33  1   
 20   9  14  ar  
 21   9  15  ar  
 22  10  16  ar  
 23  10  34  1   
 24  11  17  1   
 25  11  18  1   
 26  11  35  1   
 27  12  17  1   
 28  12  19  1   
 29  12  36  1   
 30  13  18  1   
 31  13  19  1   
 32  13  37  1   
 33  14  20  ar  
 34  14  21  ar  
 35  15  22  ar  
 36  15  38  1   
 37  16  20  ar  
 38  16  23  1   
 39  17  39  1   
 40  17  40  1   
 41  18  41  1   
 42  18  42  1   
 43  19  43  1   
 44  19  44  1   
 45  20  45  1   
 46  21  24  ar  
 47  21  46  1   
 48  22  24  ar  
 49  22  47  1   
 50  23  25  1   
 51  23  26  1   
 52  24  48  1   
 53  25  49  1   
 54  25  50  1   
 55  25  51  1   
 56  26  52  1   
 57  26  53  1   
 58  26  54  1   
@<TRIPOS>SUBSTRUCTURE
  1 ****   5 GROUP 4 **** **** 0

# MOE 2024.06 (io_trps.svl 2023.06)
