@<TRIPOS>MOLECULE
NONAME
37 37 1 0 0 
SMALL
USER_CHARGES


@<TRIPOS>ATOM
  1 O       -0.1450     0.3210    -0.6310 O.2   1 <1>  -0.5700 
  2 C       -0.2240     1.4760    -0.2620 C.2   1 <1>   0.5440 
  3 N        0.9310     2.1300     0.0600 N.am  1 <1>  -0.7300 
  4 C       -1.5090     2.1410    -0.1500 C.ar  1 <1>   0.0860 
  5 C        2.2740     1.5440    -0.0230 C.3   1 <1>   0.2780 
  6 C       -2.6680     1.4220     0.1350 C.ar  1 <1>  -0.1500 
  7 C       -1.6470     3.5190    -0.3230 C.ar  1 <1>  -0.1500 
  8 C        3.2470     2.6860    -0.2240 C.2   1 <1>  -0.2880 
  9 C       -3.9060     2.0260     0.2570 C.ar  1 <1>   0.0830 
 10 C       -2.8720     4.1480    -0.1980 C.ar  1 <1>  -0.1500 
 11 C        4.1940     3.0610     0.6420 C.2   1 <1>  -0.3000 
 12 O       -4.9350     1.1780     0.5340 O.3   1 <1>  -0.3630 
 13 C       -4.0200     3.4180     0.1020 C.ar  1 <1>   0.0830 
 14 C       -6.2290     1.4100     0.0280 C.3   1 <1>   0.1200 
 15 O       -5.2280     4.0240     0.2600 O.3   1 <1>  -0.3630 
 16 C       -6.9800     0.0820     0.0230 C.3   1 <1>  -0.2400 
 17 C       -5.3980     5.4210     0.1970 C.3   1 <1>   0.1200 
 18 C       -6.8700     5.7260     0.4590 C.3   1 <1>  -0.2400 
 19 H        0.8970     3.0420     0.5120 H     1 <1>   0.3700 
 20 H        2.3300     0.8510    -0.8460 H     1 <1>   0.0800 
 21 H        2.4890     1.0170     0.8910 H     1 <1>   0.0800 
 22 H       -2.6000     0.3560     0.2630 H     1 <1>   0.1500 
 23 H       -0.7810     4.1090    -0.5660 H     1 <1>   0.1500 
 24 H        3.0950     3.1810    -1.1690 H     1 <1>   0.1500 
 25 H       -2.9100     5.2110    -0.3390 H     1 <1>   0.1500 
 26 H        4.8740     3.8780     0.4700 H     1 <1>   0.1500 
 27 H        4.3720     2.5870     1.5920 H     1 <1>   0.1500 
 28 H       -6.7210     2.1210     0.6690 H     1 <1>   0.0800 
 29 H       -6.1440     1.8070    -0.9690 H     1 <1>   0.0800 
 30 H       -7.9750     0.2290    -0.3540 H     1 <1>   0.0800 
 31 H       -7.0440    -0.3080     1.0230 H     1 <1>   0.0800 
 32 H       -6.4720    -0.6250    -0.6080 H     1 <1>   0.0800 
 33 H       -4.7760     5.8750     0.9490 H     1 <1>   0.0800 
 34 H       -5.1100     5.7570    -0.7840 H     1 <1>   0.0800 
 35 H       -7.0350     6.7870     0.4210 H     1 <1>   0.0800 
 36 H       -7.1520     5.3700     1.4340 H     1 <1>   0.0800 
 37 H       -7.4840     5.2550    -0.2880 H     1 <1>   0.0800 
@<TRIPOS>BOND
  1   1   2  2   
  2   2   3  am  
  3   2   4  1   
  4   3   5  1   
  5   3  19  1   
  6   4   6  ar  
  7   4   7  ar  
  8   5   8  1   
  9   5  20  1   
 10   5  21  1   
 11   6   9  ar  
 12   6  22  1   
 13   7  10  ar  
 14   7  23  1   
 15   8  11  2   
 16   8  24  1   
 17   9  12  1   
 18   9  13  ar  
 19  10  13  ar  
 20  10  25  1   
 21  11  26  1   
 22  11  27  1   
 23  12  14  1   
 24  13  15  1   
 25  14  16  1   
 26  14  28  1   
 27  14  29  1   
 28  15  17  1   
 29  16  30  1   
 30  16  31  1   
 31  16  32  1   
 32  17  18  1   
 33  17  33  1   
 34  17  34  1   
 35  18  35  1   
 36  18  36  1   
 37  18  37  1   
@<TRIPOS>SUBSTRUCTURE
  1 ****   4 GROUP 4 **** **** 0

# MOE 2024.06 (io_trps.svl 2023.06)
