@<TRIPOS>MOLECULE
NONAME
40 41 1 0 0 
SMALL
USER_CHARGES


@<TRIPOS>ATOM
  1 S       -1.1130    -0.1480     0.0340 S.3   1 <1>  -0.3320 
  2 C       -1.3440     1.4840    -0.7160 C.ar  1 <1>   0.1020 
  3 C        0.4080    -0.0940     1.0800 C.3   1 <1>   0.0700 
  4 C       -2.4680     1.7320    -1.5190 C.ar  1 <1>   0.0860 
  5 C       -0.3860     2.4640    -0.4920 C.ar  1 <1>  -0.1500 
  6 C        0.5590    -1.4570     1.7550 C.3   1 <1>  -0.1600 
  7 C       -3.5310     0.7780    -1.7880 C.2   1 <1>   0.5440 
  8 C       -2.5620     3.0020    -2.0930 C.ar  1 <1>  -0.1500 
  9 C       -0.5200     3.7130    -1.0700 C.ar  1 <1>  -0.1500 
 10 C        1.8020    -1.5010     2.6490 C.3   1 <1>  -0.2400 
 11 O       -4.0270     0.7120    -2.8980 O.2   1 <1>  -0.5700 
 12 N       -4.0450    -0.0210    -0.8110 N.am  1 <1>  -0.7300 
 13 C       -1.6100     3.9800    -1.8750 C.ar  1 <1>  -0.1500 
 14 C       -5.1210    -1.0250    -0.9700 C.3   1 <1>   0.1400 
 15 C       -5.9470    -1.1330     0.3200 C.3   1 <1>   0.2000 
 16 O       -5.1170    -1.3660     1.4150 O.3   1 <1>  -0.5600 
 17 C       -6.9280    -2.2960     0.3380 C.3   1 <1>  -0.1600 
 18 C       -5.8310    -1.9640     2.4510 C.3   1 <1>   0.1200 
 19 C       -7.0830    -2.5760     1.8230 C.3   1 <1>  -0.1600 
 20 H        0.2760     0.6910     1.8040 H     1 <1>   0.0800 
 21 H        1.2400     0.1180     0.4310 H     1 <1>   0.0800 
 22 H        0.4730     2.2800     0.1210 H     1 <1>   0.1500 
 23 H        0.6340    -2.2210     1.0000 H     1 <1>   0.0800 
 24 H       -0.3170    -1.6580     2.3490 H     1 <1>   0.0800 
 25 H       -3.4070     3.2210    -2.7250 H     1 <1>   0.1500 
 26 H        0.2230     4.4730    -0.8970 H     1 <1>   0.1500 
 27 H        2.6900    -1.3230     2.0690 H     1 <1>   0.0800 
 28 H        1.8860    -2.4690     3.1120 H     1 <1>   0.0800 
 29 H        1.7360    -0.7570     3.4240 H     1 <1>   0.0800 
 30 H       -3.5510    -0.0970     0.0860 H     1 <1>   0.3700 
 31 H       -1.7180     4.9490    -2.3330 H     1 <1>   0.1500 
 32 H       -4.6770    -1.9780    -1.1970 H     1 <1>   0.0800 
 33 H       -5.7610    -0.7470    -1.7900 H     1 <1>   0.0800 
 34 H       -6.4680    -0.2080     0.4990 H     1 <1>   0.0800 
 35 H       -6.4930    -3.1480    -0.1550 H     1 <1>   0.0800 
 36 H       -7.8590    -2.0440    -0.1380 H     1 <1>   0.0800 
 37 H       -6.0820    -1.2040     3.1710 H     1 <1>   0.0800 
 38 H       -5.2020    -2.7100     2.9040 H     1 <1>   0.0800 
 39 H       -7.1510    -3.6300     2.0290 H     1 <1>   0.0800 
 40 H       -7.9560    -2.0850     2.2160 H     1 <1>   0.0800 
@<TRIPOS>BOND
  1   1   2  1   
  2   1   3  1   
  3   2   4  ar  
  4   2   5  ar  
  5   3   6  1   
  6   3  20  1   
  7   3  21  1   
  8   4   7  1   
  9   4   8  ar  
 10   5   9  ar  
 11   5  22  1   
 12   6  10  1   
 13   6  23  1   
 14   6  24  1   
 15   7  11  2   
 16   7  12  am  
 17   8  13  ar  
 18   8  25  1   
 19   9  13  ar  
 20   9  26  1   
 21  10  27  1   
 22  10  28  1   
 23  10  29  1   
 24  12  14  1   
 25  12  30  1   
 26  13  31  1   
 27  14  15  1   
 28  14  32  1   
 29  14  33  1   
 30  15  16  1   
 31  15  17  1   
 32  15  34  1   
 33  16  18  1   
 34  17  19  1   
 35  17  35  1   
 36  17  36  1   
 37  18  19  1   
 38  18  37  1   
 39  18  38  1   
 40  19  39  1   
 41  19  40  1   
@<TRIPOS>SUBSTRUCTURE
  1 ****  12 GROUP 4 **** **** 0

# MOE 2024.06 (io_trps.svl 2023.06)
