@<TRIPOS>MOLECULE
NONAME
49 50 1 0 0 
SMALL
USER_CHARGES


@<TRIPOS>ATOM
  1 CL       5.0070    -3.1160     1.2550 Cl    1 <1>  -0.1770 
  2 C        3.4150    -2.4900     0.8920 C.ar  1 <1>   0.1770 
  3 C        3.0820    -2.1020    -0.3990 C.ar  1 <1>  -0.1440 
  4 C        2.5040    -2.3990     1.9280 C.ar  1 <1>  -0.1500 
  5 C        1.8060    -1.6100    -0.6350 C.ar  1 <1>  -0.1500 
  6 C        4.0770    -2.2030    -1.5430 C.3   1 <1>   0.2140 
  7 C        1.2330    -1.9110     1.6800 C.ar  1 <1>  -0.1500 
  8 C        0.8870    -1.5160     0.3980 C.ar  1 <1>  -0.1500 
  9 S        4.8450    -0.5690    -1.7600 S.3   1 <1>  -0.4600 
 10 C        6.2600    -0.9010    -2.8660 C.3   1 <1>   0.1310 
 11 C        7.1730    -1.9700    -2.2850 C.2   1 <1>   0.5690 
 12 O        7.5060    -2.8830    -3.0000 O.2   1 <1>  -0.5700 
 13 N        7.5660    -1.8450    -0.9820 N.am  1 <1>  -0.5470 
 14 C        8.3420    -2.6630    -0.1470 C.ar  1 <1>   0.1170 
 15 C        9.0110    -2.0960     0.9530 C.ar  1 <1>   0.0860 
 16 C        8.4430    -4.0340    -0.3700 C.ar  1 <1>  -0.1500 
 17 C        8.9670    -0.6700     1.2090 C.2   1 <1>   0.5440 
 18 C        9.7320    -2.9410     1.7990 C.ar  1 <1>  -0.1500 
 19 C        9.1760    -4.8460     0.4710 C.ar  1 <1>  -0.1500 
 20 O        7.9300    -0.0420     1.1270 O.2   1 <1>  -0.5700 
 21 N       10.0710     0.0600     1.5260 N.am  1 <1>  -0.7300 
 22 C        9.8210    -4.2980     1.5650 C.ar  1 <1>  -0.1500 
 23 C       11.4800    -0.2470     1.1890 C.3   1 <1>   0.1400 
 24 C       12.0410     0.8070     0.2210 C.3   1 <1>  -0.0800 
 25 C       13.4700     0.4300    -0.1920 C.3   1 <1>  -0.2400 
 26 C       12.0400     2.2190     0.8290 C.3   1 <1>  -0.2400 
 27 H        2.7920    -2.7060     2.9170 H     1 <1>   0.1500 
 28 H        1.5260    -1.2920    -1.6240 H     1 <1>   0.1500 
 29 H        3.5890    -2.4530    -2.4680 H     1 <1>   0.0800 
 30 H        4.8540    -2.9180    -1.3420 H     1 <1>   0.0800 
 31 H        0.5160    -1.8350     2.4800 H     1 <1>   0.1500 
 32 H       -0.0990    -1.1320     0.2030 H     1 <1>   0.1500 
 33 H        6.7930     0.0230    -2.9880 H     1 <1>   0.0800 
 34 H        5.8600    -1.2200    -3.8110 H     1 <1>   0.0800 
 35 H        7.2220    -0.9970    -0.5040 H     1 <1>   0.3700 
 36 H        7.9360    -4.4780    -1.2070 H     1 <1>   0.1500 
 37 H       10.2280    -2.5200     2.6560 H     1 <1>   0.1500 
 38 H        9.2400    -5.9040     0.2800 H     1 <1>   0.1500 
 39 H        9.8830     1.0460     1.7160 H     1 <1>   0.3700 
 40 H       10.3850    -4.9310     2.2290 H     1 <1>   0.1500 
 41 H       11.5450    -1.2190     0.7290 H     1 <1>   0.0800 
 42 H       12.0640    -0.2620     2.0940 H     1 <1>   0.0800 
 43 H       11.4300     0.8090    -0.6670 H     1 <1>   0.0800 
 44 H       14.1230     0.4140     0.6630 H     1 <1>   0.0800 
 45 H       13.8530     1.1410    -0.9030 H     1 <1>   0.0800 
 46 H       13.4820    -0.5430    -0.6530 H     1 <1>   0.0800 
 47 H       12.6050     2.2380     1.7450 H     1 <1>   0.0800 
 48 H       11.0370     2.5460     1.0360 H     1 <1>   0.0800 
 49 H       12.4780     2.9200     0.1410 H     1 <1>   0.0800 
@<TRIPOS>BOND
  1   1   2  1   
  2   2   3  ar  
  3   2   4  ar  
  4   3   5  ar  
  5   3   6  1   
  6   4   7  ar  
  7   4  27  1   
  8   5   8  ar  
  9   5  28  1   
 10   6   9  1   
 11   6  29  1   
 12   6  30  1   
 13   7   8  ar  
 14   7  31  1   
 15   8  32  1   
 16   9  10  1   
 17  10  11  1   
 18  10  33  1   
 19  10  34  1   
 20  11  12  2   
 21  11  13  am  
 22  13  14  1   
 23  13  35  1   
 24  14  15  ar  
 25  14  16  ar  
 26  15  17  1   
 27  15  18  ar  
 28  16  19  ar  
 29  16  36  1   
 30  17  20  2   
 31  17  21  am  
 32  18  22  ar  
 33  18  37  1   
 34  19  22  ar  
 35  19  38  1   
 36  21  23  1   
 37  21  39  1   
 38  22  40  1   
 39  23  24  1   
 40  23  41  1   
 41  23  42  1   
 42  24  25  1   
 43  24  26  1   
 44  24  43  1   
 45  25  44  1   
 46  25  45  1   
 47  25  46  1   
 48  26  47  1   
 49  26  48  1   
 50  26  49  1   
@<TRIPOS>SUBSTRUCTURE
  1 ****  13 GROUP 4 **** **** 0

# MOE 2024.06 (io_trps.svl 2023.06)
