@<TRIPOS>MOLECULE
NONAME
45 46 1 0 0 
SMALL
USER_CHARGES


@<TRIPOS>ATOM
  1 CL       1.7120    -2.0700     1.2580 Cl    1 <1>  -0.1770 
  2 C        2.9090    -0.8550     0.8880 C.ar  1 <1>   0.1770 
  3 C        2.8520    -0.1930    -0.3230 C.ar  1 <1>  -0.1500 
  4 C        3.8950    -0.5730     1.8130 C.ar  1 <1>  -0.1500 
  5 C        3.8000     0.7730    -0.6250 C.ar  1 <1>  -0.1440 
  6 C        4.8450     0.3900     1.5190 C.ar  1 <1>  -0.1500 
  7 C        4.8030     1.0660     0.2990 C.ar  1 <1>   0.0830 
  8 C        3.7280     1.4990    -1.9610 C.3   1 <1>  -0.0960 
  9 O        5.7100     2.0170    -0.0460 O.3   1 <1>  -0.3630 
 10 C        6.8120     2.3330     0.7790 C.3   1 <1>   0.1200 
 11 C        7.6540     3.4090     0.0790 C.3   1 <1>   0.2000 
 12 O        7.8920     3.0130    -1.2400 O.3   1 <1>  -0.6800 
 13 C        9.0060     3.6910     0.7780 C.3   1 <1>   0.3430 
 14 N       10.1120     2.8880     0.1660 N.4   1 <1>  -0.9590 
 15 C       10.3010     1.5460     0.7840 C.3   1 <1>   0.3430 
 16 C       11.3820     3.6610     0.0700 C.3   1 <1>   0.3430 
 17 C       11.3030     0.7370    -0.0400 C.3   1 <1>  -0.1600 
 18 C       12.3990     2.8810    -0.7630 C.3   1 <1>  -0.1600 
 19 C       12.6400     1.4750    -0.1950 C.3   1 <1>  -0.0800 
 20 C       13.5920     0.6840    -1.0980 C.3   1 <1>  -0.2400 
 21 H        2.0680    -0.4400    -1.0160 H     1 <1>   0.1500 
 22 H        3.9120    -1.1040     2.7480 H     1 <1>   0.1500 
 23 H        5.5980     0.5940     2.2540 H     1 <1>   0.1500 
 24 H        2.8700     1.1850    -2.5280 H     1 <1>   0.0800 
 25 H        4.6120     1.2930    -2.5380 H     1 <1>   0.0800 
 26 H        3.6570     2.5600    -1.7990 H     1 <1>   0.0800 
 27 H        7.3810     1.4350     0.9340 H     1 <1>   0.0800 
 28 H        6.4380     2.6980     1.7190 H     1 <1>   0.0800 
 29 H        7.0780     4.3190     0.0520 H     1 <1>   0.0800 
 30 H        7.0380     2.7150    -1.6330 H     1 <1>   0.4000 
 31 H        8.9330     3.5070     1.8370 H     1 <1>   0.0800 
 32 H        9.2190     4.7390     0.6470 H     1 <1>   0.0800 
 33 H        9.7700     2.7280    -0.8030 H     1 <1>   0.4500 
 34 H        9.3650     1.0160     0.8150 H     1 <1>   0.0800 
 35 H       10.6690     1.6550     1.7910 H     1 <1>   0.0800 
 36 H       11.7800     3.8320     1.0570 H     1 <1>   0.0800 
 37 H       11.1980     4.6160    -0.3950 H     1 <1>   0.0800 
 38 H       10.8780     0.5310    -1.0070 H     1 <1>   0.0800 
 39 H       11.4700    -0.2080     0.4460 H     1 <1>   0.0800 
 40 H       13.3270     3.4260    -0.7770 H     1 <1>   0.0800 
 41 H       12.0470     2.8170    -1.7780 H     1 <1>   0.0800 
 42 H       13.0990     1.5680     0.7770 H     1 <1>   0.0800 
 43 H       13.1780     0.5640    -2.0840 H     1 <1>   0.0800 
 44 H       13.7770    -0.2920    -0.6850 H     1 <1>   0.0800 
 45 H       14.5370     1.1930    -1.1850 H     1 <1>   0.0800 
@<TRIPOS>BOND
  1   1   2  1   
  2   2   3  ar  
  3   2   4  ar  
  4   3   5  ar  
  5   3  21  1   
  6   4   6  ar  
  7   4  22  1   
  8   5   7  ar  
  9   5   8  1   
 10   6   7  ar  
 11   6  23  1   
 12   7   9  1   
 13   8  24  1   
 14   8  25  1   
 15   8  26  1   
 16   9  10  1   
 17  10  11  1   
 18  10  27  1   
 19  10  28  1   
 20  11  12  1   
 21  11  13  1   
 22  11  29  1   
 23  12  30  1   
 24  13  14  1   
 25  13  31  1   
 26  13  32  1   
 27  14  15  1   
 28  14  16  1   
 29  14  33  1   
 30  15  17  1   
 31  15  34  1   
 32  15  35  1   
 33  16  18  1   
 34  16  36  1   
 35  16  37  1   
 36  17  19  1   
 37  17  38  1   
 38  17  39  1   
 39  18  19  1   
 40  18  40  1   
 41  18  41  1   
 42  19  20  1   
 43  19  42  1   
 44  20  43  1   
 45  20  44  1   
 46  20  45  1   
@<TRIPOS>SUBSTRUCTURE
  1 ****  10 GROUP 4 **** **** 0

# MOE 2024.06 (io_trps.svl 2023.06)
