@<TRIPOS>MOLECULE
NONAME
38 39 1 0 0 
SMALL
USER_CHARGES


@<TRIPOS>ATOM
  1 CL      -0.6160     0.7190    -0.9270 Cl    1 <1>  -0.1770 
  2 C        1.0610     1.2000    -1.0640 C.ar  1 <1>   0.1770 
  3 C        1.4860     2.4280    -0.5710 C.ar  1 <1>   0.0820 
  4 C        1.9440     0.3300    -1.6720 C.ar  1 <1>  -0.1500 
  5 O        0.5690     3.2410     0.0170 O.3   1 <1>  -0.3630 
  6 C        2.8310     2.7670    -0.7030 C.ar  1 <1>  -0.1500 
  7 C        3.2770     0.6870    -1.7920 C.ar  1 <1>  -0.1500 
  8 C        0.9170     4.5030     0.5380 C.3   1 <1>   0.1200 
  9 C        3.7400     1.9090    -1.3120 C.ar  1 <1>  -0.0090 
 10 C       -0.3450     5.1380     1.1130 C.3   1 <1>  -0.2400 
 11 S        5.4860     2.3800    -1.4590 S.o2  1 <1>   1.4470 
 12 O        6.2390     1.3260    -2.0970 O.2   1 <1>  -0.6500 
 13 O        5.5810     3.7360    -1.9530 O.2   1 <1>  -0.6500 
 14 N        5.9990     2.4120     0.1380 N.am  1 <1>  -0.9140 
 15 C        7.2760     3.0930     0.3380 C.3   1 <1>   0.1960 
 16 C        8.4470     2.1650    -0.0360 C.3   1 <1>   0.2000 
 17 O        8.2290     0.9010     0.5080 O.3   1 <1>  -0.5600 
 18 C        9.8010     2.5820     0.5210 C.3   1 <1>  -0.1600 
 19 C        9.4300     0.2010     0.5470 C.3   1 <1>   0.1200 
 20 C       10.5300     1.2540     0.6740 C.3   1 <1>  -0.1600 
 21 H        1.5900    -0.6140    -2.0450 H     1 <1>   0.1500 
 22 H        3.2030     3.7060    -0.3340 H     1 <1>   0.1500 
 23 H        3.9660     0.0070    -2.2670 H     1 <1>   0.1500 
 24 H        1.3150     5.1050    -0.2610 H     1 <1>   0.0800 
 25 H        1.6560     4.3630     1.3070 H     1 <1>   0.0800 
 26 H       -1.0830     5.2560     0.3400 H     1 <1>   0.0800 
 27 H       -0.1140     6.1050     1.5200 H     1 <1>   0.0800 
 28 H       -0.7440     4.5200     1.8970 H     1 <1>   0.0800 
 29 H        6.2410     1.4340     0.3390 H     1 <1>   0.4200 
 30 H        7.3620     3.3420     1.3820 H     1 <1>   0.0800 
 31 H        7.3240     4.0120    -0.2210 H     1 <1>   0.0800 
 32 H        8.5120     2.0530    -1.1060 H     1 <1>   0.0800 
 33 H        9.6800     3.0470     1.4830 H     1 <1>   0.0800 
 34 H       10.3110     3.2590    -0.1410 H     1 <1>   0.0800 
 35 H        9.5240    -0.3540    -0.3720 H     1 <1>   0.0800 
 36 H        9.4100    -0.4740     1.3860 H     1 <1>   0.0800 
 37 H       11.0220     1.1830     1.6280 H     1 <1>   0.0800 
 38 H       11.2580     1.1140    -0.1060 H     1 <1>   0.0800 
@<TRIPOS>BOND
  1   1   2  1   
  2   2   3  ar  
  3   2   4  ar  
  4   3   5  1   
  5   3   6  ar  
  6   4   7  ar  
  7   4  21  1   
  8   5   8  1   
  9   6   9  ar  
 10   6  22  1   
 11   7   9  ar  
 12   7  23  1   
 13   8  10  1   
 14   8  24  1   
 15   8  25  1   
 16   9  11  1   
 17  10  26  1   
 18  10  27  1   
 19  10  28  1   
 20  11  12  2   
 21  11  13  2   
 22  11  14  am  
 23  14  15  1   
 24  14  29  1   
 25  15  16  1   
 26  15  30  1   
 27  15  31  1   
 28  16  17  1   
 29  16  18  1   
 30  16  32  1   
 31  17  19  1   
 32  18  20  1   
 33  18  33  1   
 34  18  34  1   
 35  19  20  1   
 36  19  35  1   
 37  19  36  1   
 38  20  37  1   
 39  20  38  1   
@<TRIPOS>SUBSTRUCTURE
  1 ****   9 GROUP 4 **** **** 0

# MOE 2024.06 (io_trps.svl 2023.06)
