@<TRIPOS>MOLECULE
NONAME
26 26 1 0 0 
SMALL
USER_CHARGES


@<TRIPOS>ATOM
  1 O       -4.8300    -4.4690     0.3680 O.2   1 <1>  -0.5700 
  2 C       -5.0040    -3.2740     0.2300 C.2   1 <1>   0.5440 
  3 N       -3.9200    -2.4770    -0.0040 N.am  1 <1>  -0.7300 
  4 C       -6.3380    -2.7120     0.2990 C.ar  1 <1>   0.0860 
  5 C       -2.5130    -2.9260    -0.0260 C.3   1 <1>   0.1400 
  6 C       -7.4550    -3.5140     0.0660 C.ar  1 <1>   0.1600 
  7 C       -6.5790    -1.3740     0.5940 C.ar  1 <1>  -0.1500 
  8 C       -1.6150    -1.7230     0.2490 C.3   1 <1>  -0.1600 
  9 N       -8.7190    -3.1150     0.0870 N.ar  1 <1>  -0.6200 
 10 C       -7.8860    -0.9380     0.6240 C.ar  1 <1>  -0.1500 
 11 C       -0.1250    -2.1020     0.1870 C.3   1 <1>  -0.2660 
 12 C       -8.9060    -1.8360     0.3640 C.ar  1 <1>   0.1600 
 13 C        0.7650    -0.9010     0.4020 C.2   1 <1>   0.9060 
 14 O        1.3350    -0.7750     1.4890 O.co2 1 <1>  -0.9000 
 15 O        0.8750    -0.0840    -0.5160 O.co2 1 <1>  -0.9000 
 16 H       -4.0460    -1.4920    -0.2350 H     1 <1>   0.3700 
 17 H       -2.2880    -3.3430    -0.9930 H     1 <1>   0.0800 
 18 H       -2.3600    -3.6860     0.7220 H     1 <1>   0.0800 
 19 H       -7.2840    -4.5550    -0.1540 H     1 <1>   0.1500 
 20 H       -5.7710    -0.6950     0.8030 H     1 <1>   0.1500 
 21 H       -1.8270    -1.3230     1.2250 H     1 <1>   0.0800 
 22 H       -1.7970    -0.9570    -0.4850 H     1 <1>   0.0800 
 23 H       -8.1190     0.0870     0.8470 H     1 <1>   0.1500 
 24 H        0.1160    -2.5120    -0.7750 H     1 <1>   0.0800 
 25 H        0.1070    -2.8300     0.9410 H     1 <1>   0.0800 
 26 H       -9.9260    -1.4880     0.3880 H     1 <1>   0.1500 
@<TRIPOS>BOND
  1   1   2  2   
  2   2   3  am  
  3   2   4  1   
  4   3   5  1   
  5   3  16  1   
  6   4   6  ar  
  7   4   7  ar  
  8   5   8  1   
  9   5  17  1   
 10   5  18  1   
 11   6   9  ar  
 12   6  19  1   
 13   7  10  ar  
 14   7  20  1   
 15   8  11  1   
 16   8  21  1   
 17   8  22  1   
 18   9  12  ar  
 19  10  12  ar  
 20  10  23  1   
 21  11  13  1   
 22  11  24  1   
 23  11  25  1   
 24  12  26  1   
 25  13  14  ar  
 26  13  15  ar  
@<TRIPOS>SUBSTRUCTURE
  1 ****   3 GROUP 4 **** **** 0

# MOE 2024.06 (io_trps.svl 2023.06)
