@<TRIPOS>MOLECULE
NONAME
49 50 1 0 0 
SMALL
USER_CHARGES


@<TRIPOS>ATOM
  1 O        0.3630     1.5550    -1.6080 O.2   1 <1>  -0.5700 
  2 C        1.4780     1.8860    -1.2780 C.2   1 <1>   0.6900 
  3 N        2.2310     1.0780    -0.4960 N.am  1 <1>  -0.5390 
  4 N        1.9840     3.0680    -1.6600 N.am  1 <1>  -0.7300 
  5 C        3.4500     1.4300     0.0530 C.2   1 <1>  -0.0290 
  6 C        3.2070     3.6460    -1.0720 C.3   1 <1>   0.5020 
  7 C        3.9940     2.6560    -0.2000 C.2   1 <1>  -0.1240 
  8 C        4.0620     0.3300     0.9150 C.3   1 <1>  -0.0220 
  9 C        2.8040     4.9360    -0.3540 C.ar  1 <1>  -0.1430 
 10 C        5.2610     3.1710     0.2380 C.2   1 <1>   0.7060 
 11 C        4.9200    -0.6130     0.0630 C.3   1 <1>  -0.1600 
 12 C        2.1030     4.9310     0.8510 C.ar  1 <1>   0.0830 
 13 C        3.1360     6.1580    -0.9250 C.ar  1 <1>  -0.1500 
 14 O        5.9920     2.6180     1.0360 O.2   1 <1>  -0.5700 
 15 O        5.6910     4.3260    -0.2880 O.3   1 <1>  -0.4300 
 16 C        5.5220    -1.7410     0.9070 C.3   1 <1>  -0.2400 
 17 O        1.7690     3.7580     1.4310 O.3   1 <1>  -0.3620 
 18 C        1.7570     6.1230     1.4680 C.ar  1 <1>  -0.1500 
 19 C        2.7840     7.3500    -0.3130 C.ar  1 <1>  -0.1500 
 20 C        6.8940     4.9330     0.1290 C.3   1 <1>   0.1200 
 21 C        0.3990     3.5030     1.6440 C.3   1 <1>   0.0400 
 22 C        2.0890     7.3360     0.8920 C.ar  1 <1>   0.0830 
 23 C        7.0230     6.2660    -0.5990 C.3   1 <1>  -0.2400 
 24 O        1.7080     8.4550     1.5580 O.3   1 <1>  -0.3620 
 25 C        2.0130     9.7410     1.0660 C.3   1 <1>   0.0400 
 26 H        1.7920     0.1830    -0.2860 H     1 <1>   0.3700 
 27 H        1.3230     3.7330    -2.0520 H     1 <1>   0.3700 
 28 H        3.8410     3.9060    -1.9020 H     1 <1>   0.0800 
 29 H        3.2760    -0.2280     1.3930 H     1 <1>   0.0800 
 30 H        4.6550     0.7480     1.7070 H     1 <1>   0.0800 
 31 H        5.7160    -0.0480    -0.3920 H     1 <1>   0.0800 
 32 H        4.3200    -1.0350    -0.7240 H     1 <1>   0.0800 
 33 H        3.6780     6.1930    -1.8540 H     1 <1>   0.1500 
 34 H        6.1470    -1.3340     1.6830 H     1 <1>   0.0800 
 35 H        6.1230    -2.3830     0.2870 H     1 <1>   0.0800 
 36 H        4.7450    -2.3310     1.3590 H     1 <1>   0.0800 
 37 H        1.2340     6.1180     2.4050 H     1 <1>   0.1500 
 38 H        3.0590     8.2730    -0.7860 H     1 <1>   0.1500 
 39 H        7.7110     4.2740    -0.1120 H     1 <1>   0.0800 
 40 H        6.8490     5.0800     1.1960 H     1 <1>   0.0800 
 41 H        0.2950     2.4800     1.9560 H     1 <1>   0.0800 
 42 H       -0.1310     3.6580     0.7200 H     1 <1>   0.0800 
 43 H        0.0300     4.1610     2.4090 H     1 <1>   0.0800 
 44 H        7.0530     6.1080    -1.6620 H     1 <1>   0.0800 
 45 H        7.9330     6.7550    -0.2990 H     1 <1>   0.0800 
 46 H        6.1940     6.9050    -0.3490 H     1 <1>   0.0800 
 47 H        1.6170    10.4640     1.7560 H     1 <1>   0.0800 
 48 H        1.5520     9.8640     0.1030 H     1 <1>   0.0800 
 49 H        3.0820     9.8450     1.0010 H     1 <1>   0.0800 
@<TRIPOS>BOND
  1   1   2  2   
  2   2   3  am  
  3   2   4  am  
  4   3   5  1   
  5   3  26  1   
  6   4   6  1   
  7   4  27  1   
  8   5   7  2   
  9   5   8  1   
 10   6   7  1   
 11   6   9  1   
 12   6  28  1   
 13   7  10  1   
 14   8  11  1   
 15   8  29  1   
 16   8  30  1   
 17   9  12  ar  
 18   9  13  ar  
 19  10  14  2   
 20  10  15  1   
 21  11  16  1   
 22  11  31  1   
 23  11  32  1   
 24  12  17  1   
 25  12  18  ar  
 26  13  19  ar  
 27  13  33  1   
 28  15  20  1   
 29  16  34  1   
 30  16  35  1   
 31  16  36  1   
 32  17  21  1   
 33  18  22  ar  
 34  18  37  1   
 35  19  22  ar  
 36  19  38  1   
 37  20  23  1   
 38  20  39  1   
 39  20  40  1   
 40  21  41  1   
 41  21  42  1   
 42  21  43  1   
 43  22  24  1   
 44  23  44  1   
 45  23  45  1   
 46  23  46  1   
 47  24  25  1   
 48  25  47  1   
 49  25  48  1   
 50  25  49  1   
@<TRIPOS>SUBSTRUCTURE
  1 ****   6 GROUP 4 **** **** 0

# MOE 2024.06 (io_trps.svl 2023.06)
