@<TRIPOS>MOLECULE
NONAME
36 35 1 0 0 
SMALL
USER_CHARGES


@<TRIPOS>ATOM
  1 N       -0.1170     1.1090    -0.9480 N.4   1 <1>  -0.9590 
  2 C        1.2970     0.8240    -1.3280 C.3   1 <1>   0.4810 
  3 C       -0.8190    -0.1740    -0.5670 C.3   1 <1>   0.3430 
  4 C       -0.7880     1.8680    -2.0550 C.3   1 <1>   0.2630 
  5 C        2.0050     0.2650    -0.1050 C.2   1 <1>  -0.2760 
  6 C       -2.1970     0.0200     0.1270 C.3   1 <1>   0.3430 
  7 C        2.3410    -1.0320    -0.0350 C.2   1 <1>  -0.2880 
  8 C        2.3050     1.3230     0.9590 C.3   1 <1>  -0.1020 
  9 N       -2.8400    -1.2620     0.6030 N.4   1 <1>  -0.9590 
 10 C        3.0600    -1.7750     1.0850 C.3   1 <1>  -0.1020 
 11 C       -4.2260    -0.9920     1.1160 C.3   1 <1>   0.2630 
 12 C       -2.0520    -1.9600     1.6770 C.3   1 <1>   0.2630 
 13 H       -0.0290     1.7190    -0.1220 H     1 <1>   0.4500 
 14 H        1.3290     0.1050    -2.1310 H     1 <1>   0.0800 
 15 H        1.7960     1.7230    -1.6560 H     1 <1>   0.0800 
 16 H       -0.9510    -0.7760    -1.4510 H     1 <1>   0.0800 
 17 H       -0.1870    -0.7220     0.1120 H     1 <1>   0.0800 
 18 H       -0.8450     1.2640    -2.9470 H     1 <1>   0.0800 
 19 H       -0.2310     2.7620    -2.2860 H     1 <1>   0.0800 
 20 H       -1.7860     2.1590    -1.7690 H     1 <1>   0.0800 
 21 H       -2.8630     0.5040    -0.5680 H     1 <1>   0.0800 
 22 H       -2.0670     0.6740     0.9740 H     1 <1>   0.0800 
 23 H        2.1280    -1.7150    -0.8430 H     1 <1>   0.1500 
 24 H        2.8390     2.1480     0.5190 H     1 <1>   0.0800 
 25 H        2.9240     0.9400     1.7480 H     1 <1>   0.0800 
 26 H        1.4030     1.6970     1.4060 H     1 <1>   0.0800 
 27 H       -2.9480    -1.9200    -0.1890 H     1 <1>   0.4500 
 28 H        2.4750    -2.6200     1.4020 H     1 <1>   0.0800 
 29 H        3.2470    -1.1610     1.9450 H     1 <1>   0.0800 
 30 H        4.0060    -2.1400     0.7250 H     1 <1>   0.0800 
 31 H       -4.1930    -0.3270     1.9640 H     1 <1>   0.0800 
 32 H       -4.6980    -1.9120     1.4240 H     1 <1>   0.0800 
 33 H       -4.8340    -0.5420     0.3480 H     1 <1>   0.0800 
 34 H       -1.9390    -1.3220     2.5390 H     1 <1>   0.0800 
 35 H       -1.0730    -2.2350     1.3190 H     1 <1>   0.0800 
 36 H       -2.5600    -2.8600     1.9870 H     1 <1>   0.0800 
@<TRIPOS>BOND
  1   1   2  1   
  2   1   3  1   
  3   1   4  1   
  4   1  13  1   
  5   2   5  1   
  6   2  14  1   
  7   2  15  1   
  8   3   6  1   
  9   3  16  1   
 10   3  17  1   
 11   4  18  1   
 12   4  19  1   
 13   4  20  1   
 14   5   7  2   
 15   5   8  1   
 16   6   9  1   
 17   6  21  1   
 18   6  22  1   
 19   7  10  1   
 20   7  23  1   
 21   8  24  1   
 22   8  25  1   
 23   8  26  1   
 24   9  11  1   
 25   9  12  1   
 26   9  27  1   
 27  10  28  1   
 28  10  29  1   
 29  10  30  1   
 30  11  31  1   
 31  11  32  1   
 32  11  33  1   
 33  12  34  1   
 34  12  35  1   
 35  12  36  1   
@<TRIPOS>SUBSTRUCTURE
  1 ****   3 GROUP 4 **** **** 0

# MOE 2024.06 (io_trps.svl 2023.06)
