@<TRIPOS>MOLECULE
NONAME
29 29 1 0 0 
SMALL
USER_CHARGES


@<TRIPOS>ATOM
  1 S       -0.2430    -0.8600     0.0690 S.o2  1 <1>   1.4470 
  2 O       -1.0940    -1.1810     1.1930 O.2   1 <1>  -0.6500 
  3 O        0.4630    -1.9170    -0.6120 O.2   1 <1>  -0.6500 
  4 N       -1.2100    -0.1970    -1.1310 N.am  1 <1>  -0.9140 
  5 C        0.9180     0.4730     0.4920 C.ar  1 <1>  -0.0090 
  6 C       -2.4850     0.3770    -0.6980 C.3   1 <1>   0.1960 
  7 C        1.7550     1.0130    -0.4820 C.ar  1 <1>  -0.1500 
  8 C        0.9910     0.9850     1.7890 C.ar  1 <1>  -0.1500 
  9 C       -2.3120     1.7230     0.0330 C.3   1 <1>  -0.0800 
 10 C        2.6260     2.0340    -0.1530 C.ar  1 <1>   0.1900 
 11 C        1.8650     2.0100     2.1230 C.ar  1 <1>  -0.1500 
 12 C       -3.6790     2.2490     0.4880 C.3   1 <1>  -0.2400 
 13 C       -1.6290     2.7810    -0.8490 C.3   1 <1>  -0.2400 
 14 F        3.3980     2.5280    -1.0850 F     1 <1>  -0.1900 
 15 C        2.6810     2.5300     1.1380 C.ar  1 <1>   0.1900 
 16 F        3.5050     3.4980     1.4450 F     1 <1>  -0.1900 
 17 H       -1.4110    -1.0020    -1.7230 H     1 <1>   0.4200 
 18 H       -3.0120    -0.3210    -0.0680 H     1 <1>   0.0800 
 19 H       -3.0940     0.5440    -1.5710 H     1 <1>   0.0800 
 20 H        1.7260     0.6400    -1.4910 H     1 <1>   0.1500 
 21 H        0.3500     0.5720     2.5530 H     1 <1>   0.1500 
 22 H       -1.7210     1.5680     0.9180 H     1 <1>   0.0800 
 23 H        1.9140     2.3990     3.1260 H     1 <1>   0.1500 
 24 H       -4.3200     2.4300    -0.3570 H     1 <1>   0.0800 
 25 H       -3.5620     3.1710     1.0310 H     1 <1>   0.0800 
 26 H       -4.1570     1.5370     1.1380 H     1 <1>   0.0800 
 27 H       -2.2130     2.9720    -1.7320 H     1 <1>   0.0800 
 28 H       -0.6530     2.4520    -1.1550 H     1 <1>   0.0800 
 29 H       -1.5150     3.7030    -0.3070 H     1 <1>   0.0800 
@<TRIPOS>BOND
  1   1   2  2   
  2   1   3  2   
  3   1   4  am  
  4   1   5  1   
  5   4   6  1   
  6   4  17  1   
  7   5   7  ar  
  8   5   8  ar  
  9   6   9  1   
 10   6  18  1   
 11   6  19  1   
 12   7  10  ar  
 13   7  20  1   
 14   8  11  ar  
 15   8  21  1   
 16   9  12  1   
 17   9  13  1   
 18   9  22  1   
 19  10  14  1   
 20  10  15  ar  
 21  11  15  ar  
 22  11  23  1   
 23  12  24  1   
 24  12  25  1   
 25  12  26  1   
 26  13  27  1   
 27  13  28  1   
 28  13  29  1   
 29  15  16  1   
@<TRIPOS>SUBSTRUCTURE
  1 ****   5 GROUP 4 **** **** 0

# MOE 2024.06 (io_trps.svl 2023.06)
