@<TRIPOS>MOLECULE
NONAME
51 53 1 0 0 
SMALL
USER_CHARGES


@<TRIPOS>ATOM
  1 S        0.4130    -0.2140    -0.6080 S.o2  1 <1>   1.4470 
  2 O        1.1290    -1.0250     0.3480 O.2   1 <1>  -0.6500 
  3 O        0.4990    -0.5330    -2.0120 O.2   1 <1>  -0.6500 
  4 N        1.0000     1.3550    -0.5690 N.am  1 <1>  -0.9140 
  5 C       -1.3330    -0.0150    -0.1500 C.ar  1 <1>  -0.0090 
  6 C        1.6390     1.8630     0.6340 C.3   1 <1>   0.4990 
  7 C       -2.2270     0.5920    -1.0260 C.ar  1 <1>  -0.1500 
  8 C       -1.8190    -0.4390     1.0820 C.ar  1 <1>  -0.1500 
  9 C        3.0710     1.2920     0.6760 C.ar  1 <1>  -0.1430 
 10 C        1.7820     3.4150     0.4920 C.3   1 <1>   0.1100 
 11 C        0.7950     1.5970     1.8970 C.3   1 <1>  -0.2400 
 12 C       -3.5560     0.7790    -0.6840 C.ar  1 <1>  -0.1500 
 13 C       -3.1440    -0.2530     1.4340 C.ar  1 <1>  -0.1500 
 14 C        3.5720     0.5980     1.7750 C.ar  1 <1>  -0.1500 
 15 C        3.9190     1.4760    -0.4160 C.ar  1 <1>  -0.1500 
 16 N        0.5590     4.2610     0.6920 N.3   1 <1>  -0.8100 
 17 C       -4.0140     0.3590     0.5500 C.ar  1 <1>  -0.1500 
 18 C        4.8660     0.1090     1.7830 C.ar  1 <1>  -0.1500 
 19 C        5.2130     0.9870    -0.4100 C.ar  1 <1>  -0.1500 
 20 C        0.9270     5.6840     0.8340 C.3   1 <1>   0.1100 
 21 C       -0.4720     4.0640    -0.3530 C.3   1 <1>   0.1100 
 22 C        5.6900     0.3030     0.6910 C.ar  1 <1>  -0.1500 
 23 C       -0.3080     6.5600     1.1260 C.3   1 <1>   0.3430 
 24 C       -1.7220     4.9250    -0.0850 C.3   1 <1>   0.3430 
 25 N       -1.3710     6.3740     0.0850 N.4   1 <1>  -0.9060 
 26 H        1.7590     1.2840    -1.2400 H     1 <1>   0.4200 
 27 H       -1.8760     0.9110    -1.9930 H     1 <1>   0.1500 
 28 H       -1.1520    -0.9250     1.7750 H     1 <1>   0.1500 
 29 H        2.2170     3.6430    -0.4650 H     1 <1>   0.0800 
 30 H        2.5030     3.7120     1.2350 H     1 <1>   0.0800 
 31 H        0.7800     0.5620     2.1740 H     1 <1>   0.0800 
 32 H       -0.2140     1.9370     1.7620 H     1 <1>   0.0800 
 33 H        1.2140     2.1400     2.7250 H     1 <1>   0.0800 
 34 H       -4.2350     1.2410    -1.3810 H     1 <1>   0.1500 
 35 H       -3.5000    -0.5900     2.3930 H     1 <1>   0.1500 
 36 H        2.9720     0.4130     2.6470 H     1 <1>   0.1500 
 37 H        3.5920     2.0040    -1.2940 H     1 <1>   0.1500 
 38 H       -5.0480     0.4970     0.8210 H     1 <1>   0.1500 
 39 H        5.2320    -0.4280     2.6410 H     1 <1>   0.1500 
 40 H        5.8520     1.1360    -1.2630 H     1 <1>   0.1500 
 41 H        1.4170     6.0300    -0.0600 H     1 <1>   0.0800 
 42 H        1.6210     5.7900     1.6520 H     1 <1>   0.0800 
 43 H       -0.7920     3.0390    -0.3570 H     1 <1>   0.0800 
 44 H       -0.0650     4.2890    -1.3240 H     1 <1>   0.0800 
 45 H        6.6950    -0.0800     0.6980 H     1 <1>   0.1500 
 46 H       -0.0100     7.5950     1.1710 H     1 <1>   0.0800 
 47 H       -0.6950     6.2830     2.0940 H     1 <1>   0.0800 
 48 H       -2.1930     4.5590     0.8130 H     1 <1>   0.0800 
 49 H       -2.4190     4.8040    -0.8980 H     1 <1>   0.0800 
 50 H       -1.0280     6.7390    -0.8100 H     1 <1>   0.4500 
 51 H       -2.2100     6.9090     0.3400 H     1 <1>   0.4500 
@<TRIPOS>BOND
  1   1   2  2   
  2   1   3  2   
  3   1   4  am  
  4   1   5  1   
  5   4   6  1   
  6   4  26  1   
  7   5   7  ar  
  8   5   8  ar  
  9   6   9  1   
 10   6  10  1   
 11   6  11  1   
 12   7  12  ar  
 13   7  27  1   
 14   8  13  ar  
 15   8  28  1   
 16   9  14  ar  
 17   9  15  ar  
 18  10  16  1   
 19  10  29  1   
 20  10  30  1   
 21  11  31  1   
 22  11  32  1   
 23  11  33  1   
 24  12  17  ar  
 25  12  34  1   
 26  13  17  ar  
 27  13  35  1   
 28  14  18  ar  
 29  14  36  1   
 30  15  19  ar  
 31  15  37  1   
 32  16  20  1   
 33  16  21  1   
 34  17  38  1   
 35  18  22  ar  
 36  18  39  1   
 37  19  22  ar  
 38  19  40  1   
 39  20  23  1   
 40  20  41  1   
 41  20  42  1   
 42  21  24  1   
 43  21  43  1   
 44  21  44  1   
 45  22  45  1   
 46  23  25  1   
 47  23  46  1   
 48  23  47  1   
 49  24  25  1   
 50  24  48  1   
 51  24  49  1   
 52  25  50  1   
 53  25  51  1   
@<TRIPOS>SUBSTRUCTURE
  1 ****   4 GROUP 4 **** **** 0

# MOE 2024.06 (io_trps.svl 2023.06)
