@<TRIPOS>MOLECULE
NONAME
35 38 1 0 0 
SMALL
USER_CHARGES


@<TRIPOS>ATOM
  1 O       -0.5840    -0.4160    -0.4370 O.2   1 <1>  -0.5700 
  2 C       -0.7270    -1.6070    -0.3460 C.2   1 <1>   0.5690 
  3 N        0.2370    -2.5790    -0.1110 N.am  1 <1>  -0.2370 
  4 C       -2.0380    -2.3130    -0.5170 C.3   1 <1>  -0.0190 
  5 C        1.6310    -2.3950    -0.1910 C.ar  1 <1>   0.1170 
  6 C       -0.4120    -3.7630     0.2150 C.2   1 <1>   0.5690 
  7 C       -3.5530    -2.0720    -0.3640 C.3   1 <1>   0.3380 
  8 C       -1.8320    -3.4080     0.5240 C.3   1 <1>  -0.0190 
  9 C        2.4440    -3.3250    -0.8320 C.ar  1 <1>  -0.1500 
 10 C        2.2430    -1.2760     0.3660 C.ar  1 <1>  -0.1500 
 11 O        0.0390    -4.8760     0.2760 O.2   1 <1>  -0.5700 
 12 O       -3.8380    -2.7130     0.8420 O.3   1 <1>  -0.5600 
 13 C       -4.1770    -3.1200    -1.2650 C.2   1 <1>  -0.2880 
 14 C       -3.2460    -3.9630     0.6390 C.3   1 <1>   0.3380 
 15 C        3.8110    -3.1400    -0.9120 C.ar  1 <1>  -0.1500 
 16 C        3.6100    -1.0950     0.2830 C.ar  1 <1>  -0.1500 
 17 C       -3.9340    -4.2880    -0.6750 C.2   1 <1>  -0.2880 
 18 C        4.4370    -2.0210    -0.3580 C.ar  1 <1>   0.0860 
 19 C        5.8730    -1.8420    -0.4530 C.2   1 <1>   0.6340 
 20 O        6.6060    -2.6260    -1.0220 O.2   1 <1>  -0.5700 
 21 O        6.4120    -0.7560     0.1150 O.3   1 <1>  -0.4300 
 22 C        7.8020    -0.5030     0.0670 C.3   1 <1>   0.0400 
 23 H       -1.9190    -2.7160    -1.5110 H     1 <1>   0.0800 
 24 H       -3.9430    -1.0690    -0.4010 H     1 <1>   0.0800 
 25 H       -1.7020    -2.9580     1.4980 H     1 <1>   0.0800 
 26 H        2.0060    -4.2040    -1.2710 H     1 <1>   0.1500 
 27 H        1.6440    -0.5360     0.8680 H     1 <1>   0.1500 
 28 H       -4.6570    -2.8540    -2.1900 H     1 <1>   0.1500 
 29 H       -3.4560    -4.6130     1.4720 H     1 <1>   0.0800 
 30 H        4.4140    -3.8790    -1.4130 H     1 <1>   0.1500 
 31 H        4.0450    -0.2140     0.7250 H     1 <1>   0.1500 
 32 H       -4.1440    -5.3050    -0.9580 H     1 <1>   0.1500 
 33 H        8.3200    -1.3170     0.5440 H     1 <1>   0.0800 
 34 H        8.0000     0.4170     0.5860 H     1 <1>   0.0800 
 35 H        8.1060    -0.4230    -0.9620 H     1 <1>   0.0800 
@<TRIPOS>BOND
  1   1   2  2   
  2   2   3  am  
  3   2   4  1   
  4   3   5  1   
  5   3   6  am  
  6   4   7  1   
  7   4   8  1   
  8   4  23  1   
  9   5   9  ar  
 10   5  10  ar  
 11   6   8  1   
 12   6  11  2   
 13   7  12  1   
 14   7  13  1   
 15   7  24  1   
 16   8  14  1   
 17   8  25  1   
 18   9  15  ar  
 19   9  26  1   
 20  10  16  ar  
 21  10  27  1   
 22  12  14  1   
 23  13  17  2   
 24  13  28  1   
 25  14  17  1   
 26  14  29  1   
 27  15  18  ar  
 28  15  30  1   
 29  16  18  ar  
 30  16  31  1   
 31  17  32  1   
 32  18  19  1   
 33  19  20  2   
 34  19  21  1   
 35  21  22  1   
 36  22  33  1   
 37  22  34  1   
 38  22  35  1   
@<TRIPOS>SUBSTRUCTURE
  1 ****   5 GROUP 4 **** **** 0

# MOE 2024.06 (io_trps.svl 2023.06)
