@<TRIPOS>MOLECULE
NONAME
48 50 1 0 0 
SMALL
USER_CHARGES


@<TRIPOS>ATOM
  1 S       -0.6920    -0.4770     1.0590 S.o2  1 <1>   1.3330 
  2 O        0.0460    -1.0130     2.1790 O.2   1 <1>  -0.6500 
  3 O       -2.1280    -0.5970     1.0080 O.2   1 <1>  -0.6500 
  4 N       -0.2990     1.1990     0.9320 N.am  1 <1>  -0.6930 
  5 C       -0.0020    -1.1280    -0.4470 C.3   1 <1>  -0.1350 
  6 C       -1.0540     2.0730     0.1640 C.ar  1 <1>   0.1990 
  7 C        0.8430     1.7060     1.7160 C.3   1 <1>   0.3390 
  8 C       -2.2520     2.5830     0.6480 C.ar  1 <1>  -0.1500 
  9 C       -0.6260     2.4560    -1.1020 C.ar  1 <1>  -0.1500 
 10 C        2.1520     1.3770     1.0090 C.ar  1 <1>  -0.1430 
 11 C       -3.0000     3.4670    -0.1080 C.ar  1 <1>  -0.1500 
 12 C       -1.3700     3.3410    -1.8620 C.ar  1 <1>  -0.1500 
 13 C        2.8650     0.2340     1.3360 C.ar  1 <1>  -0.1500 
 14 C        2.6450     2.2160     0.0220 C.ar  1 <1>  -0.1500 
 15 C       -2.5580     3.8500    -1.3630 C.ar  1 <1>  -0.1500 
 16 C        4.0390    -0.0710     0.6740 C.ar  1 <1>  -0.1500 
 17 C        3.8220     1.9070    -0.6350 C.ar  1 <1>  -0.1500 
 18 C        4.5480     0.7600    -0.3230 C.ar  1 <1>   0.0860 
 19 C        5.7820     0.4470    -1.0200 C.2   1 <1>   0.5440 
 20 O        5.8010     0.4800    -2.2350 O.2   1 <1>  -0.5700 
 21 N        6.9380     0.1210    -0.3420 N.am  1 <1>  -0.6600 
 22 C        8.1490    -0.4040    -1.0430 C.3   1 <1>   0.1400 
 23 C        7.1990     0.4760     1.0860 C.3   1 <1>   0.1400 
 24 C        9.3560     0.5160    -0.8000 C.3   1 <1>   0.1200 
 25 C        8.4640     1.3420     1.2060 C.3   1 <1>   0.1200 
 26 O        9.5490     0.7260     0.5720 O.3   1 <1>  -0.5600 
 27 H       -0.1610    -2.1870    -0.4960 H     1 <1>   0.0800 
 28 H        1.0510    -0.9350    -0.4900 H     1 <1>   0.0800 
 29 H       -0.4730    -0.6700    -1.2950 H     1 <1>   0.0800 
 30 H        0.8300     1.2770     2.7030 H     1 <1>   0.0800 
 31 H        0.7530     2.7730     1.8250 H     1 <1>   0.0800 
 32 H       -2.5970     2.2740     1.6180 H     1 <1>   0.1500 
 33 H        0.2900     2.0550    -1.4930 H     1 <1>   0.1500 
 34 H       -3.9270     3.8540     0.2780 H     1 <1>   0.1500 
 35 H       -1.0290     3.6340    -2.8400 H     1 <1>   0.1500 
 36 H        2.5060    -0.4300     2.1060 H     1 <1>   0.1500 
 37 H        2.1110     3.1130    -0.2420 H     1 <1>   0.1500 
 38 H       -3.1400     4.5380    -1.9520 H     1 <1>   0.1500 
 39 H        4.5750    -0.9700     0.9270 H     1 <1>   0.1500 
 40 H        4.1930     2.5580    -1.4090 H     1 <1>   0.1500 
 41 H        7.9740    -0.4880    -2.1010 H     1 <1>   0.0800 
 42 H        8.3750    -1.3870    -0.6690 H     1 <1>   0.0800 
 43 H        7.3330    -0.4260     1.6570 H     1 <1>   0.0800 
 44 H        6.3700     1.0190     1.5040 H     1 <1>   0.0800 
 45 H        9.2060     1.4680    -1.2800 H     1 <1>   0.0800 
 46 H       10.2500     0.0670    -1.1940 H     1 <1>   0.0800 
 47 H        8.7240     1.4790     2.2400 H     1 <1>   0.0800 
 48 H        8.3060     2.3070     0.7580 H     1 <1>   0.0800 
@<TRIPOS>BOND
  1   1   2  2   
  2   1   3  2   
  3   1   4  am  
  4   1   5  1   
  5   4   6  1   
  6   4   7  1   
  7   5  27  1   
  8   5  28  1   
  9   5  29  1   
 10   6   8  ar  
 11   6   9  ar  
 12   7  10  1   
 13   7  30  1   
 14   7  31  1   
 15   8  11  ar  
 16   8  32  1   
 17   9  12  ar  
 18   9  33  1   
 19  10  13  ar  
 20  10  14  ar  
 21  11  15  ar  
 22  11  34  1   
 23  12  15  ar  
 24  12  35  1   
 25  13  16  ar  
 26  13  36  1   
 27  14  17  ar  
 28  14  37  1   
 29  15  38  1   
 30  16  18  ar  
 31  16  39  1   
 32  17  18  ar  
 33  17  40  1   
 34  18  19  1   
 35  19  20  2   
 36  19  21  am  
 37  21  22  1   
 38  21  23  1   
 39  22  24  1   
 40  22  41  1   
 41  22  42  1   
 42  23  25  1   
 43  23  43  1   
 44  23  44  1   
 45  24  26  1   
 46  24  45  1   
 47  24  46  1   
 48  25  26  1   
 49  25  47  1   
 50  25  48  1   
@<TRIPOS>SUBSTRUCTURE
  1 ****  10 GROUP 4 **** **** 0

# MOE 2024.06 (io_trps.svl 2023.06)
