@<TRIPOS>MOLECULE
NONAME
34 35 1 0 0 
SMALL
USER_CHARGES


@<TRIPOS>ATOM
  1 F       -0.3700    -2.2400    -0.3760 F     1 <1>  -0.1900 
  2 C        0.9160    -2.0140    -0.3970 C.ar  1 <1>   0.1900 
  3 C        1.7460    -2.8300     0.3420 C.ar  1 <1>  -0.1500 
  4 C        1.3980    -0.9720    -1.1600 C.ar  1 <1>  -0.1500 
  5 C        3.1180    -2.6110     0.3190 C.ar  1 <1>  -0.1440 
  6 C        2.7630    -0.7460    -1.1730 C.ar  1 <1>  -0.1500 
  7 C        3.6260    -1.5520    -0.4380 C.ar  1 <1>  -0.1430 
  8 C        4.0070    -3.5490     1.1320 C.3   1 <1>  -0.0160 
  9 C        5.1140    -1.2260    -0.4840 C.3   1 <1>  -0.0960 
 10 C        4.5820    -4.7000     0.2790 C.3   1 <1>  -0.0800 
 11 C        3.4770    -5.5550    -0.3710 C.3   1 <1>  -0.1600 
 12 C        5.5050    -5.5930     1.1260 C.3   1 <1>  -0.1600 
 13 C        4.0520    -6.7400    -1.1460 C.3   1 <1>   0.3430 
 14 C        6.0460    -6.7790     0.3240 C.3   1 <1>   0.3430 
 15 N        4.9110    -7.5550    -0.2450 N.4   1 <1>  -0.9060 
 16 H        1.3120    -3.6230     0.9230 H     1 <1>   0.1500 
 17 H        0.7230    -0.3560    -1.7250 H     1 <1>   0.1500 
 18 H        3.1470     0.0710    -1.7590 H     1 <1>   0.1500 
 19 H        3.4350    -3.9560     1.9480 H     1 <1>   0.0800 
 20 H        4.8090    -2.9870     1.5760 H     1 <1>   0.0800 
 21 H        5.6690    -2.0460    -0.8980 H     1 <1>   0.0800 
 22 H        5.4770    -1.0140     0.5050 H     1 <1>   0.0800 
 23 H        5.2990    -0.3600    -1.0930 H     1 <1>   0.0800 
 24 H        5.1700    -4.2630    -0.5110 H     1 <1>   0.0800 
 25 H        2.9130    -4.9510    -1.0610 H     1 <1>   0.0800 
 26 H        2.7910    -5.9120     0.3770 H     1 <1>   0.0800 
 27 H        4.9780    -5.9600     1.9910 H     1 <1>   0.0800 
 28 H        6.3370    -5.0110     1.4820 H     1 <1>   0.0800 
 29 H        4.6350    -6.3740    -1.9760 H     1 <1>   0.0800 
 30 H        3.2460    -7.3410    -1.5380 H     1 <1>   0.0800 
 31 H        6.6430    -7.4080     0.9650 H     1 <1>   0.0800 
 32 H        6.6740    -6.4140    -0.4740 H     1 <1>   0.0800 
 33 H        5.2690    -8.3720    -0.7560 H     1 <1>   0.4500 
 34 H        4.3330    -7.9110     0.5260 H     1 <1>   0.4500 
@<TRIPOS>BOND
  1   1   2  1   
  2   2   3  ar  
  3   2   4  ar  
  4   3   5  ar  
  5   3  16  1   
  6   4   6  ar  
  7   4  17  1   
  8   5   7  ar  
  9   5   8  1   
 10   6   7  ar  
 11   6  18  1   
 12   7   9  1   
 13   8  10  1   
 14   8  19  1   
 15   8  20  1   
 16   9  21  1   
 17   9  22  1   
 18   9  23  1   
 19  10  11  1   
 20  10  12  1   
 21  10  24  1   
 22  11  13  1   
 23  11  25  1   
 24  11  26  1   
 25  12  14  1   
 26  12  27  1   
 27  12  28  1   
 28  13  15  1   
 29  13  29  1   
 30  13  30  1   
 31  14  15  1   
 32  14  31  1   
 33  14  32  1   
 34  15  33  1   
 35  15  34  1   
@<TRIPOS>SUBSTRUCTURE
  1 ****   5 GROUP 4 **** **** 0

# MOE 2024.06 (io_trps.svl 2023.06)
