@<TRIPOS>MOLECULE
NONAME
47 49 1 0 0 
SMALL
USER_CHARGES


@<TRIPOS>ATOM
  1 O       -3.8460    -2.2390     1.0730 O.3   1 <1>  -0.3630 
  2 C       -3.4130    -3.0630     0.0860 C.ar  1 <1>   0.0830 
  3 C       -3.9600    -0.8640     0.7690 C.3   1 <1>   0.0400 
  4 C       -4.0360    -3.1800    -1.1610 C.ar  1 <1>   0.0830 
  5 C       -2.2860    -3.8170     0.3620 C.ar  1 <1>  -0.1500 
  6 O       -5.1710    -2.5170    -1.4840 O.3   1 <1>  -0.3630 
  7 C       -3.4850    -4.0100    -2.1210 C.ar  1 <1>  -0.1500 
  8 C       -1.7420    -4.6700    -0.5950 C.ar  1 <1>  -0.1430 
  9 C       -6.3460    -2.9360    -0.8250 C.3   1 <1>   0.0400 
 10 C       -2.3490    -4.7500    -1.8410 C.ar  1 <1>  -0.1500 
 11 C       -0.5110    -5.5260    -0.3270 C.3   1 <1>   0.5660 
 12 N       -0.6360    -6.1180     1.0190 N.4   1 <1>  -0.9060 
 13 C        0.8260    -4.7790    -0.4880 C.3   1 <1>  -0.0800 
 14 C        0.4260    -7.1210     1.2750 C.3   1 <1>   0.3430 
 15 C        1.9900    -5.7440    -0.1750 C.3   1 <1>   0.2800 
 16 C        0.9690    -3.4530     0.2960 C.3   1 <1>  -0.1600 
 17 C        1.7940    -6.4480     1.1770 C.3   1 <1>  -0.1600 
 18 O        1.9290    -6.7300    -1.1360 O.3   1 <1>  -0.6800 
 19 C        3.3810    -5.0700    -0.2490 C.3   1 <1>  -0.1600 
 20 C        2.3440    -2.7850     0.0830 C.3   1 <1>  -0.1600 
 21 C        3.3270    -3.6210    -0.7550 C.3   1 <1>  -0.1600 
 22 H       -4.0560    -0.3230     1.6930 H     1 <1>   0.0800 
 23 H       -4.8320    -0.7010     0.1630 H     1 <1>   0.0800 
 24 H       -3.0760    -0.5440     0.2450 H     1 <1>   0.0800 
 25 H       -1.8500    -3.6990     1.3360 H     1 <1>   0.1500 
 26 H       -3.9580    -4.0750    -3.0860 H     1 <1>   0.1500 
 27 H       -7.1680    -2.3510    -1.1990 H     1 <1>   0.0800 
 28 H       -6.2370    -2.7810     0.2330 H     1 <1>   0.0800 
 29 H       -6.5100    -3.9780    -1.0360 H     1 <1>   0.0800 
 30 H       -1.9500    -5.3890    -2.6130 H     1 <1>   0.1500 
 31 H       -0.5110    -6.3300    -1.0470 H     1 <1>   0.0800 
 32 H       -1.5700    -6.5380     1.0790 H     1 <1>   0.4500 
 33 H       -0.5960    -5.3570     1.7000 H     1 <1>   0.4500 
 34 H        0.8880    -4.5170    -1.5300 H     1 <1>   0.0800 
 35 H        0.3670    -7.9100     0.5410 H     1 <1>   0.0800 
 36 H        0.3020    -7.5550     2.2540 H     1 <1>   0.0800 
 37 H        0.8280    -3.6210     1.3490 H     1 <1>   0.0800 
 38 H        0.2120    -2.7580    -0.0260 H     1 <1>   0.0800 
 39 H        2.5630    -7.1880     1.3130 H     1 <1>   0.0800 
 40 H        1.8950    -5.7390     1.9790 H     1 <1>   0.0800 
 41 H        2.8330    -7.0260    -1.3670 H     1 <1>   0.4000 
 42 H        4.0570    -5.6350    -0.8680 H     1 <1>   0.0800 
 43 H        3.8170    -5.0370     0.7340 H     1 <1>   0.0800 
 44 H        2.7880    -2.5860     1.0440 H     1 <1>   0.0800 
 45 H        2.2080    -1.8320    -0.4010 H     1 <1>   0.0800 
 46 H        3.0280    -3.6080    -1.7900 H     1 <1>   0.0800 
 47 H        4.3080    -3.1800    -0.7010 H     1 <1>   0.0800 
@<TRIPOS>BOND
  1   1   2  1   
  2   1   3  1   
  3   2   4  ar  
  4   2   5  ar  
  5   3  22  1   
  6   3  23  1   
  7   3  24  1   
  8   4   6  1   
  9   4   7  ar  
 10   5   8  ar  
 11   5  25  1   
 12   6   9  1   
 13   7  10  ar  
 14   7  26  1   
 15   8  10  ar  
 16   8  11  1   
 17   9  27  1   
 18   9  28  1   
 19   9  29  1   
 20  10  30  1   
 21  11  12  1   
 22  11  13  1   
 23  11  31  1   
 24  12  14  1   
 25  12  32  1   
 26  12  33  1   
 27  13  15  1   
 28  13  16  1   
 29  13  34  1   
 30  14  17  1   
 31  14  35  1   
 32  14  36  1   
 33  15  17  1   
 34  15  18  1   
 35  15  19  1   
 36  16  20  1   
 37  16  37  1   
 38  16  38  1   
 39  17  39  1   
 40  17  40  1   
 41  18  41  1   
 42  19  21  1   
 43  19  42  1   
 44  19  43  1   
 45  20  21  1   
 46  20  44  1   
 47  20  45  1   
 48  21  46  1   
 49  21  47  1   
@<TRIPOS>SUBSTRUCTURE
  1 ****   8 GROUP 4 **** **** 0

# MOE 2024.06 (io_trps.svl 2023.06)
