@<TRIPOS>MOLECULE
NONAME
30 29 1 0 0 
SMALL
USER_CHARGES


@<TRIPOS>ATOM
  1 S       -0.1460     0.3240    -0.6170 S.o2  1 <1>   1.3450 
  2 O        0.7810    -0.8070    -0.8580 O.co2 1 <1>  -0.8170 
  3 O       -0.4910     1.0980    -1.8320 O.co2 1 <1>  -0.8170 
  4 O        0.1780     1.1500     0.5670 O.co2 1 <1>  -0.8170 
  5 C       -1.6940    -0.4830    -0.1870 C.3   1 <1>  -0.0550 
  6 C       -2.7710     0.5470     0.1230 C.3   1 <1>   0.1400 
  7 N       -4.1060    -0.1080     0.1240 N.am  1 <1>  -0.7300 
  8 C       -4.9240    -0.2470     1.1970 C.2   1 <1>   0.5690 
  9 O       -4.6290     0.1400     2.3010 O.2   1 <1>  -0.5700 
 10 C       -6.2650    -0.9210     0.9890 C.3   1 <1>  -0.0990 
 11 C       -7.2720     0.0040     0.2860 C.3   1 <1>  -0.1600 
 12 C       -8.6250    -0.6910     0.0860 C.3   1 <1>  -0.1600 
 13 C       -9.6230     0.2370    -0.6160 C.3   1 <1>  -0.1600 
 14 C      -10.9730    -0.4560    -0.8170 C.3   1 <1>  -0.2400 
 15 H       -1.5430    -1.1080     0.6700 H     1 <1>   0.0800 
 16 H       -1.9990    -1.0890    -1.0150 H     1 <1>   0.0800 
 17 H       -2.7600     1.3210    -0.6260 H     1 <1>   0.0800 
 18 H       -2.5680     1.0040     1.0780 H     1 <1>   0.0800 
 19 H       -4.4220    -0.4320    -0.7900 H     1 <1>   0.3700 
 20 H       -6.6520    -1.2090     1.9500 H     1 <1>   0.0800 
 21 H       -6.1160    -1.8140     0.4120 H     1 <1>   0.0800 
 22 H       -6.8780     0.3040    -0.6700 H     1 <1>   0.0800 
 23 H       -7.4070     0.8910     0.8820 H     1 <1>   0.0800 
 24 H       -9.0230    -0.9820     1.0440 H     1 <1>   0.0800 
 25 H       -8.4900    -1.5810    -0.5050 H     1 <1>   0.0800 
 26 H       -9.2310     0.5330    -1.5750 H     1 <1>   0.0800 
 27 H       -9.7670     1.1260    -0.0260 H     1 <1>   0.0800 
 28 H      -10.8580    -1.3380    -1.4230 H     1 <1>   0.0800 
 29 H      -11.6590     0.2100    -1.3090 H     1 <1>   0.0800 
 30 H      -11.3940    -0.7410     0.1320 H     1 <1>   0.0800 
@<TRIPOS>BOND
  1   1   2  ar  
  2   1   3  ar  
  3   1   4  ar  
  4   1   5  1   
  5   5   6  1   
  6   5  15  1   
  7   5  16  1   
  8   6   7  1   
  9   6  17  1   
 10   6  18  1   
 11   7   8  am  
 12   7  19  1   
 13   8   9  2   
 14   8  10  1   
 15  10  11  1   
 16  10  20  1   
 17  10  21  1   
 18  11  12  1   
 19  11  22  1   
 20  11  23  1   
 21  12  13  1   
 22  12  24  1   
 23  12  25  1   
 24  13  14  1   
 25  13  26  1   
 26  13  27  1   
 27  14  28  1   
 28  14  29  1   
 29  14  30  1   
@<TRIPOS>SUBSTRUCTURE
  1 ****   7 GROUP 4 **** **** 0

# MOE 2024.06 (io_trps.svl 2023.06)
