@<TRIPOS>MOLECULE
NONAME
32 34 1 0 0 
SMALL
USER_CHARGES


@<TRIPOS>ATOM
  1 CL       0.3500     0.9060     0.4450 Cl    1 <1>  -0.1770 
  2 C       -1.3040     1.4070     0.2170 C.ar  1 <1>   0.1770 
  3 C       -2.2540     1.0740     1.1630 C.ar  1 <1>  -0.1500 
  4 C       -1.6480     2.1320    -0.9070 C.ar  1 <1>  -0.1500 
  5 C       -3.5650     1.4750     0.9770 C.ar  1 <1>  -0.1500 
  6 C       -2.9620     2.5280    -1.0820 C.ar  1 <1>  -0.1500 
  7 C       -3.9540     2.2110    -0.1480 C.ar  1 <1>   0.0540 
  8 C       -5.3320     2.6320    -0.3450 C.2   1 <1>   0.4620 
  9 N       -5.7730     3.3100    -1.3440 N.2   1 <1>  -0.4100 
 10 N       -6.3060     2.3440     0.5250 N.2   1 <1>  -0.5650 
 11 O       -7.0460     3.4870    -1.1760 O.3   1 <1>  -0.0190 
 12 C       -7.3050     2.8870    -0.0440 C.2   1 <1>   0.2980 
 13 C       -8.7380     2.9000     0.4810 C.3   1 <1>   0.2900 
 14 N       -9.6800     2.1570    -0.3840 N.3   1 <1>  -0.8100 
 15 C      -11.0460     2.1740     0.1210 C.3   1 <1>   0.1100 
 16 C       -9.3280     0.7490    -0.5400 C.3   1 <1>   0.1100 
 17 C      -11.7360     1.0370    -0.6210 C.3   1 <1>  -0.1600 
 18 C      -10.6120     0.0800    -1.0170 C.3   1 <1>  -0.1600 
 19 H       -1.9660     0.5090     2.0320 H     1 <1>   0.1500 
 20 H       -0.8940     2.3820    -1.6320 H     1 <1>   0.1500 
 21 H       -4.3020     1.2130     1.7170 H     1 <1>   0.1500 
 22 H       -3.2260     3.0930    -1.9600 H     1 <1>   0.1500 
 23 H       -9.0610     3.9230     0.5530 H     1 <1>   0.0800 
 24 H       -8.7440     2.4750     1.4700 H     1 <1>   0.0800 
 25 H      -11.5190     3.1220    -0.0730 H     1 <1>   0.0800 
 26 H      -11.0530     1.9710     1.1790 H     1 <1>   0.0800 
 27 H       -9.0330     0.3330     0.4100 H     1 <1>   0.0800 
 28 H       -8.5280     0.6280    -1.2510 H     1 <1>   0.0800 
 29 H      -12.2160     1.4260    -1.5020 H     1 <1>   0.0800 
 30 H      -12.4750     0.5630     0.0000 H     1 <1>   0.0800 
 31 H      -10.7260    -0.8870    -0.5610 H     1 <1>   0.0800 
 32 H      -10.5830    -0.0370    -2.0860 H     1 <1>   0.0800 
@<TRIPOS>BOND
  1   1   2  1   
  2   2   3  ar  
  3   2   4  ar  
  4   3   5  ar  
  5   3  19  1   
  6   4   6  ar  
  7   4  20  1   
  8   5   7  ar  
  9   5  21  1   
 10   6   7  ar  
 11   6  22  1   
 12   7   8  1   
 13   8   9  2   
 14   8  10  1   
 15   9  11  1   
 16  10  12  2   
 17  11  12  1   
 18  12  13  1   
 19  13  14  1   
 20  13  23  1   
 21  13  24  1   
 22  14  15  1   
 23  14  16  1   
 24  15  17  1   
 25  15  25  1   
 26  15  26  1   
 27  16  18  1   
 28  16  27  1   
 29  16  28  1   
 30  17  18  1   
 31  17  29  1   
 32  17  30  1   
 33  18  31  1   
 34  18  32  1   
@<TRIPOS>SUBSTRUCTURE
  1 ****  10 GROUP 4 **** **** 0

# MOE 2024.06 (io_trps.svl 2023.06)
