@<TRIPOS>MOLECULE
NONAME
40 40 1 0 0 
SMALL
USER_CHARGES


@<TRIPOS>ATOM
  1 CL       0.5720    -0.4000     1.8760 Cl    1 <1>  -0.1770 
  2 C       -0.5100     0.5820     0.8990 C.ar  1 <1>   0.1770 
  3 C       -1.7650     0.0660     0.6130 C.ar  1 <1>   0.1770 
  4 C       -0.1620     1.8540     0.4290 C.ar  1 <1>   0.0820 
  5 CL      -2.2270    -1.5250     1.1760 Cl    1 <1>  -0.1770 
  6 C       -2.6890     0.7890    -0.1200 C.ar  1 <1>  -0.1500 
  7 O        1.0300     2.4830     0.6140 O.3   1 <1>  -0.3630 
  8 C       -1.1010     2.5770    -0.2960 C.ar  1 <1>  -0.1500 
  9 C       -2.3540     2.0540    -0.5720 C.ar  1 <1>  -0.1500 
 10 C        2.2470     1.7790     0.6610 C.3   1 <1>   0.1200 
 11 C        3.3600     2.7440     0.2460 C.3   1 <1>  -0.1600 
 12 C        4.7380     2.0680     0.2910 C.3   1 <1>  -0.1600 
 13 C        5.8360     3.0550    -0.1130 C.3   1 <1>   0.3430 
 14 N        7.1860     2.4420     0.0430 N.4   1 <1>  -0.9590 
 15 C        8.2280     3.5040     0.0110 C.3   1 <1>   0.3430 
 16 C        7.4440     1.3820    -0.9720 C.3   1 <1>   0.3430 
 17 C        9.5360     2.9650     0.5800 C.3   1 <1>  -0.2400 
 18 C        7.6160     0.0530    -0.2470 C.3   1 <1>  -0.2400 
 19 H       -3.6560     0.3670    -0.3280 H     1 <1>   0.1500 
 20 H       -0.8430     3.5610    -0.6470 H     1 <1>   0.1500 
 21 H       -3.0660     2.6310    -1.1390 H     1 <1>   0.1500 
 22 H        2.1900     0.9420    -0.0150 H     1 <1>   0.0800 
 23 H        2.4000     1.4390     1.6700 H     1 <1>   0.0800 
 24 H        3.3460     3.5880     0.9150 H     1 <1>   0.0800 
 25 H        3.1560     3.0930    -0.7530 H     1 <1>   0.0800 
 26 H        4.7290     1.2260    -0.3790 H     1 <1>   0.0800 
 27 H        4.9190     1.7160     1.2920 H     1 <1>   0.0800 
 28 H        5.7620     3.9250     0.5210 H     1 <1>   0.0800 
 29 H        5.6870     3.3720    -1.1330 H     1 <1>   0.0800 
 30 H        7.2280     2.0000     0.9700 H     1 <1>   0.4500 
 31 H        7.9100     4.3410     0.6130 H     1 <1>   0.0800 
 32 H        8.3770     3.8520    -0.9990 H     1 <1>   0.0800 
 33 H        8.3380     1.6060    -1.5320 H     1 <1>   0.0800 
 34 H        6.6200     1.3160    -1.6660 H     1 <1>   0.0800 
 35 H        9.3980     2.6030     1.5830 H     1 <1>   0.0800 
 36 H       10.2590     3.7620     0.6140 H     1 <1>   0.0800 
 37 H        9.9430     2.1840    -0.0360 H     1 <1>   0.0800 
 38 H        8.4550     0.0870     0.4240 H     1 <1>   0.0800 
 39 H        7.8030    -0.7210    -0.9710 H     1 <1>   0.0800 
 40 H        6.7260    -0.2100     0.2960 H     1 <1>   0.0800 
@<TRIPOS>BOND
  1   1   2  1   
  2   2   3  ar  
  3   2   4  ar  
  4   3   5  1   
  5   3   6  ar  
  6   4   7  1   
  7   4   8  ar  
  8   6   9  ar  
  9   6  19  1   
 10   7  10  1   
 11   8   9  ar  
 12   8  20  1   
 13   9  21  1   
 14  10  11  1   
 15  10  22  1   
 16  10  23  1   
 17  11  12  1   
 18  11  24  1   
 19  11  25  1   
 20  12  13  1   
 21  12  26  1   
 22  12  27  1   
 23  13  14  1   
 24  13  28  1   
 25  13  29  1   
 26  14  15  1   
 27  14  16  1   
 28  14  30  1   
 29  15  17  1   
 30  15  31  1   
 31  15  32  1   
 32  16  18  1   
 33  16  33  1   
 34  16  34  1   
 35  17  35  1   
 36  17  36  1   
 37  17  37  1   
 38  18  38  1   
 39  18  39  1   
 40  18  40  1   
@<TRIPOS>SUBSTRUCTURE
  1 ****  10 GROUP 4 **** **** 0

# MOE 2024.06 (io_trps.svl 2023.06)
