@<TRIPOS>MOLECULE
NONAME
41 43 1 0 0 
SMALL
USER_CHARGES


@<TRIPOS>ATOM
  1 S        0.4970    -0.7210     0.2240 S.3   1 <1>  -0.0800 
  2 C        1.6850     0.4730     0.7250 C.2   1 <1>   0.1040 
  3 C       -0.5620     0.5260    -0.3940 C.2   1 <1>  -0.1400 
  4 N        2.8830     0.0710     1.2980 N.am  1 <1>  -0.4940 
  5 C        1.2520     1.7430     0.4530 C.2   1 <1>  -0.0860 
  6 C       -0.0310     1.7460    -0.2200 C.2   1 <1>  -0.1810 
  7 C       -1.8730     0.1420    -1.0440 C.3   1 <1>   0.0200 
  8 C        3.3830    -1.1460     1.6900 C.2   1 <1>   0.5690 
  9 C        2.0080     2.9150     0.8190 C.2   1 <1>   0.7160 
 10 C       -0.7660     2.9770    -0.7420 C.3   1 <1>   0.0210 
 11 C       -2.7210     1.4070    -1.2590 C.3   1 <1>  -0.1600 
 12 O        2.7520    -2.1740     1.6710 O.2   1 <1>  -0.5700 
 13 C        4.8150    -1.1980     2.2160 C.3   1 <1>   0.1810 
 14 O        3.2150     2.8830     0.9670 O.2   1 <1>  -0.5700 
 15 N        1.4210     4.1020     1.0790 N.am  1 <1>  -0.8000 
 16 C       -1.8660     2.5910    -1.7520 C.3   1 <1>  -0.1600 
 17 O        5.6320    -0.1400     1.7160 O.3   1 <1>  -0.3630 
 18 C        5.8240     0.0540     0.3800 C.ar  1 <1>   0.0820 
 19 C        5.9540    -0.9550    -0.5830 C.ar  1 <1>   0.1900 
 20 C        5.8840     1.3770    -0.0410 C.ar  1 <1>  -0.1500 
 21 F        5.9480    -2.2180    -0.2410 F     1 <1>  -0.1900 
 22 C        6.1140    -0.6760    -1.9260 C.ar  1 <1>  -0.1500 
 23 C        6.0460     1.6850    -1.3830 C.ar  1 <1>  -0.1500 
 24 C        6.1540     0.6530    -2.2980 C.ar  1 <1>   0.1900 
 25 F        6.3050     0.9470    -3.5630 F     1 <1>  -0.1900 
 26 H        3.5600     0.8380     1.3940 H     1 <1>   0.3700 
 27 H       -2.4030    -0.5580    -0.4220 H     1 <1>   0.0800 
 28 H       -1.6640    -0.3290    -1.9880 H     1 <1>   0.0800 
 29 H       -0.0720     3.6410    -1.2260 H     1 <1>   0.0800 
 30 H       -1.2160     3.4920     0.0880 H     1 <1>   0.0800 
 31 H       -3.1830     1.6780    -0.3250 H     1 <1>   0.0800 
 32 H       -3.5040     1.1960    -1.9660 H     1 <1>   0.0800 
 33 H        5.2700    -2.1420     1.9860 H     1 <1>   0.0800 
 34 H        4.7880    -1.0990     3.2850 H     1 <1>   0.0800 
 35 H        2.0010     4.8630     1.4320 H     1 <1>   0.3700 
 36 H        0.4170     4.1790     1.2220 H     1 <1>   0.3700 
 37 H       -1.4000     2.3170    -2.6840 H     1 <1>   0.0800 
 38 H       -2.4950     3.4430    -1.9380 H     1 <1>   0.0800 
 39 H        5.7950     2.1690     0.6840 H     1 <1>   0.1500 
 40 H        6.2060    -1.4610    -2.6530 H     1 <1>   0.1500 
 41 H        6.0840     2.7070    -1.7150 H     1 <1>   0.1500 
@<TRIPOS>BOND
  1   1   2  1   
  2   1   3  1   
  3   2   4  1   
  4   2   5  2   
  5   3   6  2   
  6   3   7  1   
  7   4   8  am  
  8   4  26  1   
  9   5   6  1   
 10   5   9  1   
 11   6  10  1   
 12   7  11  1   
 13   7  27  1   
 14   7  28  1   
 15   8  12  2   
 16   8  13  1   
 17   9  14  2   
 18   9  15  am  
 19  10  16  1   
 20  10  29  1   
 21  10  30  1   
 22  11  16  1   
 23  11  31  1   
 24  11  32  1   
 25  13  17  1   
 26  13  33  1   
 27  13  34  1   
 28  15  35  1   
 29  15  36  1   
 30  16  37  1   
 31  16  38  1   
 32  17  18  1   
 33  18  19  ar  
 34  18  20  ar  
 35  19  21  1   
 36  19  22  ar  
 37  20  23  ar  
 38  20  39  1   
 39  22  24  ar  
 40  22  40  1   
 41  23  24  ar  
 42  23  41  1   
 43  24  25  1   
@<TRIPOS>SUBSTRUCTURE
  1 ****   2 GROUP 4 **** **** 0

# MOE 2024.06 (io_trps.svl 2023.06)
