@<TRIPOS>MOLECULE
NONAME
45 46 1 0 0 
SMALL
USER_CHARGES


@<TRIPOS>ATOM
  1 CL       0.1120     0.4260     0.8900 Cl    1 <1>  -0.1770 
  2 C        1.4860     1.3070     0.2600 C.ar  1 <1>   0.1770 
  3 C        1.4720     2.6950     0.2120 C.ar  1 <1>   0.0820 
  4 C        2.5730     0.5760    -0.1850 C.ar  1 <1>  -0.1500 
  5 O        0.3790     3.3650     0.6510 O.3   1 <1>  -0.3630 
  6 C        2.5980     3.3610    -0.2900 C.ar  1 <1>   0.0820 
  7 C        3.6830     1.2350    -0.6950 C.ar  1 <1>  -0.1440 
  8 C       -0.6440     3.5770    -0.2990 C.3   1 <1>   0.2640 
  9 O        2.7410     4.7110    -0.3800 O.3   1 <1>  -0.3630 
 10 C        3.6780     2.6230    -0.7480 C.ar  1 <1>  -0.1500 
 11 C        4.8900     0.4610    -1.1780 C.3   1 <1>   0.4870 
 12 C       -1.5370     4.7050     0.1920 C.ar  1 <1>  -0.1440 
 13 C        2.1550     5.5750     0.5710 C.3   1 <1>   0.1200 
 14 N        5.8440     0.4110    -0.0520 N.4   1 <1>  -0.9060 
 15 C       -2.2240     4.5780     1.3890 C.ar  1 <1>  -0.1500 
 16 C       -1.6740     5.8690    -0.5500 C.ar  1 <1>  -0.1500 
 17 C        2.9120     6.8990     0.5350 C.3   1 <1>  -0.2400 
 18 C        7.1030    -0.2930    -0.3720 C.3   1 <1>   0.3430 
 19 C       -3.0400     5.6010     1.8410 C.ar  1 <1>  -0.1500 
 20 C       -2.4900     6.8930    -0.1000 C.ar  1 <1>  -0.1500 
 21 C        7.9850    -0.2690     0.8670 C.3   1 <1>  -0.2400 
 22 C       -3.1740     6.7600     1.0960 C.ar  1 <1>  -0.1500 
 23 H        2.5250    -0.4980    -0.1270 H     1 <1>   0.1500 
 24 H       -1.2050     2.6660    -0.4040 H     1 <1>   0.0800 
 25 H       -0.1900     3.8340    -1.2410 H     1 <1>   0.0800 
 26 H        4.5170     3.1680    -1.1460 H     1 <1>   0.1500 
 27 H        5.3300     0.9610    -2.0260 H     1 <1>   0.0800 
 28 H        4.5980    -0.5350    -1.4730 H     1 <1>   0.0800 
 29 H        2.2220     5.1220     1.5450 H     1 <1>   0.0800 
 30 H        1.1230     5.7290     0.3080 H     1 <1>   0.0800 
 31 H        5.3820    -0.0360     0.7480 H     1 <1>   0.4500 
 32 H        6.0440     1.3740     0.2430 H     1 <1>   0.4500 
 33 H       -2.1200     3.6810     1.9760 H     1 <1>   0.1500 
 34 H       -1.1470     5.9870    -1.4810 H     1 <1>   0.1500 
 35 H        3.9440     6.7440     0.7910 H     1 <1>   0.0800 
 36 H        2.4810     7.5800     1.2460 H     1 <1>   0.0800 
 37 H        2.8440     7.3380    -0.4440 H     1 <1>   0.0800 
 38 H        7.6090     0.1970    -1.1900 H     1 <1>   0.0800 
 39 H        6.9000    -1.3150    -0.6550 H     1 <1>   0.0800 
 40 H       -3.5690     5.4950     2.7720 H     1 <1>   0.1500 
 41 H       -2.5920     7.7940    -0.6790 H     1 <1>   0.1500 
 42 H        8.2230     0.7410     1.1520 H     1 <1>   0.0800 
 43 H        8.9090    -0.7780     0.6540 H     1 <1>   0.0800 
 44 H        7.5110    -0.7760     1.6890 H     1 <1>   0.0800 
 45 H       -3.8080     7.5550     1.4460 H     1 <1>   0.1500 
@<TRIPOS>BOND
  1   1   2  1   
  2   2   3  ar  
  3   2   4  ar  
  4   3   5  1   
  5   3   6  ar  
  6   4   7  ar  
  7   4  23  1   
  8   5   8  1   
  9   6   9  1   
 10   6  10  ar  
 11   7  10  ar  
 12   7  11  1   
 13   8  12  1   
 14   8  24  1   
 15   8  25  1   
 16   9  13  1   
 17  10  26  1   
 18  11  14  1   
 19  11  27  1   
 20  11  28  1   
 21  12  15  ar  
 22  12  16  ar  
 23  13  17  1   
 24  13  29  1   
 25  13  30  1   
 26  14  18  1   
 27  14  31  1   
 28  14  32  1   
 29  15  19  ar  
 30  15  33  1   
 31  16  20  ar  
 32  16  34  1   
 33  17  35  1   
 34  17  36  1   
 35  17  37  1   
 36  18  21  1   
 37  18  38  1   
 38  18  39  1   
 39  19  22  ar  
 40  19  40  1   
 41  20  22  ar  
 42  20  41  1   
 43  21  42  1   
 44  21  43  1   
 45  21  44  1   
 46  22  45  1   
@<TRIPOS>SUBSTRUCTURE
  1 ****   3 GROUP 4 **** **** 0

# MOE 2024.06 (io_trps.svl 2023.06)
