@<TRIPOS>MOLECULE
NONAME
49 51 1 0 0 
SMALL
USER_CHARGES


@<TRIPOS>ATOM
  1 N        0.3400     0.6460     0.6790 N.pl3 1 <1>  -0.8380 
  2 C       -0.7630     1.0280    -0.0830 C.ar  1 <1>   0.1000 
  3 C        0.3930    -0.7650     1.1590 C.3   1 <1>   0.2090 
  4 C        1.6420     1.3270     0.4160 C.3   1 <1>   0.2090 
  5 C       -1.7990     1.7730     0.4820 C.ar  1 <1>  -0.1440 
  6 C       -0.8470     0.6670    -1.4250 C.ar  1 <1>  -0.1500 
  7 C        1.3810    -1.6130     0.3320 C.3   1 <1>   0.3430 
  8 C        2.6060     0.4300    -0.3870 C.3   1 <1>   0.3430 
  9 C       -2.8870     2.1380    -0.2920 C.ar  1 <1>  -0.1500 
 10 C       -1.7470     2.1920     1.9450 C.3   1 <1>  -0.0970 
 11 C       -1.9350     1.0350    -2.1920 C.ar  1 <1>  -0.1500 
 12 N        2.7320    -0.9600     0.1940 N.4   1 <1>  -0.9590 
 13 C       -2.9590     1.7720    -1.6250 C.ar  1 <1>  -0.1500 
 14 C        3.6860    -1.7980    -0.5800 C.3   1 <1>   0.4860 
 15 C        5.0520    -1.1460    -0.5170 C.ar  1 <1>  -0.1430 
 16 C        5.5580    -0.4780    -1.6220 C.ar  1 <1>  -0.1500 
 17 C        5.8030    -1.2020     0.6480 C.ar  1 <1>  -0.1500 
 18 C        6.7940     0.1400    -1.5560 C.ar  1 <1>  -0.1500 
 19 C        7.0380    -0.5820     0.7100 C.ar  1 <1>  -0.1500 
 20 C        7.5390     0.0950    -0.3900 C.ar  1 <1>  -0.1430 
 21 C        8.8980     0.7740    -0.3200 C.3   1 <1>  -0.0170 
 22 C       10.0030    -0.1940    -0.7460 C.3   1 <1>  -0.2400 
 23 H       -0.5910    -1.2000     1.0960 H     1 <1>   0.0800 
 24 H        0.6830    -0.7710     2.1950 H     1 <1>   0.0800 
 25 H        2.0930     1.5960     1.3550 H     1 <1>   0.0800 
 26 H        1.4650     2.2390    -0.1300 H     1 <1>   0.0800 
 27 H       -0.0600     0.0970    -1.8740 H     1 <1>   0.1500 
 28 H        0.9530    -1.7620    -0.6450 H     1 <1>   0.0800 
 29 H        1.4840    -2.5790     0.7980 H     1 <1>   0.0800 
 30 H        3.5730     0.9050    -0.4180 H     1 <1>   0.0800 
 31 H        2.2400     0.3660    -1.3970 H     1 <1>   0.0800 
 32 H       -3.6900     2.7120     0.1360 H     1 <1>   0.1500 
 33 H       -1.7190     1.3210     2.5720 H     1 <1>   0.0800 
 34 H       -2.6060     2.7800     2.2120 H     1 <1>   0.0800 
 35 H       -0.8630     2.7770     2.1240 H     1 <1>   0.0800 
 36 H       -1.9930     0.7520    -3.2290 H     1 <1>   0.1500 
 37 H        3.1340    -0.8420     1.1320 H     1 <1>   0.4500 
 38 H       -3.8090     2.0620    -2.2180 H     1 <1>   0.1500 
 39 H        3.3650    -1.8820    -1.6060 H     1 <1>   0.0800 
 40 H        3.7440    -2.7870    -0.1560 H     1 <1>   0.0800 
 41 H        5.0060    -0.4310    -2.5460 H     1 <1>   0.1500 
 42 H        5.4470    -1.7270     1.5180 H     1 <1>   0.1500 
 43 H        7.1830     0.6540    -2.4190 H     1 <1>   0.1500 
 44 H        7.6180    -0.6310     1.6160 H     1 <1>   0.1500 
 45 H        9.0850     1.1140     0.6840 H     1 <1>   0.0800 
 46 H        8.9080     1.6370    -0.9620 H     1 <1>   0.0800 
 47 H       10.0160    -1.0530    -0.0990 H     1 <1>   0.0800 
 48 H       10.9610     0.2920    -0.6950 H     1 <1>   0.0800 
 49 H        9.8380    -0.5270    -1.7560 H     1 <1>   0.0800 
@<TRIPOS>BOND
  1   1   2  1   
  2   1   3  1   
  3   1   4  1   
  4   2   5  ar  
  5   2   6  ar  
  6   3   7  1   
  7   3  23  1   
  8   3  24  1   
  9   4   8  1   
 10   4  25  1   
 11   4  26  1   
 12   5   9  ar  
 13   5  10  1   
 14   6  11  ar  
 15   6  27  1   
 16   7  12  1   
 17   7  28  1   
 18   7  29  1   
 19   8  12  1   
 20   8  30  1   
 21   8  31  1   
 22   9  13  ar  
 23   9  32  1   
 24  10  33  1   
 25  10  34  1   
 26  10  35  1   
 27  11  13  ar  
 28  11  36  1   
 29  12  14  1   
 30  12  37  1   
 31  13  38  1   
 32  14  15  1   
 33  14  39  1   
 34  14  40  1   
 35  15  16  ar  
 36  15  17  ar  
 37  16  18  ar  
 38  16  41  1   
 39  17  19  ar  
 40  17  42  1   
 41  18  20  ar  
 42  18  43  1   
 43  19  20  ar  
 44  19  44  1   
 45  20  21  1   
 46  21  22  1   
 47  21  45  1   
 48  21  46  1   
 49  22  47  1   
 50  22  48  1   
 51  22  49  1   
@<TRIPOS>SUBSTRUCTURE
  1 ****   8 GROUP 4 **** **** 0

# MOE 2024.06 (io_trps.svl 2023.06)
