@<TRIPOS>MOLECULE
NONAME
40 41 1 0 0 
SMALL
USER_CHARGES


@<TRIPOS>ATOM
  1 O        0.6870    -0.9950     1.8020 O.co2 1 <1>  -0.9000 
  2 C        0.8020    -2.2140     1.9530 C.2   1 <1>   0.9060 
  3 O        1.6520    -2.7020     2.7070 O.co2 1 <1>  -0.9000 
  4 C       -0.1360    -3.1490     1.2060 C.3   1 <1>  -0.1860 
  5 C        0.3390    -4.6230     1.1470 C.3   1 <1>  -0.0190 
  6 C       -0.4540    -2.6400    -0.2090 C.3   1 <1>  -0.0220 
  7 C        1.6340    -4.8490     0.3400 C.2   1 <1>   0.5690 
  8 C       -0.8400    -5.4780     0.6360 C.3   1 <1>  -0.0220 
  9 C       -1.3190    -3.6240    -1.0000 C.2   1 <1>  -0.2760 
 10 O        1.6350    -5.6030    -0.6080 O.2   1 <1>  -0.5700 
 11 N        2.7790    -4.2420     0.7630 N.am  1 <1>  -0.5470 
 12 C       -1.5100    -4.8950    -0.6100 C.2   1 <1>  -0.2760 
 13 C       -1.8870    -2.9580    -2.2480 C.3   1 <1>  -0.1020 
 14 C        4.0660    -4.2910     0.2650 C.ar  1 <1>   0.4270 
 15 C       -2.3780    -5.9390    -1.3030 C.3   1 <1>  -0.1020 
 16 N        5.0220    -4.1290     1.1690 N.ar  1 <1>  -0.6200 
 17 C        4.3340    -4.4790    -1.0900 C.ar  1 <1>  -0.1500 
 18 C        6.2640    -4.1620     0.7190 C.ar  1 <1>   0.1600 
 19 C        5.6320    -4.5150    -1.5450 C.ar  1 <1>  -0.1500 
 20 C        6.6300    -4.3510    -0.6060 C.ar  1 <1>  -0.1440 
 21 C        8.0870    -4.3780    -1.0330 C.3   1 <1>  -0.0970 
 22 H       -1.0510    -3.1240     1.7670 H     1 <1>   0.0800 
 23 H        0.5510    -4.9480     2.1500 H     1 <1>   0.0800 
 24 H        0.4630    -2.4610    -0.7430 H     1 <1>   0.0800 
 25 H       -0.9660    -1.6970    -0.1170 H     1 <1>   0.0800 
 26 H       -1.5800    -5.5490     1.4120 H     1 <1>   0.0800 
 27 H       -0.4880    -6.4750     0.4370 H     1 <1>   0.0800 
 28 H        2.6790    -3.6710     1.6240 H     1 <1>   0.3700 
 29 H       -2.5640    -2.1730    -1.9640 H     1 <1>   0.0800 
 30 H       -2.4100    -3.6430    -2.8830 H     1 <1>   0.0800 
 31 H       -1.0850    -2.5300    -2.8220 H     1 <1>   0.0800 
 32 H       -1.7550    -6.7260    -1.6890 H     1 <1>   0.0800 
 33 H       -2.9480    -5.5330    -2.1140 H     1 <1>   0.0800 
 34 H       -3.0710    -6.3610    -0.5980 H     1 <1>   0.0800 
 35 H        3.5190    -4.5910    -1.7790 H     1 <1>   0.1500 
 36 H        7.0360    -4.0290     1.4550 H     1 <1>   0.1500 
 37 H        5.8520    -4.6630    -2.5870 H     1 <1>   0.1500 
 38 H        8.3120    -5.3180    -1.5060 H     1 <1>   0.0800 
 39 H        8.7390    -4.2560    -0.1870 H     1 <1>   0.0800 
 40 H        8.2770    -3.5830    -1.7320 H     1 <1>   0.0800 
@<TRIPOS>BOND
  1   1   2  ar  
  2   2   3  ar  
  3   2   4  1   
  4   4   5  1   
  5   4   6  1   
  6   4  22  1   
  7   5   7  1   
  8   5   8  1   
  9   5  23  1   
 10   6   9  1   
 11   6  24  1   
 12   6  25  1   
 13   7  10  2   
 14   7  11  am  
 15   8  12  1   
 16   8  26  1   
 17   8  27  1   
 18   9  12  2   
 19   9  13  1   
 20  11  14  1   
 21  11  28  1   
 22  12  15  1   
 23  13  29  1   
 24  13  30  1   
 25  13  31  1   
 26  14  16  ar  
 27  14  17  ar  
 28  15  32  1   
 29  15  33  1   
 30  15  34  1   
 31  16  18  ar  
 32  17  19  ar  
 33  17  35  1   
 34  18  20  ar  
 35  18  36  1   
 36  19  20  ar  
 37  19  37  1   
 38  20  21  1   
 39  21  38  1   
 40  21  39  1   
 41  21  40  1   
@<TRIPOS>SUBSTRUCTURE
  1 ****   7 GROUP 4 **** **** 0

# MOE 2024.06 (io_trps.svl 2023.06)
