@<TRIPOS>MOLECULE
NONAME
39 41 1 0 0 
SMALL
USER_CHARGES


@<TRIPOS>ATOM
  1 O       -1.0800    -1.5200    -1.2300 O.2   1 <1>  -0.5700 
  2 C       -1.4040    -1.0000    -0.1810 C.2   1 <1>   0.7060 
  3 O       -0.6490    -1.2450     0.9000 O.3   1 <1>  -0.4300 
  4 C       -2.5410    -0.1450    -0.0250 C.2   1 <1>  -0.1240 
  5 C        0.5290    -2.0260     0.8210 C.3   1 <1>   0.0400 
  6 C       -3.6600    -0.0840    -0.8120 C.2   1 <1>  -0.0380 
  7 C       -2.4000     0.8110     1.1780 C.3   1 <1>   0.4570 
  8 N       -4.6780     0.8030    -0.5400 N.pl3 1 <1>  -0.5840 
  9 C       -3.9400    -0.9520    -2.0300 C.3   1 <1>  -0.1020 
 10 N       -3.6340     1.5950     1.4180 N.pl3 1 <1>   0.3140 
 11 C       -1.2290     1.7710     0.9590 C.ar  1 <1>  -0.1440 
 12 C       -4.6680     1.5850     0.6050 C.2   1 <1>   0.2700 
 13 N       -3.9320     2.3780     2.4410 N.2   1 <1>  -0.4180 
 14 C       -1.1600     2.5580    -0.1830 C.ar  1 <1>  -0.1500 
 15 C       -0.2130     1.8620     1.9000 C.ar  1 <1>  -0.1500 
 16 N       -5.5940     2.3440     1.0570 N.2   1 <1>  -0.3380 
 17 N       -5.1130     2.8290     2.2040 N.2   1 <1>   0.0000 
 18 C       -0.0930     3.4160    -0.3800 C.ar  1 <1>  -0.1500 
 19 C        0.8530     2.7210     1.7010 C.ar  1 <1>  -0.1500 
 20 C        0.9200     3.5030     0.5600 C.ar  1 <1>  -0.1430 
 21 C        2.0910     4.4470     0.3430 C.3   1 <1>  -0.0170 
 22 C        3.2280     3.7330    -0.3910 C.3   1 <1>  -0.2400 
 23 H        0.9690    -2.0810     1.8010 H     1 <1>   0.0800 
 24 H        1.2120    -1.5560     0.1350 H     1 <1>   0.0800 
 25 H        0.2720    -3.0120     0.4730 H     1 <1>   0.0800 
 26 H       -2.2320     0.2360     2.0700 H     1 <1>   0.0800 
 27 H       -5.5230     0.8570    -1.1190 H     1 <1>   0.4000 
 28 H       -3.7480    -0.3920    -2.9280 H     1 <1>   0.0800 
 29 H       -4.9680    -1.2670    -2.0340 H     1 <1>   0.0800 
 30 H       -3.3380    -1.8400    -2.0470 H     1 <1>   0.0800 
 31 H       -1.9360     2.5110    -0.9300 H     1 <1>   0.1500 
 32 H       -0.2410     1.2650     2.7960 H     1 <1>   0.1500 
 33 H       -0.0540     4.0170    -1.2720 H     1 <1>   0.1500 
 34 H        1.6330     2.7790     2.4390 H     1 <1>   0.1500 
 35 H        2.4450     4.8090     1.2930 H     1 <1>   0.0800 
 36 H        1.7700     5.2990    -0.2310 H     1 <1>   0.0800 
 37 H        3.5680     2.8890     0.1830 H     1 <1>   0.0800 
 38 H        4.0530     4.4050    -0.5410 H     1 <1>   0.0800 
 39 H        2.8870     3.3820    -1.3490 H     1 <1>   0.0800 
@<TRIPOS>BOND
  1   1   2  2   
  2   2   3  1   
  3   2   4  1   
  4   3   5  1   
  5   4   6  2   
  6   4   7  1   
  7   5  23  1   
  8   5  24  1   
  9   5  25  1   
 10   6   8  1   
 11   6   9  1   
 12   7  10  1   
 13   7  11  1   
 14   7  26  1   
 15   8  12  1   
 16   8  27  1   
 17   9  28  1   
 18   9  29  1   
 19   9  30  1   
 20  10  12  1   
 21  10  13  1   
 22  11  14  ar  
 23  11  15  ar  
 24  12  16  2   
 25  13  17  2   
 26  14  18  ar  
 27  14  31  1   
 28  15  19  ar  
 29  15  32  1   
 30  16  17  1   
 31  18  20  ar  
 32  18  33  1   
 33  19  20  ar  
 34  19  34  1   
 35  20  21  1   
 36  21  22  1   
 37  21  35  1   
 38  21  36  1   
 39  22  37  1   
 40  22  38  1   
 41  22  39  1   
@<TRIPOS>SUBSTRUCTURE
  1 ****  11 GROUP 4 **** **** 0

# MOE 2024.06 (io_trps.svl 2023.06)
