@<TRIPOS>MOLECULE
NONAME
39 40 1 0 0 
SMALL
USER_CHARGES


@<TRIPOS>ATOM
  1 O        0.0590    -0.9060    -0.0360 O.3   1 <1>  -0.3630 
  2 C       -1.2900    -1.0720     0.0040 C.ar  1 <1>   0.0830 
  3 C        0.6520     0.3690     0.0280 C.3   1 <1>   0.1200 
  4 C       -1.7810    -2.3740    -0.0660 C.ar  1 <1>  -0.1440 
  5 C       -2.1810    -0.0060     0.1120 C.ar  1 <1>  -0.1500 
  6 C        2.1670     0.1920    -0.0420 C.3   1 <1>  -0.1600 
  7 C       -3.1490    -2.5940    -0.0280 C.ar  1 <1>  -0.1500 
  8 C       -0.8280    -3.5540    -0.1830 C.3   1 <1>  -0.0970 
  9 C       -3.5440    -0.2380     0.1480 C.ar  1 <1>  -0.1500 
 10 C        2.8750     1.5440     0.0240 C.3   1 <1>   0.1200 
 11 C       -4.0290    -1.5310     0.0780 C.ar  1 <1>  -0.1500 
 12 O        4.2620     1.3160    -0.0450 O.3   1 <1>  -0.3630 
 13 C        5.1590     2.3380    -0.0100 C.ar  1 <1>   0.0830 
 14 C        6.5110     2.0110    -0.0840 C.ar  1 <1>  -0.1430 
 15 C        4.7800     3.6750     0.0970 C.ar  1 <1>  -0.1500 
 16 C        7.4630     3.0170    -0.0510 C.ar  1 <1>  -0.1500 
 17 C        6.9500     0.5580    -0.2000 C.3   1 <1>  -0.0970 
 18 C        5.7390     4.6710     0.1290 C.ar  1 <1>  -0.1500 
 19 C        7.0810     4.3430     0.0550 C.ar  1 <1>  -0.1500 
 20 H        0.3630     0.8280     0.9580 H     1 <1>   0.0800 
 21 H        0.2950     0.9490    -0.8050 H     1 <1>   0.0800 
 22 H       -1.8370     1.0080     0.1680 H     1 <1>   0.1500 
 23 H        2.4230    -0.2950    -0.9660 H     1 <1>   0.0800 
 24 H        2.4900    -0.4150     0.7850 H     1 <1>   0.0800 
 25 H       -3.5380    -3.5950    -0.0820 H     1 <1>   0.1500 
 26 H       -0.1690    -3.5750     0.6660 H     1 <1>   0.0800 
 27 H       -0.2360    -3.4550    -1.0760 H     1 <1>   0.0800 
 28 H       -1.3630    -4.4850    -0.2270 H     1 <1>   0.0800 
 29 H       -4.2300     0.5870     0.2310 H     1 <1>   0.1500 
 30 H        2.6610     2.0430     0.9530 H     1 <1>   0.0800 
 31 H        2.5930     2.1640    -0.8100 H     1 <1>   0.0800 
 32 H       -5.0890    -1.7120     0.1070 H     1 <1>   0.1500 
 33 H        3.7490     3.9610     0.1560 H     1 <1>   0.1500 
 34 H        8.5100     2.7750    -0.1080 H     1 <1>   0.1500 
 35 H        6.5990     0.0040     0.6510 H     1 <1>   0.0800 
 36 H        8.0200     0.4760    -0.2470 H     1 <1>   0.0800 
 37 H        6.5320     0.1230    -1.0910 H     1 <1>   0.0800 
 38 H        5.4440     5.7020     0.2110 H     1 <1>   0.1500 
 39 H        7.8280     5.1170     0.0790 H     1 <1>   0.1500 
@<TRIPOS>BOND
  1   1   2  1   
  2   1   3  1   
  3   2   4  ar  
  4   2   5  ar  
  5   3   6  1   
  6   3  20  1   
  7   3  21  1   
  8   4   7  ar  
  9   4   8  1   
 10   5   9  ar  
 11   5  22  1   
 12   6  10  1   
 13   6  23  1   
 14   6  24  1   
 15   7  11  ar  
 16   7  25  1   
 17   8  26  1   
 18   8  27  1   
 19   8  28  1   
 20   9  11  ar  
 21   9  29  1   
 22  10  12  1   
 23  10  30  1   
 24  10  31  1   
 25  11  32  1   
 26  12  13  1   
 27  13  14  ar  
 28  13  15  ar  
 29  14  16  ar  
 30  14  17  1   
 31  15  18  ar  
 32  15  33  1   
 33  16  19  ar  
 34  16  34  1   
 35  17  35  1   
 36  17  36  1   
 37  17  37  1   
 38  18  19  ar  
 39  18  38  1   
 40  19  39  1   
@<TRIPOS>SUBSTRUCTURE
  1 ****   6 GROUP 4 **** **** 0

# MOE 2024.06 (io_trps.svl 2023.06)
