@<TRIPOS>MOLECULE
NONAME
49 51 1 0 0 
SMALL
USER_CHARGES


@<TRIPOS>ATOM
  1 O        0.5830     0.2590     1.5340 O.2   1 <1>  -0.5700 
  2 C       -0.2620     1.0770     1.2540 C.2   1 <1>   0.5690 
  3 N       -0.2200     1.7810     0.0720 N.am  1 <1>  -0.6600 
  4 C       -1.3370     1.2990     2.2890 C.3   1 <1>   0.1570 
  5 C       -1.1730     2.8550    -0.3400 C.3   1 <1>   0.1400 
  6 C        0.8070     1.4680    -0.9650 C.3   1 <1>   0.1400 
  7 N       -2.5890     0.7120     1.8160 N.pl3 1 <1>   0.5800 
  8 C       -0.4020     4.1310    -0.6930 C.3   1 <1>  -0.1600 
  9 C        1.5980     2.7320    -1.3160 C.3   1 <1>  -0.1600 
 10 N       -2.8430    -0.5830     1.8280 N.2   1 <1>  -0.4180 
 11 N       -3.6010     1.4370     1.3860 N.2   1 <1>  -0.7070 
 12 C        0.6710     3.8710    -1.7590 C.3   1 <1>  -0.1600 
 13 N       -4.0250    -0.7100     1.3780 N.2   1 <1>  -0.2270 
 14 C       -4.4730     0.5220     1.1100 C.2   1 <1>   0.4620 
 15 C       -5.7970     0.7780     0.5650 C.ar  1 <1>   0.0540 
 16 C       -6.2690     2.0830     0.4140 C.ar  1 <1>  -0.1500 
 17 C       -6.6400    -0.2630     0.1730 C.ar  1 <1>  -0.1500 
 18 C       -7.5260     2.3520    -0.1120 C.ar  1 <1>   0.0830 
 19 C       -7.9020    -0.0220    -0.3560 C.ar  1 <1>   0.0830 
 20 O       -8.0030     3.6220    -0.2620 O.3   1 <1>  -0.3630 
 21 C       -8.3430     1.2920    -0.5010 C.ar  1 <1>   0.0830 
 22 O       -8.7410    -1.0290    -0.7410 O.3   1 <1>  -0.3630 
 23 C       -7.1850     4.7510    -0.0530 C.3   1 <1>   0.0400 
 24 O       -9.5650     1.5410    -1.0430 O.3   1 <1>  -0.3630 
 25 C       -8.3110    -2.3700    -0.8020 C.3   1 <1>   0.0400 
 26 C      -10.6230     1.6220    -0.1200 C.3   1 <1>   0.0400 
 27 H       -1.4750     2.3450     2.4720 H     1 <1>   0.0800 
 28 H       -1.0600     0.8150     3.2050 H     1 <1>   0.0800 
 29 H       -1.8730     3.0840     0.4410 H     1 <1>   0.0800 
 30 H       -1.7310     2.5160    -1.1960 H     1 <1>   0.0800 
 31 H        0.3130     1.0910    -1.8440 H     1 <1>   0.0800 
 32 H        1.4870     0.7070    -0.6190 H     1 <1>   0.0800 
 33 H        0.0610     4.5170     0.1980 H     1 <1>   0.0800 
 34 H       -1.0920     4.8750    -1.0520 H     1 <1>   0.0800 
 35 H        2.2950     2.5060    -2.1040 H     1 <1>   0.0800 
 36 H        2.1660     3.0350    -0.4540 H     1 <1>   0.0800 
 37 H        1.2460     4.7660    -1.9240 H     1 <1>   0.0800 
 38 H        0.1960     3.6050    -2.6880 H     1 <1>   0.0800 
 39 H       -5.6270     2.8850     0.7230 H     1 <1>   0.1500 
 40 H       -6.2890    -1.2700     0.2910 H     1 <1>   0.1500 
 41 H       -7.7570     5.6260    -0.3010 H     1 <1>   0.0800 
 42 H       -6.3240     4.6820    -0.6940 H     1 <1>   0.0800 
 43 H       -6.8960     4.7860     0.9830 H     1 <1>   0.0800 
 44 H       -9.1140    -2.9590    -1.2070 H     1 <1>   0.0800 
 45 H       -8.0760    -2.7080     0.1920 H     1 <1>   0.0800 
 46 H       -7.4520    -2.4330    -1.4470 H     1 <1>   0.0800 
 47 H      -11.5280     1.8210    -0.6640 H     1 <1>   0.0800 
 48 H      -10.4210     2.4220     0.5700 H     1 <1>   0.0800 
 49 H      -10.7010     0.6830     0.3990 H     1 <1>   0.0800 
@<TRIPOS>BOND
  1   1   2  2   
  2   2   3  am  
  3   2   4  1   
  4   3   5  1   
  5   3   6  1   
  6   4   7  1   
  7   4  27  1   
  8   4  28  1   
  9   5   8  1   
 10   5  29  1   
 11   5  30  1   
 12   6   9  1   
 13   6  31  1   
 14   6  32  1   
 15   7  10  1   
 16   7  11  1   
 17   8  12  1   
 18   8  33  1   
 19   8  34  1   
 20   9  12  1   
 21   9  35  1   
 22   9  36  1   
 23  10  13  2   
 24  11  14  2   
 25  12  37  1   
 26  12  38  1   
 27  13  14  1   
 28  14  15  1   
 29  15  16  ar  
 30  15  17  ar  
 31  16  18  ar  
 32  16  39  1   
 33  17  19  ar  
 34  17  40  1   
 35  18  20  1   
 36  18  21  ar  
 37  19  21  ar  
 38  19  22  1   
 39  20  23  1   
 40  21  24  1   
 41  22  25  1   
 42  23  41  1   
 43  23  42  1   
 44  23  43  1   
 45  24  26  1   
 46  25  44  1   
 47  25  45  1   
 48  25  46  1   
 49  26  47  1   
 50  26  48  1   
 51  26  49  1   
@<TRIPOS>SUBSTRUCTURE
  1 ****  14 GROUP 4 **** **** 0

# MOE 2024.06 (io_trps.svl 2023.06)
