@<TRIPOS>MOLECULE
NONAME
31 33 1 0 0 
SMALL
USER_CHARGES


@<TRIPOS>ATOM
  1 N       -0.1760     0.0350    -0.0510 N.2   1 <1>  -0.6520 
  2 N       -0.2100     1.4160     0.0520 N.pl3 1 <1>   0.5050 
  3 C       -1.2180    -0.5650     0.4350 C.2   1 <1>   0.4860 
  4 C       -1.2070     2.1530     0.5960 C.2   1 <1>   0.1420 
  5 C        0.6620     2.3510    -0.3330 C.2   1 <1>   0.0060 
  6 N       -1.2840    -1.9440     0.3630 N.pl3 1 <1>  -0.7880 
  7 C       -2.3160     0.1160     1.0330 C.2   1 <1>  -0.1360 
  8 N       -0.9370     3.4350     0.5340 N.2   1 <1>  -0.3380 
  9 C       -2.3230     1.4720     1.1190 C.2   1 <1>  -0.1050 
 10 N        0.2470     3.5480    -0.0550 N.2   1 <1>  -0.3380 
 11 C        1.9790     2.0350    -1.0140 C.3   1 <1>  -0.0600 
 12 C       -0.0170    -2.6950     0.5800 C.3   1 <1>   0.2090 
 13 C       -2.0870    -2.4860    -0.7630 C.3   1 <1>   0.2090 
 14 C       -0.3360    -4.1620     0.8850 C.3   1 <1>  -0.1600 
 15 C       -2.4440    -3.9490    -0.4810 C.3   1 <1>  -0.1600 
 16 C       -1.1900    -4.7970    -0.2220 C.3   1 <1>  -0.1600 
 17 H       -3.1210    -0.4860     1.4100 H     1 <1>   0.1500 
 18 H       -3.1220     2.0420     1.5590 H     1 <1>   0.1500 
 19 H        1.7980     1.5070    -1.9320 H     1 <1>   0.0800 
 20 H        2.5860     1.4240    -0.3710 H     1 <1>   0.0800 
 21 H        2.5090     2.9450    -1.2330 H     1 <1>   0.0800 
 22 H        0.5230    -2.2590     1.4040 H     1 <1>   0.0800 
 23 H        0.5960    -2.6250    -0.3020 H     1 <1>   0.0800 
 24 H       -1.5150    -2.4140    -1.6730 H     1 <1>   0.0800 
 25 H       -2.9880    -1.9080    -0.8820 H     1 <1>   0.0800 
 26 H       -0.8610    -4.2120     1.8230 H     1 <1>   0.0800 
 27 H        0.5830    -4.7100     0.9940 H     1 <1>   0.0800 
 28 H       -2.9850    -4.3510    -1.3190 H     1 <1>   0.0800 
 29 H       -3.0910    -3.9870     0.3770 H     1 <1>   0.0800 
 30 H       -1.4760    -5.7950     0.0630 H     1 <1>   0.0800 
 31 H       -0.6100    -4.8610    -1.1270 H     1 <1>   0.0800 
@<TRIPOS>BOND
  1   1   2  1   
  2   1   3  2   
  3   2   4  1   
  4   2   5  1   
  5   3   6  1   
  6   3   7  1   
  7   4   8  2   
  8   4   9  1   
  9   5  10  2   
 10   5  11  1   
 11   6  12  1   
 12   6  13  1   
 13   7   9  2   
 14   7  17  1   
 15   8  10  1   
 16   9  18  1   
 17  11  19  1   
 18  11  20  1   
 19  11  21  1   
 20  12  14  1   
 21  12  22  1   
 22  12  23  1   
 23  13  15  1   
 24  13  24  1   
 25  13  25  1   
 26  14  16  1   
 27  14  26  1   
 28  14  27  1   
 29  15  16  1   
 30  15  28  1   
 31  15  29  1   
 32  16  30  1   
 33  16  31  1   
@<TRIPOS>SUBSTRUCTURE
  1 ****   3 GROUP 4 **** **** 0

# MOE 2024.06 (io_trps.svl 2023.06)
