@<TRIPOS>MOLECULE
NONAME
50 51 1 0 0 
SMALL
USER_CHARGES


@<TRIPOS>ATOM
  1 O       -7.9790     3.0480    -2.0510 O.3   1 <1>  -0.3630 
  2 C       -6.8510     3.5530    -1.4900 C.ar  1 <1>   0.0830 
  3 C       -9.2020     3.6880    -1.7540 C.3   1 <1>   0.1200 
  4 C       -6.6680     3.6700    -0.1070 C.ar  1 <1>   0.0830 
  5 C       -5.8450     3.9500    -2.3540 C.ar  1 <1>  -0.1500 
  6 C      -10.1540     2.6530    -1.1490 C.3   1 <1>   0.1100 
  7 O       -7.6360     3.2390     0.7500 O.3   1 <1>  -0.3630 
  8 C       -5.4860     4.2210     0.3760 C.ar  1 <1>  -0.1500 
  9 C       -4.6680     4.4860    -1.8600 C.ar  1 <1>  -0.1500 
 10 N      -11.3340     3.2920    -0.5250 N.3   1 <1>  -0.8100 
 11 C       -7.2370     2.5210     1.8980 C.3   1 <1>   0.0400 
 12 C       -4.4850     4.6270    -0.4930 C.ar  1 <1>  -0.1430 
 13 C      -12.4260     2.3060    -0.3390 C.3   1 <1>   0.1100 
 14 C      -10.9840     3.9090     0.7830 C.3   1 <1>   0.1100 
 15 C       -3.1960     5.2270     0.0470 C.3   1 <1>  -0.0170 
 16 C      -13.6780     2.9280     0.3300 C.3   1 <1>   0.3430 
 17 C      -12.2100     4.5290     1.4960 C.3   1 <1>   0.3430 
 18 C       -3.3320     6.7460     0.1970 C.3   1 <1>  -0.1600 
 19 N      -13.4510     4.3730     0.6680 N.4   1 <1>  -0.9590 
 20 C       -2.0450     7.3760     0.7390 C.3   1 <1>  -0.2400 
 21 C      -14.6470     5.0470     1.2480 C.3   1 <1>   0.2630 
 22 H       -9.6010     4.0730    -2.6750 H     1 <1>   0.0800 
 23 H       -9.0130     4.5040    -1.0820 H     1 <1>   0.0800 
 24 H       -5.9890     3.8400    -3.4130 H     1 <1>   0.1500 
 25 H       -9.6280     2.0620    -0.4180 H     1 <1>   0.0800 
 26 H      -10.4720     2.0010    -1.9440 H     1 <1>   0.0800 
 27 H       -5.3380     4.3440     1.4310 H     1 <1>   0.1500 
 28 H       -3.8980     4.7940    -2.5450 H     1 <1>   0.1500 
 29 H       -8.1000     2.0200     2.2990 H     1 <1>   0.0800 
 30 H       -6.8430     3.2070     2.6260 H     1 <1>   0.0800 
 31 H       -6.4930     1.7960     1.6160 H     1 <1>   0.0800 
 32 H      -12.0770     1.4840     0.2620 H     1 <1>   0.0800 
 33 H      -12.7110     1.9060    -1.2980 H     1 <1>   0.0800 
 34 H      -10.2490     4.6820     0.6380 H     1 <1>   0.0800 
 35 H      -10.5390     3.1700     1.4290 H     1 <1>   0.0800 
 36 H       -2.3840     4.9990    -0.6230 H     1 <1>   0.0800 
 37 H       -2.9650     4.7850     1.0000 H     1 <1>   0.0800 
 38 H      -13.9150     2.3720     1.2210 H     1 <1>   0.0800 
 39 H      -14.5130     2.8380    -0.3450 H     1 <1>   0.0800 
 40 H      -12.0160     5.5740     1.6740 H     1 <1>   0.0800 
 41 H      -12.3420     4.0520     2.4530 H     1 <1>   0.0800 
 42 H       -4.1460     6.9660     0.8660 H     1 <1>   0.0800 
 43 H       -3.5660     7.1780    -0.7600 H     1 <1>   0.0800 
 44 H      -13.1890     4.7950    -0.2390 H     1 <1>   0.4500 
 45 H       -1.8060     6.9730     1.7080 H     1 <1>   0.0800 
 46 H       -2.1700     8.4410     0.8340 H     1 <1>   0.0800 
 47 H       -1.2220     7.1880     0.0710 H     1 <1>   0.0800 
 48 H      -14.9090     4.5980     2.1920 H     1 <1>   0.0800 
 49 H      -15.4870     4.9580     0.5780 H     1 <1>   0.0800 
 50 H      -14.4460     6.0940     1.4060 H     1 <1>   0.0800 
@<TRIPOS>BOND
  1   1   2  1   
  2   1   3  1   
  3   2   4  ar  
  4   2   5  ar  
  5   3   6  1   
  6   3  22  1   
  7   3  23  1   
  8   4   7  1   
  9   4   8  ar  
 10   5   9  ar  
 11   5  24  1   
 12   6  10  1   
 13   6  25  1   
 14   6  26  1   
 15   7  11  1   
 16   8  12  ar  
 17   8  27  1   
 18   9  12  ar  
 19   9  28  1   
 20  10  13  1   
 21  10  14  1   
 22  11  29  1   
 23  11  30  1   
 24  11  31  1   
 25  12  15  1   
 26  13  16  1   
 27  13  32  1   
 28  13  33  1   
 29  14  17  1   
 30  14  34  1   
 31  14  35  1   
 32  15  18  1   
 33  15  36  1   
 34  15  37  1   
 35  16  19  1   
 36  16  38  1   
 37  16  39  1   
 38  17  19  1   
 39  17  40  1   
 40  17  41  1   
 41  18  20  1   
 42  18  42  1   
 43  18  43  1   
 44  19  21  1   
 45  19  44  1   
 46  20  45  1   
 47  20  46  1   
 48  20  47  1   
 49  21  48  1   
 50  21  49  1   
 51  21  50  1   
@<TRIPOS>SUBSTRUCTURE
  1 ****   7 GROUP 4 **** **** 0

# MOE 2024.06 (io_trps.svl 2023.06)
